data_PCOD9072710
_publ_section_title
;
Structure prediction by ZEFSAII (Michael W. Deem and Ramdas Pophale) SiO2 
 PCOD9072710
Probable space group: P -1
;
_chemical_formula_sum "Si O2"
_cell_formula_units_Z 16
_cell_length_a 12.000000
_cell_length_b 18.000000
_cell_length_c 21.000000
_cell_angle_alpha 20.000000
_cell_angle_beta 150.000000
_cell_angle_gamma 140.000000
_cell_volume 744.844803
_symmetry_space_group_name_H-M "P -1"
_symmetry_group_IT_number 2
_symmetry_cell_setting 'triclinic'
loop_
_space_group_symop_operation_xyz
x,y,z
-x,-y,-z
loop_
_atom_site_type_symbol
_atom_site_label
_atom_site_fract_x
_atom_site_fract_y
_atom_site_fract_z
Si Si1 0.791331 0.342422 0.648250
Si Si2 0.030571 0.104578 0.842086
Si Si3 0.576529 0.122740 0.527858
Si Si4 0.760118 0.056692 0.167792
Si Si5 0.015668 0.216235 0.377139
Si Si6 0.236361 0.175378 0.762333
Si Si7 0.323473 0.423914 0.270151
Si Si8 0.428760 0.375030 0.126577
O O1 0.002453 0.233038 0.792009
O O2 0.787272 0.586397 0.476299
O O3 0.567675 0.386386 0.457559
O O4 0.800742 0.146618 0.861410
O O5 0.790393 0.075875 0.720061
O O6 0.104492 0.234716 0.715970
O O7 0.366635 0.277225 0.344158
O O8 0.582726 0.282754 0.340796
O O9 0.582021 0.871251 0.708343
O O10 0.863834 0.885549 0.414092
O O11 0.867794 0.977039 0.214734
O O12 0.496650 0.068539 0.005395
O O13 0.768330 0.302618 0.998669
O O14 0.167813 0.330913 0.316007
O O15 0.000000 0.000000 0.500000
O O16 0.789455 0.423810 0.116091
O O17 0.500000 0.500000 0.000000
#
# Coordination Sequence:
#
# PCOD9072710 Si02
#       8
#     2   2   2   2   2   2   2   2
#     4   9  20  37  60  95 126 163 207 248 314 375
#     4  10  20  35  63  90 125 167 202 254 309 376
#     4  10  24  42  63  91 122 167 210 259 316 364
#     4  10  24  39  62  95 128 168 208 258 319 373
#     4  12  26  42  68  94 122 171 216 263 318 377
#     4  10  21  38  60  93 131 163 206 256 312 378
#     4  10  22  44  65  90 131 164 208 262 311 379
#     4  11  26  43  62  90 124 161 212 267 313 370
#
# _framework density 21.480985
#
# number of rings (size 3 to 8) (size 9 to 14) (size 15 to 20)
#    0.000    1.750    0.000    2.625    5.250    3.000 
#    0.000    7.500    0.000    0.000    0.000    0.000 
#    0.000    0.000    0.000    0.000    0.000    0.000 
#
# Total GULP energy -89106.170701 kJ/mol
# GULP energy per Si atom -5569.135669 kJ/mol
# Density = 2.143209 g / cm^3
# Si number density = 21.480985 Si / 1000 Ang^3
#
#
#
# Elastic Constant Matrix: (Units=GPa)
#
#
# Indices 1 2 3 4 5 6 
#
# 1 80.3135 8.8507 24.1511 -8.7436 -5.8513 -10.1692
# 2 8.8507 49.9309 29.9249 -16.7854 4.8982 -25.2235
# 3 24.1511 29.9249 144.6884 -23.6937 -14.6335 -9.2912
# 4 -8.7436 -16.7854 -23.6937 26.8426 -9.7350 -2.6489
# 5 -5.8513 4.8982 -14.6335 -9.7350 40.9961 -3.5882
# 6 -10.1692 -25.2235 -9.2912 -2.6489 -3.5882 30.3630
#
#
#
# Elastic Compliance Matrix: (Units=1/GPa)
#
#
# Indices 1 2 3 4 5 6 
#
# 1 0.015230 0.008358 -0.000825 0.012625 0.005059 0.013490
# 2 0.008358 0.072760 -0.001224 0.058334 0.011987 0.069374
# 3 -0.000825 -0.001224 0.009828 0.010242 0.006262 0.003348
# 4 0.012625 0.058334 0.010242 0.104230 0.029223 0.068369
# 5 0.005059 0.011987 0.006262 0.029223 0.034626 0.020210
# 6 0.013490 0.069374 0.003348 0.068369 0.020210 0.104462
#
#
# Mechanical properties :
#
#
# Convention : Reuss Voigt Hill
#
# Bulk Modulus (GPa) = 9.05513 44.53182 26.79348
# Shear Modulus (GPa) = 13.68631 33.77406 23.73019
#
# Velocity S-wave (km/s) = 2.52689 3.96950 3.32732
# Velocity P-wave (km/s) = 3.56906 6.46413 5.22126
#
# Compressibility (1/GPa) = 0.11043460
#
# Stress axis : x y z
#
# Youngs Moduli (GPa) = 65.66203 13.74387 101.75310
#
# Poissons Ratio (x) = -0.11487 0.08398
# Poissons Ratio (y) = -0.54879 0.12451
# Poissons Ratio (z) = 0.05419 0.01682
#
# Static dielectric constant tensor:
#      x y z
#    x 1.879340 0.028490 0.117940 
#    y 0.028490 1.789690 -0.001250 
#    z 0.117940 -0.001250 1.813070 
# 
# From -- ./inp_files/595971.got.cif
#   From: 2010.05.17/outbox.ucp.g08.bks.cvg/sg2_298_cif.got.tgz:595971.got - 2010.06.11 11:32:03.
