data_PCOD9072644
_publ_section_title
;
Structure prediction by ZEFSAII (Michael W. Deem and Ramdas Pophale) SiO2 
 PCOD9072644
Probable space group: P -1
;
_chemical_formula_sum "Si O2"
_cell_formula_units_Z 16
_cell_length_a 12.894401
_cell_length_b 6.535664
_cell_length_c 8.450872
_cell_angle_alpha 103.501501
_cell_angle_beta 79.357537
_cell_angle_gamma 80.947512
_cell_volume 665.448903
_symmetry_space_group_name_H-M "P -1"
_symmetry_group_IT_number 2
_symmetry_cell_setting 'triclinic'
loop_
_space_group_symop_operation_xyz
x,y,z
-x,-y,-z
loop_
_atom_site_type_symbol
_atom_site_label
_atom_site_fract_x
_atom_site_fract_y
_atom_site_fract_z
Si Si1 0.262317 0.943470 0.842718
Si Si2 0.310109 0.878779 0.141695
Si Si3 0.530871 0.666971 0.399895
Si Si4 0.229861 0.355201 0.576775
Si Si5 0.251875 0.394105 0.226916
Si Si6 0.125313 0.401113 0.947082
Si Si7 0.435874 0.241074 0.925156
Si Si8 0.290450 0.872902 0.483579
O O1 0.159522 0.139555 0.899498
O O2 0.364092 0.070151 0.851362
O O3 0.270581 0.806713 0.656216
O O4 0.268277 0.808359 0.975743
O O5 0.258807 0.133408 0.203271
O O6 0.279067 0.774389 0.294625
O O7 0.439464 0.857130 0.093288
O O8 0.500000 0.500000 0.500000
O O9 0.641311 0.701283 0.447220
O O10 0.560298 0.605298 0.198771
O O11 0.421444 0.848672 0.447845
O O12 0.212519 0.467778 0.429621
O O13 0.172968 0.453011 0.772011
O O14 0.213638 0.108474 0.535201
O O15 0.175749 0.464593 0.109476
O O16 0.373501 0.366348 0.113862
O O17 0.000000 0.500000 0.000000
#
# Coordination Sequence:
#
# PCOD9072644 Si02
#       8
#     2   2   2   2   2   2   2   2
#     4   9  15  26  44  68  84 116 154 179 224 273
#     4   8  15  21  39  66  87 110 149 182 211 259
#     4  11  20  29  43  68 100 130 153 181 227 273
#     4  10  18  31  49  67  89 125 161 186 223 277
#     4   9  16  26  45  67  90 121 154 185 228 278
#     4   9  17  30  45  69 100 115 143 203 244 265
#     4   9  15  27  40  62  95 119 149 183 219 260
#     4   9  17  27  46  63  88 123 152 182 218 266
#
# _framework density 24.04392
#
# number of rings (size 3 to 8) (size 9 to 14) (size 15 to 20)
#    0.000    3.000    3.750    1.875    5.250    0.500 
#    0.000    0.625    0.000    0.000    0.000    3.500 
#    0.000   29.000    0.000    0.000    0.000    0.000 
#
# Total GULP energy -89109.166234 kJ/mol
# GULP energy per Si atom -5569.322890 kJ/mol
# Density = 2.398919 g / cm^3
# Si number density = 24.043920 Si / 1000 Ang^3
#
#
#
# Elastic Constant Matrix: (Units=GPa)
#
#
# Indices 1 2 3 4 5 6 
#
# 1 63.3118 39.5952 59.5913 4.5316 7.6057 -29.2835
# 2 39.5952 66.7489 66.4664 -7.0833 -1.8619 -20.8720
# 3 59.5913 66.4664 263.2593 -31.3348 27.8295 -14.6155
# 4 4.5316 -7.0833 -31.3348 51.4693 3.9935 4.0102
# 5 7.6057 -1.8619 27.8295 3.9935 30.1558 2.4436
# 6 -29.2835 -20.8720 -14.6155 4.0102 2.4436 33.3019
#
#
#
# Elastic Compliance Matrix: (Units=1/GPa)
#
#
# Indices 1 2 3 4 5 6 
#
# 1 0.045583 -0.012829 -0.005817 -0.011148 -0.007990 0.031418
# 2 -0.012829 0.029354 -0.005152 0.000992 0.009343 0.004051
# 3 -0.005817 -0.005152 0.007358 0.005153 -0.005894 -0.005303
# 4 -0.011148 0.000992 0.005153 0.024771 -0.004387 -0.009581
# 5 -0.007990 0.009343 -0.005894 -0.004387 0.042287 -0.006331
# 6 0.031418 0.004051 -0.005303 -0.009581 -0.006331 0.059485
#
#
# Mechanical properties :
#
#
# Convention : Reuss Voigt Hill
#
# Bulk Modulus (GPa) = 28.81911 80.51397 54.66654
# Shear Modulus (GPa) = 18.65675 38.16320 28.40998
#
# Velocity S-wave (km/s) = 2.78860 3.98833 3.44115
# Velocity P-wave (km/s) = 4.73080 7.40053 6.21081
#
# Compressibility (1/GPa) = 0.03469920
#
# Stress axis : x y z
#
# Youngs Moduli (GPa) = 21.93824 34.06671 135.90423
#
# Poissons Ratio (x) = 0.43703 0.79059
# Poissons Ratio (y) = 0.28144 0.70018
# Poissons Ratio (z) = 0.12762 0.17551
#
# Static dielectric constant tensor:
#      x y z
#    x 1.936400 0.173880 0.041400 
#    y 0.173880 2.204310 -0.053340 
#    z 0.041400 -0.053340 2.022800 
# 
# From -- ./inp_files/295195.got.cif
#   From: 2010.05.17/outbox.cif.g08.bks.cpg/sg2_148_cif.got.tgz:295195.got - 2010.06.03 11:33:40.
