data_PCOD9072064
_publ_section_title
;
Structure prediction by ZEFSAII (Michael W. Deem and Ramdas Pophale) SiO2 
 PCOD9072064
Probable space group: P -1
;
_chemical_formula_sum "Si O2"
_cell_formula_units_Z 16
_cell_length_a 9.006824
_cell_length_b 16.837823
_cell_length_c 9.949888
_cell_angle_alpha 80.697497
_cell_angle_beta 61.149899
_cell_angle_gamma 33.058244
_cell_volume 620.963657
_symmetry_space_group_name_H-M "P -1"
_symmetry_group_IT_number 2
_symmetry_cell_setting 'triclinic'
loop_
_space_group_symop_operation_xyz
x,y,z
-x,-y,-z
loop_
_atom_site_type_symbol
_atom_site_label
_atom_site_fract_x
_atom_site_fract_y
_atom_site_fract_z
Si Si1 0.893095 0.768128 0.523136
Si Si2 0.743729 0.230789 0.949273
Si Si3 0.417325 0.257017 0.669517
Si Si4 0.820373 0.249552 0.198843
Si Si5 0.599055 0.494308 0.108004
Si Si6 0.110091 0.512135 0.573066
Si Si7 0.358753 0.107415 0.686507
Si Si8 0.069598 0.988979 0.250132
O O1 0.634024 0.871281 0.479312
O O2 0.268947 0.622195 0.323898
O O3 0.883230 0.688647 0.628377
O O4 0.738651 0.912772 0.620692
O O5 0.437643 0.396387 0.941848
O O6 0.883206 0.087484 0.877579
O O7 0.077703 0.153601 0.816321
O O8 0.648840 0.276722 0.134676
O O9 0.147288 0.441084 0.705842
O O10 0.245981 0.240097 0.759808
O O11 0.653930 0.162636 0.723176
O O12 0.694283 0.140785 0.453351
O O13 0.878606 0.317034 0.107266
O O14 0.509474 0.378520 0.409034
O O15 0.117158 0.062612 0.167689
O O16 0.500000 0.500000 0.000000
O O17 0.000000 0.500000 0.500000
#
# Coordination Sequence:
#
# PCOD9072064 Si02
#       8
#     2   2   2   2   2   2   2   2
#     4   9  16  27  47  77  99 127 170 217 247 290
#     4  10  19  33  54  79 102 136 175 216 250 303
#     4  10  20  34  51  78 106 140 167 212 265 307
#     4   9  19  33  52  79 101 136 177 211 253 308
#     4   8  15  28  47  74 100 127 167 215 252 294
#     4  10  18  31  54  80 103 132 174 217 255 305
#     4  10  18  30  51  77 105 130 175 212 254 303
#     4  10  20  34  52  75 110 136 170 213 262 306
#
# _framework density 25.766400999999998
#
# number of rings (size 3 to 8) (size 9 to 14) (size 15 to 20)
#    0.000    2.500    1.250    2.625    1.750    0.000 
#    0.000    1.875    0.000    9.000    0.000    0.000 
#    0.000    0.000    0.000    0.000    0.000    0.000 
#
# Total GULP energy -89187.442284 kJ/mol
# GULP energy per Si atom -5574.215143 kJ/mol
# Density = 2.570776 g / cm^3
# Si number density = 25.766401 Si / 1000 Ang^3
#
#
#
# Elastic Constant Matrix: (Units=GPa)
#
#
# Indices 1 2 3 4 5 6 
#
# 1 13.1286 18.6582 12.8925 -6.0121 2.2621 4.4916
# 2 18.6582 225.1256 36.4237 -28.3377 1.8605 26.9770
# 3 12.8925 36.4237 82.8640 -13.2051 -14.9746 13.4633
# 4 -6.0121 -28.3377 -13.2051 28.0554 9.3680 0.5031
# 5 2.2621 1.8605 -14.9746 9.3680 18.4162 4.1344
# 6 4.4916 26.9770 13.4633 0.5031 4.1344 23.2621
#
#
#
# Elastic Compliance Matrix: (Units=1/GPa)
#
#
# Indices 1 2 3 4 5 6 
#
# 1 0.122996 -0.002520 -0.021872 0.029386 -0.047506 -0.000359
# 2 -0.002520 0.006374 -0.000962 0.006601 -0.003142 -0.005933
# 3 -0.021872 -0.000962 0.021691 -0.003525 0.024807 -0.011549
# 4 0.029386 0.006601 -0.003525 0.059002 -0.035762 -0.006210
# 5 -0.047506 -0.003142 0.024807 -0.035762 0.103102 -0.019092
# 6 -0.000359 -0.005933 -0.011549 -0.006210 -0.019092 0.060150
#
#
# Mechanical properties :
#
#
# Convention : Reuss Voigt Hill
#
# Bulk Modulus (GPa) = 9.96483 50.78522 30.37502
# Shear Modulus (GPa) = 10.92953 30.82297 20.87625
#
# Velocity S-wave (km/s) = 2.06179 3.46243 2.84951
# Velocity P-wave (km/s) = 3.08930 5.97806 4.75820
#
# Compressibility (1/GPa) = 0.10035298
#
# Stress axis : x y z
#
# Youngs Moduli (GPa) = 8.13034 156.87827 46.10149
#
# Poissons Ratio (x) = 0.39541 1.00835
# Poissons Ratio (y) = 0.02049 0.04433
# Poissons Ratio (z) = 0.17783 0.15085
#
# Static dielectric constant tensor:
#      x y z
#    x 2.066900 0.022850 -0.010520 
#    y 0.022850 2.126240 0.073400 
#    z -0.010520 0.073400 2.083790 
# 
# From -- ./inp_files/399041.got.cif
#   From: 2010.05.17/outbox.cif.g08.bks.cpg/sg2_200_cif.got.tgz:399041.got - 2010.06.03 11:33:40.
