data_PCOD9072638
_publ_section_title
;
Structure prediction by ZEFSAII (Michael W. Deem and Ramdas Pophale) SiO2 
 PCOD9072638
Probable space group: P -1
;
_chemical_formula_sum "Si O2"
_cell_formula_units_Z 14
_cell_length_a 15.000000
_cell_length_b 12.000000
_cell_length_c 15.000000
_cell_angle_alpha 120.000000
_cell_angle_beta 20.000000
_cell_angle_gamma 110.000000
_cell_volume 721.429718
_symmetry_space_group_name_H-M "P -1"
_symmetry_group_IT_number 2
_symmetry_cell_setting 'triclinic'
loop_
_space_group_symop_operation_xyz
x,y,z
-x,-y,-z
loop_
_atom_site_type_symbol
_atom_site_label
_atom_site_fract_x
_atom_site_fract_y
_atom_site_fract_z
Si Si1 0.519950 0.290636 0.884806
Si Si2 0.204712 0.578534 0.202568
Si Si3 0.285521 0.458632 0.622787
Si Si4 0.781200 0.742332 0.263192
Si Si5 0.054673 0.202193 0.217866
Si Si6 0.128266 0.921026 0.939967
Si Si7 0.732102 0.496045 0.545396
O O1 0.724496 0.293922 0.775342
O O2 0.756785 0.235290 0.562078
O O3 0.300168 0.456545 0.140640
O O4 0.305025 0.214743 0.048711
O O5 0.895435 0.589728 0.466838
O O6 0.442665 0.517388 0.877308
O O7 0.500000 0.500000 0.500000
O O8 0.253031 0.317892 0.630598
O O9 0.362404 0.456374 0.447077
O O10 0.976021 0.593719 0.973703
O O11 0.452674 0.809455 0.566846
O O12 0.941127 0.845498 0.133000
O O13 0.962124 0.329963 0.281659
O O14 0.157273 0.043494 0.021176
O O15 0.000000 0.000000 0.000000
#
# Coordination Sequence:
#
# PCOD9072638 Si02
#       7
#     2   2   2   2   2   2   2
#     4   9  17  33  51  81 117 149 182 224 295 348
#     4   9  18  31  53  82 116 144 183 239 284 349
#     4  11  24  42  62  83 119 155 201 248 286 337
#     4  11  25  40  60  82 115 160 194 240 293 328
#     4  10  20  33  56  83 118 153 181 227 288 357
#     4  12  24  40  58  88 121 155 196 237 284 355
#     4  10  21  33  56  87 113 149 189 234 294 336
#
# _framework density 19.405909999999999
#
# number of rings (size 3 to 8) (size 9 to 14) (size 15 to 20)
#    0.000    1.714    1.429    3.000    4.000    5.714 
#    0.000    0.000    0.000    0.000    0.000   20.000 
#    0.000    0.000    0.000    0.000    0.000    0.000 
#
# Total GULP energy -77952.457402 kJ/mol
# GULP energy per Si atom -5568.032672 kJ/mol
# Density = 1.936174 g / cm^3
# Si number density = 19.405910 Si / 1000 Ang^3
#
#
#
# Elastic Constant Matrix: (Units=GPa)
#
#
# Indices 1 2 3 4 5 6 
#
# 1 54.0379 27.0472 5.7002 0.8727 -7.3392 -1.3547
# 2 27.0472 120.9559 19.0353 -21.5658 -11.4097 -1.0657
# 3 5.7002 19.0353 84.7116 -15.5910 -16.9897 -7.3390
# 4 0.8727 -21.5658 -15.5910 34.4908 0.8094 -5.6077
# 5 -7.3392 -11.4097 -16.9897 0.8094 19.0472 -10.5034
# 6 -1.3547 -1.0657 -7.3390 -5.6077 -10.5034 28.4650
#
#
#
# Elastic Compliance Matrix: (Units=1/GPa)
#
#
# Indices 1 2 3 4 5 6 
#
# 1 0.022114 -0.004666 0.001363 -0.002395 0.009368 0.004214
# 2 -0.004666 0.011587 0.001828 0.008942 0.009719 0.006031
# 3 0.001363 0.001828 0.021888 0.013532 0.031668 0.020128
# 4 -0.002395 0.008942 0.013532 0.043749 0.026920 0.022262
# 5 0.009368 0.009719 0.031668 0.026920 0.121665 0.059172
# 6 0.004214 0.006031 0.020128 0.022262 0.059172 0.066966
#
#
# Mechanical properties :
#
#
# Convention : Reuss Voigt Hill
#
# Bulk Modulus (GPa) = 18.99709 40.36343 29.68026
# Shear Modulus (GPa) = 16.20927 30.26210 23.23569
#
# Velocity S-wave (km/s) = 2.89325 3.95324 3.46403
# Velocity P-wave (km/s) = 4.57949 6.45618 5.59705
#
# Compressibility (1/GPa) = 0.05263965
#
# Stress axis : x y z
#
# Youngs Moduli (GPa) = 45.22106 86.30083 45.68750
#
# Poissons Ratio (x) = 0.40265 -0.06229
# Poissons Ratio (y) = 0.21099 -0.08350
# Poissons Ratio (z) = -0.06166 -0.15773
#
# Static dielectric constant tensor:
#      x y z
#    x 1.757990 -0.002390 0.027700 
#    y -0.002390 1.707860 0.003470 
#    z 0.027700 0.003470 1.723310 
# 
# From -- ./inp_files/92926.got.cif
#   From: 2010.05.17/outbox.ucp.g08.bks.cvg/sg2_47_cif.got.tgz:92926.got - 2010.06.11 11:32:03.
