data_PCOD9072826
_publ_section_title
;
Structure prediction by ZEFSAII (Michael W. Deem and Ramdas Pophale) SiO2 
 PCOD9072826
Probable space group: P -1
;
_chemical_formula_sum "Si O2"
_cell_formula_units_Z 16
_cell_length_a 12.000000
_cell_length_b 15.000000
_cell_length_c 9.000000
_cell_angle_alpha 70.000000
_cell_angle_beta 70.000000
_cell_angle_gamma 30.000000
_cell_volume 757.522634
_symmetry_space_group_name_H-M "P -1"
_symmetry_group_IT_number 2
_symmetry_cell_setting 'triclinic'
loop_
_space_group_symop_operation_xyz
x,y,z
-x,-y,-z
loop_
_atom_site_type_symbol
_atom_site_label
_atom_site_fract_x
_atom_site_fract_y
_atom_site_fract_z
Si Si1 0.095435 0.536206 0.994598
Si Si2 0.733263 0.907094 0.774292
Si Si3 0.430095 0.781067 0.214391
Si Si4 0.067009 0.942304 0.675004
Si Si5 0.440411 0.414712 0.428408
Si Si6 0.444098 0.973891 0.681865
Si Si7 0.038719 0.176635 0.592623
Si Si8 0.817170 0.569881 0.651881
O O1 0.356229 0.370780 0.910358
O O2 0.926763 0.729456 0.890458
O O3 0.082565 0.540905 0.177617
O O4 0.000000 0.500000 0.000000
O O5 0.537820 0.964887 0.787706
O O6 0.861145 0.851525 0.593633
O O7 0.606430 0.085394 0.793286
O O8 0.501331 0.666504 0.388208
O O9 0.165108 0.935935 0.210085
O O10 0.316713 0.723938 0.678424
O O11 0.106413 0.021698 0.666877
O O12 0.000000 0.000000 0.500000
O O13 0.313917 0.417007 0.395725
O O14 0.232763 0.630507 0.401439
O O15 0.617887 0.770857 0.691978
O O16 0.500000 0.000000 0.500000
O O17 0.181277 0.129577 0.687434
O O18 0.000000 0.500000 0.500000
#
# Coordination Sequence:
#
# PCOD9072826 Si02
#       8
#     2   2   2   2   2   2   2   2
#     4  12  26  43  65  97 136 176 214 274 339 389
#     4  11  21  42  63  98 139 170 218 267 333 391
#     4  11  24  43  68  98 134 174 215 277 327 388
#     4  10  21  39  65 101 130 173 222 271 321 379
#     4  11  21  39  68  96 130 171 221 268 317 384
#     4  10  20  37  63  96 134 167 216 266 323 394
#     4  11  20  37  69 102 129 175 222 268 320 387
#     4  12  23  43  66  94 131 171 220 274 327 396
#
# _framework density 21.121480999999999
#
# number of rings (size 3 to 8) (size 9 to 14) (size 15 to 20)
#    0.000    1.000    6.250    3.000    0.000    4.500 
#    4.500    0.625    0.000    1.500    0.000    0.000 
#    0.000    0.000    0.000    0.000    0.000    0.000 
#
# Total GULP energy -89268.188273 kJ/mol
# GULP energy per Si atom -5579.261767 kJ/mol
# Density = 2.107341 g / cm^3
# Si number density = 21.121481 Si / 1000 Ang^3
#
#
#
# Elastic Constant Matrix: (Units=GPa)
#
#
# Indices 1 2 3 4 5 6 
#
# 1 71.1759 9.0734 19.5499 11.2943 8.1102 -23.9620
# 2 9.0734 150.0244 30.1479 1.9488 2.7183 -26.6678
# 3 19.5499 30.1479 85.4944 4.8322 3.4436 -17.0324
# 4 11.2943 1.9488 4.8322 34.2650 -8.3924 -7.2411
# 5 8.1102 2.7183 3.4436 -8.3924 19.2301 0.9093
# 6 -23.9620 -26.6678 -17.0324 -7.2411 0.9093 51.1327
#
#
#
# Elastic Compliance Matrix: (Units=1/GPa)
#
#
# Indices 1 2 3 4 5 6 
#
# 1 0.019842 0.001046 -0.002381 -0.007396 -0.011706 0.008212
# 2 0.001046 0.007740 -0.002151 0.000003 -0.001330 0.003835
# 3 -0.002381 -0.002151 0.013552 -0.000945 -0.001634 0.002172
# 4 -0.007396 0.000003 -0.000945 0.036698 0.019253 0.001075
# 5 -0.011706 -0.001330 -0.001634 0.019253 0.066066 -0.005172
# 6 0.008212 0.003835 0.002172 0.001075 -0.005172 0.026373
#
#
# Mechanical properties :
#
#
# Convention : Reuss Voigt Hill
#
# Bulk Modulus (GPa) = 29.27176 47.13747 38.20461
# Shear Modulus (GPa) = 26.50685 37.45382 31.98033
#
# Velocity S-wave (km/s) = 3.54640 4.21557 3.89538
# Velocity P-wave (km/s) = 5.53698 6.78679 6.19349
#
# Compressibility (1/GPa) = 0.03416262
#
# Stress axis : x y z
#
# Youngs Moduli (GPa) = 50.39720 129.19358 73.79229
#
# Poissons Ratio (x) = -0.13517 0.17568
# Poissons Ratio (y) = -0.05273 0.15875
# Poissons Ratio (z) = 0.11998 0.27794
#
# Static dielectric constant tensor:
#      x y z
#    x 1.868080 0.023250 0.018000 
#    y 0.023250 1.641060 0.088210 
#    z 0.018000 0.088210 1.729040 
# 
# From -- ./inp_files/272431.got.cif
#   From: 2010.05.17/outbox.ucp.g08.bks.cvg/sg2_137_cif.got.tgz:272431.got - 2010.06.11 11:32:03.
