data_PCOD9072595
_publ_section_title
;
Structure prediction by ZEFSAII (Michael W. Deem and Ramdas Pophale) SiO2 
 PCOD9072595
Probable space group: P -1
;
_chemical_formula_sum "Si O2"
_cell_formula_units_Z 16
_cell_length_a 9.000000
_cell_length_b 12.000000
_cell_length_c 21.000000
_cell_angle_alpha 150.000000
_cell_angle_beta 130.000000
_cell_angle_gamma 40.000000
_cell_volume 727.418465
_symmetry_space_group_name_H-M "P -1"
_symmetry_group_IT_number 2
_symmetry_cell_setting 'triclinic'
loop_
_space_group_symop_operation_xyz
x,y,z
-x,-y,-z
loop_
_atom_site_type_symbol
_atom_site_label
_atom_site_fract_x
_atom_site_fract_y
_atom_site_fract_z
Si Si1 0.627755 0.932637 0.236036
Si Si2 0.542497 0.320883 0.782560
Si Si3 0.738472 0.197432 0.502101
Si Si4 0.893739 0.427687 0.138829
Si Si5 0.593284 0.760066 0.788431
Si Si6 0.396108 0.164141 0.487881
Si Si7 0.317212 0.666870 0.771246
Si Si8 0.209690 0.883445 0.128936
O O1 0.691135 0.121449 0.382771
O O2 0.588977 0.988514 0.178804
O O3 0.826974 0.639594 0.168933
O O4 0.381311 0.985950 0.219113
O O5 0.281556 0.397100 0.766063
O O6 0.483599 0.511484 0.800794
O O7 0.674829 0.323732 0.882903
O O8 0.696744 0.004352 0.652020
O O9 0.672785 0.496266 0.637961
O O10 0.580327 0.158087 0.487986
O O11 0.000000 0.000000 0.500000
O O12 0.165859 0.263405 0.144212
O O13 0.791982 0.254844 0.004824
O O14 0.464835 0.738618 0.803135
O O15 0.258969 0.467175 0.621927
O O16 0.500000 0.000000 0.500000
O O17 0.062491 0.913942 0.837315
#
# Coordination Sequence:
#
# PCOD9072595 Si02
#       8
#     2   2   2   2   2   2   2   2
#     4  11  22  41  65  92 121 161 213 257 301 362
#     4  10  19  41  64  89 120 161 211 257 302 355
#     4  11  19  39  63  91 126 159 201 254 312 365
#     4  11  23  42  68  88 120 166 215 261 295 352
#     4  11  24  40  60  95 129 161 202 250 319 373
#     4   9  18  36  61  90 121 160 196 246 312 363
#     4  10  24  39  59  93 130 163 196 254 316 373
#     4  11  24  41  65  93 118 166 218 253 298 359
#
# _framework density 21.995591999999998
#
# number of rings (size 3 to 8) (size 9 to 14) (size 15 to 20)
#    0.000    1.500    3.750    2.625    0.000    6.000 
#    2.250    1.250    0.000    0.000    0.000    0.000 
#    0.000    0.000    0.000    0.000    0.000    0.000 
#
# Total GULP energy -89195.538111 kJ/mol
# GULP energy per Si atom -5574.721132 kJ/mol
# Density = 2.194553 g / cm^3
# Si number density = 21.995592 Si / 1000 Ang^3
#
#
#
# Elastic Constant Matrix: (Units=GPa)
#
#
# Indices 1 2 3 4 5 6 
#
# 1 -1.1270 -0.8235 11.6884 -6.1538 8.7361 48.6526
# 2 -0.8235 57.7151 6.8760 -14.7669 8.5763 47.4668
# 3 11.6884 6.8760 46.5412 -18.7439 -1.6616 -14.9866
# 4 -6.1538 -14.7669 -18.7439 27.3979 -12.8239 4.3284
# 5 8.7361 8.5763 -1.6616 -12.8239 11.8058 -2.3652
# 6 48.6526 47.4668 -14.9866 4.3284 -2.3652 16.9512
#
#
#
# Elastic Compliance Matrix: (Units=1/GPa)
#
#
# Indices 1 2 3 4 5 6 
#
# 1 0.012243 -0.018238 0.001402 -0.010814 -0.003465 0.019446
# 2 -0.018238 0.024629 0.016997 0.041246 0.041531 -0.006330
# 3 0.001402 0.016997 0.051604 0.087406 0.085540 -0.016381
# 4 -0.010814 0.041246 0.087406 0.231355 0.234943 -0.033475
# 5 -0.003465 0.041531 0.085540 0.234943 0.314973 -0.046768
# 6 0.019446 -0.006330 -0.016381 -0.033475 -0.046768 0.008443
#
#
# Mechanical properties :
#
#
# Convention : Reuss Voigt Hill
#
# Bulk Modulus (GPa) = 11.26124 15.40122 13.33123
# Shear Modulus (GPa) = 7.43469 16.92353 12.17911
#
# Velocity S-wave (km/s) = 1.84049 2.77683 2.35565
# Velocity P-wave (km/s) = 3.10603 4.15911 3.67053
#
# Compressibility (1/GPa) = 0.08880018
#
# Stress axis : x y z
#
# Youngs Moduli (GPa) = 81.67610 40.60335 19.37843
#
# Poissons Ratio (x) = 0.74051 -0.02718
# Poissons Ratio (y) = 1.48958 -0.32938
# Poissons Ratio (z) = -0.11455 -0.69015
#
# Static dielectric constant tensor:
#      x y z
#    x 1.717990 -0.003250 0.099460 
#    y -0.003250 1.695520 0.178270 
#    z 0.099460 0.178270 1.607320 
# 
# From -- ./inp_files/427407.got.cif
#   From: 2010.05.17/outbox.ucp.g08.bks.cvg/sg2_214_cif.got.tgz:427407.got - 2010.06.11 11:32:03.
