data_PCOD9072676
_publ_section_title
;
Structure prediction by ZEFSAII (Michael W. Deem and Ramdas Pophale) SiO2 
 PCOD9072676
Probable space group: P -1
;
_chemical_formula_sum "Si O2"
_cell_formula_units_Z 16
_cell_length_a 17.882749
_cell_length_b 10.102276
_cell_length_c 9.921851
_cell_angle_alpha 139.009380
_cell_angle_beta 34.851235
_cell_angle_gamma 123.205683
_cell_volume 659.431356
_symmetry_space_group_name_H-M "P -1"
_symmetry_group_IT_number 2
_symmetry_cell_setting 'triclinic'
loop_
_space_group_symop_operation_xyz
x,y,z
-x,-y,-z
loop_
_atom_site_type_symbol
_atom_site_label
_atom_site_fract_x
_atom_site_fract_y
_atom_site_fract_z
Si Si1 0.404825 0.679422 0.519576
Si Si2 0.336317 0.234740 0.320631
Si Si3 0.944215 0.692833 0.865917
Si Si4 0.689426 0.219985 0.539605
Si Si5 0.189059 0.070174 0.191791
Si Si6 0.415911 0.120774 0.407811
Si Si7 0.022555 0.979792 0.152789
Si Si8 0.786591 0.594506 0.791493
O O1 0.373294 0.452059 0.392731
O O2 0.416551 0.738533 0.391476
O O3 0.529385 0.721794 0.453336
O O4 0.278426 0.842019 0.891154
O O5 0.208055 0.191332 0.393746
O O6 0.344650 0.226869 0.463068
O O7 0.452484 0.045726 0.958573
O O8 0.819880 0.629100 0.925106
O O9 0.925983 0.831405 0.132850
O O10 0.065174 0.503204 0.561641
O O11 0.999019 0.830017 0.773123
O O12 0.832778 0.152153 0.204139
O O13 0.697419 0.425380 0.767629
O O14 0.667887 0.030047 0.513276
O O15 0.252670 0.198999 0.079644
O O16 0.045997 0.050490 0.323534
#
# Coordination Sequence:
#
# PCOD9072676 Si02
#       8
#     2   2   2   2   2   2   2   2
#     4  10  19  34  52  70 100 130 166 208 245 285
#     4  10  20  37  51  68  98 138 171 197 239 295
#     4   8  14  25  45  74 104 126 152 195 254 293
#     4  10  18  31  49  77 105 125 160 212 249 278
#     4   9  17  30  51  73 100 124 167 206 230 289
#     4  10  22  35  50  71 100 133 169 204 242 291
#     4   8  15  27  46  75 104 124 156 203 248 288
#     4   9  15  27  47  75 104 126 157 200 249 291
#
# _framework density 24.263328000000001
#
# number of rings (size 3 to 8) (size 9 to 14) (size 15 to 20)
#    0.000    2.750    1.250    0.750    0.000    0.500 
#    6.750    0.000    0.000    0.000    0.000   33.250 
#    0.000    0.000    0.000    0.000    0.000    0.000 
#
# Total GULP energy -89361.414543 kJ/mol
# GULP energy per Si atom -5585.088409 kJ/mol
# Density = 2.420810 g / cm^3
# Si number density = 24.263328 Si / 1000 Ang^3
#
#
#
# Elastic Constant Matrix: (Units=GPa)
#
#
# Indices 1 2 3 4 5 6 
#
# 1 205.9134 46.1421 35.0451 6.9543 51.3333 7.3750
# 2 46.1421 52.9690 14.8379 16.9182 20.3299 -3.0479
# 3 35.0451 14.8379 36.7964 15.3602 15.4441 7.2565
# 4 6.9543 16.9182 15.3602 31.4603 6.4942 7.7817
# 5 51.3333 20.3299 15.4441 6.4942 49.8225 13.1065
# 6 7.3750 -3.0479 7.2565 7.7817 13.1065 33.3471
#
#
#
# Elastic Compliance Matrix: (Units=1/GPa)
#
#
# Indices 1 2 3 4 5 6 
#
# 1 0.008017 -0.004996 -0.005377 0.004629 -0.005125 -0.000125
# 2 -0.004996 0.033065 0.000458 -0.017919 -0.009269 0.011852
# 3 -0.005377 0.000458 0.042084 -0.018162 -0.004856 -0.001780
# 4 0.004629 -0.017919 -0.018162 0.051391 0.004783 -0.012582
# 5 -0.005125 -0.009269 -0.004856 0.004783 0.033410 -0.012905
# 6 -0.000125 0.011852 -0.001780 -0.012582 -0.012905 0.039494
#
#
# Mechanical properties :
#
#
# Convention : Reuss Voigt Hill
#
# Bulk Modulus (GPa) = 15.78898 54.19213 34.99055
# Shear Modulus (GPa) = 20.12851 36.23624 28.18237
#
# Velocity S-wave (km/s) = 2.88338 3.86872 3.41181
# Velocity P-wave (km/s) = 4.19602 6.50688 5.47476
#
# Compressibility (1/GPa) = 0.06333533
#
# Stress axis : x y z
#
# Youngs Moduli (GPa) = 124.73660 30.24311 23.76198
#
# Poissons Ratio (x) = 0.15110 0.12777
# Poissons Ratio (y) = 0.62319 -0.01088
# Poissons Ratio (z) = 0.67074 -0.01385
#
# Static dielectric constant tensor:
#      x y z
#    x 2.012400 0.019280 0.002670 
#    y 0.019280 1.858060 -0.009530 
#    z 0.002670 -0.009530 2.031000 
# 
# From -- ./inp_files/202267.got.cif
#   From: 2010.05.17/outbox.cif.g08.bks.cpg/sg2_102_cif.got.tgz:202267.got - 2010.06.03 11:33:40.
