data_PCOD9072430
_publ_section_title
;
Structure prediction by ZEFSAII (Michael W. Deem and Ramdas Pophale) SiO2 
 PCOD9072430
Probable space group: P -1
;
_chemical_formula_sum "Si O2"
_cell_formula_units_Z 16
_cell_length_a 9.000000
_cell_length_b 12.000000
_cell_length_c 21.000000
_cell_angle_alpha 30.000000
_cell_angle_beta 130.000000
_cell_angle_gamma 140.000000
_cell_volume 727.418465
_symmetry_space_group_name_H-M "P -1"
_symmetry_group_IT_number 2
_symmetry_cell_setting 'triclinic'
loop_
_space_group_symop_operation_xyz
x,y,z
-x,-y,-z
loop_
_atom_site_type_symbol
_atom_site_label
_atom_site_fract_x
_atom_site_fract_y
_atom_site_fract_z
Si Si1 0.998210 0.905906 0.667328
Si Si2 0.874988 0.782438 0.016224
Si Si3 0.295928 0.808654 0.696924
Si Si4 0.388988 0.075270 0.785066
Si Si5 0.457413 0.500971 0.700136
Si Si6 0.372219 0.072608 0.978541
Si Si7 0.703116 0.117559 0.741431
Si Si8 0.153286 0.685636 0.572991
O O1 0.734205 0.676494 0.694011
O O2 0.138919 0.890031 0.653095
O O3 0.971003 0.153746 0.553827
O O4 0.138542 0.895079 0.772056
O O5 0.729992 0.878973 0.891495
O O6 0.750948 0.477800 0.153205
O O7 0.000000 0.000000 0.000000
O O8 0.104043 0.839993 0.015471
O O9 0.249550 0.784130 0.621818
O O10 0.555423 0.025159 0.682437
O O11 0.394387 0.292921 0.726757
O O12 0.569567 0.194937 0.716608
O O13 0.490443 0.917417 0.925849
O O14 0.344465 0.677464 0.585652
O O15 0.385033 0.332594 0.829533
O O16 0.500000 0.000000 0.000000
O O17 0.952911 0.375869 0.673339
#
# Coordination Sequence:
#
# PCOD9072430 Si02
#       8
#     2   2   2   2   2   2   2   2
#     4  11  26  43  64  92 128 175 216 255 310 380
#     4  12  19  39  67  93 131 161 204 267 321 375
#     4  11  24  41  66  97 126 166 212 263 318 378
#     4  10  23  41  64  94 126 167 211 261 318 378
#     4  11  23  42  64  90 127 172 211 263 316 368
#     4  10  19  36  63  89 124 164 201 253 320 368
#     4  11  23  40  66  98 127 167 210 261 320 376
#     4  12  24  43  65  94 130 168 215 262 312 372
#
# _framework density 21.995591999999998
#
# number of rings (size 3 to 8) (size 9 to 14) (size 15 to 20)
#    0.000    1.000    3.750    3.375    0.000    5.000 
#    0.000    0.000    0.000    0.000    0.000    0.000 
#    0.000    0.000    0.000    0.000    0.000    0.000 
#
# Total GULP energy -89225.682418 kJ/mol
# GULP energy per Si atom -5576.605151 kJ/mol
# Density = 2.194553 g / cm^3
# Si number density = 21.995592 Si / 1000 Ang^3
#
#
#
# Elastic Constant Matrix: (Units=GPa)
#
#
# Indices 1 2 3 4 5 6 
#
# 1 93.7975 60.2257 4.1949 -2.4654 17.4361 4.4645
# 2 60.2257 103.1875 23.2915 18.7873 -0.9454 -1.1616
# 3 4.1949 23.2915 70.2499 -1.8692 16.3020 2.4262
# 4 -2.4654 18.7873 -1.8692 26.9215 0.5792 9.0363
# 5 17.4361 -0.9454 16.3020 0.5792 33.1647 -5.2752
# 6 4.4645 -1.1616 2.4262 9.0363 -5.2752 19.3057
#
#
#
# Elastic Compliance Matrix: (Units=1/GPa)
#
#
# Indices 1 2 3 4 5 6 
#
# 1 0.089356 -0.086155 0.051881 0.110880 -0.094378 -0.110054
# 2 -0.086155 0.096775 -0.056460 -0.120142 0.096257 0.115377
# 3 0.051881 -0.056460 0.049837 0.074047 -0.066525 -0.074494
# 4 0.110880 -0.120142 0.074047 0.195727 -0.128395 -0.168871
# 5 -0.094378 0.096257 -0.066525 -0.128395 0.138770 0.133992
# 6 -0.110054 0.115377 -0.074494 -0.168871 0.133992 0.209207
#
#
# Mechanical properties :
#
#
# Convention : Reuss Voigt Hill
#
# Bulk Modulus (GPa) = 18.34837 49.18435 33.76636
# Shear Modulus (GPa) = 5.10566 27.84658 16.47612
#
# Velocity S-wave (km/s) = 1.52521 3.56196 2.73987
# Velocity P-wave (km/s) = 3.38550 6.27107 5.03924
#
# Compressibility (1/GPa) = 0.05450075
#
# Stress axis : x y z
#
# Youngs Moduli (GPa) = 11.19117 10.33327 20.06555
#
# Poissons Ratio (x) = 0.89026 -1.04102
# Poissons Ratio (y) = 0.96418 1.13289
# Poissons Ratio (z) = -0.58061 0.58341
#
# Static dielectric constant tensor:
#      x y z
#    x 1.839940 -0.017520 -0.036950 
#    y -0.017520 1.752360 0.023400 
#    z -0.036950 0.023400 1.892690 
# 
# From -- ./inp_files/259018.got.cif
#   From: 2010.05.17/outbox.ucp.g08.bks.cvg/sg2_130_cif.got.tgz:259018.got - 2010.06.11 11:32:03.
