data_PCOD9072472
_publ_section_title
;
Structure prediction by ZEFSAII (Michael W. Deem and Ramdas Pophale) SiO2 
 PCOD9072472
Probable space group: P -1
;
_chemical_formula_sum "Si O2"
_cell_formula_units_Z 16
_cell_length_a 13.436256
_cell_length_b 25.094433
_cell_length_c 7.680313
_cell_angle_alpha 45.506787
_cell_angle_beta 132.883461
_cell_angle_gamma 159.169262
_cell_volume 653.573981
_symmetry_space_group_name_H-M "P -1"
_symmetry_group_IT_number 2
_symmetry_cell_setting 'triclinic'
loop_
_space_group_symop_operation_xyz
x,y,z
-x,-y,-z
loop_
_atom_site_type_symbol
_atom_site_label
_atom_site_fract_x
_atom_site_fract_y
_atom_site_fract_z
Si Si1 0.002615 0.963369 0.330710
Si Si2 0.425261 0.733251 0.801125
Si Si3 0.242141 0.691649 0.292789
Si Si4 0.918152 0.840522 0.831989
Si Si5 0.955485 0.185473 0.631893
Si Si6 0.522735 0.645215 0.314833
Si Si7 0.637855 0.178004 0.210556
Si Si8 0.709454 0.455758 0.380863
O O1 0.065860 0.926529 0.626370
O O2 0.701751 0.795406 0.286390
O O3 0.244995 0.088258 0.194920
O O4 0.011433 0.048465 0.236927
O O5 0.373522 0.732976 0.541625
O O6 0.276728 0.712924 0.812041
O O7 0.379646 0.624132 0.039038
O O8 0.209449 0.593631 0.390452
O O9 0.963016 0.602299 0.222346
O O10 0.397525 0.813452 0.050961
O O11 0.587167 0.680008 0.759818
O O12 0.990250 0.806813 0.118098
O O13 0.880695 0.233448 0.386415
O O14 0.232961 0.289961 0.620652
O O15 0.658123 0.999637 0.669474
O O16 0.328701 0.524827 0.519169
#
# Coordination Sequence:
#
# PCOD9072472 Si02
#       8
#     2   2   2   2   2   2   2   2
#     4  10  18  30  59  94 118 147 195 257 300 351
#     4  12  20  37  64  90 119 160 202 247 308 352
#     4  11  23  42  60  89 127 162 202 250 303 353
#     4  10  19  34  59  89 120 157 200 249 305 349
#     4  11  22  40  61  91 126 156 198 248 311 366
#     4  11  20  35  63  93 121 153 203 255 297 357
#     4  11  25  42  59  91 130 160 191 252 308 368
#     4  10  22  39  62  92 122 156 209 260 288 349
#
# _framework density 24.480778000000001
#
# number of rings (size 3 to 8) (size 9 to 14) (size 15 to 20)
#    0.000    1.250    5.000    1.875    1.750    0.500 
#    6.750    3.125    0.000    0.000    0.000    0.000 
#    0.000    0.000    0.000    0.000    0.000    0.000 
#
# Total GULP energy -89339.355824 kJ/mol
# GULP energy per Si atom -5583.709739 kJ/mol
# Density = 2.442506 g / cm^3
# Si number density = 24.480778 Si / 1000 Ang^3
#
#
#
# Elastic Constant Matrix: (Units=GPa)
#
#
# Indices 1 2 3 4 5 6 
#
# 1 104.9405 16.6555 63.7469 -3.7253 -10.7761 36.0026
# 2 16.6555 51.3528 -0.4552 6.0831 6.2449 19.9684
# 3 63.7469 -0.4552 127.2657 20.0911 -5.1748 9.4933
# 4 -3.7253 6.0831 20.0911 28.4791 7.0336 -5.0186
# 5 -10.7761 6.2449 -5.1748 7.0336 31.4510 5.8314
# 6 36.0026 19.9684 9.4933 -5.0186 5.8314 37.5805
#
#
#
# Elastic Compliance Matrix: (Units=1/GPa)
#
#
# Indices 1 2 3 4 5 6 
#
# 1 0.025353 -0.002053 -0.011675 0.005889 0.009745 -0.020974
# 2 -0.002053 0.027494 0.004112 -0.011718 -0.000040 -0.015239
# 3 -0.011675 0.004112 0.015469 -0.012703 -0.000062 0.003406
# 4 0.005889 -0.011718 -0.012703 0.052497 -0.011830 0.012640
# 5 0.009745 -0.000040 -0.000062 -0.011830 0.040974 -0.017237
# 6 -0.020974 -0.015239 0.003406 0.012640 -0.017237 0.058302
#
#
# Mechanical properties :
#
#
# Convention : Reuss Voigt Hill
#
# Bulk Modulus (GPa) = 20.37391 49.27261 34.82326
# Shear Modulus (GPa) = 19.55545 33.07624 26.31584
#
# Velocity S-wave (km/s) = 2.82939 3.67973 3.28221
# Velocity P-wave (km/s) = 4.36055 6.18261 5.34972
#
# Compressibility (1/GPa) = 0.04908237
#
# Stress axis : x y z
#
# Youngs Moduli (GPa) = 39.44370 36.37131 64.64468
#
# Poissons Ratio (x) = 0.07468 0.75474
# Poissons Ratio (y) = 0.08099 -0.26581
# Poissons Ratio (z) = 0.46051 -0.14955
#
# Static dielectric constant tensor:
#      x y z
#    x 1.947900 -0.006180 -0.034390 
#    y -0.006180 2.052150 0.030230 
#    z -0.034390 0.030230 1.981490 
# 
# From -- ./inp_files/321054.got.cif
#   From: 2010.05.17/outbox.cif.g08.bks.cpg/sg2_161_cif.got.tgz:321054.got - 2010.06.03 11:33:40.
