data_PCOD9072801
_publ_section_title
;
Structure prediction by ZEFSAII (Michael W. Deem and Ramdas Pophale) SiO2 
 PCOD9072801
Probable space group: P -1
;
_chemical_formula_sum "Si O2"
_cell_formula_units_Z 16
_cell_length_a 16.552500
_cell_length_b 5.184776
_cell_length_c 22.535595
_cell_angle_alpha 55.271775
_cell_angle_beta 149.537371
_cell_angle_gamma 114.633870
_cell_volume 792.951967
_symmetry_space_group_name_H-M "P -1"
_symmetry_group_IT_number 2
_symmetry_cell_setting 'triclinic'
loop_
_space_group_symop_operation_xyz
x,y,z
-x,-y,-z
loop_
_atom_site_type_symbol
_atom_site_label
_atom_site_fract_x
_atom_site_fract_y
_atom_site_fract_z
Si Si1 0.311640 0.307257 0.889012
Si Si2 0.880411 0.991140 0.287713
Si Si3 0.170765 0.271873 0.466701
Si Si4 0.332087 0.679781 0.441556
Si Si5 0.499943 0.682374 0.882339
Si Si6 0.772721 0.731435 0.370194
Si Si7 0.481374 0.748035 0.733962
Si Si8 0.547552 0.010738 0.624433
O O1 0.193488 0.114931 0.805611
O O2 0.935497 0.957322 0.601284
O O3 0.214895 0.654622 0.801984
O O4 0.398675 0.171996 0.022411
O O5 0.853866 0.746323 0.355559
O O6 0.549245 0.630285 0.077856
O O7 0.179875 0.575709 0.391820
O O8 0.116384 0.334208 0.492416
O O9 0.354778 0.083078 0.614202
O O10 0.444488 0.351859 0.533963
O O11 0.313139 0.909330 0.341911
O O12 0.429865 0.841059 0.531529
O O13 0.572219 0.662230 0.864987
O O14 0.327912 0.911204 0.734771
O O15 0.638275 0.506224 0.316243
O O16 0.585230 0.795793 0.735299
#
# Coordination Sequence:
#
# PCOD9072801 Si02
#       8
#     2   2   2   2   2   2   2   2
#     4  10  22  36  51  70  94 132 171 210 236 276
#     4  11  23  34  49  71 101 136 168 193 235 290
#     4  10  21  32  47  73 104 135 160 191 239 299
#     4   9  17  30  46  68  97 130 154 195 233 289
#     4   9  20  34  51  70  96 126 169 211 249 272
#     4  10  19  32  48  73 100 132 161 199 242 288
#     4  10  18  31  51  73 101 129 157 202 247 291
#     4   9  17  29  47  70  97 122 160 193 243 285
#
# _framework density 20.177765999999998
#
# number of rings (size 3 to 8) (size 9 to 14) (size 15 to 20)
#    0.000    2.250    2.500    0.375    3.500    2.000 
#    0.000    0.000    0.000    0.000    0.000    1.750 
#    0.000    0.000    0.000    0.000    0.000    0.000 
#
# Total GULP energy -89186.030112 kJ/mol
# GULP energy per Si atom -5574.126882 kJ/mol
# Density = 2.013184 g / cm^3
# Si number density = 20.177766 Si / 1000 Ang^3
#
#
#
# Elastic Constant Matrix: (Units=GPa)
#
#
# Indices 1 2 3 4 5 6 
#
# 1 98.4491 36.6391 51.5242 12.1956 -46.6138 19.0399
# 2 36.6391 105.3462 26.2609 24.5629 -21.4748 -0.2063
# 3 51.5242 26.2609 82.6745 26.2412 -34.6684 6.2743
# 4 12.1956 24.5629 26.2412 34.8230 -12.6111 -3.3947
# 5 -46.6138 -21.4748 -34.6684 -12.6111 37.4740 -7.6341
# 6 19.0399 -0.2063 6.2743 -3.3947 -7.6341 35.4949
#
#
#
# Elastic Compliance Matrix: (Units=1/GPa)
#
#
# Indices 1 2 3 4 5 6 
#
# 1 0.029694 -0.004511 -0.006673 0.007611 0.029156 -0.007776
# 2 -0.004511 0.012720 0.001510 -0.008135 0.000661 0.001591
# 3 -0.006673 0.001510 0.024494 -0.013229 0.010840 0.000325
# 4 0.007611 -0.008135 -0.013229 0.045351 0.008730 0.004423
# 5 0.029156 0.000661 0.010840 0.008730 0.076231 -0.000321
# 6 -0.007776 0.001591 0.000325 0.004423 -0.000321 0.032650
#
#
# Mechanical properties :
#
#
# Convention : Reuss Voigt Hill
#
# Bulk Modulus (GPa) = 21.02591 57.25759 39.14175
# Shear Modulus (GPa) = 19.50518 33.02810 26.26664
#
# Velocity S-wave (km/s) = 3.11250 4.05020 3.61191
# Velocity P-wave (km/s) = 4.83320 7.09298 6.06919
#
# Compressibility (1/GPa) = 0.04756037
#
# Stress axis : x y z
#
# Youngs Moduli (GPa) = 33.67655 78.61782 40.82564
#
# Poissons Ratio (x) = 0.35462 0.27242
# Poissons Ratio (y) = 0.15190 -0.06163
# Poissons Ratio (z) = 0.22472 -0.11867
#
# Static dielectric constant tensor:
#      x y z
#    x 1.822730 -0.023630 -0.027350 
#    y -0.023630 1.775370 -0.044260 
#    z -0.027350 -0.044260 1.758540 
# 
# From -- ./inp_files/598770.got.cif
#   From: 2010.05.17/outbox.cif.g08.bks.cpg/sg2_300_cif.got.tgz:598770.got - 2010.06.03 11:33:40.
