data_PCOD9072353
_publ_section_title
;
Structure prediction by ZEFSAII (Michael W. Deem and Ramdas Pophale) SiO2 
 PCOD9072353
Probable space group: P -1
;
_chemical_formula_sum "Si O2"
_cell_formula_units_Z 14
_cell_length_a 21.082018
_cell_length_b 5.528893
_cell_length_c 11.345980
_cell_angle_alpha 90.210813
_cell_angle_beta 156.345751
_cell_angle_gamma 82.334783
_cell_volume 501.969466
_symmetry_space_group_name_H-M "P -1"
_symmetry_group_IT_number 2
_symmetry_cell_setting 'triclinic'
loop_
_space_group_symop_operation_xyz
x,y,z
-x,-y,-z
loop_
_atom_site_type_symbol
_atom_site_label
_atom_site_fract_x
_atom_site_fract_y
_atom_site_fract_z
Si Si1 0.154583 0.740571 0.758542
Si Si2 0.143145 0.682270 0.470023
Si Si3 0.271174 0.366585 0.137983
Si Si4 0.327515 0.587637 0.548316
Si Si5 0.970704 0.761617 0.821474
Si Si6 0.358697 0.823272 0.313325
Si Si7 0.601054 0.947206 0.294204
O O1 0.193344 0.656741 0.691166
O O2 0.137322 0.512510 0.812905
O O3 0.298253 0.813974 0.074578
O O4 0.000000 0.000000 0.500000
O O5 0.298404 0.604487 0.642687
O O6 0.039567 0.487168 0.266658
O O7 0.047429 0.984643 0.285143
O O8 0.297245 0.596902 0.260279
O O9 0.443621 0.259780 0.356102
O O10 0.269655 0.113160 0.200266
O O11 0.421791 0.788997 0.677110
O O12 0.426164 0.293213 0.689109
O O13 0.131754 0.687102 0.177875
O O14 0.799473 0.845964 0.604698
O O15 0.500000 0.000000 0.000000
#
# Coordination Sequence:
#
# PCOD9072353 Si02
#       7
#     2   2   2   2   2   2   2
#     4  10  21  33  53  83 112 135 177 237 282 300
#     4  10  20  32  53  82 106 141 186 225 258 327
#     4   8  16  32  52  70  92 135 176 204 262 329
#     4  10  19  36  57  78 109 154 182 211 268 340
#     4  10  20  37  57  77 106 153 187 211 266 339
#     4   8  16  32  52  70  92 135 174 208 259 329
#     4  10  18  30  55  86 107 133 176 229 275 309
#
# _framework density 27.890142999999998
#
# number of rings (size 3 to 8) (size 9 to 14) (size 15 to 20)
#    0.857    1.714    0.000    4.714    2.000    0.571 
#    0.000    0.000    0.000   27.429    0.000    0.000 
#    0.000    0.000    0.000    0.000    0.000    0.000 
#
# Total GULP energy -78402.482636 kJ/mol
# GULP energy per Si atom -5600.177331 kJ/mol
# Density = 2.782666 g / cm^3
# Si number density = 27.890143 Si / 1000 Ang^3
#
#
#
# Elastic Constant Matrix: (Units=GPa)
#
#
# Indices 1 2 3 4 5 6 
#
# 1 95.6910 14.6686 19.8085 -5.9467 0.5778 2.4103
# 2 14.6686 279.5804 57.3872 -29.3247 -12.7561 20.8281
# 3 19.8085 57.3872 130.3979 -14.3799 -10.3886 5.0494
# 4 -5.9467 -29.3247 -14.3799 61.5917 3.3891 -11.0513
# 5 0.5778 -12.7561 -10.3886 3.3891 32.8918 -6.3512
# 6 2.4103 20.8281 5.0494 -11.0513 -6.3512 47.3834
#
#
#
# Elastic Compliance Matrix: (Units=1/GPa)
#
#
# Indices 1 2 3 4 5 6 
#
# 1 0.010852 -0.000209 -0.001551 0.000585 -0.000875 -0.000276
# 2 -0.000209 0.004173 -0.001549 0.001340 0.000755 -0.001245
# 3 -0.001551 -0.001549 0.008870 0.001130 0.002183 0.000371
# 4 0.000585 0.001340 0.001130 0.017817 -0.000318 0.003374
# 5 -0.000875 0.000755 0.002183 -0.000318 0.032151 0.003715
# 6 -0.000276 -0.001245 0.000371 0.003374 0.003715 0.022911
#
#
# Mechanical properties :
#
#
# Convention : Reuss Voigt Hill
#
# Bulk Modulus (GPa) = 57.87741 76.59977 67.23859
# Shear Modulus (GPa) = 45.80782 55.96039 50.88410
#
# Velocity S-wave (km/s) = 4.05710 4.48421 4.27599
# Velocity P-wave (km/s) = 6.53787 7.37125 6.96703
#
# Compressibility (1/GPa) = 0.01727790
#
# Stress axis : x y z
#
# Youngs Moduli (GPa) = 92.14895 239.61089 112.73588
#
# Poissons Ratio (x) = 0.05009 0.17486
# Poissons Ratio (y) = 0.01926 0.17461
# Poissons Ratio (z) = 0.14293 0.37111
#
# Static dielectric constant tensor:
#      x y z
#    x 2.169100 0.048230 -0.015660 
#    y 0.048230 2.323640 0.014880 
#    z -0.015660 0.014880 2.141350 
# 
# From -- ./inp_files/544673.got.cif
#   From: 2010.05.17/outbox.cif.g08.bks.cpg/sg2_273_cif.got.tgz:544673.got - 2010.06.03 11:33:40.
