data_PCOD9072789
_publ_section_title
;
Structure prediction by ZEFSAII (Michael W. Deem and Ramdas Pophale) SiO2 
 PCOD9072789
Probable space group: P -1
;
_chemical_formula_sum "Si O2"
_cell_formula_units_Z 14
_cell_length_a 7.196863
_cell_length_b 12.780595
_cell_length_c 7.881613
_cell_angle_alpha 121.627833
_cell_angle_beta 101.648099
_cell_angle_gamma 107.843194
_cell_volume 525.512221
_symmetry_space_group_name_H-M "P -1"
_symmetry_group_IT_number 2
_symmetry_cell_setting 'triclinic'
loop_
_space_group_symop_operation_xyz
x,y,z
-x,-y,-z
loop_
_atom_site_type_symbol
_atom_site_label
_atom_site_fract_x
_atom_site_fract_y
_atom_site_fract_z
Si Si1 0.852384 0.000332 0.822064
Si Si2 0.740797 0.641446 0.159021
Si Si3 0.596587 0.220997 0.467132
Si Si4 0.653931 0.901171 0.375676
Si Si5 0.731219 0.497720 0.343454
Si Si6 0.247491 0.459132 0.248813
Si Si7 0.354377 0.815170 0.943354
O O1 0.659603 0.836667 0.663101
O O2 0.859012 0.010115 0.624427
O O3 0.785821 0.115806 0.961052
O O4 0.000000 0.000000 0.000000
O O5 0.692590 0.767747 0.262657
O O6 0.845976 0.615589 0.321938
O O7 0.500000 0.500000 0.000000
O O8 0.868511 0.641373 0.015192
O O9 0.558879 0.140917 0.573120
O O10 0.713097 0.386357 0.657024
O O11 0.650683 0.180347 0.259736
O O12 0.580925 0.907574 0.174341
O O13 0.479801 0.461076 0.294999
O O14 0.842245 0.563745 0.598696
O O15 0.712671 0.347725 0.169117
#
# Coordination Sequence:
#
# PCOD9072789 Si02
#       7
#     2   2   2   2   2   2   2
#     4  10  22  38  50  68 106 137 164 209 255 289
#     4  10  13  25  43  74 107 118 148 204 256 277
#     4   9  19  31  53  76 101 129 165 207 247 289
#     4  10  19  30  53  77  98 131 169 206 240 294
#     4   9  15  22  43  76 101 121 147 199 250 287
#     4   9  14  24  42  74 105 118 151 201 251 286
#     4  11  18  32  55  78  97 127 174 210 238 290
#
# _framework density 26.640674000000001
#
# number of rings (size 3 to 8) (size 9 to 14) (size 15 to 20)
#    0.857    1.429    5.714    0.857    0.000    0.000 
#    0.000    0.714    0.000    3.429    0.000    4.000 
#    0.000    2.286    0.000    0.000    0.000    0.000 
#
# Total GULP energy -77989.115577 kJ/mol
# GULP energy per Si atom -5570.651113 kJ/mol
# Density = 2.658004 g / cm^3
# Si number density = 26.640674 Si / 1000 Ang^3
#
#
#
# Elastic Constant Matrix: (Units=GPa)
#
#
# Indices 1 2 3 4 5 6 
#
# 1 44.0799 31.1816 44.9662 -5.6560 -1.4488 -13.0352
# 2 31.1816 150.1772 68.6144 -10.1911 -18.2634 -19.7217
# 3 44.9662 68.6144 196.5097 -8.6600 -48.9933 -8.7303
# 4 -5.6560 -10.1911 -8.6600 39.3165 -5.5185 -6.9554
# 5 -1.4488 -18.2634 -48.9933 -5.5185 48.6238 -6.3721
# 6 -13.0352 -19.7217 -8.7303 -6.9554 -6.3721 27.2832
#
#
#
# Elastic Compliance Matrix: (Units=1/GPa)
#
#
# Indices 1 2 3 4 5 6 
#
# 1 0.037255 -0.002695 -0.008370 0.004215 -0.006179 0.012804
# 2 -0.002695 0.009355 -0.001384 0.003373 0.003295 0.006661
# 3 -0.008370 -0.001384 0.010067 0.002214 0.009765 0.001068
# 4 0.004215 0.003373 0.002214 0.031403 0.009195 0.015314
# 5 -0.006179 0.003295 0.009765 0.009195 0.034191 0.012884
# 6 0.012804 0.006661 0.001068 0.015314 0.012884 0.054840
#
#
# Mechanical properties :
#
#
# Convention : Reuss Voigt Hill
#
# Bulk Modulus (GPa) = 31.46655 75.58792 53.52724
# Shear Modulus (GPa) = 23.51822 39.44501 31.48161
#
# Velocity S-wave (km/s) = 2.97441 3.85207 3.44133
# Velocity P-wave (km/s) = 4.86140 6.94401 5.99385
#
# Compressibility (1/GPa) = 0.03177978
#
# Stress axis : x y z
#
# Youngs Moduli (GPa) = 26.84210 106.89470 99.33649
#
# Poissons Ratio (x) = 0.28810 0.83142
# Poissons Ratio (y) = 0.07234 0.13744
# Poissons Ratio (z) = 0.22466 0.14789
#
# Static dielectric constant tensor:
#      x y z
#    x 2.206200 0.054980 0.023120 
#    y 0.054980 2.138030 -0.154460 
#    z 0.023120 -0.154460 2.262440 
# 
# From -- ./inp_files/198549.got.cif
#   From: 2010.05.17/outbox.cif.g08.bks.cpg/sg2_100_cif.got.tgz:198549.got - 2010.06.03 11:33:40.
