data_PCOD9072914
_publ_section_title
;
Structure prediction by ZEFSAII (Michael W. Deem and Ramdas Pophale) SiO2 
 PCOD9072914
Probable space group: P -1
;
_chemical_formula_sum "Si O2"
_cell_formula_units_Z 14
_cell_length_a 10.771959
_cell_length_b 12.565280
_cell_length_c 9.756123
_cell_angle_alpha 62.750807
_cell_angle_beta 57.437845
_cell_angle_gamma 39.818845
_cell_volume 710.262800
_symmetry_space_group_name_H-M "P -1"
_symmetry_group_IT_number 2
_symmetry_cell_setting 'triclinic'
loop_
_space_group_symop_operation_xyz
x,y,z
-x,-y,-z
loop_
_atom_site_type_symbol
_atom_site_label
_atom_site_fract_x
_atom_site_fract_y
_atom_site_fract_z
Si Si1 0.702769 0.470104 0.555793
Si Si2 0.698960 0.278921 0.903417
Si Si3 0.050785 0.468276 0.753903
Si Si4 0.186330 0.973620 0.227738
Si Si5 0.216205 0.586104 0.023434
Si Si6 0.733522 0.245259 0.452849
Si Si7 0.125964 0.272336 0.062040
O O1 0.749016 0.357781 0.720696
O O2 0.831961 0.516904 0.431652
O O3 0.745590 0.363179 0.459696
O O4 0.461877 0.637081 0.598338
O O5 0.774656 0.114744 0.886655
O O6 0.791535 0.276603 0.990842
O O7 0.452437 0.415366 0.979999
O O8 0.912807 0.438098 0.797896
O O9 0.905831 0.635284 0.835667
O O10 0.196621 0.320861 0.868850
O O11 0.301133 0.835305 0.360976
O O12 0.240774 0.082764 0.124498
O O13 0.947144 0.098049 0.338777
O O14 0.099525 0.638344 0.917447
#
# Coordination Sequence:
#
# PCOD9072914 Si02
#       7
#     2   2   2   2   2   2   2
#     4  10  18  33  56  77 101 141 173 214 251 316
#     4  10  21  33  57  78 102 140 180 210 254 303
#     4   9  19  33  58  74 105 139 174 207 266 306
#     4  10  18  31  51  83 105 131 169 226 261 291
#     4   9  20  38  51  78 103 142 181 202 251 326
#     4   9  19  29  52  81 107 126 178 215 262 298
#     4   9  18  33  55  73 108 135 168 216 259 308
#
# _framework density 19.711013999999999
#
# number of rings (size 3 to 8) (size 9 to 14) (size 15 to 20)
#    0.857    1.714    1.429    0.857    4.000    1.143 
#    0.000    2.857    0.000    0.857    0.000    0.000 
#    0.000    0.000    0.000    0.000    0.000    0.000 
#
# Total GULP energy -77987.899925 kJ/mol
# GULP energy per Si atom -5570.564280 kJ/mol
# Density = 1.966615 g / cm^3
# Si number density = 19.711014 Si / 1000 Ang^3
#
#
#
# Elastic Constant Matrix: (Units=GPa)
#
#
# Indices 1 2 3 4 5 6 
#
# 1 37.0390 -1.7396 -11.6361 2.2723 2.8101 6.7036
# 2 -1.7396 70.1308 -4.5407 -10.3263 5.7670 17.0542
# 3 -11.6361 -4.5407 53.1970 -16.3351 -15.3895 -4.1591
# 4 2.2723 -10.3263 -16.3351 34.6323 7.6991 -5.2962
# 5 2.8101 5.7670 -15.3895 7.6991 20.2399 -0.3890
# 6 6.7036 17.0542 -4.1591 -5.2962 -0.3890 18.1800
#
#
#
# Elastic Compliance Matrix: (Units=1/GPa)
#
#
# Indices 1 2 3 4 5 6 
#
# 1 0.031912 0.005033 0.005753 0.000219 -0.001865 -0.015149
# 2 0.005033 0.020673 0.000309 0.004835 -0.008577 -0.019954
# 3 0.005753 0.000309 0.028954 0.010727 0.017196 0.007706
# 4 0.000219 0.004835 0.010727 0.038430 -0.007700 0.008868
# 5 -0.001865 -0.008577 0.017196 -0.007700 0.068343 0.011887
# 6 -0.015149 -0.019954 0.007706 0.008868 0.011887 0.083910
#
#
# Mechanical properties :
#
#
# Convention : Reuss Voigt Hill
#
# Bulk Modulus (GPa) = 9.64031 13.83710 11.73870
# Shear Modulus (GPa) = 17.56807 26.49599 22.03203
#
# Velocity S-wave (km/s) = 2.98867 3.67034 3.34691
# Velocity P-wave (km/s) = 4.10012 4.99971 4.57209
#
# Compressibility (1/GPa) = 0.10373110
#
# Stress axis : x y z
#
# Youngs Moduli (GPa) = 31.33589 48.37133 34.53770
#
# Poissons Ratio (x) = -0.24348 -0.19871
# Poissons Ratio (y) = -0.15773 -0.01067
# Poissons Ratio (z) = -0.18029 -0.01495
#
# Static dielectric constant tensor:
#      x y z
#    x 1.697730 -0.001560 0.007500 
#    y -0.001560 1.697050 -0.028540 
#    z 0.007500 -0.028540 1.767090 
# 
# From -- ./inp_files/247338.got.cif
#   From: 2010.05.17/outbox.cif.g08.bks.cpg/sg2_124_cif.got.tgz:247338.got - 2010.06.03 11:33:40.
