data_PCOD9072964
_publ_section_title
;
Structure prediction by ZEFSAII (Michael W. Deem and Ramdas Pophale) SiO2 
 PCOD9072964
Probable space group: P -1
;
_chemical_formula_sum "Si O2"
_cell_formula_units_Z 16
_cell_length_a 10.751333
_cell_length_b 17.466579
_cell_length_c 5.195687
_cell_angle_alpha 115.111401
_cell_angle_beta 91.006150
_cell_angle_gamma 66.498338
_cell_volume 796.559244
_symmetry_space_group_name_H-M "P -1"
_symmetry_group_IT_number 2
_symmetry_cell_setting 'triclinic'
loop_
_space_group_symop_operation_xyz
x,y,z
-x,-y,-z
loop_
_atom_site_type_symbol
_atom_site_label
_atom_site_fract_x
_atom_site_fract_y
_atom_site_fract_z
Si Si1 0.160448 0.445634 0.851288
Si Si2 0.393473 0.438601 0.170318
Si Si3 0.062079 0.116420 0.260963
Si Si4 0.211945 0.767377 0.287916
Si Si5 0.576347 0.374266 0.568228
Si Si6 0.884817 0.369989 0.127080
Si Si7 0.925731 0.701644 0.474323
Si Si8 0.119111 0.932195 0.217782
O O1 0.186271 0.519121 0.774106
O O2 0.175931 0.348661 0.590112
O O3 0.254197 0.430890 0.083669
O O4 0.000000 0.500000 0.000000
O O5 0.482778 0.379757 0.328540
O O6 0.367838 0.546602 0.360564
O O7 0.482474 0.404657 0.863998
O O8 0.946970 0.172721 0.551047
O O9 0.131227 0.187067 0.319508
O O10 0.963099 0.109377 0.024386
O O11 0.156658 0.008251 0.181502
O O12 0.302247 0.724133 0.481581
O O13 0.238309 0.844950 0.240467
O O14 0.215390 0.680212 0.997795
O O15 0.957995 0.344976 0.368551
O O16 0.000925 0.326360 0.843327
O O17 0.000000 0.000000 0.500000
#
# Coordination Sequence:
#
# PCOD9072964 Si02
#       8
#     2   2   2   2   2   2   2   2
#     4  10  21  37  55  79 109 149 184 228 267 322
#     4  10  22  38  51  79 108 146 191 227 263 307
#     4   9  18  30  48  79 111 135 174 223 276 333
#     4  10  18  31  52  76 105 149 176 218 271 326
#     4  10  22  36  56  74 110 149 186 229 261 313
#     4  10  19  31  47  76 105 137 182 211 248 325
#     4  10  20  31  49  74 106 143 171 212 266 316
#     4   9  17  30  49  75 111 135 169 224 278 334
#
# _framework density 20.086387999999999
#
# number of rings (size 3 to 8) (size 9 to 14) (size 15 to 20)
#    0.000    2.250    2.500    0.375    1.750    4.000 
#    0.000    0.000    0.000    0.000    0.000    1.750 
#    0.000    0.000    0.000    0.000    0.000    0.000 
#
# Total GULP energy -89236.648139 kJ/mol
# GULP energy per Si atom -5577.290509 kJ/mol
# Density = 2.004067 g / cm^3
# Si number density = 20.086388 Si / 1000 Ang^3
#
#
#
# Elastic Constant Matrix: (Units=GPa)
#
#
# Indices 1 2 3 4 5 6 
#
# 1 48.7580 41.9567 31.6036 -1.3829 24.7371 -4.1236
# 2 41.9567 179.0046 39.9682 -1.8129 35.0070 9.2416
# 3 31.6036 39.9682 94.2933 -1.8840 24.5678 8.6876
# 4 -1.3829 -1.8129 -1.8840 40.3884 1.6990 15.2466
# 5 24.7371 35.0070 24.5678 1.6990 37.4302 -0.1647
# 6 -4.1236 9.2416 8.6876 15.2466 -0.1647 18.4686
#
#
#
# Elastic Compliance Matrix: (Units=1/GPa)
#
#
# Indices 1 2 3 4 5 6 
#
# 1 0.040934 -0.005747 -0.009568 -0.007056 -0.014980 0.022207
# 2 -0.005747 0.008160 0.000465 0.003627 -0.004342 -0.008618
# 3 -0.009568 0.000465 0.016591 0.006612 -0.005370 -0.015680
# 4 -0.007056 0.003627 0.006612 0.040202 -0.005069 -0.039735
# 5 -0.014980 -0.004342 -0.005370 -0.005069 0.044459 0.005935
# 6 0.022207 -0.008618 -0.015680 -0.039735 0.005935 0.103648
#
#
# Mechanical properties :
#
#
# Convention : Reuss Voigt Hill
#
# Bulk Modulus (GPa) = 27.78804 61.01257 44.40031
# Shear Modulus (GPa) = 16.90967 33.15927 25.03447
#
# Velocity S-wave (km/s) = 2.90461 4.06745 3.53418
# Velocity P-wave (km/s) = 5.01132 7.24568 6.22949
#
# Compressibility (1/GPa) = 0.03598670
#
# Stress axis : x y z
#
# Youngs Moduli (GPa) = 24.42946 122.54300 60.27416
#
# Poissons Ratio (x) = 0.70420 0.57668
# Poissons Ratio (y) = 0.14039 -0.02802
# Poissons Ratio (z) = 0.23373 -0.05697
#
# Static dielectric constant tensor:
#      x y z
#    x 1.789350 0.077360 -0.070030 
#    y 0.077360 1.830390 -0.010360 
#    z -0.070030 -0.010360 1.807660 
# 
# From -- ./inp_files/74273.got.cif
#   From: 2010.05.17/outbox.cif.g08.bks.cpg/sg2_38_cif.got.tgz:74273.got - 2010.06.03 11:33:40.
