data_PCOD9072874
_publ_section_title
;
Structure prediction by ZEFSAII (Michael W. Deem and Ramdas Pophale) SiO2 
 PCOD9072874
Probable space group: P -1
;
_chemical_formula_sum "Si O2"
_cell_formula_units_Z 16
_cell_length_a 18.000000
_cell_length_b 12.000000
_cell_length_c 12.000000
_cell_angle_alpha 140.000000
_cell_angle_beta 130.000000
_cell_angle_gamma 30.000000
_cell_volume 831.335389
_symmetry_space_group_name_H-M "P -1"
_symmetry_group_IT_number 2
_symmetry_cell_setting 'triclinic'
loop_
_space_group_symop_operation_xyz
x,y,z
-x,-y,-z
loop_
_atom_site_type_symbol
_atom_site_label
_atom_site_fract_x
_atom_site_fract_y
_atom_site_fract_z
Si Si1 0.794469 0.374795 0.174027
Si Si2 0.144431 0.047543 0.491249
Si Si3 0.375385 0.364301 0.566823
Si Si4 0.964280 0.687659 0.011358
Si Si5 0.888284 0.222039 0.905447
Si Si6 0.730090 0.868793 0.502465
Si Si7 0.832110 0.669780 0.670429
Si Si8 0.154050 0.881167 0.601743
O O1 0.677855 0.493042 0.252877
O O2 0.790342 0.590597 0.334878
O O3 0.784103 0.348552 0.011561
O O4 0.948725 0.073794 0.128577
O O5 0.228051 0.076607 0.521992
O O6 0.972768 0.347061 0.554392
O O7 0.161668 0.841389 0.287477
O O8 0.197610 0.945559 0.590191
O O9 0.314243 0.250428 0.412221
O O10 0.285271 0.582047 0.546583
O O11 0.552602 0.123522 0.542131
O O12 0.090793 0.612799 0.000027
O O13 0.891354 0.943713 0.202796
O O14 0.856211 0.744417 0.862060
O O15 0.000000 0.500000 0.000000
O O16 0.817382 0.809678 0.653794
O O17 0.000000 0.000000 0.500000
#
# Coordination Sequence:
#
# PCOD9072874 Si02
#       8
#     2   2   2   2   2   2   2   2
#     4  10  20  38  61  90 126 161 206 260 316 358
#     4  12  22  39  64  95 125 167 212 265 307 374
#     4  11  22  45  65  89 130 174 206 262 320 380
#     4  12  22  36  63 100 123 159 210 274 310 361
#     4  11  22  35  64  97 126 157 212 273 307 358
#     4  11  25  40  64  94 133 170 209 253 327 378
#     4  11  21  38  66  94 123 164 218 258 310 374
#     4  12  21  42  66  91 125 164 220 259 314 373
#
# _framework density 19.246143
#
# number of rings (size 3 to 8) (size 9 to 14) (size 15 to 20)
#    0.000    0.750    7.500    2.625    3.500    0.500 
#    0.000    3.750    0.000    1.500    0.000    0.000 
#    0.000    0.000    0.000    0.000    0.000    0.000 
#
# Total GULP energy -89231.147752 kJ/mol
# GULP energy per Si atom -5576.946734 kJ/mol
# Density = 1.920234 g / cm^3
# Si number density = 19.246143 Si / 1000 Ang^3
#
#
#
# Elastic Constant Matrix: (Units=GPa)
#
#
# Indices 1 2 3 4 5 6 
#
# 1 122.8027 41.8302 12.2212 -3.2340 -14.5827 29.0789
# 2 41.8302 85.1974 20.3947 -1.5981 -5.3142 20.4721
# 3 12.2212 20.3947 90.8305 -18.2471 -20.7922 1.2474
# 4 -3.2340 -1.5981 -18.2471 20.7167 14.1263 -2.7766
# 5 -14.5827 -5.3142 -20.7922 14.1263 28.9883 -2.5148
# 6 29.0789 20.4721 1.2474 -2.7766 -2.5148 36.0808
#
#
#
# Elastic Compliance Matrix: (Units=1/GPa)
#
#
# Indices 1 2 3 4 5 6 
#
# 1 0.011795 -0.003739 0.000085 -0.003794 0.006531 -0.007224
# 2 -0.003739 0.015837 -0.003734 -0.002966 -0.000742 -0.006123
# 3 0.000085 -0.003734 0.015004 0.009344 0.005797 0.002655
# 4 -0.003794 -0.002966 0.009344 0.079968 -0.034008 0.008201
# 5 0.006531 -0.000742 0.005797 -0.034008 0.058063 -0.003613
# 6 -0.007224 -0.006123 0.002655 0.008201 -0.003613 0.037299
#
#
# Mechanical properties :
#
#
# Convention : Reuss Voigt Hill
#
# Bulk Modulus (GPa) = 35.89697 49.74695 42.82196
# Shear Modulus (GPa) = 20.65872 32.11614 26.38743
#
# Velocity S-wave (km/s) = 3.27983 4.08941 3.70679
# Velocity P-wave (km/s) = 5.74761 6.94273 6.37325
#
# Compressibility (1/GPa) = 0.02785750
#
# Stress axis : x y z
#
# Youngs Moduli (GPa) = 84.78507 63.14490 66.64774
#
# Poissons Ratio (x) = 0.23611 -0.00564
# Poissons Ratio (y) = 0.31702 0.24889
# Poissons Ratio (z) = -0.00717 0.23581
#
# Static dielectric constant tensor:
#      x y z
#    x 1.749950 0.019980 -0.006590 
#    y 0.019980 1.642350 -0.005890 
#    z -0.006590 -0.005890 1.711370 
# 
# From -- ./inp_files/281921.got.cif
#   From: 2010.05.17/outbox.ucp.g08.bks.cvg/sg2_141_cif.got.tgz:281921.got - 2010.06.11 11:32:03.
