data_PCOD9072099
_publ_section_title
;
Structure prediction by ZEFSAII (Michael W. Deem and Ramdas Pophale) SiO2 
 PCOD9072099
Probable space group: P -1
;
_chemical_formula_sum "Si O2"
_cell_formula_units_Z 16
_cell_length_a 15.000000
_cell_length_b 12.000000
_cell_length_c 12.000000
_cell_angle_alpha 100.000000
_cell_angle_beta 100.000000
_cell_angle_gamma 20.000000
_cell_volume 727.188304
_symmetry_space_group_name_H-M "P -1"
_symmetry_group_IT_number 2
_symmetry_cell_setting 'triclinic'
loop_
_space_group_symop_operation_xyz
x,y,z
-x,-y,-z
loop_
_atom_site_type_symbol
_atom_site_label
_atom_site_fract_x
_atom_site_fract_y
_atom_site_fract_z
Si Si1 0.507191 0.088522 0.422510
Si Si2 0.978634 0.235391 0.250969
Si Si3 0.522860 0.668562 0.383665
Si Si4 0.206628 0.524186 0.984912
Si Si5 0.197138 0.735421 0.175721
Si Si6 0.812221 0.816795 0.059998
Si Si7 0.739246 0.168791 0.309465
Si Si8 0.942349 0.699734 0.324167
O O1 0.461647 0.265893 0.496950
O O2 0.256765 0.344214 0.338450
O O3 0.500000 0.000000 0.500000
O O4 0.792706 0.777243 0.375856
O O5 0.735886 0.479229 0.316206
O O6 0.848047 0.443337 0.149713
O O7 0.225200 0.008553 0.326628
O O8 0.103475 0.973221 0.186076
O O9 0.624473 0.420198 0.380456
O O10 0.196085 0.666817 0.049201
O O11 0.960314 0.754023 0.032915
O O12 0.510881 0.142927 0.018066
O O13 0.492330 0.403118 0.229900
O O14 0.989938 0.915394 0.245437
O O15 0.848261 0.783584 0.193936
O O16 0.000000 0.500000 0.000000
O O17 0.838646 0.949625 0.370909
#
# Coordination Sequence:
#
# PCOD9072099 Si02
#       8
#     2   2   2   2   2   2   2   2
#     4  12  28  46  70  94 126 172 225 273 324 393
#     4  10  22  36  66  97 136 174 205 265 324 380
#     4  10  23  43  62 100 136 169 224 272 318 382
#     4  12  21  40  64  94 133 177 213 257 321 387
#     4  10  18  36  60  99 134 167 212 253 317 399
#     4  12  27  43  64  98 130 169 223 267 314 390
#     4  10  20  38  68  95 134 169 208 272 329 390
#     4  12  24  46  71  94 127 172 214 274 338 377
#
# _framework density 22.002554
#
# number of rings (size 3 to 8) (size 9 to 14) (size 15 to 20)
#    0.000    1.000    2.500    4.125    0.000    4.000 
#    0.000    5.000    0.000    0.000    0.000    0.000 
#    0.000    0.000    0.000    0.000    0.000    0.000 
#
# Total GULP energy -89290.684008 kJ/mol
# GULP energy per Si atom -5580.667750 kJ/mol
# Density = 2.195248 g / cm^3
# Si number density = 22.002554 Si / 1000 Ang^3
#
#
#
# Elastic Constant Matrix: (Units=GPa)
#
#
# Indices 1 2 3 4 5 6 
#
# 1 91.3326 19.4247 9.5574 -5.1707 -0.7985 -34.9101
# 2 19.4247 95.7116 10.7822 -19.2675 5.5422 -38.7569
# 3 9.5574 10.7822 15.5657 0.7446 -2.4727 -3.5236
# 4 -5.1707 -19.2675 0.7446 36.6663 -3.6915 10.1621
# 5 -0.7985 5.5422 -2.4727 -3.6915 32.7591 0.4875
# 6 -34.9101 -38.7569 -3.5236 10.1621 0.4875 51.0616
#
#
#
# Elastic Compliance Matrix: (Units=1/GPa)
#
#
# Indices 1 2 3 4 5 6 
#
# 1 0.016107 0.003024 -0.009311 0.000466 -0.000956 0.012581
# 2 0.003024 0.018265 -0.012198 0.006067 -0.003460 0.013914
# 3 -0.009311 -0.012198 0.077772 -0.006054 0.007161 -0.009121
# 4 0.000466 0.006067 -0.006054 0.031345 0.002086 -0.001752
# 5 -0.000956 -0.003460 0.007161 0.002086 0.031916 -0.003506
# 6 0.012581 0.013914 -0.009121 -0.001752 -0.003506 0.038500
#
#
# Mechanical properties :
#
#
# Convention : Reuss Voigt Hill
#
# Bulk Modulus (GPa) = 13.30254 31.34873 22.32563
# Shear Modulus (GPa) = 18.12028 34.95378 26.53703
#
# Velocity S-wave (km/s) = 2.87288 3.99008 3.47665
# Velocity P-wave (km/s) = 4.13081 5.95872 5.12689
#
# Compressibility (1/GPa) = 0.07517363
#
# Stress axis : x y z
#
# Youngs Moduli (GPa) = 62.08428 54.75029 12.85802
#
# Poissons Ratio (x) = -0.16555 0.11972
# Poissons Ratio (y) = -0.18772 0.15685
# Poissons Ratio (z) = 0.57804 0.66787
#
# Static dielectric constant tensor:
#      x y z
#    x 1.823330 0.031710 -0.042660 
#    y 0.031710 1.876530 0.036910 
#    z -0.042660 0.036910 1.846250 
# 
# From -- ./inp_files/433633.got.cif
#   From: 2010.05.17/outbox.ucp.g08.bks.cvg/sg2_217_cif.got.tgz:433633.got - 2010.06.11 11:32:03.
