data_PCOD9072884
_publ_section_title
;
Structure prediction by ZEFSAII (Michael W. Deem and Ramdas Pophale) SiO2 
 PCOD9072884
Probable space group: P -1
;
_chemical_formula_sum "Si O2"
_cell_formula_units_Z 16
_cell_length_a 12.000000
_cell_length_b 15.000000
_cell_length_c 12.000000
_cell_angle_alpha 40.000000
_cell_angle_beta 90.000000
_cell_angle_gamma 60.000000
_cell_volume 872.532825
_symmetry_space_group_name_H-M "P -1"
_symmetry_group_IT_number 2
_symmetry_cell_setting 'triclinic'
loop_
_space_group_symop_operation_xyz
x,y,z
-x,-y,-z
loop_
_atom_site_type_symbol
_atom_site_label
_atom_site_fract_x
_atom_site_fract_y
_atom_site_fract_z
Si Si1 0.330166 0.899179 0.771537
Si Si2 0.343079 0.481220 0.439700
Si Si3 0.976157 0.365318 0.585721
Si Si4 0.995615 0.422770 0.280003
Si Si5 0.787592 0.509208 0.797036
Si Si6 0.170896 0.780744 0.774755
Si Si7 0.314321 0.373075 0.074761
Si Si8 0.677215 0.165387 0.907437
O O1 0.284345 0.798790 0.805079
O O2 0.160453 0.162311 0.502321
O O3 0.497711 0.817257 0.800646
O O4 0.367227 0.831179 0.967254
O O5 0.186584 0.553816 0.434065
O O6 0.333760 0.420116 0.374736
O O7 0.523540 0.287472 0.697792
O O8 0.299952 0.688471 0.234328
O O9 0.000000 0.500000 0.500000
O O10 0.935178 0.423540 0.399021
O O11 0.149337 0.099371 0.860346
O O12 0.070632 0.507051 0.213357
O O13 0.842030 0.553340 0.062645
O O14 0.873535 0.283224 0.062399
O O15 0.684266 0.665393 0.757164
O O16 0.270882 0.580684 0.881328
O O17 0.000000 0.000000 0.500000
#
# Coordination Sequence:
#
# PCOD9072884 Si02
#       8
#     2   2   2   2   2   2   2   2
#     4  11  20  40  62  89 121 157 204 247 300 356
#     4  11  21  43  61  91 127 157 207 252 305 360
#     4  11  23  40  64  89 123 162 204 250 307 363
#     4  11  22  41  60  88 123 161 199 250 299 359
#     4  10  22  39  61  87 128 157 197 253 296 360
#     4  10  20  38  62  90 121 158 196 250 299 354
#     4  10  22  36  64  88 118 157 204 240 302 357
#     4  10  23  39  66  90 120 164 202 258 303 360
#
# _framework density 18.337419000000001
#
# number of rings (size 3 to 8) (size 9 to 14) (size 15 to 20)
#    0.750    0.750    3.750    1.875    0.000    1.000 
#    2.250    3.750    0.000    0.000    0.000    0.000 
#    0.000    0.000    0.000    0.000    0.000    0.000 
#
# Total GULP energy -89158.914501 kJ/mol
# GULP energy per Si atom -5572.432156 kJ/mol
# Density = 1.829568 g / cm^3
# Si number density = 18.337419 Si / 1000 Ang^3
#
#
#
# Elastic Constant Matrix: (Units=GPa)
#
#
# Indices 1 2 3 4 5 6 
#
# 1 129.2009 50.0706 50.8599 18.4016 7.4437 11.1659
# 2 50.0706 86.3378 35.3489 20.5222 19.1569 2.6130
# 3 50.8599 35.3489 74.2973 20.6249 9.0885 2.3667
# 4 18.4016 20.5222 20.6249 29.4982 9.5927 0.6732
# 5 7.4437 19.1569 9.0885 9.5927 30.2258 8.1502
# 6 11.1659 2.6130 2.3667 0.6732 8.1502 42.4165
#
#
#
# Elastic Compliance Matrix: (Units=1/GPa)
#
#
# Indices 1 2 3 4 5 6 
#
# 1 0.012297 -0.005040 -0.006059 -0.000871 0.003120 -0.003174
# 2 -0.005040 0.018849 -0.003131 -0.004983 -0.008749 0.002100
# 3 -0.006059 -0.003131 0.021633 -0.009067 -0.000365 0.000795
# 4 -0.000871 -0.004983 -0.009067 0.047284 -0.009477 0.002113
# 5 0.003120 -0.008749 -0.000365 -0.009477 0.043249 -0.008422
# 6 -0.003174 0.002100 0.000795 0.002113 -0.008422 0.025822
#
#
# Mechanical properties :
#
#
# Convention : Reuss Voigt Hill
#
# Bulk Modulus (GPa) = 41.11989 62.48833 51.80411
# Shear Modulus (GPa) = 24.30722 30.66520 27.48621
#
# Velocity S-wave (km/s) = 3.64476 4.09378 3.87578
# Velocity P-wave (km/s) = 6.33917 7.51640 6.95275
#
# Compressibility (1/GPa) = 0.02431913
#
# Stress axis : x y z
#
# Youngs Moduli (GPa) = 81.32337 53.05182 46.22575
#
# Poissons Ratio (x) = 0.26738 0.28006
# Poissons Ratio (y) = 0.40987 0.14475
# Poissons Ratio (z) = 0.49270 0.16613
#
# Static dielectric constant tensor:
#      x y z
#    x 1.607480 -0.004600 -0.014130 
#    y -0.004600 1.677280 -0.008050 
#    z -0.014130 -0.008050 1.615260 
# 
# From -- ./inp_files/304544.got.cif
#   From: 2010.05.17/outbox.ucp.g08.bks.cvg/sg2_153_cif.got.tgz:304544.got - 2010.06.11 11:32:03.
