data_PCOD9072261
_publ_section_title
;
Structure prediction by ZEFSAII (Michael W. Deem and Ramdas Pophale) SiO2 
 PCOD9072261
Probable space group: P -1
;
_chemical_formula_sum "Si O2"
_cell_formula_units_Z 16
_cell_length_a 15.000000
_cell_length_b 15.000000
_cell_length_c 12.000000
_cell_angle_alpha 70.000000
_cell_angle_beta 160.000000
_cell_angle_gamma 110.000000
_cell_volume 865.974363
_symmetry_space_group_name_H-M "P -1"
_symmetry_group_IT_number 2
_symmetry_cell_setting 'triclinic'
loop_
_space_group_symop_operation_xyz
x,y,z
-x,-y,-z
loop_
_atom_site_type_symbol
_atom_site_label
_atom_site_fract_x
_atom_site_fract_y
_atom_site_fract_z
Si Si1 0.472525 0.050089 0.210358
Si Si2 0.911412 0.733092 0.166536
Si Si3 0.922423 0.109171 0.867652
Si Si4 0.598615 0.374818 0.283530
Si Si5 0.836603 0.261540 0.295926
Si Si6 0.288859 0.548630 0.854963
Si Si7 0.726307 0.834976 0.285527
Si Si8 0.046569 0.066983 0.266841
O O1 0.636796 0.109558 0.473678
O O2 0.697344 0.985845 0.451122
O O3 0.360658 0.104777 0.949754
O O4 0.219012 0.997714 0.992393
O O5 0.900666 0.822475 0.034297
O O6 0.107087 0.663365 0.358161
O O7 0.061407 0.756724 0.449611
O O8 0.626443 0.693247 0.892656
O O9 0.965466 0.132767 0.038807
O O10 0.000000 0.000000 0.000000
O O11 0.573255 0.394269 0.112178
O O12 0.501465 0.475521 0.172134
O O13 0.789269 0.372799 0.183749
O O14 0.058258 0.231106 0.485300
O O15 0.549771 0.209470 0.972491
O O16 0.000000 0.500000 0.500000
O O17 0.868624 0.888357 0.533770
#
# Coordination Sequence:
#
# PCOD9072261 Si02
#       8
#     2   2   2   2   2   2   2   2
#     4  11  22  39  61  82 111 151 206 251 294 336
#     4  11  21  36  55  84 119 151 196 234 293 340
#     4  10  24  40  61  86 118 155 205 251 287 330
#     4  10  20  32  55  83 120 153 180 235 300 355
#     4  11  22  34  57  88 118 152 186 236 296 357
#     4  10  19  33  55  87 126 145 180 237 308 347
#     4  12  23  37  58  83 120 153 194 238 297 354
#     4  11  24  41  56  83 113 159 199 246 293 341
#
# _framework density 18.476298
#
# number of rings (size 3 to 8) (size 9 to 14) (size 15 to 20)
#    0.000    1.250    3.750    4.125    3.500    2.000 
#    0.000    0.000    0.000    0.000    0.000    5.250 
#    0.000    0.000    0.000    0.000    0.000    0.000 
#
# Total GULP energy -89104.367720 kJ/mol
# GULP energy per Si atom -5569.022983 kJ/mol
# Density = 1.843424 g / cm^3
# Si number density = 18.476298 Si / 1000 Ang^3
#
#
#
# Elastic Constant Matrix: (Units=GPa)
#
#
# Indices 1 2 3 4 5 6 
#
# 1 85.2307 40.5813 55.9992 -8.6394 17.1195 -0.7566
# 2 40.5813 64.3760 26.3048 -15.2488 4.8479 8.8519
# 3 55.9992 26.3048 80.3898 2.9027 8.7257 -6.6717
# 4 -8.6394 -15.2488 2.9027 32.4379 -0.8083 14.2225
# 5 17.1195 4.8479 8.7257 -0.8083 51.0376 1.5159
# 6 -0.7566 8.8519 -6.6717 14.2225 1.5159 37.2453
#
#
#
# Elastic Compliance Matrix: (Units=1/GPa)
#
#
# Indices 1 2 3 4 5 6 
#
# 1 0.028979 -0.009284 -0.016904 0.005670 -0.005795 -0.002162
# 2 -0.009284 0.030301 -0.005674 0.019278 0.001982 -0.015849
# 3 -0.016904 -0.005674 0.027449 -0.014632 0.000944 0.011471
# 4 0.005670 0.019278 -0.014632 0.055056 0.000476 -0.028130
# 5 -0.005795 0.001982 0.000944 0.000476 0.021239 -0.001466
# 6 -0.002162 -0.015849 0.011471 -0.028130 -0.001466 0.043428
#
#
# Mechanical properties :
#
#
# Convention : Reuss Voigt Hill
#
# Bulk Modulus (GPa) = 43.46917 52.86299 48.16608
# Shear Modulus (GPa) = 17.99561 31.28492 24.64026
#
# Velocity S-wave (km/s) = 3.12426 4.11937 3.65583
# Velocity P-wave (km/s) = 6.04919 7.16233 6.62917
#
# Compressibility (1/GPa) = 0.02300481
#
# Stress axis : x y z
#
# Youngs Moduli (GPa) = 34.50732 33.00217 36.43057
#
# Poissons Ratio (x) = 0.30639 0.61583
# Poissons Ratio (y) = 0.32036 0.20672
# Poissons Ratio (z) = 0.58332 0.18727
#
# Static dielectric constant tensor:
#      x y z
#    x 1.648390 -0.013300 0.018200 
#    y -0.013300 1.761920 -0.004730 
#    z 0.018200 -0.004730 1.656520 
# 
# From -- ./inp_files/455724.got.cif
#   From: 2010.05.17/outbox.ucp.g08.bks.cvg/sg2_228_cif.got.tgz:455724.got - 2010.06.11 11:32:03.
