data_PCOD9072737
_publ_section_title
;
Structure prediction by ZEFSAII (Michael W. Deem and Ramdas Pophale) SiO2 
 PCOD9072737
Probable space group: P -1
;
_chemical_formula_sum "Si O2"
_cell_formula_units_Z 16
_cell_length_a 9.000000
_cell_length_b 15.000000
_cell_length_c 15.000000
_cell_angle_alpha 150.000000
_cell_angle_beta 120.000000
_cell_angle_gamma 60.000000
_cell_volume 866.294673
_symmetry_space_group_name_H-M "P -1"
_symmetry_group_IT_number 2
_symmetry_cell_setting 'triclinic'
loop_
_space_group_symop_operation_xyz
x,y,z
-x,-y,-z
loop_
_atom_site_type_symbol
_atom_site_label
_atom_site_fract_x
_atom_site_fract_y
_atom_site_fract_z
Si Si1 0.103782 0.477794 0.762007
Si Si2 0.657821 0.809550 0.540073
Si Si3 0.163687 0.850720 0.163652
Si Si4 0.224611 0.122048 0.858579
Si Si5 0.301311 0.405217 0.272378
Si Si6 0.261706 0.850455 0.387245
Si Si7 0.499003 0.253081 0.378078
Si Si8 0.082886 0.242773 0.724367
O O1 0.224295 0.339429 0.614387
O O2 0.108558 0.399857 0.798366
O O3 0.901721 0.512647 0.701378
O O4 0.166185 0.672490 0.951051
O O5 0.456998 0.836486 0.468995
O O6 0.637442 0.755555 0.590114
O O7 0.744551 0.991139 0.713505
O O8 0.262603 0.791749 0.234470
O O9 0.960694 0.911528 0.183881
O O10 0.174752 0.212377 0.823731
O O11 0.361112 0.934326 0.736470
O O12 0.297447 0.267927 0.069489
O O13 0.396701 0.293710 0.288508
O O14 0.400814 0.574700 0.429740
O O15 0.124012 0.751274 0.315056
O O16 0.165341 0.057788 0.539972
#
# Coordination Sequence:
#
# PCOD9072737 Si02
#       8
#     2   2   2   2   2   2   2   2
#     4  11  24  40  59  90 129 161 192 248 293 366
#     4  12  23  38  59  87 127 162 195 242 300 359
#     4  10  23  38  58  89 126 162 199 233 307 362
#     4  10  21  42  65  89 118 157 203 254 293 350
#     4  10  24  43  64  91 115 153 212 249 300 347
#     4  10  20  36  59  89 119 158 203 238 291 357
#     4  11  23  41  67  89 115 158 203 258 295 346
#     4  10  20  38  64  90 119 159 202 240 302 352
#
# _framework density 18.469466000000001
#
# number of rings (size 3 to 8) (size 9 to 14) (size 15 to 20)
#    0.000    1.500    2.500    2.250    1.750    7.500 
#    0.000    2.500    0.000    0.000    0.000    0.000 
#    0.000    0.000    0.000    0.000    0.000    0.000 
#
# Total GULP energy -89342.858638 kJ/mol
# GULP energy per Si atom -5583.928665 kJ/mol
# Density = 1.842743 g / cm^3
# Si number density = 18.469466 Si / 1000 Ang^3
#
#
#
# Elastic Constant Matrix: (Units=GPa)
#
#
# Indices 1 2 3 4 5 6 
#
# 1 109.2628 53.4800 64.8728 11.1139 3.2725 5.2275
# 2 53.4800 114.9071 49.8665 -0.7589 4.7806 -2.9073
# 3 64.8728 49.8665 131.7618 2.9021 11.2390 4.3532
# 4 11.1139 -0.7589 2.9021 29.5855 -8.3578 1.0403
# 5 3.2725 4.7806 11.2390 -8.3578 21.5143 0.9601
# 6 5.2275 -2.9073 4.3532 1.0403 0.9601 27.7419
#
#
#
# Elastic Compliance Matrix: (Units=1/GPa)
#
#
# Indices 1 2 3 4 5 6 
#
# 1 0.015526 -0.004891 -0.005564 -0.005436 -0.000375 -0.002348
# 2 -0.004891 0.012047 -0.002286 0.002297 0.000044 0.002455
# 3 -0.005564 -0.002286 0.011647 -0.000458 -0.004871 -0.000833
# 4 -0.005436 0.002297 -0.000458 0.040594 0.016359 -0.000752
# 5 -0.000375 0.000044 -0.004871 0.016359 0.055503 -0.001695
# 6 -0.002348 0.002455 -0.000833 -0.000752 -0.001695 0.036964
#
#
# Mechanical properties :
#
#
# Convention : Reuss Voigt Hill
#
# Bulk Modulus (GPa) = 72.79630 76.93004 74.86317
# Shear Modulus (GPa) = 24.71044 28.28251 26.49648
#
# Velocity S-wave (km/s) = 3.66171 3.91744 3.79173
# Velocity P-wave (km/s) = 7.57479 7.88700 7.73247
#
# Compressibility (1/GPa) = 0.01373696
#
# Stress axis : x y z
#
# Youngs Moduli (GPa) = 64.40665 83.00850 85.85720
#
# Poissons Ratio (x) = 0.40603 0.47770
# Poissons Ratio (y) = 0.31504 0.19631
# Poissons Ratio (z) = 0.35835 0.18980
#
# Static dielectric constant tensor:
#      x y z
#    x 1.628030 0.004260 -0.001540 
#    y 0.004260 1.634290 -0.013430 
#    z -0.001540 -0.013430 1.660950 
# 
# From -- ./inp_files/273985.got.cif
#   From: 2010.05.17/outbox.ucp.g08.bks.cvg/sg2_137_cif.got.tgz:273985.got - 2010.06.11 11:32:03.
