data_PCOD9072588
_publ_section_title
;
Structure prediction by ZEFSAII (Michael W. Deem and Ramdas Pophale) SiO2 
 PCOD9072588
Probable space group: P -1
;
_chemical_formula_sum "Si O2"
_cell_formula_units_Z 14
_cell_length_a 15.000000
_cell_length_b 12.000000
_cell_length_c 21.000000
_cell_angle_alpha 30.000000
_cell_angle_beta 20.000000
_cell_angle_gamma 30.000000
_cell_volume 615.533390
_symmetry_space_group_name_H-M "P -1"
_symmetry_group_IT_number 2
_symmetry_cell_setting 'triclinic'
loop_
_space_group_symop_operation_xyz
x,y,z
-x,-y,-z
loop_
_atom_site_type_symbol
_atom_site_label
_atom_site_fract_x
_atom_site_fract_y
_atom_site_fract_z
Si Si1 0.871028 0.325096 0.384970
Si Si2 0.812722 0.010105 0.768250
Si Si3 0.314845 0.217914 0.805148
Si Si4 0.666262 0.073226 0.183683
Si Si5 0.100683 0.719378 0.838684
Si Si6 0.278376 0.349547 0.557226
Si Si7 0.082554 0.420470 0.412783
O O1 0.604946 0.243134 0.619577
O O2 0.813436 0.535587 0.267670
O O3 0.887996 0.462070 0.371075
O O4 0.093153 0.116842 0.300813
O O5 0.904852 0.248010 0.592837
O O6 0.011334 0.870622 0.760248
O O7 0.500000 0.000000 0.000000
O O8 0.387270 0.015770 0.805049
O O9 0.095814 0.173597 0.022952
O O10 0.413847 0.313131 0.241195
O O11 0.615145 0.901781 0.356361
O O12 0.000000 0.000000 0.000000
O O13 0.427691 0.630316 0.673665
O O14 0.000000 0.500000 0.000000
O O15 0.055128 0.358400 0.649092
O O16 0.000000 0.500000 0.500000
#
# Coordination Sequence:
#
# PCOD9072588 Si02
#       7
#     2   2   2   2   2   2   2
#     4  10  19  40  67  99 143 175 226 297 359 417
#     4  12  25  42  68 110 149 184 239 299 359 430
#     4  10  20  37  68 102 136 176 232 294 349 428
#     4  11  26  49  72 100 139 197 244 290 360 432
#     4  12  20  38  70 109 137 183 228 286 374 421
#     4  11  25  45  75 102 143 185 238 301 361 430
#     4  12  29  48  70 105 149 189 245 300 355 435
#
# _framework density 22.744501
#
# number of rings (size 3 to 8) (size 9 to 14) (size 15 to 20)
#    0.000    0.857    5.714    1.714    2.000    5.143 
#    0.000    0.000    0.000    0.000    0.000    0.000 
#    0.000    0.000    0.000    0.000    0.000    0.000 
#
# Total GULP energy -78034.594750 kJ/mol
# GULP energy per Si atom -5573.899625 kJ/mol
# Density = 2.269273 g / cm^3
# Si number density = 22.744501 Si / 1000 Ang^3
#
#
#
# Elastic Constant Matrix: (Units=GPa)
#
#
# Indices 1 2 3 4 5 6 
#
# 1 108.0983 30.2402 2.8124 22.8507 17.3223 -22.8841
# 2 30.2402 64.7551 12.0931 35.1278 9.7879 -4.6576
# 3 2.8124 12.0931 99.7767 34.5371 -4.1158 -12.9395
# 4 22.8507 35.1278 34.5371 46.6982 -2.6990 -0.2569
# 5 17.3223 9.7879 -4.1158 -2.6990 35.1985 6.4637
# 6 -22.8841 -4.6576 -12.9395 -0.2569 6.4637 15.7219
#
#
#
# Elastic Compliance Matrix: (Units=1/GPa)
#
#
# Indices 1 2 3 4 5 6 
#
# 1 0.092536 0.056161 0.067881 -0.142717 -0.110095 0.250126
# 2 0.056161 0.072928 0.052692 -0.125194 -0.084287 0.179322
# 3 0.067881 0.052692 0.068921 -0.127751 -0.087441 0.204999
# 4 -0.142717 -0.125194 -0.127751 0.288557 0.189980 -0.423351
# 5 -0.110095 -0.084287 -0.087441 0.189980 0.169854 -0.323910
# 6 0.250126 0.179322 0.204999 -0.423351 -0.323910 0.775768
#
#
# Mechanical properties :
#
#
# Convention : Reuss Voigt Hill
#
# Bulk Modulus (GPa) = 1.70111 40.32462 21.01286
# Shear Modulus (GPa) = 3.81375 34.68937 19.25156
#
# Velocity S-wave (km/s) = 1.29631 3.90959 2.91250
# Velocity P-wave (km/s) = 1.72919 6.17638 4.53530
#
# Compressibility (1/GPa) = 0.58785263
#
# Stress axis : x y z
#
# Youngs Moduli (GPa) = 10.80664 13.71212 14.50934
#
# Poissons Ratio (x) = -0.77008 -0.98491
# Poissons Ratio (y) = -0.60691 -0.76452
# Poissons Ratio (z) = -0.73357 -0.72251
#
# Static dielectric constant tensor:
#      x y z
#    x 1.740890 -0.189800 -0.161260 
#    y -0.189800 1.916430 -0.281480 
#    z -0.161260 -0.281480 1.801870 
# 
# From -- ./inp_files/225932.got.cif
#   From: 2010.05.17/outbox.ucp.g08.bks.cvg/sg2_113_cif.got.tgz:225932.got - 2010.06.11 11:32:03.
