data_PCOD9072553
_publ_section_title
;
Structure prediction by ZEFSAII (Michael W. Deem and Ramdas Pophale) SiO2 
 PCOD9072553
Probable space group: P -1
;
_chemical_formula_sum "Si O2"
_cell_formula_units_Z 12
_cell_length_a 10.290498
_cell_length_b 7.403961
_cell_length_c 9.647076
_cell_angle_alpha 141.576645
_cell_angle_beta 90.144875
_cell_angle_gamma 91.699672
_cell_volume 456.193811
_symmetry_space_group_name_H-M "P -1"
_symmetry_group_IT_number 2
_symmetry_cell_setting 'triclinic'
loop_
_space_group_symop_operation_xyz
x,y,z
-x,-y,-z
loop_
_atom_site_type_symbol
_atom_site_label
_atom_site_fract_x
_atom_site_fract_y
_atom_site_fract_z
Si Si1 0.700016 0.121238 0.286476
Si Si2 0.362161 0.624848 0.826386
Si Si3 0.802914 0.921901 0.564387
Si Si4 0.023056 0.009605 0.842374
Si Si5 0.406093 0.709256 0.337498
Si Si6 0.817820 0.607702 0.103258
O O1 0.635984 0.131498 0.142704
O O2 0.638282 0.320039 0.520450
O O3 0.854513 0.187655 0.304895
O O4 0.701606 0.800683 0.161160
O O5 0.497406 0.544947 0.844055
O O6 0.251520 0.648158 0.957217
O O7 0.307625 0.335703 0.568076
O O8 0.725439 0.212736 0.699028
O O9 0.904290 0.930228 0.693473
O O10 0.869108 0.816864 0.358423
O O11 0.076441 0.332374 0.982608
O O12 0.000000 0.000000 0.000000
O O13 0.500000 0.000000 0.500000
#
# Coordination Sequence:
#
# PCOD9072553 Si02
#       6
#     2   2   2   2   2   2
#     4   9  17  27  47  71  92 119 151 187 233 262
#     4   9  16  28  49  73  91 112 153 198 224 267
#     4   8  16  28  48  68  92 118 154 186 232 262
#     4  10  18  31  46  66  96 126 153 183 227 274
#     4   9  14  27  48  71  93 116 146 192 233 265
#     4   7  17  29  47  66  90 119 151 187 226 259
#
# _framework density 26.304608999999999
#
# number of rings (size 3 to 8) (size 9 to 14) (size 15 to 20)
#    2.000    1.333    1.667    1.000    0.000    0.667 
#    0.000    0.833    0.000   10.000    0.000    0.000 
#    0.000    0.000    0.000    0.000    0.000    0.000 
#
# Total GULP energy -66846.654003 kJ/mol
# GULP energy per Si atom -5570.554500 kJ/mol
# Density = 2.624474 g / cm^3
# Si number density = 26.304609 Si / 1000 Ang^3
#
#
#
# Elastic Constant Matrix: (Units=GPa)
#
#
# Indices 1 2 3 4 5 6 
#
# 1 141.0115 35.5798 72.5677 -26.3706 18.5144 -11.5013
# 2 35.5798 125.1545 53.3322 -41.2306 1.0535 -1.1377
# 3 72.5677 53.3322 82.9547 -55.6734 -7.2842 -3.0597
# 4 -26.3706 -41.2306 -55.6734 61.6523 -2.0473 -1.9041
# 5 18.5144 1.0535 -7.2842 -2.0473 45.1947 -13.0144
# 6 -11.5013 -1.1377 -3.0597 -1.9041 -13.0144 38.4742
#
#
#
# Elastic Compliance Matrix: (Units=1/GPa)
#
#
# Indices 1 2 3 4 5 6 
#
# 1 0.031088 0.003266 -0.055720 -0.035825 -0.024926 -0.005246
# 2 0.003266 0.011556 -0.011799 -0.001689 -0.003878 -0.001016
# 3 -0.055720 -0.011799 0.137223 0.094522 0.054390 0.016984
# 4 -0.035825 -0.001689 0.094522 0.086809 0.037875 0.013866
# 5 -0.024926 -0.003878 0.054390 0.037875 0.047105 0.014568
# 6 -0.005246 -0.001016 0.016984 0.013866 0.014568 0.031358
#
#
# Mechanical properties :
#
#
# Convention : Reuss Voigt Hill
#
# Bulk Modulus (GPa) = 19.46982 74.67557 47.07270
# Shear Modulus (GPa) = 10.18822 41.57365 25.88093
#
# Velocity S-wave (km/s) = 1.97017 3.97983 3.14011
# Velocity P-wave (km/s) = 3.54869 7.04053 5.57505
#
# Compressibility (1/GPa) = 0.05136153
#
# Stress axis : x y z
#
# Youngs Moduli (GPa) = 32.16726 86.53331 7.28743
#
# Poissons Ratio (x) = -0.28266 0.40606
# Poissons Ratio (y) = -0.10507 0.08598
# Poissons Ratio (z) = 1.79237 1.02097
#
# Static dielectric constant tensor:
#      x y z
#    x 2.093400 -0.006170 0.008380 
#    y -0.006170 2.129520 0.141830 
#    z 0.008380 0.141830 2.199900 
# 
# From -- ./inp_files/232704.got.cif
#   From: 2010.05.17/outbox.cif.g08.bks.cpg/sg2_117_cif.got.tgz:232704.got - 2010.06.03 11:33:40.
