data_PCOD9072775
_publ_section_title
;
Structure prediction by ZEFSAII (Michael W. Deem and Ramdas Pophale) SiO2 
 PCOD9072775
Probable space group: P -1
;
_chemical_formula_sum "Si O2"
_cell_formula_units_Z 16
_cell_length_a 14.673096
_cell_length_b 14.389203
_cell_length_c 17.716407
_cell_angle_alpha 158.067687
_cell_angle_beta 38.694217
_cell_angle_gamma 129.266371
_cell_volume 804.254225
_symmetry_space_group_name_H-M "P -1"
_symmetry_group_IT_number 2
_symmetry_cell_setting 'triclinic'
loop_
_space_group_symop_operation_xyz
x,y,z
-x,-y,-z
loop_
_atom_site_type_symbol
_atom_site_label
_atom_site_fract_x
_atom_site_fract_y
_atom_site_fract_z
Si Si1 0.620707 0.965748 0.327621
Si Si2 0.183534 0.638792 0.301001
Si Si3 0.648942 0.257698 0.090821
Si Si4 0.618832 0.815020 0.873485
Si Si5 0.716569 0.446185 0.667340
Si Si6 0.917506 0.934682 0.576949
Si Si7 0.582607 0.118643 0.728603
Si Si8 0.315262 0.256987 0.485512
O O1 0.514309 0.016106 0.359097
O O2 0.500000 0.000000 0.500000
O O3 0.704651 0.172565 0.440403
O O4 0.743700 0.657754 0.006946
O O5 0.164207 0.609096 0.380777
O O6 0.316339 0.765874 0.301735
O O7 0.036823 0.823362 0.485205
O O8 0.472862 0.333294 0.228249
O O9 0.666839 0.471680 0.297588
O O10 0.692627 0.970174 0.887791
O O11 0.770620 0.202074 0.901021
O O12 0.729646 0.620081 0.718204
O O13 0.473593 0.059306 0.191783
O O14 0.545994 0.634902 0.956322
O O15 0.837773 0.723632 0.447657
O O16 0.000000 0.000000 0.500000
O O17 0.691231 0.903257 0.555055
#
# Coordination Sequence:
#
# PCOD9072775 Si02
#       8
#     2   2   2   2   2   2   2   2
#     4  11  18  29  53  79 106 143 184 224 275 330
#     4  11  21  34  49  77 116 145 178 221 272 330
#     4  10  21  39  60  85 109 148 191 229 281 334
#     4   9  20  38  63  85 111 137 187 249 281 315
#     4  10  19  34  53  81 109 140 178 233 284 318
#     4  11  24  39  53  79 121 156 182 224 274 337
#     4  10  18  31  50  80 111 139 175 228 276 323
#     4  10  20  36  60  84 111 146 188 230 279 330
#
# _framework density 19.894207000000002
#
# number of rings (size 3 to 8) (size 9 to 14) (size 15 to 20)
#    0.000    1.750    3.750    1.875    0.000    2.500 
#    0.000    0.625    0.000    1.500    0.000    0.000 
#    0.000    0.000    0.000    0.000    0.000    0.000 
#
# Total GULP energy -89299.168164 kJ/mol
# GULP energy per Si atom -5581.198010 kJ/mol
# Density = 1.984893 g / cm^3
# Si number density = 19.894207 Si / 1000 Ang^3
#
#
#
# Elastic Constant Matrix: (Units=GPa)
#
#
# Indices 1 2 3 4 5 6 
#
# 1 107.1712 18.2244 26.4488 16.7995 3.4453 -3.8229
# 2 18.2244 67.0134 15.6530 5.2581 3.4627 -12.2668
# 3 26.4488 15.6530 40.0127 13.0035 22.1133 14.7747
# 4 16.7995 5.2581 13.0035 20.2057 1.7873 1.4741
# 5 3.4453 3.4627 22.1133 1.7873 33.8050 12.0805
# 6 -3.8229 -12.2668 14.7747 1.4741 12.0805 33.2169
#
#
#
# Elastic Compliance Matrix: (Units=1/GPa)
#
#
# Indices 1 2 3 4 5 6 
#
# 1 0.012890 0.000352 -0.012049 -0.003873 0.004809 0.005396
# 2 0.000352 0.020691 -0.016507 0.003638 0.003608 0.013550
# 3 -0.012049 -0.016507 0.082149 -0.033039 -0.038923 -0.028400
# 4 -0.003873 0.003638 -0.033039 0.071164 0.015434 0.006822
# 5 0.004809 0.003608 -0.038923 0.015434 0.053734 -0.001029
# 6 0.005396 0.013550 -0.028400 0.006822 -0.001029 0.048434
#
#
# Mechanical properties :
#
#
# Convention : Reuss Voigt Hill
#
# Bulk Modulus (GPa) = 16.85723 37.20552 27.03138
# Shear Modulus (GPa) = 13.68951 27.70361 20.69656
#
# Velocity S-wave (km/s) = 2.62604 3.73573 3.22892
# Velocity P-wave (km/s) = 4.20555 6.11145 5.24578
#
# Compressibility (1/GPa) = 0.05932172
#
# Stress axis : x y z
#
# Youngs Moduli (GPa) = 77.58175 48.33095 12.17297
#
# Poissons Ratio (x) = -0.01703 0.14668
# Poissons Ratio (y) = -0.02733 0.20094
# Poissons Ratio (z) = 0.93482 0.79779
#
# Static dielectric constant tensor:
#      x y z
#    x 1.749900 -0.023200 0.001870 
#    y -0.023200 1.705700 0.002010 
#    z 0.001870 0.002010 1.684470 
# 
# From -- ./inp_files/71973.got.cif
#   From: 2010.05.17/outbox.cif.g08.bks.cpg/sg2_36_cif.got.tgz:71973.got - 2010.06.03 11:33:40.
