data_PCOD9072143
_publ_section_title
;
Structure prediction by ZEFSAII (Michael W. Deem and Ramdas Pophale) SiO2 
 PCOD9072143
Probable space group: P -1
;
_chemical_formula_sum "Si O2"
_cell_formula_units_Z 16
_cell_length_a 11.010006
_cell_length_b 7.807193
_cell_length_c 12.626094
_cell_angle_alpha 37.533857
_cell_angle_beta 103.245011
_cell_angle_gamma 105.294718
_cell_volume 637.414336
_symmetry_space_group_name_H-M "P -1"
_symmetry_group_IT_number 2
_symmetry_cell_setting 'triclinic'
loop_
_space_group_symop_operation_xyz
x,y,z
-x,-y,-z
loop_
_atom_site_type_symbol
_atom_site_label
_atom_site_fract_x
_atom_site_fract_y
_atom_site_fract_z
Si Si1 0.444719 0.267209 0.808024
Si Si2 0.307181 0.572645 0.335657
Si Si3 0.292706 0.901493 0.375900
Si Si4 0.198766 0.670242 0.700760
Si Si5 0.945455 0.691711 0.558207
Si Si6 0.803467 0.962085 0.059079
Si Si7 0.037373 0.935003 0.236034
Si Si8 0.456298 0.680660 0.806547
O O1 0.548291 0.416151 0.674594
O O2 0.299640 0.140848 0.819596
O O3 0.442505 0.484906 0.796603
O O4 0.500000 0.000000 0.000000
O O5 0.302624 0.648221 0.420598
O O6 0.195898 0.313391 0.423592
O O7 0.255937 0.819736 0.134174
O O8 0.245401 0.788516 0.535664
O O9 0.181690 0.063662 0.225520
O O10 0.429770 0.077218 0.315284
O O11 0.056957 0.744189 0.641267
O O12 0.183997 0.325749 0.861529
O O13 0.317248 0.766022 0.754092
O O14 0.975298 0.870485 0.370071
O O15 0.955146 0.368785 0.672396
O O16 0.938935 0.080757 0.075853
O O17 0.500000 0.500000 0.000000
#
# Coordination Sequence:
#
# PCOD9072143 Si02
#       8
#     2   2   2   2   2   2   2   2
#     4   9  19  34  49  71 103 130 158 202 246 288
#     4  10  18  30  52  76 101 129 162 203 245 287
#     4  10  19  32  52  76 101 128 158 201 251 292
#     4   9  18  32  49  73 103 128 162 204 242 287
#     4   8  15  28  47  71  98 128 161 201 243 282
#     4   9  16  28  47  71  98 129 165 201 236 279
#     4   8  15  28  46  71 100 126 161 204 239 281
#     4  11  21  34  54  74  96 129 168 204 240 289
#
# _framework density 25.101412
#
# number of rings (size 3 to 8) (size 9 to 14) (size 15 to 20)
#    0.000    2.750    0.000    4.875    0.000    5.500 
#    0.000    5.625    0.000   14.250    0.000    0.000 
#    0.000    0.000    0.000    0.000    0.000    0.000 
#
# Total GULP energy -89367.923041 kJ/mol
# GULP energy per Si atom -5585.495190 kJ/mol
# Density = 2.504428 g / cm^3
# Si number density = 25.101412 Si / 1000 Ang^3
#
#
#
# Elastic Constant Matrix: (Units=GPa)
#
#
# Indices 1 2 3 4 5 6 
#
# 1 152.6496 31.7479 45.8175 6.7671 -0.4673 38.7015
# 2 31.7479 65.1461 10.0551 1.4270 3.0554 28.5099
# 3 45.8175 10.0551 85.7606 11.1819 6.2864 9.3331
# 4 6.7671 1.4270 11.1819 26.9048 3.6952 -1.4856
# 5 -0.4673 3.0554 6.2864 3.6952 51.4735 3.5596
# 6 38.7015 28.5099 9.3331 -1.4856 3.5596 48.7649
#
#
#
# Elastic Compliance Matrix: (Units=1/GPa)
#
#
# Indices 1 2 3 4 5 6 
#
# 1 0.009772 -0.001401 -0.004324 -0.001097 0.001210 -0.006231
# 2 -0.001401 0.020986 -0.000322 -0.001190 -0.000366 -0.011105
# 3 -0.004324 -0.000322 0.014652 -0.004732 -0.001524 0.000783
# 4 -0.001097 -0.001190 -0.004732 0.040031 -0.002503 0.003874
# 5 0.001210 -0.000366 -0.001524 -0.002503 0.019963 -0.001988
# 6 -0.006231 -0.011105 0.000783 0.003874 -0.001988 0.032057
#
#
# Mechanical properties :
#
#
# Convention : Reuss Voigt Hill
#
# Bulk Modulus (GPa) = 30.01516 53.19971 41.60743
# Shear Modulus (GPa) = 31.12153 39.82436 35.47295
#
# Velocity S-wave (km/s) = 3.52494 3.98746 3.76331
# Velocity P-wave (km/s) = 5.34327 6.51458 5.95778
#
# Compressibility (1/GPa) = 0.03331650
#
# Stress axis : x y z
#
# Youngs Moduli (GPa) = 102.33154 47.65152 68.25109
#
# Poissons Ratio (x) = 0.06675 0.29513
# Poissons Ratio (y) = 0.14336 0.02194
# Poissons Ratio (z) = 0.44250 0.01532
#
# Static dielectric constant tensor:
#      x y z
#    x 2.043830 0.080230 -0.002700 
#    y 0.080230 1.998350 -0.012210 
#    z -0.002700 -0.012210 1.980950 
# 
# From -- ./inp_files/199602.got.cif
#   From: 2010.05.17/outbox.cif.g08.bks.cpg/sg2_100_cif.got.tgz:199602.got - 2010.06.03 11:33:40.
