data_PCOD9072977
_publ_section_title
;
Structure prediction by ZEFSAII (Michael W. Deem and Ramdas Pophale) SiO2 
 PCOD9072977
Probable space group: P -1
;
_chemical_formula_sum "Si O2"
_cell_formula_units_Z 16
_cell_length_a 15.000000
_cell_length_b 15.000000
_cell_length_c 9.000000
_cell_angle_alpha 80.000000
_cell_angle_beta 80.000000
_cell_angle_gamma 150.000000
_cell_volume 750.794245
_symmetry_space_group_name_H-M "P -1"
_symmetry_group_IT_number 2
_symmetry_cell_setting 'triclinic'
loop_
_space_group_symop_operation_xyz
x,y,z
-x,-y,-z
loop_
_atom_site_type_symbol
_atom_site_label
_atom_site_fract_x
_atom_site_fract_y
_atom_site_fract_z
Si Si1 0.373960 0.604839 0.100257
Si Si2 0.394227 0.056538 0.821981
Si Si3 0.003848 0.446283 0.860737
Si Si4 0.299835 0.243155 0.186768
Si Si5 0.527824 0.197578 0.258981
Si Si6 0.841712 0.058156 0.344638
Si Si7 0.740092 0.763431 0.442781
Si Si8 0.317305 0.821620 0.463796
O O1 0.483364 0.750415 0.174834
O O2 0.111133 0.315487 0.256624
O O3 0.577129 0.730937 0.929086
O O4 0.351246 0.661672 0.968389
O O5 0.598380 0.182973 0.657885
O O6 0.227851 0.937643 0.768588
O O7 0.218052 0.823356 0.022454
O O8 0.247008 0.612903 0.754309
O O9 0.058616 0.566524 0.677803
O O10 0.000000 0.500000 0.000000
O O11 0.304388 0.265761 0.357756
O O12 0.500000 0.500000 0.000000
O O13 0.017133 0.980795 0.295060
O O14 0.347742 0.097170 0.425545
O O15 0.366042 0.961941 0.334666
O O16 0.786848 0.909249 0.335313
O O17 0.500000 0.500000 0.500000
O O18 0.500000 0.000000 0.500000
#
# Coordination Sequence:
#
# PCOD9072977 Si02
#       8
#     2   2   2   2   2   2   2   2
#     4  12  28  43  68 105 137 180 232 280 346 416
#     4  12  25  41  69 101 133 182 235 278 338 413
#     4  11  19  39  69  92 132 184 230 282 340 391
#     4  11  25  50  70 103 151 176 214 300 352 408
#     4  11  22  42  68  93 141 182 220 284 347 387
#     4  12  24  46  68 100 142 176 222 291 341 403
#     4  11  27  46  79 106 135 183 233 276 355 430
#     4  10  20  39  66  96 134 185 225 283 344 389
#
# _framework density 21.310765
#
# number of rings (size 3 to 8) (size 9 to 14) (size 15 to 20)
#    0.000    0.750    8.750    0.000    1.750    4.000 
#    0.000    1.250    0.000    0.000    0.000    0.000 
#    0.000    0.000    0.000    0.000    0.000    0.000 
#
# Total GULP energy -89103.440095 kJ/mol
# GULP energy per Si atom -5568.965006 kJ/mol
# Density = 2.126226 g / cm^3
# Si number density = 21.310765 Si / 1000 Ang^3
#
#
#
# Elastic Constant Matrix: (Units=GPa)
#
#
# Indices 1 2 3 4 5 6 
#
# 1 53.4002 30.5666 20.0695 -2.5004 -21.9467 -13.9126
# 2 30.5666 157.7894 36.4211 -18.6975 -21.4804 -10.1256
# 3 20.0695 36.4211 99.7813 -21.8240 -16.7933 -8.6808
# 4 -2.5004 -18.6975 -21.8240 38.3156 -3.7456 -1.6634
# 5 -21.9467 -21.4804 -16.7933 -3.7456 44.3624 -4.5824
# 6 -13.9126 -10.1256 -8.6808 -1.6634 -4.5824 31.5908
#
#
#
# Elastic Compliance Matrix: (Units=1/GPa)
#
#
# Indices 1 2 3 4 5 6 
#
# 1 0.030810 -0.002402 -0.000860 0.002514 0.015510 0.014945
# 2 -0.002402 0.007942 -0.001040 0.003472 0.002741 0.001782
# 3 -0.000860 -0.001040 0.013548 0.007853 0.005296 0.004192
# 4 0.002514 0.003472 0.007853 0.033688 0.009520 0.007532
# 5 0.015510 0.002741 0.005296 0.009520 0.035886 0.014871
# 6 0.014945 0.001782 0.004192 0.007532 0.014871 0.042514
#
#
# Mechanical properties :
#
#
# Convention : Reuss Voigt Hill
#
# Bulk Modulus (GPa) = 22.88527 53.89837 38.39182
# Shear Modulus (GPa) = 26.65867 37.78132 32.22000
#
# Velocity S-wave (km/s) = 3.54071 4.21512 3.89255
# Velocity P-wave (km/s) = 5.24191 7.00258 6.18522
#
# Compressibility (1/GPa) = 0.04369622
#
# Stress axis : x y z
#
# Youngs Moduli (GPa) = 32.45692 125.91690 73.81122
#
# Poissons Ratio (x) = 0.30241 0.06348
# Poissons Ratio (y) = 0.07795 0.07677
# Poissons Ratio (z) = 0.02792 0.13097
#
# Static dielectric constant tensor:
#      x y z
#    x 1.969890 0.014260 0.100530 
#    y 0.014260 1.744180 0.001640 
#    z 0.100530 0.001640 1.841770 
# 
# From -- ./inp_files/315084.got.cif
#   From: 2010.05.17/outbox.ucp.g08.bks.cvg/sg2_158_cif.got.tgz:315084.got - 2010.06.11 11:32:03.
