data_PCOD9072840
_publ_section_title
;
Structure prediction by ZEFSAII (Michael W. Deem and Ramdas Pophale) SiO2 
 PCOD9072840
Probable space group: P -1
;
_chemical_formula_sum "Si O2"
_cell_formula_units_Z 14
_cell_length_a 9.000000
_cell_length_b 21.000000
_cell_length_c 6.000000
_cell_angle_alpha 70.000000
_cell_angle_beta 90.000000
_cell_angle_gamma 40.000000
_cell_volume 617.169155
_symmetry_space_group_name_H-M "P -1"
_symmetry_group_IT_number 2
_symmetry_cell_setting 'triclinic'
loop_
_space_group_symop_operation_xyz
x,y,z
-x,-y,-z
loop_
_atom_site_type_symbol
_atom_site_label
_atom_site_fract_x
_atom_site_fract_y
_atom_site_fract_z
Si Si1 0.267110 0.407174 0.902547
Si Si2 0.739831 0.186993 0.448347
Si Si3 0.337500 0.171972 0.186487
Si Si4 0.065338 0.136517 0.135749
Si Si5 0.390486 0.904519 0.224014
Si Si6 0.595235 0.346255 0.611647
Si Si7 0.143724 0.550872 0.100156
O O1 0.406655 0.366111 0.720253
O O2 0.006428 0.462519 0.813115
O O3 0.467279 0.289693 0.193135
O O4 0.226463 0.495423 0.917773
O O5 0.740060 0.119871 0.684477
O O6 0.724490 0.258945 0.513688
O O7 0.959242 0.123826 0.342133
O O8 0.266894 0.118768 0.229949
O O9 0.463365 0.136207 0.481326
O O10 0.473049 0.143496 0.972540
O O11 0.071300 0.312601 0.038618
O O12 0.189771 0.041206 0.064380
O O13 0.824783 0.269458 0.879127
O O14 0.395240 0.471990 0.344420
#
# Coordination Sequence:
#
# PCOD9072840 Si02
#       7
#     2   2   2   2   2   2   2
#     4   9  18  37  62 104 132 177 229 288 340 411
#     4  10  22  42  71 103 137 181 237 287 349 406
#     4  12  28  46  74 104 141 188 233 288 351 416
#     4  11  27  46  68 101 147 180 233 289 357 412
#     4  12  27  48  74 103 136 191 242 285 339 417
#     4  10  22  38  67 100 137 184 220 294 349 409
#     4  10  20  37  67  97 139 177 234 280 347 416
#
# _framework density 22.684218999999999
#
# number of rings (size 3 to 8) (size 9 to 14) (size 15 to 20)
#    0.000    1.429    1.429    2.571    8.000    1.143 
#    0.000    6.429    0.000    0.000    0.000    0.000 
#    0.000    0.000    0.000    0.000    0.000    0.000 
#
# Total GULP energy -77998.912348 kJ/mol
# GULP energy per Si atom -5571.350882 kJ/mol
# Density = 2.263259 g / cm^3
# Si number density = 22.684219 Si / 1000 Ang^3
#
#
#
# Elastic Constant Matrix: (Units=GPa)
#
#
# Indices 1 2 3 4 5 6 
#
# 1 65.7403 -0.8598 13.1792 -2.3312 -4.2833 -0.0820
# 2 -0.8598 107.0309 17.6478 -13.9273 -12.6312 -3.7276
# 3 13.1792 17.6478 110.7191 -11.0507 10.6388 -10.9916
# 4 -2.3312 -13.9273 -11.0507 31.1182 7.0136 -6.4266
# 5 -4.2833 -12.6312 10.6388 7.0136 16.4332 -3.0500
# 6 -0.0820 -3.7276 -10.9916 -6.4266 -3.0500 22.2867
#
#
#
# Elastic Compliance Matrix: (Units=1/GPa)
#
#
# Indices 1 2 3 4 5 6 
#
# 1 0.016301 0.001382 -0.003049 -0.001066 0.007652 -0.000473
# 2 0.001382 0.011383 -0.002391 0.002678 0.010049 0.002877
# 3 -0.003049 -0.002391 0.012283 0.007120 -0.012513 0.005988
# 4 -0.001066 0.002678 0.007120 0.042804 -0.018544 0.013761
# 5 0.007652 0.010049 -0.012513 -0.018544 0.086974 0.002093
# 6 -0.000473 0.002877 0.005988 0.013761 0.002093 0.052557
#
#
# Mechanical properties :
#
#
# Convention : Reuss Voigt Hill
#
# Bulk Modulus (GPa) = 31.39776 38.15829 34.77803
# Shear Modulus (GPa) = 20.74366 30.86914 25.80640
#
# Velocity S-wave (km/s) = 3.02727 3.69293 3.37655
# Velocity P-wave (km/s) = 5.10788 5.91960 5.52866
#
# Compressibility (1/GPa) = 0.03184940
#
# Stress axis : x y z
#
# Youngs Moduli (GPa) = 61.34634 87.84949 81.41061
#
# Poissons Ratio (x) = -0.12137 0.24823
# Poissons Ratio (y) = -0.08476 0.19469
# Poissons Ratio (z) = 0.18705 0.21009
#
# Static dielectric constant tensor:
#      x y z
#    x 1.842650 0.004210 0.053890 
#    y 0.004210 1.860330 -0.011800 
#    z 0.053890 -0.011800 1.929820 
# 
# From -- ./inp_files/27752.got.cif
#   From: 2010.05.17/outbox.ucp.g08.bks.cvg/sg2_14_cif.got.tgz:27752.got - 2010.06.11 11:32:03.
