data_PCOD9072643
_publ_section_title
;
Structure prediction by ZEFSAII (Michael W. Deem and Ramdas Pophale) SiO2 
 PCOD9072643
Probable space group: P -1
;
_chemical_formula_sum "Si O2"
_cell_formula_units_Z 16
_cell_length_a 14.134431
_cell_length_b 14.367423
_cell_length_c 8.503678
_cell_angle_alpha 141.676709
_cell_angle_beta 85.620947
_cell_angle_gamma 120.679927
_cell_volume 731.584860
_symmetry_space_group_name_H-M "P -1"
_symmetry_group_IT_number 2
_symmetry_cell_setting 'triclinic'
loop_
_space_group_symop_operation_xyz
x,y,z
-x,-y,-z
loop_
_atom_site_type_symbol
_atom_site_label
_atom_site_fract_x
_atom_site_fract_y
_atom_site_fract_z
Si Si1 0.757609 0.977991 0.742504
Si Si2 0.487768 0.753080 0.288005
Si Si3 0.202876 0.282222 0.702418
Si Si4 0.808849 0.369717 0.300920
Si Si5 0.539389 0.688164 0.637507
Si Si6 0.749631 0.552492 0.751990
Si Si7 0.500045 0.082343 0.832869
Si Si8 0.891298 0.743001 0.659026
O O1 0.632076 0.866918 0.491465
O O2 0.844868 0.943588 0.614928
O O3 0.680189 0.827712 0.708766
O O4 0.830590 0.219155 0.087057
O O5 0.512062 0.845355 0.233447
O O6 0.435708 0.842576 0.507181
O O7 0.370067 0.492391 0.949665
O O8 0.156049 0.312360 0.589782
O O9 0.172943 0.304089 0.911355
O O10 0.780050 0.411226 0.529415
O O11 0.922834 0.605790 0.515530
O O12 0.662012 0.236160 0.054077
O O13 0.500000 0.500000 0.500000
O O14 0.409368 0.574453 0.389016
O O15 0.553952 0.862241 0.959505
O O16 0.792597 0.662947 0.717897
O O17 0.000000 0.000000 0.000000
#
# Coordination Sequence:
#
# PCOD9072643 Si02
#       8
#     2   2   2   2   2   2   2   2
#     4  11  22  31  56  85 124 151 172 228 285 333
#     4  10  18  31  48  81 113 152 181 219 269 336
#     4  12  21  36  58  87 116 145 192 234 277 340
#     4   8  19  39  52  82 113 148 193 226 277 338
#     4  11  20  31  49  80 124 159 180 215 280 342
#     4   9  21  36  58  82 112 146 199 228 267 345
#     4   9  18  29  50  73 116 153 186 215 265 336
#     4  10  22  43  64  78 108 150 195 249 290 325
#
# _framework density 21.870325999999999
#
# number of rings (size 3 to 8) (size 9 to 14) (size 15 to 20)
#    0.750    1.250    2.500    1.875    3.500    2.000 
#    0.000    0.625    0.000    0.750    0.000    0.000 
#    0.000    0.000    0.000    0.000    0.000    0.000 
#
# Total GULP energy -89138.531150 kJ/mol
# GULP energy per Si atom -5571.158197 kJ/mol
# Density = 2.182055 g / cm^3
# Si number density = 21.870326 Si / 1000 Ang^3
#
#
#
# Elastic Constant Matrix: (Units=GPa)
#
#
# Indices 1 2 3 4 5 6 
#
# 1 42.9736 24.4033 33.1692 -8.5575 -11.7481 -15.7879
# 2 24.4033 101.1635 52.2019 -18.4906 -10.6338 -19.9485
# 3 33.1692 52.2019 131.8833 0.0133 -33.4233 -12.7939
# 4 -8.5575 -18.4906 0.0133 46.3859 -9.0198 4.6027
# 5 -11.7481 -10.6338 -33.4233 -9.0198 30.0398 5.7684
# 6 -15.7879 -19.9485 -12.7939 4.6027 5.7684 17.5285
#
#
#
# Elastic Compliance Matrix: (Units=1/GPa)
#
#
# Indices 1 2 3 4 5 6 
#
# 1 0.041643 0.001047 -0.006582 0.006101 0.005299 0.030550
# 2 0.001047 0.016104 -0.005601 0.004918 -0.001401 0.014353
# 3 -0.006582 -0.005601 0.013887 -0.000556 0.011865 -0.005925
# 4 0.006101 0.004918 -0.000556 0.026928 0.011635 -0.000214
# 5 0.005299 -0.001401 0.011865 0.011635 0.053239 -0.008737
# 6 0.030550 0.014353 -0.005925 -0.000214 -0.008737 0.099506
#
#
# Mechanical properties :
#
#
# Convention : Reuss Voigt Hill
#
# Bulk Modulus (GPa) = 20.25818 55.06325 37.66071
# Shear Modulus (GPa) = 17.23943 29.87390 23.55666
#
# Velocity S-wave (km/s) = 2.81064 3.69989 3.28549
# Velocity P-wave (km/s) = 4.45150 6.59425 5.62583
#
# Compressibility (1/GPa) = 0.04936278
#
# Stress axis : x y z
#
# Youngs Moduli (GPa) = 24.01378 62.09487 72.00886
#
# Poissons Ratio (x) = -0.06503 0.47396
# Poissons Ratio (y) = -0.02515 0.40332
# Poissons Ratio (z) = 0.15806 0.34780
#
# Static dielectric constant tensor:
#      x y z
#    x 1.808670 0.018030 -0.007920 
#    y 0.018030 1.853780 0.009520 
#    z -0.007920 0.009520 1.853280 
# 
# From -- ./inp_files/347076.got.cif
#   From: 2010.05.17/outbox.cif.g08.bks.cpg/sg2_174_cif.got.tgz:347076.got - 2010.06.03 11:33:40.
