data_PCOD9072084
_publ_section_title
;
Structure prediction by ZEFSAII (Michael W. Deem and Ramdas Pophale) SiO2 
 PCOD9072084
Probable space group: P -1
;
_chemical_formula_sum "Si O2"
_cell_formula_units_Z 16
_cell_length_a 12.000000
_cell_length_b 18.000000
_cell_length_c 21.000000
_cell_angle_alpha 150.000000
_cell_angle_beta 30.000000
_cell_angle_gamma 160.000000
_cell_volume 738.640068
_symmetry_space_group_name_H-M "P -1"
_symmetry_group_IT_number 2
_symmetry_cell_setting 'triclinic'
loop_
_space_group_symop_operation_xyz
x,y,z
-x,-y,-z
loop_
_atom_site_type_symbol
_atom_site_label
_atom_site_fract_x
_atom_site_fract_y
_atom_site_fract_z
Si Si1 0.239577 0.403645 0.404096
Si Si2 0.962133 0.829449 0.805401
Si Si3 0.810883 0.506459 0.046882
Si Si4 0.769589 0.438040 0.674585
Si Si5 0.258831 0.210634 0.647865
Si Si6 0.707501 0.743932 0.103805
Si Si7 0.772458 0.213443 0.070202
Si Si8 0.627510 0.715382 0.629135
O O1 0.078375 0.260836 0.312374
O O2 0.594166 0.657379 0.393591
O O3 0.280509 0.290604 0.349102
O O4 0.012243 0.422522 0.557322
O O5 0.596756 0.721563 0.920559
O O6 0.972738 0.696028 0.750643
O O7 0.243327 0.098687 0.854560
O O8 0.861524 0.702409 0.190592
O O9 0.000000 0.500000 0.000000
O O10 0.958242 0.573010 0.952618
O O11 0.567925 0.306766 0.610555
O O12 0.490454 0.309558 0.773404
O O13 0.960270 0.941724 0.595696
O O14 0.500000 0.500000 0.000000
O O15 0.066077 0.846342 0.018632
O O16 0.622606 0.268975 0.229424
O O17 0.500000 0.000000 0.000000
O O18 0.500000 0.500000 0.500000
#
# Coordination Sequence:
#
# PCOD9072084 Si02
#       8
#     2   2   2   2   2   2   2   2
#     4  10  22  41  68  95 124 168 218 265 321 387
#     4  10  21  40  65  97 123 163 222 268 321 385
#     4  10  18  35  67  95 119 163 223 277 312 363
#     4  10  21  43  66  97 123 164 221 267 320 390
#     4  10  20  41  65  94 125 160 222 271 314 385
#     4  12  26  41  64  99 135 172 211 272 340 390
#     4  12  21  45  69  94 131 173 229 271 308 396
#     4  12  27  41  61  97 137 174 211 264 337 387
#
# _framework density 21.661429999999999
#
# number of rings (size 3 to 8) (size 9 to 14) (size 15 to 20)
#    0.000    1.500    3.750    5.250    1.750    4.000 
#    0.000    0.000    0.000    0.000    0.000    0.000 
#    0.000    0.000    0.000    0.000    0.000    0.000 
#
# Total GULP energy -89376.440517 kJ/mol
# GULP energy per Si atom -5586.027532 kJ/mol
# Density = 2.161213 g / cm^3
# Si number density = 21.661430 Si / 1000 Ang^3
#
#
#
# Elastic Constant Matrix: (Units=GPa)
#
#
# Indices 1 2 3 4 5 6 
#
# 1 16.8114 -1.4710 -4.2496 -8.0889 -14.0976 -11.0753
# 2 -1.4710 110.0366 33.1232 23.5714 -3.6757 -22.6720
# 3 -4.2496 33.1232 79.6027 -12.5143 -5.1639 -1.9464
# 4 -8.0889 23.5714 -12.5143 26.7461 5.8832 -3.4330
# 5 -14.0976 -3.6757 -5.1639 5.8832 20.0876 10.3559
# 6 -11.0753 -22.6720 -1.9464 -3.4330 10.3559 27.6090
#
#
#
# Elastic Compliance Matrix: (Units=1/GPa)
#
#
# Indices 1 2 3 4 5 6 
#
# 1 0.272750 -0.011701 0.044311 0.089768 0.143262 0.060354
# 2 -0.011701 0.019937 -0.012924 -0.024622 -0.005761 0.009866
# 3 0.044311 -0.012924 0.027109 0.032734 0.023975 0.004151
# 4 0.089768 -0.024622 0.032734 0.097919 0.028047 0.019754
# 5 0.143262 -0.005761 0.023975 0.028047 0.145496 0.003341
# 6 0.060354 0.009866 0.004151 0.019754 0.003341 0.070028
#
#
# Mechanical properties :
#
#
# Convention : Reuss Voigt Hill
#
# Bulk Modulus (GPa) = 2.78421 29.02842 15.90632
# Shear Modulus (GPa) = 7.00684 26.82508 16.91596
#
# Velocity S-wave (km/s) = 1.80048 3.52288 2.79754
# Velocity P-wave (km/s) = 2.36863 5.47518 4.21830
#
# Compressibility (1/GPa) = 0.35916805
#
# Stress axis : x y z
#
# Youngs Moduli (GPa) = 3.66636 50.15912 36.88878
#
# Poissons Ratio (x) = 0.58692 -1.63459
# Poissons Ratio (y) = 0.04290 0.47674
# Poissons Ratio (z) = -0.16246 0.64824
#
# Static dielectric constant tensor:
#      x y z
#    x 1.791230 0.019450 0.025390 
#    y 0.019450 1.848490 -0.008240 
#    z 0.025390 -0.008240 1.786430 
# 
# From -- ./inp_files/596004.got.cif
#   From: 2010.05.17/outbox.ucp.g08.bks.cvg/sg2_299_cif.got.tgz:596004.got - 2010.06.11 11:32:03.
