data_PCOD9072876
_publ_section_title
;
Structure prediction by ZEFSAII (Michael W. Deem and Ramdas Pophale) SiO2 
 PCOD9072876
Probable space group: P -1
;
_chemical_formula_sum "Si O2"
_cell_formula_units_Z 14
_cell_length_a 15.289884
_cell_length_b 8.883957
_cell_length_c 18.053370
_cell_angle_alpha 142.438101
_cell_angle_beta 25.581848
_cell_angle_gamma 142.067355
_cell_volume 619.668908
_symmetry_space_group_name_H-M "P -1"
_symmetry_group_IT_number 2
_symmetry_cell_setting 'triclinic'
loop_
_space_group_symop_operation_xyz
x,y,z
-x,-y,-z
loop_
_atom_site_type_symbol
_atom_site_label
_atom_site_fract_x
_atom_site_fract_y
_atom_site_fract_z
Si Si1 0.821272 0.059359 0.927127
Si Si2 0.965973 0.311736 0.777345
Si Si3 0.274813 0.111471 0.914022
Si Si4 0.828435 0.252205 0.453567
Si Si5 0.397071 0.700535 0.060258
Si Si6 0.868264 0.183305 0.555848
Si Si7 0.804558 0.172064 0.276327
O O1 0.931816 0.307983 0.890742
O O2 0.985887 0.891118 0.743776
O O3 0.730255 0.074529 0.084592
O O4 0.629523 0.888155 0.957710
O O5 0.741910 0.295330 0.904368
O O6 0.130600 0.556031 0.710227
O O7 0.044931 0.063479 0.601996
O O8 0.330132 0.025755 0.757570
O O9 0.392571 0.404445 0.959407
O O10 0.028720 0.109991 0.091899
O O11 0.739865 0.174790 0.573608
O O12 0.723318 0.190499 0.428836
O O13 0.936988 0.558080 0.492279
O O14 0.270421 0.786734 0.257030
#
# Coordination Sequence:
#
# PCOD9072876 Si02
#       7
#     2   2   2   2   2   2   2
#     4  10  19  32  50  79 105 128 166 206 256 296
#     4  10  20  31  50  78 104 132 163 206 252 299
#     4   9  18  31  51  73 101 132 168 209 242 295
#     4   9  18  32  52  77  96 132 172 208 246 290
#     4  11  19  32  52  81 102 130 162 210 262 290
#     4  10  18  31  51  79 101 126 170 210 253 288
#     4   9  17  33  51  73 101 132 171 204 245 292
#
# _framework density 22.59271
#
# number of rings (size 3 to 8) (size 9 to 14) (size 15 to 20)
#    0.000    2.286    4.286    1.286    0.000    0.571 
#    0.000    1.429    0.000    1.714    0.000    0.000 
#    0.000    1.143    0.000    0.000    0.000    0.000 
#
# Total GULP energy -78136.517704 kJ/mol
# GULP energy per Si atom -5581.179836 kJ/mol
# Density = 2.254129 g / cm^3
# Si number density = 22.592710 Si / 1000 Ang^3
#
#
#
# Elastic Constant Matrix: (Units=GPa)
#
#
# Indices 1 2 3 4 5 6 
#
# 1 102.9806 40.8533 40.4530 13.6710 27.9830 -18.3248
# 2 40.8533 33.2922 8.2262 -4.0989 6.8351 -13.3560
# 3 40.4530 8.2262 48.5864 -3.2118 20.7729 -15.4592
# 4 13.6710 -4.0989 -3.2118 12.3305 -1.0952 3.6548
# 5 27.9830 6.8351 20.7729 -1.0952 41.6199 -4.6142
# 6 -18.3248 -13.3560 -15.4592 3.6548 -4.6142 38.2032
#
#
#
# Elastic Compliance Matrix: (Units=1/GPa)
#
#
# Indices 1 2 3 4 5 6 
#
# 1 -0.337743 0.429152 0.231720 0.572640 0.059814 0.034239
# 2 0.429152 -0.508714 -0.294533 -0.719267 -0.080477 -0.032095
# 3 0.231720 -0.294533 -0.129089 -0.389327 -0.054730 -0.013424
# 4 0.572640 -0.719267 -0.389327 -0.885031 -0.102745 -0.062069
# 5 0.059814 -0.080477 -0.054730 -0.102745 0.020612 -0.009273
# 6 0.034239 -0.032095 -0.013424 -0.062069 -0.009273 0.030765
#
#
# Mechanical properties :
#
#
# Convention : Reuss Voigt Hill
#
# Bulk Modulus (GPa) = -4.11749 40.43602 18.15927
# Shear Modulus (GPa) = -1.90633 24.78584 11.43975
#
# Velocity S-wave (km/s) = -0.91957 3.31580 2.25266
# Velocity P-wave (km/s) = 1.71870 5.70930 3.84981
#
# Compressibility (1/GPa) = -0.24286666
#
# Stress axis : x y z
#
# Youngs Moduli (GPa) = -2.96083 -1.96574 -7.74662
#
# Poissons Ratio (x) = 0.84360 1.79505
# Poissons Ratio (y) = 1.27065 -2.28163
# Poissons Ratio (z) = 0.68608 -0.57898
#
# Static dielectric constant tensor:
#      x y z
#    x 1.892300 -0.001130 0.027930 
#    y -0.001130 1.812090 -0.039920 
#    z 0.027930 -0.039920 1.870500 
# 
# From -- ./inp_files/172991.got.cif
#   From: 2010.05.17/outbox.cif.g08.bks.cpg/sg2_87_cif.got.tgz:172991.got - 2010.06.03 11:33:40.
