data_PCOD9072659
_publ_section_title
;
Structure prediction by ZEFSAII (Michael W. Deem and Ramdas Pophale) SiO2 
 PCOD9072659
Probable space group: P -1
;
_chemical_formula_sum "Si O2"
_cell_formula_units_Z 16
_cell_length_a 11.884092
_cell_length_b 11.966602
_cell_length_c 11.548730
_cell_angle_alpha 102.413235
_cell_angle_beta 121.291416
_cell_angle_gamma 124.752545
_cell_volume 790.728774
_symmetry_space_group_name_H-M "P -1"
_symmetry_group_IT_number 2
_symmetry_cell_setting 'triclinic'
loop_
_space_group_symop_operation_xyz
x,y,z
-x,-y,-z
loop_
_atom_site_type_symbol
_atom_site_label
_atom_site_fract_x
_atom_site_fract_y
_atom_site_fract_z
Si Si1 0.482853 0.069500 0.196274
Si Si2 0.861588 0.496101 0.496526
Si Si3 0.261911 0.265013 0.304568
Si Si4 0.615578 0.499964 0.197858
Si Si5 0.077546 0.115714 0.430638
Si Si6 0.733654 0.057046 0.185337
Si Si7 0.110079 0.903165 0.104374
Si Si8 0.140418 0.256831 0.832433
O O1 0.674614 0.283502 0.409464
O O2 0.589335 0.026842 0.195678
O O3 0.266004 0.918631 0.130355
O O4 0.411312 0.076086 0.035453
O O5 0.720161 0.483291 0.337914
O O6 0.000000 0.500000 0.500000
O O7 0.062652 0.716258 0.705174
O O8 0.500000 0.500000 0.500000
O O9 0.141952 0.180445 0.345671
O O10 0.256597 0.126480 0.236924
O O11 0.105581 0.219476 0.118661
O O12 0.712295 0.689364 0.339458
O O13 0.730163 0.566925 0.147356
O O14 0.344782 0.321454 0.006266
O O15 0.856472 0.039224 0.309019
O O16 0.018611 0.941414 0.370661
O O17 0.008948 0.803289 0.154662
#
# Coordination Sequence:
#
# PCOD9072659 Si02
#       8
#     2   2   2   2   2   2   2   2
#     4  10  18  31  49  74 105 127 170 218 262 304
#     4   9  19  32  51  76  99 129 173 220 258 297
#     4  10  20  30  47  73 104 139 163 211 271 311
#     4  10  20  33  55  72 104 138 176 211 253 313
#     4  10  18  32  51  73 102 130 176 215 251 307
#     4   9  18  30  48  74  99 133 167 213 263 294
#     4  10  21  31  48  74 109 134 169 212 263 317
#     4  10  21  35  48  78 106 142 169 205 259 317
#
# _framework density 20.234499
#
# number of rings (size 3 to 8) (size 9 to 14) (size 15 to 20)
#    0.000    2.250    1.250    1.875    7.000    0.000 
#    0.000    0.000    0.000    6.750    0.000   18.375 
#    0.000    0.000    0.000    0.000    0.000    0.000 
#
# Total GULP energy -89161.667577 kJ/mol
# GULP energy per Si atom -5572.604224 kJ/mol
# Density = 2.018844 g / cm^3
# Si number density = 20.234499 Si / 1000 Ang^3
#
#
#
# Elastic Constant Matrix: (Units=GPa)
#
#
# Indices 1 2 3 4 5 6 
#
# 1 86.9398 21.8870 19.4730 8.9972 6.0264 28.9780
# 2 21.8870 34.4487 -0.4734 7.0495 -4.5710 18.5243
# 3 19.4730 -0.4734 83.3033 20.0155 -11.7905 1.2270
# 4 8.9972 7.0495 20.0155 23.3770 -0.9609 2.7800
# 5 6.0264 -4.5710 -11.7905 -0.9609 24.6325 3.0765
# 6 28.9780 18.5243 1.2270 2.7800 3.0765 17.4010
#
#
#
# Elastic Compliance Matrix: (Units=1/GPa)
#
#
# Indices 1 2 3 4 5 6 
#
# 1 0.034135 0.024216 -0.004458 -0.006715 0.003981 -0.081941
# 2 0.024216 0.113694 0.010564 -0.031518 0.039490 -0.164050
# 3 -0.004458 0.010564 0.018856 -0.016570 0.012008 -0.004627
# 4 -0.006715 -0.031518 -0.016570 0.063913 -0.014421 0.038243
# 5 0.003981 0.039490 0.012008 -0.014421 0.059343 -0.057703
# 6 -0.081941 -0.164050 -0.004627 0.038243 -0.057703 0.372981
#
#
# Mechanical properties :
#
#
# Convention : Reuss Voigt Hill
#
# Bulk Modulus (GPa) = 4.39893 31.82945 18.11419
# Shear Modulus (GPa) = 7.37404 24.00245 15.68825
#
# Velocity S-wave (km/s) = 1.91107 3.44788 2.78748
# Velocity P-wave (km/s) = 2.65486 5.62272 4.39677
#
# Compressibility (1/GPa) = 0.22732781
#
# Stress axis : x y z
#
# Youngs Moduli (GPa) = 29.29530 8.79557 53.03464
#
# Poissons Ratio (x) = -0.21299 0.23643
# Poissons Ratio (y) = -0.70940 -0.56026
# Poissons Ratio (z) = 0.13060 -0.09292
#
# Static dielectric constant tensor:
#      x y z
#    x 1.741030 0.001340 -0.014330 
#    y 0.001340 1.783270 0.047910 
#    z -0.014330 0.047910 1.751870 
# 
# From -- ./inp_files/422422.got.cif
#   From: 2010.05.17/outbox.cif.g08.bks.cpg/sg2_212_cif.got.tgz:422422.got - 2010.06.03 11:33:40.
