data_PCOD9072438
_publ_section_title
;
Structure prediction by ZEFSAII (Michael W. Deem and Ramdas Pophale) SiO2 
 PCOD9072438
Probable space group: P -1
;
_chemical_formula_sum "Si O2"
_cell_formula_units_Z 16
_cell_length_a 12.192776
_cell_length_b 8.955262
_cell_length_c 17.687175
_cell_angle_alpha 140.504172
_cell_angle_beta 150.914311
_cell_angle_gamma 50.083083
_cell_volume 593.762067
_symmetry_space_group_name_H-M "P -1"
_symmetry_group_IT_number 2
_symmetry_cell_setting 'triclinic'
loop_
_space_group_symop_operation_xyz
x,y,z
-x,-y,-z
loop_
_atom_site_type_symbol
_atom_site_label
_atom_site_fract_x
_atom_site_fract_y
_atom_site_fract_z
Si Si1 0.896262 0.076427 0.879709
Si Si2 0.788431 0.520849 0.826260
Si Si3 0.341796 0.685780 0.665746
Si Si4 0.220118 0.726259 0.769200
Si Si5 0.473981 0.314892 0.776905
Si Si6 0.149721 0.974287 0.343408
Si Si7 0.239954 0.151686 0.728473
Si Si8 0.003834 0.579113 0.745243
O O1 0.946691 0.822554 0.841081
O O2 0.707658 0.216225 0.858907
O O3 0.797474 0.020767 0.712485
O O4 0.131706 0.243035 0.078119
O O5 0.569312 0.561867 0.758010
O O6 0.779036 0.273980 0.680167
O O7 0.000000 0.500000 0.000000
O O8 0.180236 0.644365 0.625003
O O9 0.227005 0.574807 0.477679
O O10 0.371405 0.968653 0.784174
O O11 0.448984 0.593970 0.863674
O O12 0.115386 0.651386 0.758815
O O13 0.117054 0.979986 0.797302
O O14 0.390395 0.226047 0.774794
O O15 0.289684 0.179337 0.554977
O O16 0.157280 0.396348 0.804418
O O17 0.000000 0.000000 0.500000
#
# Coordination Sequence:
#
# PCOD9072438 Si02
#       8
#     2   2   2   2   2   2   2   2
#     4  10  20  35  53  78 110 146 184 223 264 322
#     4  10  22  36  51  78 116 149 180 223 269 319
#     4  11  19  36  58  82 111 145 178 224 277 323
#     4  10  18  30  57  85 105 134 181 228 271 317
#     4  11  19  34  59  84 106 141 183 225 273 325
#     4  10  18  32  54  84 111 138 178 233 278 314
#     4   9  20  36  57  86 113 136 176 231 278 322
#     4   9  18  35  58  83 109 139 180 229 272 320
#
# _framework density 26.946819000000001
#
# number of rings (size 3 to 8) (size 9 to 14) (size 15 to 20)
#    0.000    2.000    0.000    7.125    0.000    0.000 
#    0.000   19.375    0.000    0.000    0.000    0.000 
#    0.000    0.000    0.000    0.000    0.000    0.000 
#
# Total GULP energy -89349.353093 kJ/mol
# GULP energy per Si atom -5584.334568 kJ/mol
# Density = 2.688549 g / cm^3
# Si number density = 26.946819 Si / 1000 Ang^3
#
#
#
# Elastic Constant Matrix: (Units=GPa)
#
#
# Indices 1 2 3 4 5 6 
#
# 1 109.7142 46.0832 24.3705 -3.6239 8.2563 -32.3860
# 2 46.0832 209.6060 50.4996 15.5513 -10.8644 -61.7604
# 3 24.3705 50.4996 67.0424 12.7699 -6.8980 -24.9321
# 4 -3.6239 15.5513 12.7699 54.6325 -9.5691 -0.2624
# 5 8.2563 -10.8644 -6.8980 -9.5691 25.7820 -5.8456
# 6 -32.3860 -61.7604 -24.9321 -0.2624 -5.8456 60.7944
#
#
#
# Elastic Compliance Matrix: (Units=1/GPa)
#
#
# Indices 1 2 3 4 5 6 
#
# 1 0.011532 -0.001120 -0.002589 0.001068 -0.003645 0.003598
# 2 -0.001120 0.007904 -0.002367 -0.000995 0.004244 0.006866
# 3 -0.002589 -0.002367 0.020782 -0.003399 0.005317 0.005235
# 4 0.001068 -0.000995 -0.003399 0.020435 0.005641 -0.001205
# 5 -0.003645 0.004244 0.005317 0.005641 0.047327 0.009125
# 6 0.003598 0.006866 0.005235 -0.001205 0.009125 0.028360
#
#
# Mechanical properties :
#
#
# Convention : Reuss Voigt Hill
#
# Bulk Modulus (GPa) = 35.63034 69.80769 52.71901
# Shear Modulus (GPa) = 31.67637 45.93574 38.80605
#
# Velocity S-wave (km/s) = 3.43230 4.13326 3.79898
# Velocity P-wave (km/s) = 5.38133 6.98143 6.23294
#
# Compressibility (1/GPa) = 0.02806597
#
# Stress axis : x y z
#
# Youngs Moduli (GPa) = 86.71856 126.51395 48.11958
#
# Poissons Ratio (x) = 0.14164 0.12457
# Poissons Ratio (y) = 0.09708 0.11392
# Poissons Ratio (z) = 0.22450 0.29950
#
# Static dielectric constant tensor:
#      x y z
#    x 2.115070 0.066490 -0.058300 
#    y 0.066490 2.152800 0.061240 
#    z -0.058300 0.061240 2.197810 
# 
# From -- ./inp_files/594279.got.cif
#   From: 2010.05.17/outbox.cif.g08.bks.cpg/sg2_298_cif.got.tgz:594279.got - 2010.06.03 11:33:40.
