data_PCOD9072944
_publ_section_title
;
Structure prediction by ZEFSAII (Michael W. Deem and Ramdas Pophale) SiO2 
 PCOD9072944
Probable space group: P -1
;
_chemical_formula_sum "Si O2"
_cell_formula_units_Z 16
_cell_length_a 12.000000
_cell_length_b 18.000000
_cell_length_c 21.000000
_cell_angle_alpha 160.000000
_cell_angle_beta 40.000000
_cell_angle_gamma 150.000000
_cell_volume 744.844803
_symmetry_space_group_name_H-M "P -1"
_symmetry_group_IT_number 2
_symmetry_cell_setting 'triclinic'
loop_
_space_group_symop_operation_xyz
x,y,z
-x,-y,-z
loop_
_atom_site_type_symbol
_atom_site_label
_atom_site_fract_x
_atom_site_fract_y
_atom_site_fract_z
Si Si1 0.045329 0.048873 0.260561
Si Si2 0.003213 0.522890 0.418485
Si Si3 0.618040 0.169460 0.394346
Si Si4 0.979412 0.796586 0.465635
Si Si5 0.375022 0.399654 0.729545
Si Si6 0.450641 0.536900 0.958100
Si Si7 0.712016 0.315572 0.693550
Si Si8 0.517684 0.249777 0.158436
O O1 0.964904 0.192722 0.373042
O O2 0.270312 0.144730 0.203850
O O3 0.106855 0.193178 0.419518
O O4 0.818094 0.713387 0.103460
O O5 0.744972 0.263828 0.346614
O O6 0.183731 0.605683 0.459999
O O7 0.082381 0.484470 0.287005
O O8 0.459180 0.248932 0.535253
O O9 0.523884 0.847675 0.189657
O O10 0.164146 0.749565 0.362355
O O11 0.755289 0.540761 0.318756
O O12 0.109326 0.106952 0.624793
O O13 0.466494 0.508477 0.850733
O O14 0.442028 0.654447 0.857678
O O15 0.599434 0.464596 0.868330
O O16 0.500000 0.000000 0.500000
O O17 0.500000 0.000000 0.000000
#
# Coordination Sequence:
#
# PCOD9072944 Si02
#       8
#     2   2   2   2   2   2   2   2
#     4  10  22  44  67  95 133 175 225 274 334 399
#     4  10  20  39  62  98 139 179 208 280 339 396
#     4  11  23  38  66 100 140 174 222 273 343 395
#     4  10  23  43  72  93 134 187 214 274 344 386
#     4  11  23  47  67  96 138 173 226 280 334 391
#     4  11  24  41  72 105 131 180 222 273 336 408
#     4  11  18  41  70  99 138 170 218 275 336 400
#     4  12  27  45  66  97 134 177 233 280 327 398
#
# _framework density 21.480985
#
# number of rings (size 3 to 8) (size 9 to 14) (size 15 to 20)
#    0.000    1.250    6.250    0.750    1.750    4.000 
#    2.250    1.250    0.000    0.000    0.000    0.000 
#    0.000    0.000    0.000    0.000    0.000    0.000 
#
# Total GULP energy -89218.705336 kJ/mol
# GULP energy per Si atom -5576.169084 kJ/mol
# Density = 2.143209 g / cm^3
# Si number density = 21.480985 Si / 1000 Ang^3
#
#
#
# Elastic Constant Matrix: (Units=GPa)
#
#
# Indices 1 2 3 4 5 6 
#
# 1 76.3712 30.1375 -2.9070 1.2568 -1.4632 -17.5617
# 2 30.1375 119.2145 2.6056 4.6042 -6.3493 -13.9302
# 3 -2.9070 2.6056 55.1025 3.3954 -11.1534 -4.1066
# 4 1.2568 4.6042 3.3954 29.8016 -4.0395 -10.5152
# 5 -1.4632 -6.3493 -11.1534 -4.0395 33.6334 7.9958
# 6 -17.5617 -13.9302 -4.1066 -10.5152 7.9958 35.6266
#
#
#
# Elastic Compliance Matrix: (Units=1/GPa)
#
#
# Indices 1 2 3 4 5 6 
#
# 1 0.016184 -0.003362 0.001228 0.002274 -0.001085 0.007720
# 2 -0.003362 0.009514 -0.000246 -0.000580 0.001115 0.001613
# 3 0.001228 -0.000246 0.019609 -0.001033 0.006127 0.001090
# 4 0.002274 -0.000580 -0.001033 0.037976 0.001436 0.011661
# 5 -0.001085 0.001115 0.006127 0.001436 0.033650 -0.006521
# 6 0.007720 0.001613 0.001090 0.011661 -0.006521 0.037536
#
#
# Mechanical properties :
#
#
# Convention : Reuss Voigt Hill
#
# Bulk Modulus (GPa) = 24.66137 34.48449 29.57293
# Shear Modulus (GPa) = 28.94462 34.53581 31.74021
#
# Velocity S-wave (km/s) = 3.67475 4.01401 3.84812
# Velocity P-wave (km/s) = 5.43236 6.12955 5.79146
#
# Compressibility (1/GPa) = 0.04054925
#
# Stress axis : x y z
#
# Youngs Moduli (GPa) = 61.78853 105.11103 50.99594
#
# Poissons Ratio (x) = 0.35336 -0.06264
# Poissons Ratio (y) = 0.20772 0.01252
# Poissons Ratio (z) = -0.07589 0.02581
#
# Static dielectric constant tensor:
#      x y z
#    x 1.817660 -0.025230 0.009870 
#    y -0.025230 1.833440 -0.022980 
#    z 0.009870 -0.022980 1.807840 
# 
# From -- ./inp_files/596043.got.cif
#   From: 2010.05.17/outbox.ucp.g08.bks.cvg/sg2_299_cif.got.tgz:596043.got - 2010.06.11 11:32:03.
