data_PCOD9072921
_publ_section_title
;
Structure prediction by ZEFSAII (Michael W. Deem and Ramdas Pophale) SiO2 
 PCOD9072921
Probable space group: P -1
;
_chemical_formula_sum "Si O2"
_cell_formula_units_Z 16
_cell_length_a 15.000000
_cell_length_b 12.000000
_cell_length_c 9.000000
_cell_angle_alpha 90.000000
_cell_angle_beta 150.000000
_cell_angle_gamma 100.000000
_cell_volume 759.581896
_symmetry_space_group_name_H-M "P -1"
_symmetry_group_IT_number 2
_symmetry_cell_setting 'triclinic'
loop_
_space_group_symop_operation_xyz
x,y,z
-x,-y,-z
loop_
_atom_site_type_symbol
_atom_site_label
_atom_site_fract_x
_atom_site_fract_y
_atom_site_fract_z
Si Si1 0.478542 0.884033 0.272266
Si Si2 0.161316 0.456581 0.803580
Si Si3 0.856701 0.684628 0.937877
Si Si4 0.898612 0.092069 0.187904
Si Si5 0.447264 0.347258 0.733153
Si Si6 0.867394 0.084758 0.805390
Si Si7 0.356030 0.170246 0.196667
Si Si8 0.297104 0.269724 0.832434
O O1 0.525609 0.777841 0.262295
O O2 0.514046 0.868627 0.500166
O O3 0.647672 0.002874 0.462061
O O4 0.261741 0.878856 0.945085
O O5 0.183358 0.345849 0.746492
O O6 0.000000 0.500000 0.500000
O O7 0.118636 0.413521 0.914004
O O8 0.366947 0.556620 0.070823
O O9 0.739341 0.641006 0.616099
O O10 0.713282 0.735779 0.817637
O O11 0.040275 0.800818 0.165589
O O12 0.121687 0.151332 0.537670
O O13 0.877630 0.129606 0.988801
O O14 0.825206 0.949410 0.086426
O O15 0.413118 0.342289 0.860677
O O16 0.000000 0.000000 0.000000
O O17 0.423617 0.230170 0.135429
#
# Coordination Sequence:
#
# PCOD9072921 Si02
#       8
#     2   2   2   2   2   2   2   2
#     4  10  21  35  61  88 123 152 190 240 290 338
#     4  11  25  44  59  83 121 150 193 256 300 324
#     4  10  20  38  67  85 110 161 199 230 284 356
#     4  11  19  35  57  89 127 152 186 236 294 343
#     4  11  21  42  63  85 109 159 205 235 274 357
#     4  11  16  34  62  91 118 147 199 234 275 353
#     4   9  19  34  57  88 119 156 185 230 287 354
#     4  11  22  38  62  84 115 157 197 235 290 350
#
# _framework density 21.064219999999999
#
# number of rings (size 3 to 8) (size 9 to 14) (size 15 to 20)
#    0.000    1.500    5.000    3.375    0.000    0.000 
#    4.500    1.250    0.000    0.000    0.000    0.000 
#    0.000    0.000    0.000    0.000    0.000    0.000 
#
# Total GULP energy -89230.383409 kJ/mol
# GULP energy per Si atom -5576.898963 kJ/mol
# Density = 2.101628 g / cm^3
# Si number density = 21.064220 Si / 1000 Ang^3
#
#
#
# Elastic Constant Matrix: (Units=GPa)
#
#
# Indices 1 2 3 4 5 6 
#
# 1 90.2616 12.9203 11.0875 -9.6014 -0.4284 38.3289
# 2 12.9203 42.1800 14.3760 -9.9874 -7.5882 37.8205
# 3 11.0875 14.3760 32.6026 -3.0401 12.4569 18.2183
# 4 -9.6014 -9.9874 -3.0401 26.5562 2.0742 -0.5182
# 5 -0.4284 -7.5882 12.4569 2.0742 29.2083 -2.0856
# 6 38.3289 37.8205 18.2183 -0.5182 -2.0856 49.1436
#
#
#
# Elastic Compliance Matrix: (Units=1/GPa)
#
#
# Indices 1 2 3 4 5 6 
#
# 1 0.077742 0.174636 0.004184 0.088550 0.024541 -0.194608
# 2 0.174636 0.509926 -0.001338 0.238214 0.081405 -0.522177
# 3 0.004184 -0.001338 0.053028 0.008598 -0.025145 -0.022868
# 4 0.088550 0.238214 0.008598 0.152922 0.030617 -0.252666
# 5 0.024541 0.081405 -0.025145 0.030617 0.059323 -0.069627
# 6 -0.194608 -0.522177 -0.022868 -0.252666 -0.069627 0.576851
#
#
# Mechanical properties :
#
#
# Convention : Reuss Voigt Hill
#
# Bulk Modulus (GPa) = 1.00436 26.86797 13.93616
# Shear Modulus (GPa) = 3.55439 29.42565 16.49002
#
# Velocity S-wave (km/s) = 1.30041 3.74163 2.80097
# Velocity P-wave (km/s) = 1.65306 5.60797 4.13413
#
# Compressibility (1/GPa) = 0.99566009
#
# Stress axis : x y z
#
# Youngs Moduli (GPa) = 12.86313 1.96107 18.85813
#
# Poissons Ratio (x) = -0.34247 -0.07890
# Poissons Ratio (y) = -2.24637 0.02522
# Poissons Ratio (z) = -0.05382 0.00262
#
# Static dielectric constant tensor:
#      x y z
#    x 1.789480 -0.010660 -0.059250 
#    y -0.010660 1.785160 0.019030 
#    z -0.059250 0.019030 1.816510 
# 
# From -- ./inp_files/205830.got.cif
#   From: 2010.05.17/outbox.ucp.g08.bks.cvg/sg2_103_cif.got.tgz:205830.got - 2010.06.11 11:32:03.
