data_PCOD9072057
_publ_section_title
;
Structure prediction by ZEFSAII (Michael W. Deem and Ramdas Pophale) SiO2 
 PCOD9072057
Probable space group: P -1
;
_chemical_formula_sum "Si O2"
_cell_formula_units_Z 16
_cell_length_a 9.000000
_cell_length_b 27.000000
_cell_length_c 9.000000
_cell_angle_alpha 140.000000
_cell_angle_beta 110.000000
_cell_angle_gamma 40.000000
_cell_volume 727.930595
_symmetry_space_group_name_H-M "P -1"
_symmetry_group_IT_number 2
_symmetry_cell_setting 'triclinic'
loop_
_space_group_symop_operation_xyz
x,y,z
-x,-y,-z
loop_
_atom_site_type_symbol
_atom_site_label
_atom_site_fract_x
_atom_site_fract_y
_atom_site_fract_z
Si Si1 0.768840 0.351921 0.666208
Si Si2 0.605413 0.614474 0.514756
Si Si3 0.761312 0.682920 0.914074
Si Si4 0.527570 0.314162 0.960767
Si Si5 0.037544 0.637568 0.514089
Si Si6 0.898795 0.845381 0.125333
Si Si7 0.274346 0.129962 0.556763
Si Si8 0.702010 0.639015 0.299057
O O1 0.659394 0.335238 0.465473
O O2 0.924033 0.349867 0.611359
O O3 0.009783 0.227080 0.577233
O O4 0.500000 0.500000 0.000000
O O5 0.580065 0.710482 0.791734
O O6 0.663744 0.594931 0.315728
O O7 0.898802 0.463302 0.340441
O O8 0.668557 0.670051 0.992930
O O9 0.709282 0.790637 0.188382
O O10 0.545530 0.276156 0.710652
O O11 0.825391 0.210301 0.907524
O O12 0.330627 0.470849 0.261313
O O13 0.760939 0.694964 0.532726
O O14 0.993412 0.723444 0.814798
O O15 0.807607 0.884357 0.357296
O O16 0.590422 0.986838 0.268363
O O17 0.000000 0.500000 0.000000
#
# Coordination Sequence:
#
# PCOD9072057 Si02
#       8
#     2   2   2   2   2   2   2   2
#     4  12  22  38  64  92 121 158 199 253 303 357
#     4  11  21  34  58  92 120 149 194 251 303 347
#     4  11  22  37  60  91 120 155 197 251 300 355
#     4  11  22  38  63  92 120 154 201 250 302 355
#     4  11  22  38  63  93 123 153 204 255 300 354
#     4  11  25  43  60  87 124 168 201 245 301 361
#     4  11  25  43  62  85 125 165 204 244 302 364
#     4  10  18  35  55  87 119 150 188 246 301 345
#
# _framework density 21.980117
#
# number of rings (size 3 to 8) (size 9 to 14) (size 15 to 20)
#    0.000    1.000    3.750    5.625    1.750    1.000 
#    0.000    1.250    0.000    4.500    0.000    0.000 
#    0.000    0.000    0.000    0.000    0.000    0.000 
#
# Total GULP energy -89147.440376 kJ/mol
# GULP energy per Si atom -5571.715024 kJ/mol
# Density = 2.193009 g / cm^3
# Si number density = 21.980117 Si / 1000 Ang^3
#
#
#
# Elastic Constant Matrix: (Units=GPa)
#
#
# Indices 1 2 3 4 5 6 
#
# 1 54.6152 26.3999 9.2125 -4.1548 9.6899 -21.5084
# 2 26.3999 96.5206 13.8084 2.4132 -7.8439 -30.4155
# 3 9.2125 13.8084 32.6531 0.1768 2.4762 -16.3001
# 4 -4.1548 2.4132 0.1768 31.6188 -6.9314 -4.8951
# 5 9.6899 -7.8439 2.4762 -6.9314 23.4878 -16.7262
# 6 -21.5084 -30.4155 -16.3001 -4.8951 -16.7262 48.0088
#
#
#
# Elastic Compliance Matrix: (Units=1/GPa)
#
#
# Indices 1 2 3 4 5 6 
#
# 1 0.024784 -0.006020 -0.001839 0.002479 -0.008489 0.003961
# 2 -0.006020 0.019825 0.001122 0.006102 0.024637 0.019450
# 3 -0.001839 0.001122 0.038341 0.004394 0.010503 0.017012
# 4 0.002479 0.006102 0.004394 0.040367 0.026601 0.019852
# 5 -0.008489 0.024637 0.010503 0.026601 0.098319 0.052338
# 6 0.003961 0.019450 0.017012 0.019852 0.052338 0.060961
#
#
# Mechanical properties :
#
#
# Convention : Reuss Voigt Hill
#
# Bulk Modulus (GPa) = 14.39313 31.40338 22.89826
# Shear Modulus (GPa) = 15.66269 29.58095 22.62182
#
# Velocity S-wave (km/s) = 2.67232 3.67250 3.21159
# Velocity P-wave (km/s) = 4.01051 5.68342 4.91861
#
# Compressibility (1/GPa) = 0.06947757
#
# Stress axis : x y z
#
# Youngs Moduli (GPa) = 40.34796 50.44147 26.08153
#
# Poissons Ratio (x) = 0.30364 0.04798
# Poissons Ratio (y) = 0.24288 -0.02928
# Poissons Ratio (z) = 0.07422 -0.05662
#
# Static dielectric constant tensor:
#      x y z
#    x 1.898370 -0.033500 0.042380 
#    y -0.033500 1.850460 0.011890 
#    z 0.042380 0.011890 1.788990 
# 
# From -- ./inp_files/227768.got.cif
#   From: 2010.05.17/outbox.ucp.g08.bks.cvg/sg2_114_cif.got.tgz:227768.got - 2010.06.11 11:32:03.
