data_PCOD9072911
_publ_section_title
;
Structure prediction by ZEFSAII (Michael W. Deem and Ramdas Pophale) SiO2 
 PCOD9072911
Probable space group: P -1
;
_chemical_formula_sum "Si O2"
_cell_formula_units_Z 16
_cell_length_a 7.831078
_cell_length_b 8.277802
_cell_length_c 13.430825
_cell_angle_alpha 131.286195
_cell_angle_beta 121.143996
_cell_angle_gamma 79.024801
_cell_volume 544.302458
_symmetry_space_group_name_H-M "P -1"
_symmetry_group_IT_number 2
_symmetry_cell_setting 'triclinic'
loop_
_space_group_symop_operation_xyz
x,y,z
-x,-y,-z
loop_
_atom_site_type_symbol
_atom_site_label
_atom_site_fract_x
_atom_site_fract_y
_atom_site_fract_z
Si Si1 0.382575 0.673805 0.082198
Si Si2 0.074624 0.635358 0.196924
Si Si3 0.874528 0.747566 0.843879
Si Si4 0.890908 0.999799 0.230124
Si Si5 0.113834 0.796182 0.497663
Si Si6 0.703934 0.201244 0.092232
Si Si7 0.258299 0.379610 0.442643
Si Si8 0.625052 0.641507 0.323870
O O1 0.475802 0.736693 0.244781
O O2 0.500000 0.500000 0.000000
O O3 0.153477 0.520750 0.958364
O O4 0.384818 0.850102 0.066522
O O5 0.187427 0.430060 0.159549
O O6 0.142603 0.769479 0.376524
O O7 0.045024 0.837373 0.199263
O O8 0.062954 0.667830 0.814007
O O9 0.708941 0.721056 0.695820
O O10 0.000000 0.000000 0.000000
O O11 0.814730 0.994740 0.318934
O O12 0.727376 0.006134 0.095106
O O13 0.037909 0.241263 0.359273
O O14 0.230028 0.623368 0.512943
O O15 0.864204 0.748609 0.412331
O O16 0.609036 0.383224 0.190592
O O17 0.401174 0.339015 0.558445
#
# Coordination Sequence:
#
# PCOD9072911 Si02
#       8
#     2   2   2   2   2   2   2   2
#     4   9  16  27  42  56  86 121 149 164 200 261
#     4  10  18  27  40  65  89 113 136 182 212 246
#     4   9  17  30  46  62  83 113 147 174 208 257
#     4  10  16  24  42  65  89 108 136 177 226 249
#     4  10  14  26  42  60  87 118 136 164 214 261
#     4   9  15  28  43  58  83 116 141 170 209 252
#     4   9  16  27  47  63  86 115 142 170 214 255
#     4  10  13  26  48  61  81 115 151 168 196 255
#
# _framework density 29.395420000000001
#
# number of rings (size 3 to 8) (size 9 to 14) (size 15 to 20)
#    0.000    2.500    7.500    1.125    0.000    0.000 
#    0.000    5.000    0.000    3.000    0.000    0.000 
#    0.000   21.000    0.000    0.000    0.000    0.000 
#
# Total GULP energy -89211.670540 kJ/mol
# GULP energy per Si atom -5575.729409 kJ/mol
# Density = 2.932851 g / cm^3
# Si number density = 29.395420 Si / 1000 Ang^3
#
#
#
# Elastic Constant Matrix: (Units=GPa)
#
#
# Indices 1 2 3 4 5 6 
#
# 1 61.8635 17.9851 21.4695 -2.8896 9.9992 -9.8419
# 2 17.9851 207.2416 80.3626 -58.5404 -22.7684 -4.6231
# 3 21.4695 80.3626 154.1674 -55.3653 -6.6280 -16.9276
# 4 -2.8896 -58.5404 -55.3653 76.2607 -7.4757 -10.8599
# 5 9.9992 -22.7684 -6.6280 -7.4757 43.2624 -1.9331
# 6 -9.8419 -4.6231 -16.9276 -10.8599 -1.9331 43.7616
#
#
#
# Elastic Compliance Matrix: (Units=1/GPa)
#
#
# Indices 1 2 3 4 5 6 
#
# 1 0.018940 -0.002177 -0.002776 -0.003338 -0.006443 0.001843
# 2 -0.002177 0.007748 -0.001312 0.005653 0.005422 0.001464
# 3 -0.002776 -0.001312 0.011302 0.008250 0.003368 0.005805
# 4 -0.003338 0.005653 0.008250 0.025687 0.009889 0.009849
# 5 -0.006443 0.005422 0.003368 0.009889 0.029870 0.004200
# 6 0.001843 0.001464 0.005805 0.009849 0.004200 0.028295
#
#
# Mechanical properties :
#
#
# Convention : Reuss Voigt Hill
#
# Bulk Modulus (GPa) = 39.27810 73.65630 56.46720
# Shear Modulus (GPa) = 35.00011 52.88732 43.94371
#
# Velocity S-wave (km/s) = 3.45435 4.24626 3.87061
# Velocity P-wave (km/s) = 5.41304 7.01088 6.26312
#
# Compressibility (1/GPa) = 0.02545948
#
# Stress axis : x y z
#
# Youngs Moduli (GPa) = 52.79953 129.06672 88.48296
#
# Poissons Ratio (x) = 0.28094 0.24566
# Poissons Ratio (y) = 0.11493 0.11607
# Poissons Ratio (z) = 0.14659 0.16930
#
# Static dielectric constant tensor:
#      x y z
#    x 2.529980 0.081120 -0.032270 
#    y 0.081120 2.388660 -0.080000 
#    z -0.032270 -0.080000 2.389070 
# 
# From -- ./inp_files/247710.got.cif
#   From: 2010.05.17/outbox.cif.g08.bks.cpg/sg2_124_cif.got.tgz:247710.got - 2010.06.03 11:33:40.
