data_PCOD9072151
_publ_section_title
;
Structure prediction by ZEFSAII (Michael W. Deem and Ramdas Pophale) SiO2 
 PCOD9072151
Probable space group: P -1
;
_chemical_formula_sum "Si O2"
_cell_formula_units_Z 16
_cell_length_a 9.000000
_cell_length_b 18.000000
_cell_length_c 12.000000
_cell_angle_alpha 50.000000
_cell_angle_beta 40.000000
_cell_angle_gamma 80.000000
_cell_volume 729.599496
_symmetry_space_group_name_H-M "P -1"
_symmetry_group_IT_number 2
_symmetry_cell_setting 'triclinic'
loop_
_space_group_symop_operation_xyz
x,y,z
-x,-y,-z
loop_
_atom_site_type_symbol
_atom_site_label
_atom_site_fract_x
_atom_site_fract_y
_atom_site_fract_z
Si Si1 0.741582 0.750418 0.164819
Si Si2 0.122853 0.506561 0.639286
Si Si3 0.290062 0.039197 0.577448
Si Si4 0.648525 0.593166 0.572476
Si Si5 0.709633 0.860214 0.758347
Si Si6 0.218858 0.734765 0.783526
Si Si7 0.085093 0.698661 0.412412
Si Si8 0.076741 0.304796 0.237519
O O1 0.430237 0.641451 0.380755
O O2 0.645006 0.684848 0.404695
O O3 0.985774 0.747792 0.964068
O O4 0.938164 0.904424 0.912290
O O5 0.202758 0.447692 0.557235
O O6 0.969141 0.555432 0.621207
O O7 0.918075 0.402516 0.954048
O O8 0.351435 0.112529 0.355713
O O9 0.442696 0.147766 0.481358
O O10 0.500000 0.000000 0.500000
O O11 0.851863 0.679923 0.476391
O O12 0.339899 0.457362 0.921406
O O13 0.792266 0.768157 0.790473
O O14 0.418916 0.794980 0.070103
O O15 0.000000 0.000000 0.500000
O O16 0.165693 0.735448 0.681743
O O17 0.054673 0.727586 0.529426
#
# Coordination Sequence:
#
# PCOD9072151 Si02
#       8
#     2   2   2   2   2   2   2   2
#     4  10  18  38  67  92 125 175 220 269 337 387
#     4  11  19  37  68  92 130 175 220 273 335 386
#     4  10  21  37  67  98 124 173 226 270 325 398
#     4  11  21  41  66  99 137 168 220 281 332 394
#     4  12  25  46  71  95 136 179 217 273 338 400
#     4  10  19  37  61  96 131 170 223 273 323 396
#     4  12  26  40  66 102 133 173 223 275 332 402
#     4  12  25  43  66 100 137 175 217 276 338 393
#
# _framework density 21.929839999999999
#
# number of rings (size 3 to 8) (size 9 to 14) (size 15 to 20)
#    0.000    1.000    3.750    6.000    1.750    1.000 
#    0.000    0.000    0.000    4.500    0.000    0.000 
#    0.000    0.000    0.000    0.000    0.000    0.000 
#
# Total GULP energy -89414.058414 kJ/mol
# GULP energy per Si atom -5588.378651 kJ/mol
# Density = 2.187993 g / cm^3
# Si number density = 21.929840 Si / 1000 Ang^3
#
#
#
# Elastic Constant Matrix: (Units=GPa)
#
#
# Indices 1 2 3 4 5 6 
#
# 1 126.5138 31.0051 35.3215 1.7739 32.0295 34.6997
# 2 31.0051 75.3407 49.9586 -0.6411 4.3685 17.4315
# 3 35.3215 49.9586 128.6344 -20.5067 22.3790 22.2123
# 4 1.7739 -0.6411 -20.5067 36.1121 7.5344 3.0053
# 5 32.0295 4.3685 22.3790 7.5344 41.2217 -4.1299
# 6 34.6997 17.4315 22.2123 3.0053 -4.1299 44.7608
#
#
#
# Elastic Compliance Matrix: (Units=1/GPa)
#
#
# Indices 1 2 3 4 5 6 
#
# 1 0.016074 -0.004752 0.003730 0.005889 -0.016528 -0.014381
# 2 -0.004752 0.020575 -0.009355 -0.006491 0.007926 0.001481
# 3 0.003730 -0.009355 0.016564 0.012824 -0.014209 -0.009640
# 4 0.005889 -0.006491 0.012824 0.039685 -0.019391 -0.012855
# 5 -0.016528 0.007926 -0.014209 -0.019391 0.049791 0.022673
# 6 -0.014381 0.001481 -0.009640 -0.012855 0.022673 0.040652
#
#
# Mechanical properties :
#
#
# Convention : Reuss Voigt Hill
#
# Bulk Modulus (GPa) = 30.80990 62.56217 46.68604
# Shear Modulus (GPa) = 23.26504 38.69916 30.98210
#
# Velocity S-wave (km/s) = 3.26066 4.20537 3.76278
# Velocity P-wave (km/s) = 5.31560 7.22291 6.34137
#
# Compressibility (1/GPa) = 0.03245710
#
# Stress axis : x y z
#
# Youngs Moduli (GPa) = 62.21255 48.60347 60.37189
#
# Poissons Ratio (x) = 0.23097 -0.22516
# Poissons Ratio (y) = 0.29564 0.56479
# Poissons Ratio (z) = -0.23202 0.45469
#
# Static dielectric constant tensor:
#      x y z
#    x 1.877730 -0.012730 -0.022770 
#    y -0.012730 1.818990 0.005190 
#    z -0.022770 0.005190 1.775030 
# 
# From -- ./inp_files/226771.got.cif
#   From: 2010.05.17/outbox.ucp.g08.bks.cvg/sg2_114_cif.got.tgz:226771.got - 2010.06.11 11:32:03.
