data_PCOD9072953
_publ_section_title
;
Structure prediction by ZEFSAII (Michael W. Deem and Ramdas Pophale) SiO2 
 PCOD9072953
Probable space group: P -1
;
_chemical_formula_sum "Si O2"
_cell_formula_units_Z 14
_cell_length_a 14.437604
_cell_length_b 16.653227
_cell_length_c 14.424579
_cell_angle_alpha 39.894345
_cell_angle_beta 159.277183
_cell_angle_gamma 143.730592
_cell_volume 724.552880
_symmetry_space_group_name_H-M "P -1"
_symmetry_group_IT_number 2
_symmetry_cell_setting 'triclinic'
loop_
_space_group_symop_operation_xyz
x,y,z
-x,-y,-z
loop_
_atom_site_type_symbol
_atom_site_label
_atom_site_fract_x
_atom_site_fract_y
_atom_site_fract_z
Si Si1 0.130721 0.222473 0.902540
Si Si2 0.503515 0.430117 0.915992
Si Si3 0.695783 0.963074 0.644213
Si Si4 0.901210 0.425800 0.571531
Si Si5 0.386314 0.994718 0.676918
Si Si6 0.334863 0.091220 0.728838
Si Si7 0.281557 0.186605 0.781226
O O1 0.369275 0.341820 0.962162
O O2 0.906111 0.279452 0.683767
O O3 0.246192 0.161469 0.148705
O O4 0.986909 0.098785 0.805755
O O5 0.370257 0.543679 0.681945
O O6 0.401501 0.323737 0.831014
O O7 0.840235 0.499414 0.182257
O O8 0.579452 0.949524 0.444106
O O9 0.500000 0.000000 0.500000
O O10 0.000000 0.500000 0.500000
O O11 0.414855 0.109565 0.679153
O O12 0.061654 0.882059 0.478469
O O13 0.596288 0.919606 0.965307
O O14 0.382043 0.204055 0.751907
O O15 0.000000 0.000000 0.500000
O O16 0.500000 0.000000 0.000000
#
# Coordination Sequence:
#
# PCOD9072953 Si02
#       7
#     2   2   2   2   2   2   2
#     4  10  22  35  45  73 102 133 175 203 243 298
#     4  11  20  34  54  73  98 135 165 213 254 289
#     4  11  23  32  52  71 104 145 167 203 241 304
#     4  10  22  34  52  70  98 135 170 211 252 288
#     4  10  19  33  48  73 106 134 164 200 254 301
#     4   8  16  29  48  71  99 130 155 205 255 301
#     4  10  18  31  52  76 102 125 168 207 255 305
#
# _framework density 19.322261999999998
#
# number of rings (size 3 to 8) (size 9 to 14) (size 15 to 20)
#    0.000    2.000    1.429    3.429   10.000    0.000 
#    0.000    0.000    0.000    0.000    0.000    2.000 
#    0.000    0.000    0.000    0.000    0.000    0.000 
#
# Total GULP energy -78104.535356 kJ/mol
# GULP energy per Si atom -5578.895383 kJ/mol
# Density = 1.927828 g / cm^3
# Si number density = 19.322262 Si / 1000 Ang^3
#
#
#
# Elastic Constant Matrix: (Units=GPa)
#
#
# Indices 1 2 3 4 5 6 
#
# 1 110.4424 26.2640 10.7464 -9.5878 -20.5569 -31.7346
# 2 26.2640 79.6376 21.0588 -8.8686 -5.9475 -22.3717
# 3 10.7464 21.0588 100.1898 -8.5319 -0.9732 0.6711
# 4 -9.5878 -8.8686 -8.5319 35.5566 -2.2921 1.2395
# 5 -20.5569 -5.9475 -0.9732 -2.2921 28.1020 6.7906
# 6 -31.7346 -22.3717 0.6711 1.2395 6.7906 30.8949
#
#
#
# Elastic Compliance Matrix: (Units=1/GPa)
#
#
# Indices 1 2 3 4 5 6 
#
# 1 0.014809 0.000292 -0.001342 0.003779 0.007878 0.013569
# 2 0.000292 0.017348 -0.003480 0.003195 0.000982 0.012593
# 3 -0.001342 -0.003480 0.011014 0.001544 -0.000207 -0.004155
# 4 0.003779 0.003195 0.001544 0.030503 0.005057 0.003826
# 5 0.007878 0.000982 -0.000207 0.005057 0.042118 -0.000653
# 6 0.013569 0.012593 -0.004155 0.003826 -0.000653 0.055505
#
#
# Mechanical properties :
#
#
# Convention : Reuss Voigt Hill
#
# Bulk Modulus (GPa) = 29.31775 45.15646 37.23710
# Shear Modulus (GPa) = 26.07863 34.39075 30.23469
#
# Velocity S-wave (km/s) = 3.67777 4.22341 3.96000
# Velocity P-wave (km/s) = 5.76547 6.87050 6.34210
#
# Compressibility (1/GPa) = 0.03410903
#
# Stress axis : x y z
#
# Youngs Moduli (GPa) = 67.52702 57.64434 90.79443
#
# Poissons Ratio (x) = -0.01683 0.12188
# Poissons Ratio (y) = -0.01972 0.31600
# Poissons Ratio (z) = 0.09064 0.20062
#
# Static dielectric constant tensor:
#      x y z
#    x 1.717140 -0.002010 0.027790 
#    y -0.002010 1.721320 0.044910 
#    z 0.027790 0.044910 1.714360 
# 
# From -- ./inp_files/32465.got.cif
#   From: 2010.05.17/outbox.cif.g08.bks.cpg/sg2_17_cif.got.tgz:32465.got - 2010.06.03 11:33:40.
