data_PCOD9072859
_publ_section_title
;
Structure prediction by ZEFSAII (Michael W. Deem and Ramdas Pophale) SiO2 
 PCOD9072859
Probable space group: P -1
;
_chemical_formula_sum "Si O2"
_cell_formula_units_Z 14
_cell_length_a 9.000000
_cell_length_b 12.000000
_cell_length_c 21.000000
_cell_angle_alpha 150.000000
_cell_angle_beta 140.000000
_cell_angle_gamma 60.000000
_cell_volume 627.666119
_symmetry_space_group_name_H-M "P -1"
_symmetry_group_IT_number 2
_symmetry_cell_setting 'triclinic'
loop_
_space_group_symop_operation_xyz
x,y,z
-x,-y,-z
loop_
_atom_site_type_symbol
_atom_site_label
_atom_site_fract_x
_atom_site_fract_y
_atom_site_fract_z
Si Si1 0.773491 0.776480 0.232260
Si Si2 0.964679 0.316745 0.604504
Si Si3 0.863257 0.333763 0.774600
Si Si4 0.562449 0.393045 0.584133
Si Si5 0.677849 0.291818 0.288707
Si Si6 0.882235 0.174555 0.834987
Si Si7 0.526438 0.735708 0.935966
O O1 0.930510 0.749745 0.330321
O O2 0.988369 0.821917 0.271055
O O3 0.500000 0.500000 0.000000
O O4 0.772112 0.041644 0.370913
O O5 0.787078 0.440340 0.629269
O O6 0.245077 0.503916 0.754773
O O7 0.673203 0.347768 0.665885
O O8 0.752117 0.225248 0.754675
O O9 0.101182 0.629718 0.008983
O O10 0.477235 0.606896 0.668209
O O11 0.291605 0.120335 0.348188
O O12 0.000000 0.500000 0.500000
O O13 0.605783 0.998598 0.130676
O O14 0.551768 0.266179 0.164359
O O15 0.196066 0.267265 0.972911
#
# Coordination Sequence:
#
# PCOD9072859 Si02
#       7
#     2   2   2   2   2   2   2
#     4  10  20  38  59  89 136 172 196 244 318 379
#     4  10  24  39  61  95 130 161 208 256 310 376
#     4  10  22  34  60  96 127 164 205 256 307 371
#     4  11  22  41  63  92 128 166 205 260 312 371
#     4  11  24  44  68  88 120 168 218 264 314 361
#     4  11  21  37  63  95 126 164 212 254 307 380
#     4  11  24  42  65  93 123 164 216 264 305 372
#
# _framework density 22.304852
#
# number of rings (size 3 to 8) (size 9 to 14) (size 15 to 20)
#    0.000    1.429    2.857    2.143    2.000    7.429 
#    0.000    0.714    0.000    0.000    0.000    0.000 
#    0.000    0.000    0.000    0.000    0.000    0.000 
#
# Total GULP energy -78100.670862 kJ/mol
# GULP energy per Si atom -5578.619347 kJ/mol
# Density = 2.225409 g / cm^3
# Si number density = 22.304852 Si / 1000 Ang^3
#
#
#
# Elastic Constant Matrix: (Units=GPa)
#
#
# Indices 1 2 3 4 5 6 
#
# 1 74.3530 12.0505 18.8407 4.0591 2.1145 -33.7268
# 2 12.0505 28.3527 -8.1371 -4.2520 -7.2926 -20.4272
# 3 18.8407 -8.1371 103.0752 12.6352 -2.3826 -6.9732
# 4 4.0591 -4.2520 12.6352 26.6812 -6.2286 -5.0323
# 5 2.1145 -7.2926 -2.3826 -6.2286 37.7120 4.4914
# 6 -33.7268 -20.4272 -6.9732 -5.0323 4.4914 36.3570
#
#
#
# Elastic Compliance Matrix: (Units=1/GPa)
#
#
# Indices 1 2 3 4 5 6 
#
# 1 0.025923 0.009652 -0.002482 0.003775 -0.002675 0.029848
# 2 0.009652 0.080169 0.005983 0.022019 0.012225 0.056682
# 3 -0.002482 0.005983 0.011227 -0.003220 0.001161 0.002623
# 4 0.003775 0.022019 -0.003220 0.048025 0.009303 0.020753
# 5 -0.002675 0.012225 0.001161 0.009303 0.030385 0.002144
# 6 0.029848 0.056682 0.002623 0.020753 0.002144 0.090151
#
#
# Mechanical properties :
#
#
# Convention : Reuss Voigt Hill
#
# Bulk Modulus (GPa) = 6.96259 27.92100 17.44180
# Shear Modulus (GPa) = 16.26291 32.35182 24.30737
#
# Velocity S-wave (km/s) = 2.70315 3.81259 3.30476
# Velocity P-wave (km/s) = 3.58762 5.65033 4.73272
#
# Compressibility (1/GPa) = 0.14362474
#
# Stress axis : x y z
#
# Youngs Moduli (GPa) = 38.57598 12.47369 89.07469
#
# Poissons Ratio (x) = -0.12040 0.22105
# Poissons Ratio (y) = -0.37235 -0.53290
# Poissons Ratio (z) = 0.09573 -0.07462
#
# Static dielectric constant tensor:
#      x y z
#    x 2.001710 0.020970 -0.088340 
#    y 0.020970 1.818680 0.028400 
#    z -0.088340 0.028400 1.834700 
# 
# From -- ./inp_files/119419.got.cif
#   From: 2010.05.17/outbox.ucp.g08.bks.cvg/sg2_60_cif.got.tgz:119419.got - 2010.06.11 11:32:03.
