data_PCOD9072171
_publ_section_title
;
Structure prediction by ZEFSAII (Michael W. Deem and Ramdas Pophale) SiO2 
 PCOD9072171
Probable space group: P -1
;
_chemical_formula_sum "Si O2"
_cell_formula_units_Z 14
_cell_length_a 11.297069
_cell_length_b 11.691209
_cell_length_c 7.871263
_cell_angle_alpha 67.386018
_cell_angle_beta 58.402578
_cell_angle_gamma 36.179271
_cell_volume 521.188542
_symmetry_space_group_name_H-M "P -1"
_symmetry_group_IT_number 2
_symmetry_cell_setting 'triclinic'
loop_
_space_group_symop_operation_xyz
x,y,z
-x,-y,-z
loop_
_atom_site_type_symbol
_atom_site_label
_atom_site_fract_x
_atom_site_fract_y
_atom_site_fract_z
Si Si1 0.266663 0.570802 0.501671
Si Si2 0.745541 0.806623 0.102756
Si Si3 0.647606 0.587510 0.911140
Si Si4 0.556112 0.195929 0.700750
Si Si5 0.951844 0.909215 0.790762
Si Si6 0.778552 0.245459 0.896072
Si Si7 0.943870 0.585687 0.718473
O O1 0.464542 0.347549 0.537026
O O2 0.303983 0.646150 0.287934
O O3 0.168093 0.701007 0.671078
O O4 0.076464 0.613325 0.542784
O O5 0.509705 0.902544 0.230042
O O6 0.883373 0.640121 0.235192
O O7 0.795208 0.917561 0.001410
O O8 0.848958 0.696361 0.907035
O O9 0.795187 0.360699 0.923811
O O10 0.759628 0.635883 0.729963
O O11 0.583882 0.668455 0.104777
O O12 0.425878 0.697148 0.923832
O O13 0.804788 0.037326 0.659546
O O14 0.969487 0.019241 0.830404
#
# Coordination Sequence:
#
# PCOD9072171 Si02
#       7
#     2   2   2   2   2   2   2
#     4  10  20  35  54  80 105 128 171 221 256 295
#     4   8  14  28  50  78 101 125 170 219 250 291
#     4   9  18  34  51  74 103 139 177 200 248 315
#     4   9  18  33  56  78 100 134 173 215 255 294
#     4  10  18  30  52  78 105 135 167 210 258 304
#     4  10  21  33  49  76 110 139 166 207 257 310
#     4   8  15  30  53  74  98 132 172 213 251 294
#
# _framework density 26.861681999999998
#
# number of rings (size 3 to 8) (size 9 to 14) (size 15 to 20)
#    0.000    2.857    0.000    3.429    0.000    4.000 
#    0.000    4.286    0.000    6.857    0.000   29.000 
#    0.000    0.000    0.000    0.000    0.000    0.000 
#
# Total GULP energy -78235.553264 kJ/mol
# GULP energy per Si atom -5588.253805 kJ/mol
# Density = 2.680054 g / cm^3
# Si number density = 26.861682 Si / 1000 Ang^3
#
#
#
# Elastic Constant Matrix: (Units=GPa)
#
#
# Indices 1 2 3 4 5 6 
#
# 1 115.8747 15.1680 30.7366 3.5842 -34.8611 12.4505
# 2 15.1680 90.6747 14.9686 -9.3410 -2.4665 22.4306
# 3 30.7366 14.9686 57.3459 -8.3313 0.6474 5.7332
# 4 3.5842 -9.3410 -8.3313 22.8637 10.0634 -0.4259
# 5 -34.8611 -2.4665 0.6474 10.0634 42.0717 -1.8878
# 6 12.4505 22.4306 5.7332 -0.4259 -1.8878 51.3674
#
#
#
# Elastic Compliance Matrix: (Units=1/GPa)
#
#
# Indices 1 2 3 4 5 6 
#
# 1 0.018545 -0.001879 -0.011893 -0.016544 0.019317 -0.001774
# 2 -0.001879 0.013420 -0.001001 0.006428 -0.002531 -0.005333
# 3 -0.011893 -0.001001 0.026805 0.017624 -0.014544 -0.000060
# 4 -0.016544 0.006428 0.017624 0.068588 -0.030067 -0.001300
# 5 0.019317 -0.002531 -0.014544 -0.030067 0.047021 -0.000475
# 6 -0.001774 -0.005333 -0.000060 -0.001300 -0.000475 0.022205
#
#
# Mechanical properties :
#
#
# Convention : Reuss Voigt Hill
#
# Bulk Modulus (GPa) = 34.21818 42.84908 38.53363
# Shear Modulus (GPa) = 21.19807 36.79538 28.99672
#
# Velocity S-wave (km/s) = 2.81224 3.70511 3.28911
# Velocity P-wave (km/s) = 4.82817 5.85578 5.36663
#
# Compressibility (1/GPa) = 0.02922423
#
# Stress axis : x y z
#
# Youngs Moduli (GPa) = 53.92409 74.51346 37.30709
#
# Poissons Ratio (x) = 0.13998 0.44371
# Poissons Ratio (y) = 0.10130 0.03733
# Poissons Ratio (z) = 0.64134 0.07456
#
# Static dielectric constant tensor:
#      x y z
#    x 2.163010 -0.005500 -0.021910 
#    y -0.005500 2.140070 -0.002010 
#    z -0.021910 -0.002010 2.075150 
# 
# From -- ./inp_files/182757.got.cif
#   From: 2010.05.17/outbox.cif.g08.bks.cpg/sg2_92_cif.got.tgz:182757.got - 2010.06.03 11:33:40.
