data_PCOD9072708
_publ_section_title
;
Structure prediction by ZEFSAII (Michael W. Deem and Ramdas Pophale) SiO2 
 PCOD9072708
Probable space group: P -1
;
_chemical_formula_sum "Si O2"
_cell_formula_units_Z 16
_cell_length_a 9.000000
_cell_length_b 15.000000
_cell_length_c 15.000000
_cell_angle_alpha 130.000000
_cell_angle_beta 90.000000
_cell_angle_gamma 130.000000
_cell_volume 843.840067
_symmetry_space_group_name_H-M "P -1"
_symmetry_group_IT_number 2
_symmetry_cell_setting 'triclinic'
loop_
_space_group_symop_operation_xyz
x,y,z
-x,-y,-z
loop_
_atom_site_type_symbol
_atom_site_label
_atom_site_fract_x
_atom_site_fract_y
_atom_site_fract_z
Si Si1 0.123251 0.973847 0.286568
Si Si2 0.108092 0.767593 0.659795
Si Si3 0.953562 0.470742 0.132726
Si Si4 0.555975 0.910414 0.983657
Si Si5 0.843854 0.558315 0.038301
Si Si6 0.754409 0.950742 0.308703
Si Si7 0.452030 0.102656 0.540447
Si Si8 0.564978 0.258446 0.315378
O O1 0.882530 0.718485 0.118168
O O2 0.988640 0.009356 0.330689
O O3 0.314118 0.048259 0.413250
O O4 0.309824 0.106273 0.283837
O O5 0.294071 0.773144 0.676757
O O6 0.800716 0.512891 0.488848
O O7 0.193767 0.902769 0.660958
O O8 0.179097 0.896324 0.828568
O O9 0.693786 0.286100 0.076862
O O10 0.947482 0.589396 0.156338
O O11 0.239015 0.643533 0.294843
O O12 0.968095 0.385591 0.998228
O O13 0.541391 0.819747 0.837489
O O14 0.500000 0.000000 0.000000
O O15 0.539760 0.304508 0.873167
O O16 0.728082 0.967910 0.423023
O O17 0.500000 0.000000 0.500000
#
# Coordination Sequence:
#
# PCOD9072708 Si02
#       8
#     2   2   2   2   2   2   2   2
#     4  12  24  41  59  91 132 164 206 251 322 388
#     4  10  21  41  65  90 126 160 219 267 309 363
#     4  10  20  35  62  95 114 153 210 266 313 353
#     4  10  20  36  61  92 124 153 207 268 312 358
#     4  10  20  38  63  90 124 159 204 258 317 377
#     4  11  24  41  62  90 129 168 197 257 325 387
#     4  11  23  37  64  91 119 156 207 261 309 369
#     4  10  24  38  65  93 121 169 217 263 308 370
#
# _framework density 18.960939
#
# number of rings (size 3 to 8) (size 9 to 14) (size 15 to 20)
#    0.000    1.500    2.500    3.000    8.750    0.500 
#    0.000    0.625    0.000    0.000    0.000    0.000 
#    0.000    0.000    0.000    0.000    0.000    0.000 
#
# Total GULP energy -89262.630521 kJ/mol
# GULP energy per Si atom -5578.914408 kJ/mol
# Density = 1.891778 g / cm^3
# Si number density = 18.960939 Si / 1000 Ang^3
#
#
#
# Elastic Constant Matrix: (Units=GPa)
#
#
# Indices 1 2 3 4 5 6 
#
# 1 67.6898 37.2148 15.7707 3.7182 -9.5509 13.6500
# 2 37.2148 156.7237 67.2090 3.5227 -9.3251 9.3843
# 3 15.7707 67.2090 107.7908 1.8082 -4.9893 6.3789
# 4 3.7182 3.5227 1.8082 35.3997 -5.8419 -4.3210
# 5 -9.5509 -9.3251 -4.9893 -5.8419 19.7934 1.5062
# 6 13.6500 9.3843 6.3789 -4.3210 1.5062 28.4287
#
#
#
# Elastic Compliance Matrix: (Units=1/GPa)
#
#
# Indices 1 2 3 4 5 6 
#
# 1 0.019824 -0.003834 0.000423 -0.001482 0.008114 -0.009003
# 2 -0.003834 0.009710 -0.005415 -0.000093 0.001350 -0.000235
# 3 0.000423 -0.005415 0.012716 -0.000169 0.000911 -0.001343
# 4 -0.001482 -0.000093 -0.000169 0.030311 0.007766 0.004976
# 5 0.008114 0.001350 0.000911 0.007766 0.058085 -0.006443
# 6 -0.009003 -0.000235 -0.001343 0.004976 -0.006443 0.040975
#
#
# Mechanical properties :
#
#
# Convention : Reuss Voigt Hill
#
# Bulk Modulus (GPa) = 40.65279 63.62148 52.13713
# Shear Modulus (GPa) = 25.31994 30.85836 28.08915
#
# Velocity S-wave (km/s) = 3.65824 4.03857 3.85310
# Velocity P-wave (km/s) = 6.27140 7.44134 6.88128
#
# Compressibility (1/GPa) = 0.02459856
#
# Stress axis : x y z
#
# Youngs Moduli (GPa) = 50.44343 102.98934 78.63925
#
# Poissons Ratio (x) = 0.39482 -0.03327
# Poissons Ratio (y) = 0.19338 0.42586
# Poissons Ratio (z) = -0.02134 0.55772
#
# Static dielectric constant tensor:
#      x y z
#    x 1.640690 -0.000100 -0.021380 
#    y -0.000100 1.629020 -0.005630 
#    z -0.021380 -0.005630 1.744500 
# 
# From -- ./inp_files/224361.got.cif
#   From: 2010.05.17/outbox.ucp.g08.bks.cvg/sg2_113_cif.got.tgz:224361.got - 2010.06.11 11:32:03.
