data_PCOD9072527
_publ_section_title
;
Structure prediction by ZEFSAII (Michael W. Deem and Ramdas Pophale) SiO2 
 PCOD9072527
Probable space group: P -1
;
_chemical_formula_sum "Si O2"
_cell_formula_units_Z 16
_cell_length_a 15.372667
_cell_length_b 12.376716
_cell_length_c 5.408730
_cell_angle_alpha 118.716083
_cell_angle_beta 89.605598
_cell_angle_gamma 65.012366
_cell_volume 789.022284
_symmetry_space_group_name_H-M "P -1"
_symmetry_group_IT_number 2
_symmetry_cell_setting 'triclinic'
loop_
_space_group_symop_operation_xyz
x,y,z
-x,-y,-z
loop_
_atom_site_type_symbol
_atom_site_label
_atom_site_fract_x
_atom_site_fract_y
_atom_site_fract_z
Si Si1 0.678610 0.541028 0.777952
Si Si2 0.139783 0.398950 0.137225
Si Si3 0.920336 0.301281 0.069381
Si Si4 0.430890 0.411940 0.678636
Si Si5 0.836456 0.126046 0.698317
Si Si6 0.359616 0.686612 0.267113
Si Si7 0.093931 0.398883 0.633347
Si Si8 0.004346 0.858421 0.595183
O O1 0.779568 0.549059 0.789940
O O2 0.619098 0.595004 0.582436
O O3 0.693668 0.384334 0.648414
O O4 0.616578 0.619367 0.111754
O O5 0.138412 0.316530 0.290164
O O6 0.025642 0.528521 0.274747
O O7 0.148263 0.322984 0.796092
O O8 0.831477 0.266058 0.977614
O O9 0.988514 0.231708 0.749479
O O10 0.889204 0.464245 0.240880
O O11 0.969318 0.224420 0.240132
O O12 0.549586 0.318573 0.589708
O O13 0.408376 0.572931 0.915771
O O14 0.726903 0.166111 0.664470
O O15 0.911296 0.098007 0.433009
O O16 0.897916 0.996770 0.737132
#
# Coordination Sequence:
#
# PCOD9072527 Si02
#       8
#     2   2   2   2   2   2   2   2
#     4  10  18  31  45  61  92 121 147 182 222 263
#     4  10  20  31  45  68  92 118 157 190 218 269
#     4  10  18  31  45  61  92 121 147 182 222 263
#     4   9  20  31  42  67  90 116 156 185 213 268
#     4   9  19  30  46  65  90 123 148 186 220 266
#     4   9  19  30  46  65  90 123 148 186 220 266
#     4  10  20  31  45  68  92 118 157 190 218 269
#     4   9  20  31  42  67  90 116 156 185 213 268
#
# _framework density 20.278262000000002
#
# number of rings (size 3 to 8) (size 9 to 14) (size 15 to 20)
#    1.500    1.000    0.000    3.000    3.500    0.000 
#    0.000    0.000    0.000    0.000    0.000    0.000 
#    0.000    6.000    0.000    0.000    0.000    0.000 
#
# Total GULP energy -89119.848955 kJ/mol
# GULP energy per Si atom -5569.990560 kJ/mol
# Density = 2.023211 g / cm^3
# Si number density = 20.278262 Si / 1000 Ang^3
#
#
#
# Elastic Constant Matrix: (Units=GPa)
#
#
# Indices 1 2 3 4 5 6 
#
# 1 94.8576 21.4861 27.2110 -22.8577 -1.3636 -25.0536
# 2 21.4861 61.1732 38.6764 -24.5877 0.3626 -25.3588
# 3 27.2110 38.6764 98.2675 -50.7994 7.6243 -12.2712
# 4 -22.8577 -24.5877 -50.7994 39.1742 -5.3912 5.4443
# 5 -1.3636 0.3626 7.6243 -5.3912 20.4638 -4.0046
# 6 -25.0536 -25.3588 -12.2712 5.4443 -4.0046 33.0721
#
#
#
# Elastic Compliance Matrix: (Units=1/GPa)
#
#
# Indices 1 2 3 4 5 6 
#
# 1 0.016516 0.005059 0.002573 0.014933 0.007067 0.015743
# 2 0.005059 0.035926 -0.002789 0.019497 0.011458 0.028522
# 3 0.002573 -0.002789 0.032466 0.041140 -0.000043 0.005079
# 4 0.014933 0.019497 0.041140 0.098306 0.016573 0.027351
# 5 0.007067 0.011458 -0.000043 0.016573 0.057100 0.018309
# 6 0.015743 0.028522 0.005079 0.027351 0.018309 0.063632
#
#
# Mechanical properties :
#
#
# Convention : Reuss Voigt Hill
#
# Bulk Modulus (GPa) = 10.57158 47.67169 29.12163
# Shear Modulus (GPa) = 15.34722 29.67034 22.50878
#
# Velocity S-wave (km/s) = 2.75404 3.82928 3.33527
# Velocity P-wave (km/s) = 3.91632 6.56589 5.40595
#
# Compressibility (1/GPa) = 0.09459328
#
# Stress axis : x y z
#
# Youngs Moduli (GPa) = 60.54672 27.83524 30.80101
#
# Poissons Ratio (x) = -0.14081 -0.07924
# Poissons Ratio (y) = -0.30628 0.08590
# Poissons Ratio (z) = -0.15577 0.07763
#
# Static dielectric constant tensor:
#      x y z
#    x 1.758070 0.026000 0.004760 
#    y 0.026000 1.732620 -0.044740 
#    z 0.004760 -0.044740 1.862120 
# 
# From -- ./inp_files/96616.got.cif
#   From: 2010.05.17/outbox.cif.g08.bks.cpg/sg2_49_cif.got.tgz:96616.got - 2010.06.03 11:33:40.
