data_PCOD9072198
_publ_section_title
;
Structure prediction by ZEFSAII (Michael W. Deem and Ramdas Pophale) SiO2 
 PCOD9072198
Probable space group: P -1
;
_chemical_formula_sum "Si O2"
_cell_formula_units_Z 14
_cell_length_a 8.384855
_cell_length_b 5.446804
_cell_length_c 14.995547
_cell_angle_alpha 69.544414
_cell_angle_beta 63.931104
_cell_angle_gamma 88.978058
_cell_volume 568.845576
_symmetry_space_group_name_H-M "P -1"
_symmetry_group_IT_number 2
_symmetry_cell_setting 'triclinic'
loop_
_space_group_symop_operation_xyz
x,y,z
-x,-y,-z
loop_
_atom_site_type_symbol
_atom_site_label
_atom_site_fract_x
_atom_site_fract_y
_atom_site_fract_z
Si Si1 0.071019 0.642582 0.599372
Si Si2 0.086421 0.062452 0.873429
Si Si3 0.022208 0.962468 0.286790
Si Si4 0.655840 0.535090 0.701175
Si Si5 0.181962 0.539771 0.891119
Si Si6 0.340098 0.913689 0.350264
Si Si7 0.503556 0.690823 0.059814
O O1 0.089363 0.334446 0.641538
O O2 0.215337 0.792066 0.477146
O O3 0.866093 0.624543 0.612896
O O4 0.069305 0.820616 0.665677
O O5 0.955671 0.990204 0.829969
O O6 0.143390 0.380147 0.828256
O O7 0.228003 0.860277 0.846680
O O8 0.000000 0.000000 0.000000
O O9 0.208392 0.961941 0.293624
O O10 0.562746 0.313573 0.684855
O O11 0.652619 0.419666 0.816924
O O12 0.564453 0.795102 0.686372
O O13 0.324186 0.377185 0.921073
O O14 0.000000 0.500000 0.000000
O O15 0.500000 0.500000 0.000000
O O16 0.500000 0.000000 0.000000
#
# Coordination Sequence:
#
# PCOD9072198 Si02
#       7
#     2   2   2   2   2   2   2
#     4  10  19  33  56  92 124 153 202 270 322 370
#     4  10  21  36  56  83 116 162 212 255 294 365
#     4  10  18  30  52  84 120 156 198 252 311 362
#     4  10  20  33  54  83 119 160 191 245 322 374
#     4  10  23  41  60  83 120 169 210 257 307 363
#     4  10  19  34  57  92 124 154 202 268 323 373
#     4  12  26  43  63  93 129 168 217 269 318 375
#
# _framework density 24.611249999999998
#
# number of rings (size 3 to 8) (size 9 to 14) (size 15 to 20)
#    0.000    1.714    0.000    6.857    0.000   13.714 
#    0.000    0.000    0.000    0.000    0.000   34.000 
#    0.000    0.000    0.000    0.000    0.000    0.000 
#
# Total GULP energy -78165.173988 kJ/mol
# GULP energy per Si atom -5583.226713 kJ/mol
# Density = 2.455523 g / cm^3
# Si number density = 24.611250 Si / 1000 Ang^3
#
#
#
# Elastic Constant Matrix: (Units=GPa)
#
#
# Indices 1 2 3 4 5 6 
#
# 1 35.4273 19.7445 11.3194 8.9580 9.1126 -6.2693
# 2 19.7445 294.6870 45.4450 10.8091 -4.9290 15.4173
# 3 11.3194 45.4450 78.6258 7.9043 -3.8615 2.3450
# 4 8.9580 10.8091 7.9043 49.1740 6.6949 8.2513
# 5 9.1126 -4.9290 -3.8615 6.6949 29.9708 4.5886
# 6 -6.2693 15.4173 2.3450 8.2513 4.5886 33.1892
#
#
#
# Elastic Compliance Matrix: (Units=1/GPa)
#
#
# Indices 1 2 3 4 5 6 
#
# 1 0.037976 -0.002486 -0.004435 -0.005882 -0.013036 0.011906
# 2 -0.002486 0.003989 -0.001806 0.000064 0.001536 -0.002423
# 3 -0.004435 -0.001806 0.014750 -0.001441 0.003451 -0.001160
# 4 -0.005882 0.000064 -0.001441 0.023049 -0.002553 -0.006416
# 5 -0.013036 0.001536 0.003451 -0.002553 0.039867 -0.008297
# 6 0.011906 -0.002423 -0.001160 -0.006416 -0.008297 0.036329
#
#
# Mechanical properties :
#
#
# Convention : Reuss Voigt Hill
#
# Bulk Modulus (GPa) = 25.47007 62.41753 43.94380
# Shear Modulus (GPa) = 26.80952 44.61555 35.71253
#
# Velocity S-wave (km/s) = 3.30406 4.26233 3.81342
# Velocity P-wave (km/s) = 4.99272 7.04555 6.10602
#
# Compressibility (1/GPa) = 0.03926177
#
# Stress axis : x y z
#
# Youngs Moduli (GPa) = 26.33213 250.71180 67.79719
#
# Poissons Ratio (x) = 0.62322 0.30065
# Poissons Ratio (y) = 0.06546 0.12246
# Poissons Ratio (z) = 0.11677 0.45285
#
# Static dielectric constant tensor:
#      x y z
#    x 1.999730 0.041750 -0.003490 
#    y 0.041750 2.121610 -0.034500 
#    z -0.003490 -0.034500 1.984270 
# 
# From -- ./inp_files/459434.got.cif
#   From: 2010.05.17/outbox.cif.g08.bks.cpg/sg2_230_cif.got.tgz:459434.got - 2010.06.03 11:33:40.
