data_PCOD9072767
_publ_section_title
;
Structure prediction by ZEFSAII (Michael W. Deem and Ramdas Pophale) SiO2 
 PCOD9072767
Probable space group: P -1
;
_chemical_formula_sum "Si O2"
_cell_formula_units_Z 16
_cell_length_a 9.000000
_cell_length_b 18.000000
_cell_length_c 12.000000
_cell_angle_alpha 40.000000
_cell_angle_beta 100.000000
_cell_angle_gamma 130.000000
_cell_volume 729.599496
_symmetry_space_group_name_H-M "P -1"
_symmetry_group_IT_number 2
_symmetry_cell_setting 'triclinic'
loop_
_space_group_symop_operation_xyz
x,y,z
-x,-y,-z
loop_
_atom_site_type_symbol
_atom_site_label
_atom_site_fract_x
_atom_site_fract_y
_atom_site_fract_z
Si Si1 0.479088 0.592266 0.616738
Si Si2 0.411418 0.274264 0.277177
Si Si3 0.118096 0.513926 0.278558
Si Si4 0.930413 0.245823 0.988959
Si Si5 0.647923 0.107508 0.764714
Si Si6 0.526804 0.224887 0.778131
Si Si7 0.089063 0.878649 0.629354
Si Si8 0.770480 0.566731 0.792792
O O1 0.481041 0.658857 0.660686
O O2 0.559899 0.732743 0.370592
O O3 0.665209 0.599384 0.656561
O O4 0.187671 0.369581 0.814013
O O5 0.142137 0.174697 0.363552
O O6 0.346677 0.108942 0.409826
O O7 0.588009 0.447373 0.013317
O O8 0.048071 0.603441 0.173812
O O9 0.305041 0.609194 0.297280
O O10 0.252397 0.567405 0.119591
O O11 0.873731 0.280441 0.514515
O O12 0.951227 0.201981 0.162861
O O13 0.643323 0.047753 0.133843
O O14 0.691776 0.229386 0.728193
O O15 0.664703 0.984065 0.946888
O O16 0.045801 0.763350 0.655967
#
# Coordination Sequence:
#
# PCOD9072767 Si02
#       8
#     2   2   2   2   2   2   2   2
#     4  11  20  40  68  90 114 155 207 248 291 351
#     4  10  20  39  63  92 121 151 201 250 296 347
#     4  11  25  41  59  88 128 161 191 244 306 354
#     4  11  21  37  65  91 115 153 205 244 291 353
#     4  10  22  38  62  90 119 153 204 251 290 348
#     4  10  22  39  64  88 117 156 204 251 291 347
#     4  10  20  36  63  93 117 157 200 246 294 349
#     4  11  23  42  60  88 130 157 190 247 304 357
#
# _framework density 21.929839999999999
#
# number of rings (size 3 to 8) (size 9 to 14) (size 15 to 20)
#    0.000    1.500    3.750    1.875    3.500    3.000 
#    0.000    1.875    0.000    0.000    0.000    0.000 
#    0.000    0.000    0.000    0.000    0.000    0.000 
#
# Total GULP energy -89185.748612 kJ/mol
# GULP energy per Si atom -5574.109288 kJ/mol
# Density = 2.187993 g / cm^3
# Si number density = 21.929840 Si / 1000 Ang^3
#
#
#
# Elastic Constant Matrix: (Units=GPa)
#
#
# Indices 1 2 3 4 5 6 
#
# 1 -8.9070 3.8626 -8.4920 0.9892 -1.6860 2.0753
# 2 3.8626 91.2050 1.3695 -14.9038 -6.6811 -11.5038
# 3 -8.4920 1.3695 61.6684 -25.5146 10.8579 -9.7543
# 4 0.9892 -14.9038 -25.5146 20.2806 0.8067 0.9177
# 5 -1.6860 -6.6811 10.8579 0.8067 19.0798 8.8425
# 6 2.0753 -11.5038 -9.7543 0.9177 8.8425 13.0837
#
#
#
# Elastic Compliance Matrix: (Units=1/GPa)
#
#
# Indices 1 2 3 4 5 6 
#
# 1 -0.094697 0.006250 -0.006763 0.000131 -0.013838 0.024817
# 2 0.006250 -0.000475 -0.037931 -0.047666 0.052704 -0.061964
# 3 -0.006763 -0.037931 -0.104805 -0.156215 0.143364 -0.196348
# 4 0.000131 -0.047666 -0.156215 -0.177628 0.214571 -0.290953
# 5 -0.013838 0.052704 0.143364 0.214571 -0.125319 0.225064
# 6 0.024817 -0.061964 -0.196348 -0.290953 0.225064 -0.260072
#
#
# Mechanical properties :
#
#
# Convention : Reuss Voigt Hill
#
# Bulk Modulus (GPa) = -3.61189 15.27186 5.82998
# Shear Modulus (GPa) = -6.42345 20.30390 6.94022
#
# Velocity S-wave (km/s) = -1.71332 3.04609 1.78090
# Velocity P-wave (km/s) = 2.35893 4.39894 2.62546
#
# Compressibility (1/GPa) = -0.27686321
#
# Stress axis : x y z
#
# Youngs Moduli (GPa) = -10.55996 -2106.15940 -9.54157
#
# Poissons Ratio (x) = 13.16371 -0.06453
# Poissons Ratio (y) = 0.06600 -0.36192
# Poissons Ratio (z) = -0.07141 -79.88813
#
# Static dielectric constant tensor:
#      x y z
#    x 1.823160 -0.047050 -0.004120 
#    y -0.047050 1.879560 -0.029020 
#    z -0.004120 -0.029020 1.860030 
# 
# From -- ./inp_files/402855.got.cif
#   From: 2010.05.17/outbox.ucp.g08.bks.cvg/sg2_202_cif.got.tgz:402855.got - 2010.06.11 11:32:03.
