data_PCOD9072970
_publ_section_title
;
Structure prediction by ZEFSAII (Michael W. Deem and Ramdas Pophale) SiO2 
 PCOD9072970
Probable space group: P -1
;
_chemical_formula_sum "Si O2"
_cell_formula_units_Z 12
_cell_length_a 21.000000
_cell_length_b 6.000000
_cell_length_c 6.000000
_cell_angle_alpha 70.000000
_cell_angle_beta 50.000000
_cell_angle_gamma 60.000000
_cell_volume 501.298476
_symmetry_space_group_name_H-M "P -1"
_symmetry_group_IT_number 2
_symmetry_cell_setting 'triclinic'
loop_
_space_group_symop_operation_xyz
x,y,z
-x,-y,-z
loop_
_atom_site_type_symbol
_atom_site_label
_atom_site_fract_x
_atom_site_fract_y
_atom_site_fract_z
Si Si1 0.643510 0.875135 0.652821
Si Si2 0.457820 0.305543 0.750189
Si Si3 0.714255 0.602176 0.173267
Si Si4 0.043100 0.115472 0.057370
Si Si5 0.773130 0.084067 0.500452
Si Si6 0.136395 0.706515 0.378614
O O1 0.712867 0.783222 0.322493
O O2 0.549192 0.075819 0.700812
O O3 0.689783 0.989676 0.698595
O O4 0.611922 0.654025 0.898905
O O5 0.500000 0.500000 0.500000
O O6 0.388834 0.289472 0.721113
O O7 0.738021 0.325841 0.328252
O O8 0.792516 0.535913 0.833948
O O9 0.949539 0.325649 0.296287
O O10 0.087640 0.921365 0.227987
O O11 0.132975 0.124041 0.738848
O O12 0.000000 0.000000 0.000000
O O13 0.806039 0.187829 0.616198
#
# Coordination Sequence:
#
# PCOD9072970 Si02
#       6
#     2   2   2   2   2   2
#     4  11  25  43  67  99 130 175 227 275 329 396
#     4  11  24  46  66  94 133 178 222 278 332 394
#     4  11  22  41  64  95 133 173 221 276 330 391
#     4   8  16  33  62  96 131 175 216 264 329 388
#     4  10  20  39  65  96 134 175 222 271 325 394
#     4   9  18  35  64  96 132 177 213 270 335 386
#
# _framework density 23.937835
#
# number of rings (size 3 to 8) (size 9 to 14) (size 15 to 20)
#    0.000    2.000    1.667    1.500    0.000    3.333 
#    9.000    0.833    0.000   41.000    0.000    0.000 
#    0.000    0.000    0.000    0.000    0.000    0.000 
#
# Total GULP energy -66821.250708 kJ/mol
# GULP energy per Si atom -5568.437559 kJ/mol
# Density = 2.388335 g / cm^3
# Si number density = 23.937835 Si / 1000 Ang^3
#
#
#
# Elastic Constant Matrix: (Units=GPa)
#
#
# Indices 1 2 3 4 5 6 
#
# 1 166.5332 32.3422 38.6357 6.1018 -11.4656 -26.6030
# 2 32.3422 75.0688 35.6881 6.1109 0.2588 -31.9086
# 3 38.6357 35.6881 144.3498 18.0525 -14.6684 5.0674
# 4 6.1018 6.1109 18.0525 44.6711 -6.6445 3.6602
# 5 -11.4656 0.2588 -14.6684 -6.6445 42.9649 1.9371
# 6 -26.6030 -31.9086 5.0674 3.6602 1.9371 27.1701
#
#
#
# Elastic Compliance Matrix: (Units=1/GPa)
#
#
# Indices 1 2 3 4 5 6 
#
# 1 0.008276 0.003990 -0.003493 -0.001355 0.000169 0.013611
# 2 0.003990 0.044624 -0.014138 -0.007057 -0.007848 0.060460
# 3 -0.003493 -0.014138 0.012628 -0.000171 0.004460 -0.022674
# 4 -0.001355 -0.007057 -0.000171 0.025309 0.004136 -0.013287
# 5 0.000169 -0.007848 0.004460 0.004136 0.026084 -0.012300
# 6 0.013611 0.060460 -0.022674 -0.013287 -0.012300 0.128032
#
#
# Mechanical properties :
#
#
# Convention : Reuss Voigt Hill
#
# Bulk Modulus (GPa) = 26.14568 66.58708 46.36638
# Shear Modulus (GPa) = 17.54485 41.58027 29.56256
#
# Velocity S-wave (km/s) = 2.71021 4.17227 3.51803
# Velocity P-wave (km/s) = 4.55409 7.14755 5.99279
#
# Compressibility (1/GPa) = 0.03824723
#
# Stress axis : x y z
#
# Youngs Moduli (GPa) = 120.83471 22.40945 79.18648
#
# Poissons Ratio (x) = -0.08942 0.27658
# Poissons Ratio (y) = -0.48215 1.11953
# Poissons Ratio (z) = 0.42205 0.31682
#
# Static dielectric constant tensor:
#      x y z
#    x 1.843330 -0.005280 0.062490 
#    y -0.005280 1.960990 -0.008930 
#    z 0.062490 -0.008930 2.008080 
# 
# From -- ./inp_files/12632.got.cif
#   From: 2010.05.17/outbox.ucp.g08.bks.cvg/sg2_7_cif.got.tgz:12632.got - 2010.06.11 11:32:03.
