data_PCOD9072437
_publ_section_title
;
Structure prediction by ZEFSAII (Michael W. Deem and Ramdas Pophale) SiO2 
 PCOD9072437
Probable space group: P -1
;
_chemical_formula_sum "Si O2"
_cell_formula_units_Z 16
_cell_length_a 10.057587
_cell_length_b 19.515475
_cell_length_c 11.255364
_cell_angle_alpha 131.950272
_cell_angle_beta 39.033860
_cell_angle_gamma 100.409481
_cell_volume 714.992478
_symmetry_space_group_name_H-M "P -1"
_symmetry_group_IT_number 2
_symmetry_cell_setting 'triclinic'
loop_
_space_group_symop_operation_xyz
x,y,z
-x,-y,-z
loop_
_atom_site_type_symbol
_atom_site_label
_atom_site_fract_x
_atom_site_fract_y
_atom_site_fract_z
Si Si1 0.138206 0.152317 0.337077
Si Si2 0.936407 0.625320 0.663037
Si Si3 0.551450 0.184602 0.979863
Si Si4 0.025049 0.904304 0.219783
Si Si5 0.677150 0.863525 0.555440
Si Si6 0.244734 0.696101 0.428206
Si Si7 0.794632 0.958896 0.194376
Si Si8 0.613073 0.750838 0.273612
O O1 0.119993 0.178743 0.519317
O O2 0.820745 0.266809 0.622567
O O3 0.362487 0.160266 0.139322
O O4 0.334676 0.998238 0.993232
O O5 0.000000 0.500000 0.500000
O O6 0.204212 0.605264 0.398656
O O7 0.668851 0.709381 0.847039
O O8 0.835563 0.697489 0.945108
O O9 0.675057 0.199612 0.027218
O O10 0.851893 0.052512 0.550369
O O11 0.793911 0.897306 0.413791
O O12 0.033232 0.897708 0.065285
O O13 0.710279 0.756289 0.341712
O O14 0.525746 0.670870 0.241975
O O15 0.950090 0.841938 0.857827
O O16 0.500000 0.000000 0.500000
O O17 0.677034 0.092370 0.376935
#
# Coordination Sequence:
#
# PCOD9072437 Si02
#       8
#     2   2   2   2   2   2   2   2
#     4   9  19  32  49  84 131 155 184 236 299 379
#     4  11  24  45  65  84 119 164 216 263 293 355
#     4   9  19  34  54  85 113 156 196 242 308 351
#     4  10  18  30  57  84 123 153 186 245 307 369
#     4  10  19  31  50  88 127 157 187 234 306 373
#     4  11  23  37  61  92 120 160 203 252 312 368
#     4  12  18  35  57  91 132 156 190 246 316 370
#     4  12  23  36  62  92 123 161 206 253 310 364
#
# _framework density 22.377858
#
# number of rings (size 3 to 8) (size 9 to 14) (size 15 to 20)
#    0.000    1.500    5.000    1.125    3.500    1.500 
#    0.000    0.000    0.000    6.000    0.000    0.000 
#    0.000    0.000    0.000    0.000    0.000    0.000 
#
# Total GULP energy -89378.544870 kJ/mol
# GULP energy per Si atom -5586.159054 kJ/mol
# Density = 2.232693 g / cm^3
# Si number density = 22.377858 Si / 1000 Ang^3
#
#
#
# Elastic Constant Matrix: (Units=GPa)
#
#
# Indices 1 2 3 4 5 6 
#
# 1 164.0139 37.0412 10.3817 6.7207 13.3204 -14.0868
# 2 37.0412 95.9276 16.9956 10.3283 3.8634 6.7594
# 3 10.3817 16.9956 25.2332 -1.6484 7.2096 -4.1435
# 4 6.7207 10.3283 -1.6484 29.2443 2.8104 -1.1776
# 5 13.3204 3.8634 7.2096 2.8104 21.5445 -6.6022
# 6 -14.0868 6.7594 -4.1435 -1.1776 -6.6022 43.3691
#
#
#
# Elastic Compliance Matrix: (Units=1/GPa)
#
#
# Indices 1 2 3 4 5 6 
#
# 1 0.007193 -0.002825 0.000244 -0.000233 -0.003289 0.002293
# 2 -0.002825 0.014008 -0.009824 -0.005201 0.002013 -0.003874
# 3 0.000244 -0.009824 0.051798 0.007992 -0.015408 0.004431
# 4 -0.000233 -0.005201 0.007992 0.037173 -0.005956 0.001601
# 5 -0.003289 0.002013 -0.015408 -0.005956 0.055695 0.005463
# 6 0.002293 -0.003874 0.004431 0.001601 0.005463 0.025705
#
#
# Mechanical properties :
#
#
# Convention : Reuss Voigt Hill
#
# Bulk Modulus (GPa) = 20.75082 46.00132 33.37607
# Shear Modulus (GPa) = 21.51055 33.54867 27.52961
#
# Velocity S-wave (km/s) = 3.10376 3.87614 3.51125
# Velocity P-wave (km/s) = 4.70505 6.37447 5.60229
#
# Compressibility (1/GPa) = 0.04819086
#
# Stress axis : x y z
#
# Youngs Moduli (GPa) = 139.02041 71.38954 19.30558
#
# Poissons Ratio (x) = 0.20166 -0.00472
# Poissons Ratio (y) = 0.39271 0.18965
# Poissons Ratio (z) = -0.03396 0.70131
#
# Static dielectric constant tensor:
#      x y z
#    x 1.908960 0.014070 -0.011390 
#    y 0.014070 1.861770 -0.018420 
#    z -0.011390 -0.018420 1.840170 
# 
# From -- ./inp_files/225589.got.cif
#   From: 2010.05.17/outbox.cif.g08.bks.cpg/sg2_113_cif.got.tgz:225589.got - 2010.06.03 11:33:40.
