data_PCOD9072071
_publ_section_title
;
Structure prediction by ZEFSAII (Michael W. Deem and Ramdas Pophale) SiO2 
 PCOD9072071
Probable space group: P -1
;
_chemical_formula_sum "Si O2"
_cell_formula_units_Z 12
_cell_length_a 10.854486
_cell_length_b 9.219892
_cell_length_c 13.004374
_cell_angle_alpha 67.642611
_cell_angle_beta 122.907298
_cell_angle_gamma 66.953526
_cell_volume 644.309482
_symmetry_space_group_name_H-M "P -1"
_symmetry_group_IT_number 2
_symmetry_cell_setting 'triclinic'
loop_
_space_group_symop_operation_xyz
x,y,z
-x,-y,-z
loop_
_atom_site_type_symbol
_atom_site_label
_atom_site_fract_x
_atom_site_fract_y
_atom_site_fract_z
Si Si1 0.270235 0.039421 0.986737
Si Si2 0.918028 0.574541 0.058892
Si Si3 0.203830 0.378130 0.703575
Si Si4 0.540427 0.252717 0.191022
Si Si5 0.754568 0.208715 0.100189
Si Si6 0.051014 0.207687 0.363371
O O1 0.132742 0.211808 0.977356
O O2 0.548081 0.796866 0.189333
O O3 0.233579 0.209526 0.841660
O O4 0.174726 0.958586 0.916349
O O5 0.672894 0.688751 0.925814
O O6 0.000000 0.500000 0.000000
O O7 0.082581 0.334830 0.271577
O O8 0.000000 0.500000 0.500000
O O9 0.121835 0.592677 0.678247
O O10 0.651199 0.178863 0.148430
O O11 0.723829 0.041155 0.412194
O O12 0.439131 0.508039 0.099202
O O13 0.940903 0.162241 0.255626
#
# Coordination Sequence:
#
# PCOD9072071 Si02
#       6
#     2   2   2   2   2   2
#     4  10  19  32  50  75 104 131 170 216 254 302
#     4  10  22  38  54  72 100 143 184 214 247 293
#     4  10  18  30  51  78 104 132 167 210 260 306
#     4  10  19  34  54  79 110 136 165 207 258 315
#     4  10  19  32  54  82 109 133 160 209 273 316
#     4  10  20  34  55  80 107 137 167 208 263 313
#
# _framework density 18.624589
#
# number of rings (size 3 to 8) (size 9 to 14) (size 15 to 20)
#    0.000    2.000    0.000    7.500    0.000    2.000 
#    0.000    3.333    0.000    2.000    0.000    0.000 
#    0.000    0.000    0.000    0.000    0.000    0.000 
#
# Total GULP energy -66974.478401 kJ/mol
# GULP energy per Si atom -5581.206533 kJ/mol
# Density = 1.858220 g / cm^3
# Si number density = 18.624589 Si / 1000 Ang^3
#
#
#
# Elastic Constant Matrix: (Units=GPa)
#
#
# Indices 1 2 3 4 5 6 
#
# 1 8.6422 21.6848 7.2180 4.5410 -8.0899 3.8582
# 2 21.6848 169.6638 35.7692 12.4073 -4.6992 4.9879
# 3 7.2180 35.7692 148.6152 -0.9023 -5.1249 4.5382
# 4 4.5410 12.4073 -0.9023 13.8381 5.1498 0.3558
# 5 -8.0899 -4.6992 -5.1249 5.1498 14.9088 10.5664
# 6 3.8582 4.9879 4.5382 0.3558 10.5664 23.5922
#
#
#
# Elastic Compliance Matrix: (Units=1/GPa)
#
#
# Indices 1 2 3 4 5 6 
#
# 1 -0.109635 0.001437 -0.002198 0.088035 -0.149514 0.083685
# 2 0.001437 0.007268 -0.001326 -0.010920 0.010760 -0.006171
# 3 -0.002198 -0.001326 0.007243 0.002011 0.001084 -0.001269
# 4 0.088035 -0.010920 0.002011 0.030581 0.063913 -0.041562
# 5 -0.149514 0.010760 0.001084 0.063913 -0.069231 0.052011
# 6 0.083685 -0.006171 -0.001269 -0.041562 0.052011 0.007582
#
#
# Mechanical properties :
#
#
# Convention : Reuss Voigt Hill
#
# Bulk Modulus (GPa) = -10.07072 50.69613 20.31271
# Shear Modulus (GPa) = -32.23393 27.95111 -2.14141
#
# Velocity S-wave (km/s) = -4.16470 3.87817 -1.07344
# Velocity P-wave (km/s) = 5.34278 6.87988 3.06492
#
# Compressibility (1/GPa) = -0.09929779
#
# Stress axis : x y z
#
# Youngs Moduli (GPa) = -9.12120 137.59042 138.06432
#
# Poissons Ratio (x) = -0.19766 0.30343
# Poissons Ratio (y) = 0.01310 0.18305
# Poissons Ratio (z) = -0.02005 0.18242
#
# Static dielectric constant tensor:
#      x y z
#    x 1.636110 0.012780 0.005600 
#    y 0.012780 1.705440 -0.004250 
#    z 0.005600 -0.004250 1.653350 
# 
# From -- ./inp_files/25635.got.cif
#   From: 2010.05.17/outbox.cif.g08.bks.cpg/sg2_13_cif.got.tgz:25635.got - 2010.06.03 11:33:40.
