data_PCOD9072853
_publ_section_title
;
Structure prediction by ZEFSAII (Michael W. Deem and Ramdas Pophale) SiO2 
 PCOD9072853
Probable space group: P -1
;
_chemical_formula_sum "Si O2"
_cell_formula_units_Z 16
_cell_length_a 15.000000
_cell_length_b 18.000000
_cell_length_c 27.000000
_cell_angle_alpha 160.000000
_cell_angle_beta 160.000000
_cell_angle_gamma 20.000000
_cell_volume 746.015535
_symmetry_space_group_name_H-M "P -1"
_symmetry_group_IT_number 2
_symmetry_cell_setting 'triclinic'
loop_
_space_group_symop_operation_xyz
x,y,z
-x,-y,-z
loop_
_atom_site_type_symbol
_atom_site_label
_atom_site_fract_x
_atom_site_fract_y
_atom_site_fract_z
Si Si1 0.756855 0.645901 0.186750
Si Si2 0.619622 0.938138 0.596110
Si Si3 0.156873 0.891779 0.263282
Si Si4 0.708160 0.515177 0.188381
Si Si5 0.342030 0.191707 0.352965
Si Si6 0.607385 0.040613 0.134609
Si Si7 0.238480 0.588465 0.321269
Si Si8 0.854954 0.594523 0.038085
O O1 0.835009 0.514068 0.198554
O O2 0.022155 0.643712 0.290687
O O3 0.517363 0.920068 0.250794
O O4 0.572291 0.533575 0.991780
O O5 0.878924 0.946982 0.703621
O O6 0.403315 0.225286 0.678775
O O7 0.467239 0.834579 0.413799
O O8 0.652996 0.804537 0.582237
O O9 0.170120 0.632144 0.094266
O O10 0.925062 0.007224 0.260579
O O11 0.994794 0.305625 0.232957
O O12 0.518333 0.319774 0.499394
O O13 0.425045 0.297464 0.226988
O O14 0.580572 0.848289 0.037073
O O15 0.500000 0.000000 0.000000
O O16 0.033389 0.676597 0.220056
O O17 0.000000 0.500000 0.000000
#
# Coordination Sequence:
#
# PCOD9072853 Si02
#       8
#     2   2   2   2   2   2   2   2
#     4  10  24  43  65  90 126 163 212 266 318 376
#     4  10  22  40  62  90 129 168 206 262 308 373
#     4  10  20  41  60  90 132 169 209 252 311 369
#     4  10  22  44  64  89 125 166 212 263 319 373
#     4  11  23  41  67  94 125 165 213 263 316 370
#     4  11  22  37  60  90 124 165 204 253 301 370
#     4  12  23  40  65  97 127 166 210 258 316 370
#     4  10  20  38  58  87 126 164 201 251 306 363
#
# _framework density 21.447275000000001
#
# number of rings (size 3 to 8) (size 9 to 14) (size 15 to 20)
#    0.000    1.500    2.500    3.750    0.000    2.500 
#    4.500    1.875    0.000    0.000    0.000    0.000 
#    0.000    0.000    0.000    0.000    0.000    0.000 
#
# Total GULP energy -89078.834783 kJ/mol
# GULP energy per Si atom -5567.427174 kJ/mol
# Density = 2.139846 g / cm^3
# Si number density = 21.447275 Si / 1000 Ang^3
#
#
#
# Elastic Constant Matrix: (Units=GPa)
#
#
# Indices 1 2 3 4 5 6 
#
# 1 101.9428 0.5363 -8.2156 -10.5360 14.0790 -7.4864
# 2 0.5363 36.9152 1.3054 -4.9109 0.9333 -0.7172
# 3 -8.2156 1.3054 30.1883 12.6089 4.2969 7.6737
# 4 -10.5360 -4.9109 12.6089 3.9525 -5.7364 0.9994
# 5 14.0790 0.9333 4.2969 -5.7364 31.9455 3.3676
# 6 -7.4864 -0.7172 7.6737 0.9994 3.3676 12.5695
#
#
#
# Elastic Compliance Matrix: (Units=1/GPa)
#
#
# Indices 1 2 3 4 5 6 
#
# 1 0.010747 -0.001662 0.007795 -0.011512 -0.008297 0.004685
# 2 -0.001662 0.022236 0.014706 -0.033592 -0.007504 -0.004018
# 3 0.007795 0.014706 -0.014417 0.110871 0.017913 0.000668
# 4 -0.011512 -0.033592 0.110871 -0.225957 -0.044524 -0.046564
# 5 -0.008297 -0.007504 0.017913 -0.044524 0.026880 -0.019967
# 6 0.004685 -0.004018 0.000668 -0.046564 -0.019967 0.090763
#
#
# Mechanical properties :
#
#
# Convention : Reuss Voigt Hill
#
# Bulk Modulus (GPa) = 16.59960 17.36651 16.98306
# Shear Modulus (GPa) = -44.90568 21.38817 -11.75876
#
# Velocity S-wave (km/s) = -4.58074 3.16134 -2.34404
# Velocity P-wave (km/s) = 4.49678 4.63037 0.78081
#
# Compressibility (1/GPa) = 0.06024240
#
# Stress axis : x y z
#
# Youngs Moduli (GPa) = 93.05298 44.97196 -69.36381
#
# Poissons Ratio (x) = 0.07476 0.54067
# Poissons Ratio (y) = 0.15469 1.02006
# Poissons Ratio (z) = -0.72532 -0.66136
#
# Static dielectric constant tensor:
#      x y z
#    x 1.750680 -0.027310 0.112350 
#    y -0.027310 1.851360 0.020820 
#    z 0.112350 0.020820 1.845140 
# 
# From -- ./inp_files/619773.got.cif
#   From: 2010.05.17/outbox.ucp.g08.bks.cvg/sg2_310_cif.got.tgz:619773.got - 2010.06.11 11:32:03.
