data_PCOD9072319
_publ_section_title
;
Structure prediction by ZEFSAII (Michael W. Deem and Ramdas Pophale) SiO2 
 PCOD9072319
Probable space group: P -1
;
_chemical_formula_sum "Si O2"
_cell_formula_units_Z 16
_cell_length_a 19.097587
_cell_length_b 9.897422
_cell_length_c 22.915666
_cell_angle_alpha 157.024653
_cell_angle_beta 156.739207
_cell_angle_gamma 32.478707
_cell_volume 667.621332
_symmetry_space_group_name_H-M "P -1"
_symmetry_group_IT_number 2
_symmetry_cell_setting 'triclinic'
loop_
_space_group_symop_operation_xyz
x,y,z
-x,-y,-z
loop_
_atom_site_type_symbol
_atom_site_label
_atom_site_fract_x
_atom_site_fract_y
_atom_site_fract_z
Si Si1 0.380884 0.425455 0.796453
Si Si2 0.842279 0.376537 0.196447
Si Si3 0.097112 0.811734 0.646184
Si Si4 0.628618 0.714356 0.012902
Si Si5 0.345473 0.763621 0.261405
Si Si6 0.227084 0.755106 0.378502
Si Si7 0.956049 0.974075 0.023369
Si Si8 0.794030 0.596845 0.887847
O O1 0.318606 0.440606 0.821530
O O2 0.230221 0.610206 0.711957
O O3 0.379097 0.011060 0.620482
O O4 0.555077 0.617187 0.981519
O O5 0.007507 0.538839 0.423895
O O6 0.883596 0.315586 0.135732
O O7 0.796779 0.984913 0.023697
O O8 0.185502 0.101888 0.787088
O O9 0.950934 0.021314 0.655538
O O10 0.616238 0.368532 0.826517
O O11 0.500000 0.000000 0.000000
O O12 0.150459 0.924946 0.181217
O O13 0.310742 0.428773 0.142393
O O14 0.500000 0.000000 0.500000
O O15 0.287027 0.682604 0.329611
O O16 0.169819 0.369380 0.202848
O O17 0.000000 0.000000 0.000000
O O18 0.000000 0.500000 0.000000
#
# Coordination Sequence:
#
# PCOD9072319 Si02
#       8
#     2   2   2   2   2   2   2   2
#     4  10  19  30  55  89 124 148 193 252 305 360
#     4  10  20  33  58  86 115 153 207 244 293 352
#     4  10  18  30  54  90 124 152 185 249 311 356
#     4  10  20  33  51  88 136 151 173 239 329 359
#     4  12  24  36  61  94 122 155 199 254 314 348
#     4  10  18  33  57  82 116 151 200 249 297 337
#     4  11  25  42  61  85 123 166 209 245 291 363
#     4  11  16  30  54  88 116 147 195 250 295 353
#
# _framework density 23.965681
#
# number of rings (size 3 to 8) (size 9 to 14) (size 15 to 20)
#    0.000    1.500    3.750    5.250    3.500    0.000 
#    0.000    2.500    0.000    7.500    0.000    0.000 
#    0.000    0.000    0.000    0.000    0.000    0.000 
#
# Total GULP energy -89198.826787 kJ/mol
# GULP energy per Si atom -5574.926674 kJ/mol
# Density = 2.391113 g / cm^3
# Si number density = 23.965681 Si / 1000 Ang^3
#
#
#
# Elastic Constant Matrix: (Units=GPa)
#
#
# Indices 1 2 3 4 5 6 
#
# 1 172.2373 -3.2476 53.6934 3.9348 -7.1270 -5.2477
# 2 -3.2476 38.3925 24.8867 -2.9554 -9.3258 -11.3602
# 3 53.6934 24.8867 119.7727 21.4416 1.0558 -3.3455
# 4 3.9348 -2.9554 21.4416 22.0062 -14.8961 -4.6306
# 5 -7.1270 -9.3258 1.0558 -14.8961 50.0693 10.2664
# 6 -5.2477 -11.3602 -3.3455 -4.6306 10.2664 21.0629
#
#
#
# Elastic Compliance Matrix: (Units=1/GPa)
#
#
# Indices 1 2 3 4 5 6 
#
# 1 0.008816 0.010823 -0.008537 0.013787 0.006179 0.006697
# 2 0.010823 0.066123 -0.028337 0.058629 0.024789 0.034666
# 3 -0.008537 -0.028337 0.025091 -0.040718 -0.016163 -0.014498
# 4 0.013787 0.058629 -0.040718 0.128135 0.044691 0.034976
# 5 0.006179 0.024789 -0.016163 0.044691 0.038398 0.003451
# 6 0.006697 0.034666 -0.014498 0.034976 0.003451 0.071546
#
#
# Mechanical properties :
#
#
# Convention : Reuss Voigt Hill
#
# Bulk Modulus (GPa) = 20.86430 53.45196 37.15813
# Shear Modulus (GPa) = 12.30961 35.63236 23.97098
#
# Velocity S-wave (km/s) = 2.26881 3.86010 3.16606
# Velocity P-wave (km/s) = 3.94818 6.49762 5.37621
#
# Compressibility (1/GPa) = 0.04792876
#
# Stress axis : x y z
#
# Youngs Moduli (GPa) = 113.43037 15.12334 39.85513
#
# Poissons Ratio (x) = -0.16368 0.34022
# Poissons Ratio (y) = -1.22768 1.12938
# Poissons Ratio (z) = 0.96830 0.42855
#
# Static dielectric constant tensor:
#      x y z
#    x 1.985900 0.058000 0.086070 
#    y 0.058000 2.050020 -0.073780 
#    z 0.086070 -0.073780 1.852650 
# 
# From -- ./inp_files/591781.got.cif
#   From: 2010.05.17/outbox.cif.g08.bks.cpg/sg2_296_cif.got.tgz:591781.got - 2010.06.03 11:33:40.
