data_PCOD9072273
_publ_section_title
;
Structure prediction by ZEFSAII (Michael W. Deem and Ramdas Pophale) SiO2 
 PCOD9072273
Probable space group: P -1
;
_chemical_formula_sum "Si O2"
_cell_formula_units_Z 14
_cell_length_a 11.945414
_cell_length_b 11.526308
_cell_length_c 8.709193
_cell_angle_alpha 37.952998
_cell_angle_beta 84.178137
_cell_angle_gamma 85.871001
_cell_volume 733.621616
_symmetry_space_group_name_H-M "P -1"
_symmetry_group_IT_number 2
_symmetry_cell_setting 'triclinic'
loop_
_space_group_symop_operation_xyz
x,y,z
-x,-y,-z
loop_
_atom_site_type_symbol
_atom_site_label
_atom_site_fract_x
_atom_site_fract_y
_atom_site_fract_z
Si Si1 0.235030 0.373641 0.960778
Si Si2 0.953246 0.361952 0.283057
Si Si3 0.594337 0.623735 0.560287
Si Si4 0.807909 0.732637 0.587523
Si Si5 0.533430 0.724929 0.119711
Si Si6 0.448396 0.903694 0.456919
Si Si7 0.806250 0.031448 0.522336
O O1 0.150853 0.526846 0.745490
O O2 0.358182 0.370420 0.876522
O O3 0.235540 0.391583 0.128502
O O4 0.187234 0.158866 0.176684
O O5 0.903874 0.175527 0.402875
O O6 0.063180 0.315546 0.414598
O O7 0.000000 0.500000 0.000000
O O8 0.720256 0.691689 0.509091
O O9 0.551839 0.701365 0.322173
O O10 0.573776 0.399430 0.789040
O O11 0.515430 0.717678 0.601358
O O12 0.806619 0.942741 0.443277
O O13 0.531669 0.939336 0.841544
O O14 0.315076 0.877886 0.524539
O O15 0.500000 0.000000 0.500000
#
# Coordination Sequence:
#
# PCOD9072273 Si02
#       7
#     2   2   2   2   2   2   2
#     4   8  18  34  51  77 100 139 175 215 263 307
#     4  10  18  30  54  78 101 136 171 223 271 301
#     4  11  21  37  52  80 115 140 179 215 265 324
#     4   9  19  33  50  78 105 134 176 224 252 312
#     4  10  22  36  56  76 111 150 170 218 269 320
#     4  11  20  36  58  82 105 140 181 223 266 315
#     4   9  18  32  49  78 107 128 169 224 267 300
#
# _framework density 19.083406
#
# number of rings (size 3 to 8) (size 9 to 14) (size 15 to 20)
#    0.857    1.429    1.429    1.714    0.000    4.571 
#    0.000    0.714    0.000    3.429    0.000    0.000 
#    0.000    0.000    0.000    0.000    0.000    0.000 
#
# Total GULP energy -77983.406691 kJ/mol
# GULP energy per Si atom -5570.243335 kJ/mol
# Density = 1.903997 g / cm^3
# Si number density = 19.083406 Si / 1000 Ang^3
#
#
#
# Elastic Constant Matrix: (Units=GPa)
#
#
# Indices 1 2 3 4 5 6 
#
# 1 91.4799 38.6647 7.6467 -21.9358 7.5143 28.2708
# 2 38.6647 54.7814 6.5491 -7.2615 0.6605 25.2353
# 3 7.6467 6.5491 21.4088 -10.3717 -7.7575 12.2803
# 4 -21.9358 -7.2615 -10.3717 20.2973 0.2902 -7.4359
# 5 7.5143 0.6605 -7.7575 0.2902 21.1922 -5.9247
# 6 28.2708 25.2353 12.2803 -7.4359 -5.9247 26.8528
#
#
#
# Elastic Compliance Matrix: (Units=1/GPa)
#
#
# Indices 1 2 3 4 5 6 
#
# 1 0.026976 -0.005598 0.014943 0.025652 -0.011367 -0.025377
# 2 -0.005598 0.036694 0.007193 -0.001467 -0.005895 -0.033586
# 3 0.014943 0.007193 0.097739 0.050182 0.015633 -0.049844
# 4 0.025652 -0.001467 0.050182 0.093967 0.001840 -0.022150
# 5 -0.011367 -0.005895 0.015633 0.001840 0.064090 0.025008
# 6 -0.025377 -0.033586 -0.049844 -0.022150 0.025008 0.117699
#
#
# Mechanical properties :
#
#
# Convention : Reuss Voigt Hill
#
# Bulk Modulus (GPa) = 5.14184 30.37677 17.75931
# Shear Modulus (GPa) = 10.66286 21.32243 15.99264
#
# Velocity S-wave (km/s) = 2.36635 3.34627 2.89803
# Velocity P-wave (km/s) = 3.18848 5.55720 4.53039
#
# Compressibility (1/GPa) = 0.19448272
#
# Stress axis : x y z
#
# Youngs Moduli (GPa) = 37.07039 27.25240 10.23135
#
# Poissons Ratio (x) = 0.15257 -0.15288
# Poissons Ratio (y) = 0.20754 -0.07359
# Poissons Ratio (z) = -0.55393 -0.19603
#
# Static dielectric constant tensor:
#      x y z
#    x 1.691230 -0.017880 0.009520 
#    y -0.017880 1.672150 -0.018130 
#    z 0.009520 -0.018130 1.683770 
# 
# From -- ./inp_files/255900.got.cif
#   From: 2010.05.17/outbox.cif.g08.bks.cpg/sg2_128_cif.got.tgz:255900.got - 2010.06.03 11:33:40.
