data_PCOD9072234
_publ_section_title
;
Structure prediction by ZEFSAII (Michael W. Deem and Ramdas Pophale) SiO2 
 PCOD9072234
Probable space group: P -1
;
_chemical_formula_sum "Si O2"
_cell_formula_units_Z 16
_cell_length_a 24.000000
_cell_length_b 12.000000
_cell_length_c 27.000000
_cell_angle_alpha 40.000000
_cell_angle_beta 170.000000
_cell_angle_gamma 140.000000
_cell_volume 863.217841
_symmetry_space_group_name_H-M "P -1"
_symmetry_group_IT_number 2
_symmetry_cell_setting 'triclinic'
loop_
_space_group_symop_operation_xyz
x,y,z
-x,-y,-z
loop_
_atom_site_type_symbol
_atom_site_label
_atom_site_fract_x
_atom_site_fract_y
_atom_site_fract_z
Si Si1 0.687529 0.593785 0.178742
Si Si2 0.361466 0.403703 0.042943
Si Si3 0.098889 0.740866 0.054060
Si Si4 0.405956 0.654008 0.623844
Si Si5 0.384136 0.037018 0.503353
Si Si6 0.182798 0.891424 0.480907
Si Si7 0.628504 0.748245 0.430764
Si Si8 0.778877 0.439909 0.944324
O O1 0.467998 0.566027 0.044779
O O2 0.000000 0.500000 0.500000
O O3 0.845597 0.782937 0.236237
O O4 0.500000 0.500000 0.000000
O O5 0.499917 0.418201 0.215054
O O6 0.533211 0.238157 0.228410
O O7 0.976351 0.371979 0.713418
O O8 0.306044 0.851158 0.240042
O O9 0.352228 0.703329 0.245901
O O10 0.829565 0.851031 0.756450
O O11 0.941015 0.566982 0.000630
O O12 0.598074 0.557584 0.783858
O O13 0.485455 0.863688 0.624775
O O14 0.177218 0.970902 0.393566
O O15 0.272983 0.046478 0.545225
O O16 0.476255 0.694298 0.262815
O O17 0.939874 0.650543 0.750864
#
# Coordination Sequence:
#
# PCOD9072234 Si02
#       8
#     2   2   2   2   2   2   2   2
#     4  10  19  32  58  92 117 137 172 226 287 335
#     4  10  20  37  60  86 115 142 175 231 283 327
#     4  11  22  38  58  82 108 139 188 242 286 315
#     4  11  22  38  56  80 114 151 187 219 275 336
#     4  10  20  35  58  83 111 140 174 236 290 327
#     4   9  20  36  60  88 113 140 180 227 285 333
#     4  11  22  38  57  80 111 146 187 232 275 320
#     4  12  25  38  56  78 110 156 193 223 264 334
#
# _framework density 18.535298000000001
#
# number of rings (size 3 to 8) (size 9 to 14) (size 15 to 20)
#    0.000    1.500    0.000    8.250    0.000    6.000 
#    0.000    0.000    0.000    4.500    0.000    0.000 
#    0.000    0.000    0.000    0.000    0.000    0.000 
#
# Total GULP energy -89382.918092 kJ/mol
# GULP energy per Si atom -5586.432381 kJ/mol
# Density = 1.849311 g / cm^3
# Si number density = 18.535298 Si / 1000 Ang^3
#
#
#
# Elastic Constant Matrix: (Units=GPa)
#
#
# Indices 1 2 3 4 5 6 
#
# 1 26.2942 14.1485 49.1477 1.8361 -17.5291 -22.8539
# 2 14.1485 71.1443 33.4668 15.1486 -0.8143 -12.3302
# 3 49.1477 33.4668 107.3320 5.1358 -24.6941 -17.4010
# 4 1.8361 15.1486 5.1358 26.1667 -3.7377 1.4045
# 5 -17.5291 -0.8143 -24.6941 -3.7377 32.0168 -4.9557
# 6 -22.8539 -12.3302 -17.4010 1.4045 -4.9557 38.3394
#
#
#
# Elastic Compliance Matrix: (Units=1/GPa)
#
#
# Indices 1 2 3 4 5 6 
#
# 1 -0.150416 -0.005131 0.043484 0.000517 -0.061191 -0.079505
# 2 -0.005131 0.019759 -0.004859 -0.011195 -0.007274 0.000561
# 3 0.043484 -0.004859 0.002603 0.002026 0.030479 0.029405
# 4 0.000517 -0.011195 0.002026 0.045344 0.006358 -0.003212
# 5 -0.061191 -0.007274 0.030479 0.006358 0.018260 -0.022854
# 6 -0.079505 0.000561 0.029405 -0.003212 -0.022854 -0.010620
#
#
# Mechanical properties :
#
#
# Convention : Reuss Voigt Hill
#
# Bulk Modulus (GPa) = -16.37566 44.25517 13.93976
# Shear Modulus (GPa) = -30.78584 26.50508 -2.14038
#
# Velocity S-wave (km/s) = -4.07987 3.78561 -1.07576
# Velocity P-wave (km/s) = 5.57206 6.56016 2.44826
#
# Compressibility (1/GPa) = -0.06106625
#
# Stress axis : x y z
#
# Youngs Moduli (GPa) = -6.64821 50.60859 384.13758
#
# Poissons Ratio (x) = 0.25969 -16.70365
# Poissons Ratio (y) = -0.03411 1.86634
# Poissons Ratio (z) = 0.28909 0.24588
#
# Static dielectric constant tensor:
#      x y z
#    x 1.642880 0.011890 -0.001570 
#    y 0.011890 1.677040 0.025570 
#    z -0.001570 0.025570 1.607900 
# 
# From -- ./inp_files/477119.got.cif
#   From: 2010.05.17/outbox.ucp.g08.bks.cvg/sg2_239_cif.got.tgz:477119.got - 2010.06.11 11:32:03.
