data_PCOD9072253
_publ_section_title
;
Structure prediction by ZEFSAII (Michael W. Deem and Ramdas Pophale) SiO2 
 PCOD9072253
Probable space group: P -1
;
_chemical_formula_sum "Si O2"
_cell_formula_units_Z 14
_cell_length_a 26.633528
_cell_length_b 8.919154
_cell_length_c 12.440516
_cell_angle_alpha 144.572294
_cell_angle_beta 152.605892
_cell_angle_gamma 25.095564
_cell_volume 575.815637
_symmetry_space_group_name_H-M "P -1"
_symmetry_group_IT_number 2
_symmetry_cell_setting 'triclinic'
loop_
_space_group_symop_operation_xyz
x,y,z
-x,-y,-z
loop_
_atom_site_type_symbol
_atom_site_label
_atom_site_fract_x
_atom_site_fract_y
_atom_site_fract_z
Si Si1 0.865894 0.752389 0.972653
Si Si2 0.261847 0.511725 0.877134
Si Si3 0.845060 0.458159 0.090035
Si Si4 0.528389 0.712173 0.307272
Si Si5 0.067360 0.148138 0.611266
Si Si6 0.633865 0.561660 0.188639
Si Si7 0.182003 0.712132 0.297198
O O1 0.799243 0.585031 0.776523
O O2 0.936226 0.736459 0.208178
O O3 0.000000 0.500000 0.000000
O O4 0.754093 0.151256 0.950320
O O5 0.271687 0.394279 0.948948
O O6 0.364360 0.295826 0.840126
O O7 0.095981 0.677418 0.628621
O O8 0.872507 0.712950 0.264540
O O9 0.801755 0.378293 0.851204
O O10 0.013942 0.080447 0.214423
O O11 0.543595 0.779090 0.251272
O O12 0.682216 0.339964 0.429650
O O13 0.500000 0.000000 0.500000
O O14 0.411290 0.665422 0.054174
O O15 0.194106 0.725119 0.611457
#
# Coordination Sequence:
#
# PCOD9072253 Si02
#       7
#     2   2   2   2   2   2   2
#     4  10  18  30  53  86 116 150 191 240 287 348
#     4  11  20  35  57  90 124 149 193 252 303 348
#     4  10  20  36  58  91 124 156 190 235 308 374
#     4  11  22  41  63  84 117 161 205 249 298 348
#     4  10  21  36  58  90 125 153 186 243 310 354
#     4  10  23  39  62  92 115 153 210 252 290 357
#     4  10  21  36  60  89 121 159 194 242 299 357
#
# _framework density 24.313338999999999
#
# number of rings (size 3 to 8) (size 9 to 14) (size 15 to 20)
#    0.000    1.714    1.429    5.571    2.000    0.000 
#    0.000    0.714    0.000   12.000    0.000    0.000 
#    0.000    0.000    0.000    0.000    0.000    0.000 
#
# Total GULP energy -78257.027073 kJ/mol
# GULP energy per Si atom -5589.787648 kJ/mol
# Density = 2.425800 g / cm^3
# Si number density = 24.313339 Si / 1000 Ang^3
#
#
#
# Elastic Constant Matrix: (Units=GPa)
#
#
# Indices 1 2 3 4 5 6 
#
# 1 243.6318 28.3552 37.0151 9.5719 -27.4218 -11.8669
# 2 28.3552 42.7228 20.0406 -0.3692 -9.3385 4.3011
# 3 37.0151 20.0406 89.2081 -11.0155 -14.3975 -7.8371
# 4 9.5719 -0.3692 -11.0155 35.8571 -10.3367 -5.7303
# 5 -27.4218 -9.3385 -14.3975 -10.3367 33.7139 10.2814
# 6 -11.8669 4.3011 -7.8371 -5.7303 10.2814 42.8596
#
#
#
# Elastic Compliance Matrix: (Units=1/GPa)
#
#
# Indices 1 2 3 4 5 6 
#
# 1 0.004880 -0.002239 -0.001195 -0.000906 0.002357 0.000671
# 2 -0.002239 0.029208 -0.005199 0.000049 0.005864 -0.005902
# 3 -0.001195 -0.005199 0.014758 0.006695 0.005167 0.002545
# 4 -0.000906 0.000049 0.006695 0.034003 0.011738 0.002699
# 5 0.002357 0.005864 0.005167 0.011738 0.041238 -0.007314
# 6 0.000671 -0.005902 0.002545 0.002699 -0.007314 0.026691
#
#
# Mechanical properties :
#
#
# Convention : Reuss Voigt Hill
#
# Bulk Modulus (GPa) = 31.66446 60.70942 46.18694
# Shear Modulus (GPa) = 28.00048 41.82958 34.91503
#
# Velocity S-wave (km/s) = 3.39728 4.15232 3.79363
# Velocity P-wave (km/s) = 5.33296 6.92912 6.18277
#
# Compressibility (1/GPa) = 0.03158115
#
# Stress axis : x y z
#
# Youngs Moduli (GPa) = 204.91184 34.23772 67.76194
#
# Poissons Ratio (x) = 0.07665 0.08095
# Poissons Ratio (y) = 0.45877 0.35227
# Poissons Ratio (z) = 0.24478 0.17799
#
# Static dielectric constant tensor:
#      x y z
#    x 1.988370 -0.038270 0.002400 
#    y -0.038270 2.035100 -0.044420 
#    z 0.002400 -0.044420 1.951130 
# 
# From -- ./inp_files/476411.got.cif
#   From: 2010.05.17/outbox.cif.g08.bks.cpg/sg2_239_cif.got.tgz:476411.got - 2010.06.03 11:33:40.
