data_PCOD9072356
_publ_section_title
;
Structure prediction by ZEFSAII (Michael W. Deem and Ramdas Pophale) SiO2 
 PCOD9072356
Probable space group: P -1
;
_chemical_formula_sum "Si O2"
_cell_formula_units_Z 16
_cell_length_a 13.848227
_cell_length_b 11.814833
_cell_length_c 22.011627
_cell_angle_alpha 31.743284
_cell_angle_beta 159.216667
_cell_angle_gamma 141.556786
_cell_volume 670.970547
_symmetry_space_group_name_H-M "P -1"
_symmetry_group_IT_number 2
_symmetry_cell_setting 'triclinic'
loop_
_space_group_symop_operation_xyz
x,y,z
-x,-y,-z
loop_
_atom_site_type_symbol
_atom_site_label
_atom_site_fract_x
_atom_site_fract_y
_atom_site_fract_z
Si Si1 0.629396 0.307095 0.600036
Si Si2 0.546011 0.130268 0.337226
Si Si3 0.605951 0.400421 0.922439
Si Si4 0.467356 0.486482 0.294958
Si Si5 0.057044 0.286967 0.717309
Si Si6 0.762951 0.377835 0.238362
Si Si7 0.803536 0.925065 0.688733
Si Si8 0.932339 0.638169 0.689775
O O1 0.536506 0.475154 0.413269
O O2 0.874473 0.393480 0.744518
O O3 0.367363 0.287577 0.498236
O O4 0.652562 0.066161 0.696181
O O5 0.404128 0.339392 0.191295
O O6 0.667345 0.216677 0.306801
O O7 0.801341 0.038006 0.570120
O O8 0.622780 0.337005 0.889965
O O9 0.317762 0.330196 0.810541
O O10 0.854527 0.328580 0.146127
O O11 0.226024 0.324427 0.222994
O O12 0.755363 0.394106 0.475718
O O13 0.103122 0.419591 0.744420
O O14 0.017883 0.032835 0.808206
O O15 0.946202 0.269183 0.342761
O O16 0.500000 0.500000 0.000000
O O17 0.500000 0.000000 0.500000
#
# Coordination Sequence:
#
# PCOD9072356 Si02
#       8
#     2   2   2   2   2   2   2   2
#     4  10  24  40  58  77 115 162 183 221 284 349
#     4  10  20  35  57  88 105 145 191 229 281 329
#     4  11  21  33  59  91 111 137 191 245 273 322
#     4  10  19  34  58  85 113 147 184 232 281 332
#     4  10  18  30  55  87 110 143 180 235 280 324
#     4  11  21  35  56  87 112 143 189 241 279 320
#     4   9  17  30  51  84 117 137 177 229 279 330
#     4  11  23  41  55  82 117 150 192 226 280 339
#
# _framework density 23.846056000000001
#
# number of rings (size 3 to 8) (size 9 to 14) (size 15 to 20)
#    0.000    1.750    6.250    0.375    1.750    1.500 
#    2.250    0.000    0.000    3.000    0.000    0.000 
#    0.000    0.000    0.000    0.000    0.000    0.000 
#
# Total GULP energy -89086.469903 kJ/mol
# GULP energy per Si atom -5567.904369 kJ/mol
# Density = 2.379178 g / cm^3
# Si number density = 23.846056 Si / 1000 Ang^3
#
#
#
# Elastic Constant Matrix: (Units=GPa)
#
#
# Indices 1 2 3 4 5 6 
#
# 1 117.9685 4.8086 35.4104 -0.6484 -20.2432 29.4493
# 2 4.8086 73.6810 31.4993 27.0248 -14.4897 -15.1582
# 3 35.4104 31.4993 54.8966 19.8216 -12.6036 12.3948
# 4 -0.6484 27.0248 19.8216 26.3725 -1.4741 -3.5918
# 5 -20.2432 -14.4897 -12.6036 -1.4741 34.2702 0.8717
# 6 29.4493 -15.1582 12.3948 -3.5918 0.8717 36.8349
#
#
#
# Elastic Compliance Matrix: (Units=1/GPa)
#
#
# Indices 1 2 3 4 5 6 
#
# 1 0.013825 -0.000221 -0.007616 0.005496 0.005717 -0.008181
# 2 -0.000221 0.030221 -0.011646 -0.019857 0.007143 0.014427
# 3 -0.007616 -0.011646 0.042478 -0.021944 0.005644 -0.015271
# 4 0.005496 -0.019857 -0.021944 0.074650 -0.010068 0.002336
# 5 0.005717 0.007143 0.005644 -0.010068 0.037357 -0.005396
# 6 -0.008181 0.014427 -0.015271 0.002336 -0.005396 0.045120
#
#
# Mechanical properties :
#
#
# Convention : Reuss Voigt Hill
#
# Bulk Modulus (GPa) = 21.02644 43.33143 32.17894
# Shear Modulus (GPa) = 16.75221 31.15070 23.95146
#
# Velocity S-wave (km/s) = 2.65338 3.61823 3.17270
# Velocity P-wave (km/s) = 4.26895 5.97212 5.19087
#
# Compressibility (1/GPa) = 0.04755916
#
# Stress axis : x y z
#
# Youngs Moduli (GPa) = 72.33116 33.08975 23.54175
#
# Poissons Ratio (x) = 0.00731 0.17929
# Poissons Ratio (y) = 0.01599 0.27416
# Poissons Ratio (z) = 0.55086 0.38535
#
# Static dielectric constant tensor:
#      x y z
#    x 2.034160 -0.034500 -0.032820 
#    y -0.034500 1.957200 0.007870 
#    z -0.032820 0.007870 2.052460 
# 
# From -- ./inp_files/612114.got.cif
#   From: 2010.05.17/outbox.cif.g08.bks.cpg/sg2_307_cif.got.tgz:612114.got - 2010.06.03 11:33:40.
