data_PCOD9072109
_publ_section_title
;
Structure prediction by ZEFSAII (Michael W. Deem and Ramdas Pophale) SiO2 
 PCOD9072109
Probable space group: P -1
;
_chemical_formula_sum "Si O2"
_cell_formula_units_Z 16
_cell_length_a 9.306667
_cell_length_b 14.613649
_cell_length_c 14.647220
_cell_angle_alpha 40.396749
_cell_angle_beta 66.783726
_cell_angle_gamma 97.231889
_cell_volume 828.992316
_symmetry_space_group_name_H-M "P -1"
_symmetry_group_IT_number 2
_symmetry_cell_setting 'triclinic'
loop_
_space_group_symop_operation_xyz
x,y,z
-x,-y,-z
loop_
_atom_site_type_symbol
_atom_site_label
_atom_site_fract_x
_atom_site_fract_y
_atom_site_fract_z
Si Si1 0.964728 0.711337 0.327773
Si Si2 0.183637 0.936305 0.650772
Si Si3 0.912628 0.413284 0.855057
Si Si4 0.301573 0.240178 0.532100
Si Si5 0.416867 0.803820 0.755049
Si Si6 0.273858 0.990007 0.887825
Si Si7 0.233256 0.500544 0.864725
Si Si8 0.771821 0.316683 0.587490
O O1 0.828313 0.707687 0.440458
O O2 0.803199 0.498641 0.475729
O O3 0.151921 0.734900 0.310720
O O4 0.096318 0.898456 0.083254
O O5 0.330681 0.910352 0.687407
O O6 0.193077 0.085817 0.591945
O O7 0.316964 0.032750 0.448844
O O8 0.934758 0.716672 0.880125
O O9 0.089065 0.488679 0.833329
O O10 0.048826 0.585467 0.613854
O O11 0.697463 0.335408 0.021206
O O12 0.820706 0.211669 0.983784
O O13 0.555816 0.430716 0.291784
O O14 0.293962 0.126921 0.705134
O O15 0.319093 0.662030 0.798174
O O16 0.521859 0.127603 0.760730
#
# Coordination Sequence:
#
# PCOD9072109 Si02
#       8
#     2   2   2   2   2   2   2   2
#     4  10  24  39  53  75 105 144 179 218 263 314
#     4   9  17  29  46  77 115 132 164 213 261 310
#     4  10  18  32  54  80 110 134 177 217 257 310
#     4  11  20  33  54  82 109 135 172 221 269 306
#     4   9  17  28  50  80 111 140 166 210 267 307
#     4  11  20  35  57  79 105 135 178 225 262 307
#     4  10  18  30  51  83 112 138 167 210 269 312
#     4  10  22  40  55  73 105 142 184 215 256 317
#
# _framework density 19.300539000000001
#
# number of rings (size 3 to 8) (size 9 to 14) (size 15 to 20)
#    0.000    2.000    3.750    2.250    0.000    2.500 
#    0.000    0.000    0.000    3.000    0.000   11.375 
#    0.000    0.000    0.000    0.000    0.000    0.000 
#
# Total GULP energy -89212.070710 kJ/mol
# GULP energy per Si atom -5575.754419 kJ/mol
# Density = 1.925661 g / cm^3
# Si number density = 19.300539 Si / 1000 Ang^3
#
#
#
# Elastic Constant Matrix: (Units=GPa)
#
#
# Indices 1 2 3 4 5 6 
#
# 1 17.7270 8.9473 12.9618 -3.8849 -5.5726 -8.0721
# 2 8.9473 65.8885 31.9546 16.7894 -5.6767 -19.3148
# 3 12.9618 31.9546 120.9354 12.5447 -20.4416 -20.3339
# 4 -3.8849 16.7894 12.5447 27.6013 -3.7729 -13.2140
# 5 -5.5726 -5.6767 -20.4416 -3.7729 10.9273 7.7633
# 6 -8.0721 -19.3148 -20.3339 -13.2140 7.7633 19.6441
#
#
#
# Elastic Compliance Matrix: (Units=1/GPa)
#
#
# Indices 1 2 3 4 5 6 
#
# 1 0.108887 -0.007587 -0.000499 0.053838 0.024181 0.063427
# 2 -0.007587 0.023770 -0.004262 -0.007812 -0.013505 0.015924
# 3 -0.000499 -0.004262 0.013260 -0.000276 0.021892 0.000493
# 4 0.053838 -0.007812 -0.000276 0.081592 0.002784 0.067941
# 5 0.024181 -0.013505 0.021892 0.002784 0.171973 -0.046772
# 6 0.063427 0.015924 0.000493 0.067941 -0.046772 0.157324
#
#
# Mechanical properties :
#
#
# Convention : Reuss Voigt Hill
#
# Bulk Modulus (GPa) = 8.24935 34.69758 21.47347
# Shear Modulus (GPa) = 8.03977 21.68037 14.86007
#
# Velocity S-wave (km/s) = 2.04319 3.35521 2.77777
# Velocity P-wave (km/s) = 3.13840 5.74686 4.63012
#
# Compressibility (1/GPa) = 0.12122166
#
# Stress axis : x y z
#
# Youngs Moduli (GPa) = 9.18384 42.07051 75.41216
#
# Poissons Ratio (x) = 0.31917 0.03761
# Poissons Ratio (y) = 0.06967 0.32144
# Poissons Ratio (z) = 0.00458 0.17932
#
# Static dielectric constant tensor:
#      x y z
#    x 1.634900 -0.003750 -0.000100 
#    y -0.003750 1.683140 0.029640 
#    z -0.000100 0.029640 1.734000 
# 
# From -- ./inp_files/399240.got.cif
#   From: 2010.05.17/outbox.cif.g08.bks.cpg/sg2_200_cif.got.tgz:399240.got - 2010.06.03 11:33:40.
