data_PCOD9072363
_publ_section_title
;
Structure prediction by ZEFSAII (Michael W. Deem and Ramdas Pophale) SiO2 
 PCOD9072363
Probable space group: P -1
;
_chemical_formula_sum "Si O2"
_cell_formula_units_Z 16
_cell_length_a 5.587758
_cell_length_b 9.924878
_cell_length_c 28.579905
_cell_angle_alpha 25.392744
_cell_angle_beta 77.829298
_cell_angle_gamma 73.382635
_cell_volume 646.915313
_symmetry_space_group_name_H-M "P -1"
_symmetry_group_IT_number 2
_symmetry_cell_setting 'triclinic'
loop_
_space_group_symop_operation_xyz
x,y,z
-x,-y,-z
loop_
_atom_site_type_symbol
_atom_site_label
_atom_site_fract_x
_atom_site_fract_y
_atom_site_fract_z
Si Si1 0.217475 0.030277 0.049293
Si Si2 0.119249 0.505518 0.158093
Si Si3 0.880948 0.557336 0.574200
Si Si4 0.574097 0.482696 0.446857
Si Si5 0.796672 0.264218 0.322837
Si Si6 0.500306 0.436614 0.096836
Si Si7 0.248416 0.255654 0.371031
Si Si8 0.139100 0.773093 0.923625
O O1 0.076397 0.978375 0.119198
O O2 0.272334 0.687771 0.129785
O O3 0.405256 0.258480 0.981028
O O4 0.029010 0.248729 0.951492
O O5 0.340231 0.290274 0.186389
O O6 0.913703 0.374821 0.236267
O O7 0.676281 0.383444 0.615380
O O8 0.798801 0.684862 0.590172
O O9 0.173793 0.384118 0.612083
O O10 0.853057 0.877710 0.442794
O O11 0.500000 0.500000 0.500000
O O12 0.667646 0.117030 0.534876
O O13 0.499072 0.385389 0.306737
O O14 0.972588 0.361200 0.325636
O O15 0.715059 0.171281 0.145921
O O16 0.331059 0.615163 0.005405
O O17 0.000000 0.500000 0.000000
#
# Coordination Sequence:
#
# PCOD9072363 Si02
#       8
#     2   2   2   2   2   2   2   2
#     4   9  18  32  48  74 102 129 178 216 268 310
#     4  10  20  30  48  76 104 134 168 227 270 309
#     4  10  19  36  58  82 109 146 189 218 261 338
#     4  10  18  30  55  89 109 134 176 227 271 313
#     4  10  20  33  54  82 107 141 179 226 268 314
#     4   9  16  29  50  71  94 129 172 209 263 318
#     4  10  20  37  58  80 107 146 192 218 261 337
#     4   8  15  29  49  72  88 127 173 210 250 322
#
# _framework density 24.732761
#
# number of rings (size 3 to 8) (size 9 to 14) (size 15 to 20)
#    0.000    2.500    0.000    4.500    1.750    0.000 
#    0.000    0.000    0.000   12.000   42.250    0.000 
#    0.000    0.000    0.000    0.000    0.000    0.000 
#
# Total GULP energy -89185.926006 kJ/mol
# GULP energy per Si atom -5574.120375 kJ/mol
# Density = 2.467647 g / cm^3
# Si number density = 24.732761 Si / 1000 Ang^3
#
#
#
# Elastic Constant Matrix: (Units=GPa)
#
#
# Indices 1 2 3 4 5 6 
#
# 1 201.4055 77.3407 35.6025 20.8665 -13.9360 5.0650
# 2 77.3407 127.8373 44.1129 22.4285 -28.6962 -7.3831
# 3 35.6025 44.1129 64.4441 8.4745 -22.4558 -16.9798
# 4 20.8665 22.4285 8.4745 31.0319 -11.4707 -22.1522
# 5 -13.9360 -28.6962 -22.4558 -11.4707 24.5179 21.1954
# 6 5.0650 -7.3831 -16.9798 -22.1522 21.1954 56.9674
#
#
#
# Elastic Compliance Matrix: (Units=1/GPa)
#
#
# Indices 1 2 3 4 5 6 
#
# 1 0.007031 -0.003122 -0.002433 -0.004438 -0.001405 -0.002958
# 2 -0.003122 0.015745 -0.004701 -0.007932 0.015495 -0.007932
# 3 -0.002433 -0.004701 0.026078 0.006848 0.016985 0.003723
# 4 -0.004438 -0.007932 0.006848 0.055597 0.000840 0.022714
# 5 -0.001405 0.015495 0.016985 0.000840 0.099609 -0.029538
# 6 -0.002958 -0.007932 0.003723 0.022714 -0.029538 0.037721
#
#
# Mechanical properties :
#
#
# Convention : Reuss Voigt Hill
#
# Bulk Modulus (GPa) = 35.28116 78.64436 56.96276
# Shear Modulus (GPa) = 18.39998 38.27881 28.33940
#
# Velocity S-wave (km/s) = 2.73051 3.93835 3.38867
# Velocity P-wave (km/s) = 4.92309 7.24896 6.19614
#
# Compressibility (1/GPa) = 0.02834374
#
# Stress axis : x y z
#
# Youngs Moduli (GPa) = 142.23049 63.51286 38.34654
#
# Poissons Ratio (x) = 0.19827 0.09328
# Poissons Ratio (y) = 0.44401 0.18026
# Poissons Ratio (z) = 0.34598 0.29855
#
# Static dielectric constant tensor:
#      x y z
#    x 2.041590 -0.063650 -0.002610 
#    y -0.063650 1.967780 -0.019960 
#    z -0.002610 -0.019960 1.944010 
# 
# From -- ./inp_files/603720.got.cif
#   From: 2010.05.17/outbox.cif.g08.bks.cpg/sg2_302_cif.got.tgz:603720.got - 2010.06.03 11:33:40.
