data_PCOD9072917
_publ_section_title
;
Structure prediction by ZEFSAII (Michael W. Deem and Ramdas Pophale) SiO2 
 PCOD9072917
Probable space group: P -1
;
_chemical_formula_sum "Si O2"
_cell_formula_units_Z 16
_cell_length_a 9.000000
_cell_length_b 12.000000
_cell_length_c 9.000000
_cell_angle_alpha 70.000000
_cell_angle_beta 110.000000
_cell_angle_gamma 70.000000
_cell_volume 733.231569
_symmetry_space_group_name_H-M "P -1"
_symmetry_group_IT_number 2
_symmetry_cell_setting 'triclinic'
loop_
_space_group_symop_operation_xyz
x,y,z
-x,-y,-z
loop_
_atom_site_type_symbol
_atom_site_label
_atom_site_fract_x
_atom_site_fract_y
_atom_site_fract_z
Si Si1 0.660417 0.111498 0.168039
Si Si2 0.700713 0.271997 0.611123
Si Si3 0.368477 0.124264 0.286812
Si Si4 0.225655 0.280677 0.463342
Si Si5 0.686086 0.368245 0.053271
Si Si6 0.716444 0.497276 0.709230
Si Si7 0.371006 0.927249 0.155822
Si Si8 0.018547 0.828742 0.506972
O O1 0.500492 0.153832 0.216381
O O2 0.634769 0.255637 0.034808
O O3 0.641959 0.046450 0.036522
O O4 0.850803 0.992044 0.369235
O O5 0.731922 0.382187 0.655528
O O6 0.493430 0.366898 0.429425
O O7 0.723467 0.157593 0.787817
O O8 0.840956 0.192968 0.563562
O O9 0.238925 0.235235 0.314148
O O10 0.500000 0.000000 0.500000
O O11 0.286080 0.065193 0.165309
O O12 0.171636 0.438119 0.353744
O O13 0.419993 0.176760 0.661949
O O14 0.085525 0.254433 0.517062
O O15 0.851000 0.262695 0.268764
O O16 0.500000 0.500000 0.000000
O O17 0.750059 0.431221 0.914659
#
# Coordination Sequence:
#
# PCOD9072917 Si02
#       8
#     2   2   2   2   2   2   2   2
#     4  12  24  43  69 107 135 176 230 284 334 400
#     4  10  22  42  69  97 132 179 229 277 332 401
#     4  10  20  38  66  98 133 181 210 270 347 402
#     4  10  23  43  69 100 140 177 225 278 342 401
#     4  12  25  44  69  97 136 185 228 273 340 410
#     4  10  21  46  68  92 132 188 228 265 338 420
#     4  10  21  41  69  93 136 181 220 270 342 415
#     4  12  26  41  67 105 140 171 229 292 333 387
#
# _framework density 21.821210000000001
#
# number of rings (size 3 to 8) (size 9 to 14) (size 15 to 20)
#    0.000    1.250    5.000    1.500    3.500    2.500 
#    2.250    0.000    0.000    0.000    0.000    0.000 
#    0.000    0.000    0.000    0.000    0.000    0.000 
#
# Total GULP energy -89185.734573 kJ/mol
# GULP energy per Si atom -5574.108411 kJ/mol
# Density = 2.177154 g / cm^3
# Si number density = 21.821210 Si / 1000 Ang^3
#
#
#
# Elastic Constant Matrix: (Units=GPa)
#
#
# Indices 1 2 3 4 5 6 
#
# 1 7.6511 5.1542 0.5014 -4.8856 -12.3493 7.2067
# 2 5.1542 50.1337 13.9116 -6.2067 17.7011 10.4598
# 3 0.5014 13.9116 108.9533 3.5088 -15.8943 -2.9747
# 4 -4.8856 -6.2067 3.5088 36.8562 -0.9303 -7.3161
# 5 -12.3493 17.7011 -15.8943 -0.9303 22.0327 -2.1334
# 6 7.2067 10.4598 -2.9747 -7.3161 -2.1334 22.3813
#
#
#
# Elastic Compliance Matrix: (Units=1/GPa)
#
#
# Indices 1 2 3 4 5 6 
#
# 1 -0.090242 0.061131 -0.025096 -0.005481 -0.119582 -0.016037
# 2 0.061131 0.007776 0.002113 0.006285 0.028033 -0.018311
# 3 -0.025096 0.002113 0.007888 -0.002704 -0.009574 0.006345
# 4 -0.005481 0.006285 -0.002704 0.028935 -0.008158 0.007149
# 5 -0.119582 0.028033 -0.009574 -0.008158 -0.049792 0.016718
# 6 -0.016037 -0.018311 0.006345 0.007149 0.016718 0.063175
#
#
# Mechanical properties :
#
#
# Convention : Reuss Voigt Hill
#
# Bulk Modulus (GPa) = 582.71620 22.87472 302.79546
# Shear Modulus (GPa) = -46.30343 26.06542 -10.11900
#
# Velocity S-wave (km/s) = -4.61146 3.45990 -2.15576
# Velocity P-wave (km/s) = 15.46825 5.14459 11.52679
#
# Compressibility (1/GPa) = 0.00171610
#
# Stress axis : x y z
#
# Youngs Moduli (GPa) = -11.08130 128.60120 126.78101
#
# Poissons Ratio (x) = -7.86146 3.18173
# Poissons Ratio (y) = 0.67741 -0.26789
# Poissons Ratio (z) = -0.27810 -0.27174
#
# Static dielectric constant tensor:
#      x y z
#    x 1.869700 0.090030 0.060760 
#    y 0.090030 1.864050 0.030070 
#    z 0.060760 0.030070 1.772440 
# 
# From -- ./inp_files/186059.got.cif
#   From: 2010.05.17/outbox.ucp.g08.bks.cvg/sg2_94_cif.got.tgz:186059.got - 2010.06.11 11:32:03.
