data_PCOD9072592
_publ_section_title
;
Structure prediction by ZEFSAII (Michael W. Deem and Ramdas Pophale) SiO2 
 PCOD9072592
Probable space group: P -1
;
_chemical_formula_sum "Si O2"
_cell_formula_units_Z 16
_cell_length_a 12.000000
_cell_length_b 15.000000
_cell_length_c 9.000000
_cell_angle_alpha 120.000000
_cell_angle_beta 60.000000
_cell_angle_gamma 70.000000
_cell_volume 745.925389
_symmetry_space_group_name_H-M "P -1"
_symmetry_group_IT_number 2
_symmetry_cell_setting 'triclinic'
loop_
_space_group_symop_operation_xyz
x,y,z
-x,-y,-z
loop_
_atom_site_type_symbol
_atom_site_label
_atom_site_fract_x
_atom_site_fract_y
_atom_site_fract_z
Si Si1 0.224157 0.966574 0.560948
Si Si2 0.316445 0.390873 0.152648
Si Si3 0.171017 0.302910 0.687739
Si Si4 0.653233 0.008092 0.215679
Si Si5 0.025964 0.882089 0.720835
Si Si6 0.548827 0.478364 0.771323
Si Si7 0.068889 0.755843 0.256761
Si Si8 0.151466 0.300607 0.362217
O O1 0.261419 0.037367 0.709858
O O2 0.093858 0.956024 0.711405
O O3 0.466957 0.779458 0.213159
O O4 0.083045 0.075567 0.600481
O O5 0.393093 0.440930 0.234141
O O6 0.222995 0.360971 0.290564
O O7 0.103697 0.552002 0.335301
O O8 0.397271 0.171401 0.512552
O O9 0.240115 0.252403 0.427718
O O10 0.029212 0.289326 0.774568
O O11 0.000000 0.500000 0.000000
O O12 0.743448 0.852366 0.938493
O O13 0.791689 0.011198 0.047122
O O14 0.222166 0.719841 0.558247
O O15 0.034025 0.815142 0.500822
O O16 0.500000 0.500000 0.000000
O O17 0.325872 0.591949 0.936058
#
# Coordination Sequence:
#
# PCOD9072592 Si02
#       8
#     2   2   2   2   2   2   2   2
#     4  12  26  42  68 109 139 183 231 286 343 402
#     4  11  22  39  70  98 141 178 231 278 343 406
#     4  12  27  46  72  99 137 182 233 282 348 420
#     4  12  26  44  69  98 148 178 231 285 343 409
#     4  11  23  44  73  98 136 190 231 279 345 406
#     4  10  19  40  71  97 130 180 236 277 335 409
#     4  11  24  43  74 101 135 180 238 282 342 408
#     4  11  24  43  68 102 135 188 229 278 350 410
#
# _framework density 21.449866
#
# number of rings (size 3 to 8) (size 9 to 14) (size 15 to 20)
#    0.000    0.750    5.000    3.375    3.500    4.000 
#    0.000    0.625    0.000    0.000    0.000    0.000 
#    0.000    0.000    0.000    0.000    0.000    0.000 
#
# Total GULP energy -89127.769651 kJ/mol
# GULP energy per Si atom -5570.485603 kJ/mol
# Density = 2.140105 g / cm^3
# Si number density = 21.449866 Si / 1000 Ang^3
#
#
#
# Elastic Constant Matrix: (Units=GPa)
#
#
# Indices 1 2 3 4 5 6 
#
# 1 157.1414 51.7431 44.9929 6.6130 -36.1434 -5.9991
# 2 51.7431 53.8151 16.7378 14.3136 -6.2283 -1.4972
# 3 44.9929 16.7378 89.2295 19.6554 -30.4544 -4.6776
# 4 6.6130 14.3136 19.6554 20.7952 -0.4020 -10.7513
# 5 -36.1434 -6.2283 -30.4544 -0.4020 56.6147 3.2129
# 6 -5.9991 -1.4972 -4.6776 -10.7513 3.2129 48.6666
#
#
#
# Elastic Compliance Matrix: (Units=1/GPa)
#
#
# Indices 1 2 3 4 5 6 
#
# 1 0.012580 -0.013008 -0.004874 0.011125 0.003894 0.002883
# 2 -0.013008 0.037025 0.005471 -0.029884 -0.001134 -0.006466
# 3 -0.004874 0.005471 0.020586 -0.023710 0.008637 -0.004262
# 4 0.011125 -0.029884 -0.023710 0.097906 -0.009403 0.020423
# 5 0.003894 -0.001134 0.008637 -0.009403 0.024742 -0.002435
# 6 0.002883 -0.006466 -0.004262 0.020423 -0.002435 0.024967
#
#
# Mechanical properties :
#
#
# Convention : Reuss Voigt Hill
#
# Bulk Modulus (GPa) = 22.04163 58.57039 40.30601
# Shear Modulus (GPa) = 19.39860 37.66280 28.53070
#
# Velocity S-wave (km/s) = 3.01054 4.19484 3.65103
# Velocity P-wave (km/s) = 4.73103 7.12932 6.05020
#
# Compressibility (1/GPa) = 0.04536871
#
# Stress axis : x y z
#
# Youngs Moduli (GPa) = 79.49268 27.00891 48.57747
#
# Poissons Ratio (x) = 0.35133 0.23676
# Poissons Ratio (y) = 1.03402 -0.26576
# Poissons Ratio (z) = 0.38743 -0.14776
#
# Static dielectric constant tensor:
#      x y z
#    x 1.773260 0.036110 0.041180 
#    y 0.036110 1.930950 0.017280 
#    z 0.041180 0.017280 1.797330 
# 
# From -- ./inp_files/274031.got.cif
#   From: 2010.05.17/outbox.ucp.g08.bks.cvg/sg2_138_cif.got.tgz:274031.got - 2010.06.11 11:32:03.
