data_PCOD9072647
_publ_section_title
;
Structure prediction by ZEFSAII (Michael W. Deem and Ramdas Pophale) SiO2 
 PCOD9072647
Probable space group: P -1
;
_chemical_formula_sum "Si O2"
_cell_formula_units_Z 16
_cell_length_a 7.531114
_cell_length_b 9.141992
_cell_length_c 11.969826
_cell_angle_alpha 79.186083
_cell_angle_beta 114.443323
_cell_angle_gamma 130.101320
_cell_volume 570.173981
_symmetry_space_group_name_H-M "P -1"
_symmetry_group_IT_number 2
_symmetry_cell_setting 'triclinic'
loop_
_space_group_symop_operation_xyz
x,y,z
-x,-y,-z
loop_
_atom_site_type_symbol
_atom_site_label
_atom_site_fract_x
_atom_site_fract_y
_atom_site_fract_z
Si Si1 0.809480 0.808381 0.597516
Si Si2 0.017372 0.548533 0.369158
Si Si3 0.326830 0.413607 0.620103
Si Si4 0.744865 0.472000 0.120250
Si Si5 0.949986 0.101536 0.133619
Si Si6 0.473814 0.080491 0.596085
Si Si7 0.629162 0.474703 0.867590
Si Si8 0.783994 0.071880 0.860974
O O1 0.552413 0.645713 0.627648
O O2 0.792070 0.672355 0.518694
O O3 0.043270 0.919461 0.727230
O O4 0.768068 0.937094 0.494770
O O5 0.297693 0.691671 0.382268
O O6 0.000000 0.500000 0.500000
O O7 0.893041 0.651599 0.341148
O O8 0.840367 0.401330 0.247084
O O9 0.472140 0.355776 0.735179
O O10 0.520142 0.460184 0.119151
O O11 0.986487 0.696904 0.126510
O O12 0.664659 0.378088 0.990882
O O13 0.111224 0.330826 0.132059
O O14 0.106704 0.030304 0.144709
O O15 0.748632 0.026138 0.991225
O O16 0.552907 0.019273 0.732000
O O17 0.500000 0.000000 0.500000
#
# Coordination Sequence:
#
# PCOD9072647 Si02
#       8
#     2   2   2   2   2   2   2   2
#     4  10  18  31  51  74  99 128 163 198 239 288
#     4  10  18  31  49  71  97 126 162 198 241 283
#     4   9  18  31  51  71  97 131 162 193 238 296
#     4   8  15  25  44  67  93 114 151 202 230 271
#     4   9  16  28  47  69  93 128 158 192 234 291
#     4  11  20  31  50  76  99 122 162 210 243 275
#     4   8  14  27  45  67  89 118 158 190 230 277
#     4   9  17  28  45  70  97 120 158 200 240 276
#
# _framework density 28.061610000000002
#
# number of rings (size 3 to 8) (size 9 to 14) (size 15 to 20)
#    0.000    2.750    2.500    0.000    0.000    0.000 
#    0.000    0.625    2.750    3.750    0.000    0.875 
#    0.000    0.000    0.000    0.000    0.000    0.000 
#
# Total GULP energy -89213.264983 kJ/mol
# GULP energy per Si atom -5575.829061 kJ/mol
# Density = 2.799774 g / cm^3
# Si number density = 28.061610 Si / 1000 Ang^3
#
#
#
# Elastic Constant Matrix: (Units=GPa)
#
#
# Indices 1 2 3 4 5 6 
#
# 1 88.0707 8.7341 29.0535 -3.9275 -1.2677 1.2378
# 2 8.7341 109.2897 20.0645 -14.4941 1.0581 21.3045
# 3 29.0535 20.0645 350.7820 -14.9785 9.2868 -11.3779
# 4 -3.9275 -14.4941 -14.9785 14.7373 -10.8466 -3.9793
# 5 -1.2677 1.0581 9.2868 -10.8466 29.5129 -0.0586
# 6 1.2378 21.3045 -11.3779 -3.9793 -0.0586 27.0118
#
#
#
# Elastic Compliance Matrix: (Units=1/GPa)
#
#
# Indices 1 2 3 4 5 6 
#
# 1 0.011860 -0.000324 -0.000877 0.003423 0.002055 -0.000149
# 2 -0.000324 0.012508 -0.000529 0.012658 0.004340 -0.008199
# 3 -0.000877 -0.000529 0.003159 0.003186 0.000163 0.002258
# 4 0.003423 0.012658 0.003186 0.117658 0.041950 0.008625
# 5 0.002055 0.004340 0.000163 0.041950 0.049188 0.002838
# 6 -0.000149 -0.008199 0.002258 0.008625 0.002838 0.045722
#
#
# Mechanical properties :
#
#
# Convention : Reuss Voigt Hill
#
# Bulk Modulus (GPa) = 41.54958 73.76073 57.65516
# Shear Modulus (GPa) = 19.87466 46.93843 33.40654
#
# Velocity S-wave (km/s) = 2.66419 4.09429 3.45406
# Velocity P-wave (km/s) = 4.92976 6.97806 6.04135
#
# Compressibility (1/GPa) = 0.02406763
#
# Stress axis : x y z
#
# Youngs Moduli (GPa) = 84.31548 79.94917 316.59578
#
# Poissons Ratio (x) = 0.02588 0.27761
# Poissons Ratio (y) = 0.02730 0.16747
# Poissons Ratio (z) = 0.07393 0.04229
#
# Static dielectric constant tensor:
#      x y z
#    x 2.212030 -0.059570 0.078420 
#    y -0.059570 2.216570 -0.024880 
#    z 0.078420 -0.024880 2.373700 
# 
# From -- ./inp_files/254893.got.cif
#   From: 2010.05.17/outbox.cif.g08.bks.cpg/sg2_128_cif.got.tgz:254893.got - 2010.06.03 11:33:40.
