data_PCOD9072294
_publ_section_title
;
Structure prediction by ZEFSAII (Michael W. Deem and Ramdas Pophale) SiO2 
 PCOD9072294
Probable space group: P -1
;
_chemical_formula_sum "Si O2"
_cell_formula_units_Z 16
_cell_length_a 8.151240
_cell_length_b 18.418790
_cell_length_c 20.047995
_cell_angle_alpha 20.369119
_cell_angle_beta 51.499869
_cell_angle_gamma 41.280628
_cell_volume 645.641779
_symmetry_space_group_name_H-M "P -1"
_symmetry_group_IT_number 2
_symmetry_cell_setting 'triclinic'
loop_
_space_group_symop_operation_xyz
x,y,z
-x,-y,-z
loop_
_atom_site_type_symbol
_atom_site_label
_atom_site_fract_x
_atom_site_fract_y
_atom_site_fract_z
Si Si1 0.258950 0.511999 0.700875
Si Si2 0.714650 0.279607 0.351915
Si Si3 0.588291 0.595806 0.807416
Si Si4 0.676531 0.731952 0.312900
Si Si5 0.292876 0.220210 0.582364
Si Si6 0.180507 0.931432 0.076455
Si Si7 0.872807 0.895028 0.921379
Si Si8 0.266037 0.041945 0.608644
O O1 0.229314 0.573022 0.735122
O O2 0.203675 0.303672 0.877643
O O3 0.043724 0.779856 0.485793
O O4 0.564045 0.373577 0.723319
O O5 0.579959 0.416020 0.197645
O O6 0.493645 0.273999 0.453489
O O7 0.000000 0.000000 0.500000
O O8 0.660962 0.772381 0.600167
O O9 0.850419 0.310510 0.008849
O O10 0.430022 0.773698 0.757544
O O11 0.635491 0.838400 0.307417
O O12 0.715330 0.904594 0.106614
O O13 0.968835 0.450261 0.472332
O O14 0.390040 0.829211 0.276521
O O15 0.323804 0.024587 0.687089
O O16 0.046043 0.037436 0.089624
O O17 0.000000 0.000000 0.000000
#
# Coordination Sequence:
#
# PCOD9072294 Si02
#       8
#     2   2   2   2   2   2   2   2
#     4  10  18  30  54  82 108 139 183 232 274 317
#     4  11  20  34  56  88 115 143 190 235 269 322
#     4   9  17  30  51  78 107 138 188 234 266 314
#     4  10  20  38  55  83 114 149 180 230 282 343
#     4  10  21  35  57  79 117 149 185 226 284 332
#     4  11  20  34  58  84 110 138 185 235 279 328
#     4  10  20  34  58  83 110 145 186 228 281 332
#     4   9  16  30  50  76 105 143 185 226 269 322
#
# _framework density 24.781542000000002
#
# number of rings (size 3 to 8) (size 9 to 14) (size 15 to 20)
#    0.000    2.000    1.250    6.000    1.750    0.000 
#    0.000    1.875    0.000    9.000    0.000    0.000 
#    0.000    0.000    0.000    0.000    0.000    0.000 
#
# Total GULP energy -89269.714231 kJ/mol
# GULP energy per Si atom -5579.357139 kJ/mol
# Density = 2.472514 g / cm^3
# Si number density = 24.781542 Si / 1000 Ang^3
#
#
#
# Elastic Constant Matrix: (Units=GPa)
#
#
# Indices 1 2 3 4 5 6 
#
# 1 129.3153 61.5995 35.0152 -19.4282 15.3475 24.9618
# 2 61.5995 164.0756 36.6394 -18.0513 -3.6859 14.0230
# 3 35.0152 36.6394 77.3085 -26.1139 15.5973 -1.8071
# 4 -19.4282 -18.0513 -26.1139 39.6551 -9.9384 -2.9316
# 5 15.3475 -3.6859 15.5973 -9.9384 37.8289 -6.3262
# 6 24.9618 14.0230 -1.8071 -2.9316 -6.3262 50.1172
#
#
#
# Elastic Compliance Matrix: (Units=1/GPa)
#
#
# Indices 1 2 3 4 5 6 
#
# 1 0.011835 -0.003386 -0.002614 0.000934 -0.004742 -0.005586
# 2 -0.003386 0.008188 -0.002666 0.001189 0.003553 -0.000183
# 3 -0.002614 -0.002666 0.019518 0.009488 -0.004292 0.002765
# 4 0.000934 0.001189 0.009488 0.033902 0.005095 0.002170
# 5 -0.004742 0.003553 -0.004292 0.005095 0.032757 0.005646
# 6 -0.005586 -0.000183 0.002765 0.002170 0.005646 0.023726
#
#
# Mechanical properties :
#
#
# Convention : Reuss Voigt Hill
#
# Bulk Modulus (GPa) = 45.02724 70.80084 57.91404
# Shear Modulus (GPa) = 32.32897 41.34991 36.83944
#
# Velocity S-wave (km/s) = 3.61579 4.08925 3.85979
# Velocity P-wave (km/s) = 5.97001 7.13639 6.57910
#
# Compressibility (1/GPa) = 0.02220878
#
# Stress axis : x y z
#
# Youngs Moduli (GPa) = 84.49438 122.13616 51.23478
#
# Poissons Ratio (x) = 0.41355 0.13392
# Poissons Ratio (y) = 0.28610 0.13660
# Poissons Ratio (z) = 0.22086 0.32562
#
# Static dielectric constant tensor:
#      x y z
#    x 2.134450 -0.108100 -0.045450 
#    y -0.108100 1.978160 0.025300 
#    z -0.045450 0.025300 2.019000 
# 
# From -- ./inp_files/282180.got.cif
#   From: 2010.05.17/outbox.cif.g08.bks.cpg/sg2_142_cif.got.tgz:282180.got - 2010.06.03 11:33:40.
