data_PCOD9072284
_publ_section_title
;
Structure prediction by ZEFSAII (Michael W. Deem and Ramdas Pophale) SiO2 
 PCOD9072284
Probable space group: P -1
;
_chemical_formula_sum "Si O2"
_cell_formula_units_Z 16
_cell_length_a 12.000000
_cell_length_b 15.000000
_cell_length_c 18.000000
_cell_angle_alpha 20.000000
_cell_angle_beta 130.000000
_cell_angle_gamma 130.000000
_cell_volume 839.545620
_symmetry_space_group_name_H-M "P -1"
_symmetry_group_IT_number 2
_symmetry_cell_setting 'triclinic'
loop_
_space_group_symop_operation_xyz
x,y,z
-x,-y,-z
loop_
_atom_site_type_symbol
_atom_site_label
_atom_site_fract_x
_atom_site_fract_y
_atom_site_fract_z
Si Si1 0.518173 0.740924 0.111963
Si Si2 0.380842 0.009585 0.180491
Si Si3 0.870498 0.727426 0.078586
Si Si4 0.998460 0.993828 0.782375
Si Si5 0.724424 0.220798 0.898615
Si Si6 0.169628 0.559114 0.379848
Si Si7 0.518371 0.163661 0.494309
Si Si8 0.740599 0.136827 0.473445
O O1 0.525841 0.451419 0.309197
O O2 0.654913 0.935218 0.056637
O O3 0.390002 0.718268 0.136079
O O4 0.503342 0.909357 0.898477
O O5 0.295007 0.716561 0.360756
O O6 0.448726 0.030466 0.274052
O O7 0.251336 0.190374 0.982902
O O8 0.908848 0.938005 0.864359
O O9 0.807389 0.438054 0.245297
O O10 0.026822 0.708055 0.198091
O O11 0.877369 0.993586 0.667489
O O12 0.099842 0.275743 0.599888
O O13 0.116312 0.794301 0.986468
O O14 0.757173 0.421302 0.686304
O O15 0.639208 0.166777 0.478904
O O16 0.362707 0.040097 0.489673
#
# Coordination Sequence:
#
# PCOD9072284 Si02
#       8
#     2   2   2   2   2   2   2   2
#     4  10  21  38  57  85 115 142 181 227 273 330
#     4  11  20  33  54  85 113 144 180 220 280 332
#     4  10  19  34  53  82 113 144 177 224 277 329
#     4  10  19  37  58  79 109 152 181 223 277 322
#     4   9  20  38  60  82 112 146 180 224 275 329
#     4   9  20  33  55  84 112 142 180 226 271 332
#     4  11  22  36  55  81 113 148 184 226 273 323
#     4  10  22  37  54  80 113 146 187 229 267 323
#
# _framework density 19.057928
#
# number of rings (size 3 to 8) (size 9 to 14) (size 15 to 20)
#    0.000    2.000    2.500    1.125    0.000    3.000 
#    0.000    4.375    0.000    7.500    0.000    0.000 
#    0.000    0.000    0.000    0.000    0.000    0.000 
#
# Total GULP energy -89147.469732 kJ/mol
# GULP energy per Si atom -5571.716858 kJ/mol
# Density = 1.901455 g / cm^3
# Si number density = 19.057928 Si / 1000 Ang^3
#
#
#
# Elastic Constant Matrix: (Units=GPa)
#
#
# Indices 1 2 3 4 5 6 
#
# 1 90.6613 34.9707 21.6719 5.1062 -14.1295 -4.9557
# 2 34.9707 89.4809 41.8617 2.9124 -5.5473 -0.0321
# 3 21.6719 41.8617 45.5658 1.2828 -17.9536 -1.1189
# 4 5.1062 2.9124 1.2828 20.7042 -1.1283 -0.2616
# 5 -14.1295 -5.5473 -17.9536 -1.1283 20.0270 -5.1277
# 6 -4.9557 -0.0321 -1.1189 -0.2616 -5.1277 21.1273
#
#
#
# Elastic Compliance Matrix: (Units=1/GPa)
#
#
# Indices 1 2 3 4 5 6 
#
# 1 0.015837 -0.008523 0.007463 -0.002110 0.017514 0.008322
# 2 -0.008523 0.029744 -0.036980 -0.001807 -0.034158 -0.012225
# 3 0.007463 -0.036980 0.082654 0.002665 0.075525 0.024435
# 4 -0.002110 -0.001807 0.002665 0.049110 0.003445 0.001088
# 5 0.017514 -0.034158 0.075525 0.003445 0.130938 0.039879
# 6 0.008322 -0.012225 0.024435 0.001088 0.039879 0.060252
#
#
# Mechanical properties :
#
#
# Convention : Reuss Voigt Hill
#
# Bulk Modulus (GPa) = 19.17424 46.96849 33.07137
# Shear Modulus (GPa) = 10.82249 20.85196 15.83722
#
# Velocity S-wave (km/s) = 2.38559 3.31136 2.88584
# Velocity P-wave (km/s) = 4.20368 6.27047 5.33806
#
# Compressibility (1/GPa) = 0.05215330
#
# Stress axis : x y z
#
# Youngs Moduli (GPa) = 63.14270 33.62054 12.09866
#
# Poissons Ratio (x) = 0.28655 -0.09029
# Poissons Ratio (y) = 0.53818 0.44741
# Poissons Ratio (z) = -0.47121 1.24329
#
# Static dielectric constant tensor:
#      x y z
#    x 1.638990 -0.003870 -0.003560 
#    y -0.003870 1.647800 0.029220 
#    z -0.003560 0.029220 1.742650 
# 
# From -- ./inp_files/66419.got.cif
#   From: 2010.05.17/outbox.ucp.g08.bks.cvg/sg2_34_cif.got.tgz:66419.got - 2010.06.11 11:32:03.
