data_PCOD9072675
_publ_section_title
;
Structure prediction by ZEFSAII (Michael W. Deem and Ramdas Pophale) SiO2 
 PCOD9072675
Probable space group: P -1
;
_chemical_formula_sum "Si O2"
_cell_formula_units_Z 16
_cell_length_a 18.000000
_cell_length_b 9.000000
_cell_length_c 9.000000
_cell_angle_alpha 80.000000
_cell_angle_beta 50.000000
_cell_angle_gamma 110.000000
_cell_volume 878.849697
_symmetry_space_group_name_H-M "P -1"
_symmetry_group_IT_number 2
_symmetry_cell_setting 'triclinic'
loop_
_space_group_symop_operation_xyz
x,y,z
-x,-y,-z
loop_
_atom_site_type_symbol
_atom_site_label
_atom_site_fract_x
_atom_site_fract_y
_atom_site_fract_z
Si Si1 0.649258 0.579646 0.943507
Si Si2 0.972469 0.209132 0.435680
Si Si3 0.172417 0.149388 0.112142
Si Si4 0.110390 0.703821 0.767731
Si Si5 0.137853 0.416128 0.454936
Si Si6 0.525499 0.772103 0.961423
Si Si7 0.062532 0.916858 0.014531
Si Si8 0.319650 0.775573 0.340957
O O1 0.703326 0.657690 0.025470
O O2 0.770797 0.637163 0.691017
O O3 0.596375 0.690942 0.940299
O O4 0.548237 0.358733 0.067288
O O5 0.920536 0.261638 0.362309
O O6 0.063569 0.169700 0.256419
O O7 0.056209 0.371336 0.422330
O O8 0.867991 0.019581 0.690465
O O9 0.162174 0.068858 0.977038
O O10 0.121025 0.857816 0.832718
O O11 0.230178 0.713069 0.605309
O O12 0.000000 0.500000 0.000000
O O13 0.226395 0.633304 0.355643
O O14 0.043035 0.271787 0.726604
O O15 0.613914 0.999623 0.794285
O O16 0.421479 0.740420 0.211603
O O17 0.000000 0.000000 0.000000
#
# Coordination Sequence:
#
# PCOD9072675 Si02
#       8
#     2   2   2   2   2   2   2   2
#     4   9  17  33  59  83  99 134 194 244 272 298
#     4   9  18  32  54  81 115 146 179 224 275 336
#     4   9  17  33  56  84 111 138 188 237 269 321
#     4  12  23  36  52  84 122 154 174 216 287 348
#     4   9  19  35  54  85 114 139 183 230 275 335
#     4   9  19  34  56  83 101 144 192 244 264 306
#     4  11  21  34  54  85 118 152 177 216 284 346
#     4  10  20  35  52  79 114 144 185 225 272 329
#
# _framework density 18.205615999999999
#
# number of rings (size 3 to 8) (size 9 to 14) (size 15 to 20)
#    0.000    2.250    2.500    1.500    1.750    0.500 
#    2.250    0.000    0.000    1.500    0.000    0.000 
#    0.000    0.000    0.000    0.000    0.000    0.000 
#
# Total GULP energy -89116.278050 kJ/mol
# GULP energy per Si atom -5569.767378 kJ/mol
# Density = 1.816418 g / cm^3
# Si number density = 18.205616 Si / 1000 Ang^3
#
#
#
# Elastic Constant Matrix: (Units=GPa)
#
#
# Indices 1 2 3 4 5 6 
#
# 1 71.1658 46.3679 24.6928 9.7536 -0.4776 12.0529
# 2 46.3679 141.8620 30.5842 10.1952 -12.0901 17.2813
# 3 24.6928 30.5842 58.2530 11.7712 -12.9368 2.0163
# 4 9.7536 10.1952 11.7712 32.7398 -1.5321 -6.8164
# 5 -0.4776 -12.0901 -12.9368 -1.5321 23.1941 -2.1752
# 6 12.0529 17.2813 2.0163 -6.8164 -2.1752 35.7734
#
#
#
# Elastic Compliance Matrix: (Units=1/GPa)
#
#
# Indices 1 2 3 4 5 6 
#
# 1 0.021113 -0.005080 -0.006860 -0.003681 -0.006787 -0.005387
# 2 -0.005080 0.009880 -0.001848 -0.001352 0.003645 -0.002993
# 3 -0.006860 -0.001848 0.024874 -0.005418 0.012555 0.001533
# 4 -0.003681 -0.001352 -0.005418 0.035854 -0.000590 0.008994
# 5 -0.006787 0.003645 0.012555 -0.000590 0.052108 0.002874
# 6 -0.005387 -0.002993 0.001533 0.008994 0.002874 0.033017
#
#
# Mechanical properties :
#
#
# Convention : Reuss Voigt Hill
#
# Bulk Modulus (GPa) = 35.34454 52.73007 44.03731
# Shear Modulus (GPa) = 23.38069 29.65052 26.51560
#
# Velocity S-wave (km/s) = 3.58754 4.04003 3.82049
# Velocity P-wave (km/s) = 6.05118 7.12664 6.61082
#
# Compressibility (1/GPa) = 0.02829291
#
# Stress axis : x y z
#
# Youngs Moduli (GPa) = 47.36496 101.21290 40.20187
#
# Poissons Ratio (x) = 0.51411 0.27577
# Poissons Ratio (y) = 0.24059 0.07429
# Poissons Ratio (z) = 0.32491 0.18704
#
# Static dielectric constant tensor:
#      x y z
#    x 1.619750 0.015590 -0.012540 
#    y 0.015590 1.677590 0.018110 
#    z -0.012540 0.018110 1.631250 
# 
# From -- ./inp_files/217348.got.cif
#   From: 2010.05.17/outbox.ucp.g08.bks.cvg/sg2_109_cif.got.tgz:217348.got - 2010.06.11 11:32:03.
