data_PCOD9072125
_publ_section_title
;
Structure prediction by ZEFSAII (Michael W. Deem and Ramdas Pophale) SiO2 
 PCOD9072125
Probable space group: P -1
;
_chemical_formula_sum "Si O2"
_cell_formula_units_Z 14
_cell_length_a 14.345775
_cell_length_b 12.045071
_cell_length_c 15.339114
_cell_angle_alpha 120.540206
_cell_angle_beta 57.239007
_cell_angle_gamma 159.465911
_cell_volume 781.820654
_symmetry_space_group_name_H-M "P -1"
_symmetry_group_IT_number 2
_symmetry_cell_setting 'triclinic'
loop_
_space_group_symop_operation_xyz
x,y,z
-x,-y,-z
loop_
_atom_site_type_symbol
_atom_site_label
_atom_site_fract_x
_atom_site_fract_y
_atom_site_fract_z
Si Si1 0.812281 0.332163 0.446655
Si Si2 0.453365 0.810317 0.693417
Si Si3 0.014415 0.491116 0.239550
Si Si4 0.696421 0.519106 0.203571
Si Si5 0.163899 0.101998 0.326908
Si Si6 0.840000 0.637235 0.467822
Si Si7 0.195009 0.615303 0.008086
O O1 0.844035 0.268350 0.322346
O O2 0.891112 0.559319 0.462631
O O3 0.000000 0.500000 0.500000
O O4 0.500000 0.000000 0.500000
O O5 0.176988 0.597691 0.736143
O O6 0.438364 0.721318 0.755277
O O7 0.438047 0.690440 0.575615
O O8 0.708245 0.172593 0.718310
O O9 0.098082 0.510356 0.115991
O O10 0.449469 0.354036 0.245313
O O11 0.800155 0.528225 0.083074
O O12 0.938327 0.844622 0.263648
O O13 0.185467 0.269586 0.418352
O O14 0.054401 0.905306 0.389541
O O15 0.000000 0.500000 0.000000
O O16 0.500000 0.000000 0.000000
#
# Coordination Sequence:
#
# PCOD9072125 Si02
#       7
#     2   2   2   2   2   2   2
#     4  11  23  37  58  81 109 147 190 231 273 323
#     4  10  18  30  52  72 110 144 176 216 269 334
#     4  11  20  35  50  78 109 146 179 227 276 324
#     4  11  19  31  48  78 109 140 187 209 271 338
#     4  10  22  34  54  80 112 152 176 226 273 341
#     4   9  21  37  55  79 113 146 190 221 284 325
#     4  12  21  32  53  79 110 153 180 220 286 338
#
# _framework density 17.90692
#
# number of rings (size 3 to 8) (size 9 to 14) (size 15 to 20)
#    0.000    1.429    2.857    5.143    0.000    9.714 
#    0.000    0.000    0.000    0.000    0.000    6.000 
#    0.000    0.000    0.000    0.000    0.000    0.000 
#
# Total GULP energy -77934.490027 kJ/mol
# GULP energy per Si atom -5566.749288 kJ/mol
# Density = 1.786616 g / cm^3
# Si number density = 17.906920 Si / 1000 Ang^3
#
#
#
# Elastic Constant Matrix: (Units=GPa)
#
#
# Indices 1 2 3 4 5 6 
#
# 1 58.8132 30.9024 26.0670 0.1474 -0.3400 11.0776
# 2 30.9024 69.0960 60.6513 6.0435 -9.8139 21.7299
# 3 26.0670 60.6513 170.4532 2.2312 -7.5992 12.4045
# 4 0.1474 6.0435 2.2312 22.3985 -6.1194 -2.0346
# 5 -0.3400 -9.8139 -7.5992 -6.1194 27.7854 -6.3727
# 6 11.0776 21.7299 12.4045 -2.0346 -6.3727 26.4875
#
#
#
# Elastic Compliance Matrix: (Units=1/GPa)
#
#
# Indices 1 2 3 4 5 6 
#
# 1 0.022677 -0.010355 0.000174 0.001538 -0.003400 -0.001770
# 2 -0.010355 0.034411 -0.008972 -0.009288 0.003013 -0.019686
# 3 0.000174 -0.008972 0.008777 0.001983 0.000459 0.003440
# 4 0.001538 -0.009288 0.001983 0.051241 0.011490 0.012748
# 5 -0.003400 0.003013 0.000459 0.011490 0.041893 0.009697
# 6 -0.001770 -0.019686 0.003440 0.012748 0.009697 0.056345
#
#
# Mechanical properties :
#
#
# Convention : Reuss Voigt Hill
#
# Bulk Modulus (GPa) = 36.28816 59.28932 47.78874
# Shear Modulus (GPa) = 19.02326 27.38372 23.20349
#
# Velocity S-wave (km/s) = 3.26289 3.91477 3.60360
# Velocity P-wave (km/s) = 5.87403 7.32226 6.63776
#
# Compressibility (1/GPa) = 0.02755720
#
# Stress axis : x y z
#
# Youngs Moduli (GPa) = 44.09784 29.06064 113.93765
#
# Poissons Ratio (x) = 0.30094 -0.01981
# Poissons Ratio (y) = 0.45665 1.02225
# Poissons Ratio (z) = -0.00767 0.26073
#
# Static dielectric constant tensor:
#      x y z
#    x 1.625680 0.025440 0.000940 
#    y 0.025440 1.688430 -0.032740 
#    z 0.000940 -0.032740 1.839150 
# 
# From -- ./inp_files/67246.got.cif
#   From: 2010.05.17/outbox.cif.g08.bks.cpg/sg2_34_cif.got.tgz:67246.got - 2010.06.03 11:33:40.
