data_PCOD9072727
_publ_section_title
;
Structure prediction by ZEFSAII (Michael W. Deem and Ramdas Pophale) SiO2 
 PCOD9072727
Probable space group: P -1
;
_chemical_formula_sum "Si O2"
_cell_formula_units_Z 14
_cell_length_a 29.169696
_cell_length_b 11.958487
_cell_length_c 9.093512
_cell_angle_alpha 141.653799
_cell_angle_beta 159.036957
_cell_angle_gamma 28.494170
_cell_volume 528.934026
_symmetry_space_group_name_H-M "P -1"
_symmetry_group_IT_number 2
_symmetry_cell_setting 'triclinic'
loop_
_space_group_symop_operation_xyz
x,y,z
-x,-y,-z
loop_
_atom_site_type_symbol
_atom_site_label
_atom_site_fract_x
_atom_site_fract_y
_atom_site_fract_z
Si Si1 0.490485 0.298041 0.593842
Si Si2 0.157684 0.069009 0.602485
Si Si3 0.338308 0.959782 0.426948
Si Si4 0.309977 0.551126 0.582164
Si Si5 0.826217 0.515044 0.603814
Si Si6 0.154332 0.112504 0.301808
Si Si7 0.018188 0.836225 0.555142
O O1 0.526634 0.479899 0.908856
O O2 0.661151 0.040648 0.898776
O O3 0.351684 0.393159 0.401375
O O4 0.498175 0.249357 0.394154
O O5 0.181796 0.828015 0.430578
O O6 0.150099 0.148741 0.498950
O O7 0.008941 0.240896 0.450960
O O8 0.285837 0.209888 0.485792
O O9 0.330039 0.955442 0.574140
O O10 0.175553 0.990535 0.913526
O O11 0.246284 0.510305 0.492798
O O12 0.857007 0.364599 0.397483
O O13 0.023279 0.368076 0.090604
O O14 0.080952 0.978887 0.921620
#
# Coordination Sequence:
#
# PCOD9072727 Si02
#       7
#     2   2   2   2   2   2   2
#     4   8  17  36  55  74  90 131 174 201 238 283
#     4   9  18  31  54  78  97 120 166 215 244 275
#     4  10  20  33  48  75 102 134 165 193 243 299
#     4   9  17  33  58  71  97 124 173 205 238 285
#     4  11  20  31  50  77 102 133 161 194 248 302
#     4  11  18  31  54  73 105 124 162 210 243 289
#     4  10  18  31  50  74  99 130 164 196 245 291
#
# _framework density 26.468330000000002
#
# number of rings (size 3 to 8) (size 9 to 14) (size 15 to 20)
#    0.857    1.429    1.429    4.714    0.000    0.571 
#    0.000    7.143    0.000    0.857    0.000    0.000 
#    0.000    0.000    0.000    0.000    0.000    0.000 
#
# Total GULP energy -78219.530996 kJ/mol
# GULP energy per Si atom -5587.109357 kJ/mol
# Density = 2.640809 g / cm^3
# Si number density = 26.468330 Si / 1000 Ang^3
#
#
#
# Elastic Constant Matrix: (Units=GPa)
#
#
# Indices 1 2 3 4 5 6 
#
# 1 253.9759 68.0592 16.6063 -5.3499 -7.2959 -59.0960
# 2 68.0592 86.4382 18.7443 9.3312 2.2652 -29.2873
# 3 16.6063 18.7443 54.1874 -4.7152 -3.1944 0.5770
# 4 -5.3499 9.3312 -4.7152 24.1501 5.8645 -4.6847
# 5 -7.2959 2.2652 -3.1944 5.8645 21.8777 -2.1757
# 6 -59.0960 -29.2873 0.5770 -4.6847 -2.1757 54.5004
#
#
#
# Elastic Compliance Matrix: (Units=1/GPa)
#
#
# Indices 1 2 3 4 5 6 
#
# 1 0.006235 -0.003435 -0.000383 0.003157 0.002057 0.005273
# 2 -0.003435 0.018303 -0.006080 -0.007635 -0.001338 0.005466
# 3 -0.000383 -0.006080 0.021283 0.005316 0.001849 -0.003377
# 4 0.003157 -0.007635 0.005316 0.049184 -0.010258 0.003082
# 5 0.002057 -0.001338 0.001849 -0.010258 0.049811 0.002599
# 6 0.005273 0.005466 -0.003377 0.003082 0.002599 0.027408
#
#
# Mechanical properties :
#
#
# Convention : Reuss Voigt Hill
#
# Bulk Modulus (GPa) = 38.42390 66.82457 52.62424
# Shear Modulus (GPa) = 24.91345 39.51841 32.21593
#
# Velocity S-wave (km/s) = 3.07132 3.86819 3.49255
# Velocity P-wave (km/s) = 5.20824 6.72698 6.01573
#
# Compressibility (1/GPa) = 0.02602547
#
# Stress axis : x y z
#
# Youngs Moduli (GPa) = 160.37612 54.63557 46.98684
#
# Poissons Ratio (x) = 0.18765 0.01799
# Poissons Ratio (y) = 0.55083 0.28569
# Poissons Ratio (z) = 0.06142 0.33219
#
# Static dielectric constant tensor:
#      x y z
#    x 2.120340 -0.043780 -0.013480 
#    y -0.043780 2.080570 -0.026820 
#    z -0.013480 -0.026820 2.188530 
# 
# From -- ./inp_files/357097.got.cif
#   From: 2010.05.17/outbox.cif.g08.bks.cpg/sg2_179_cif.got.tgz:357097.got - 2010.06.03 11:33:40.
