data_PCOD9072031
_publ_section_title
;
Structure prediction by ZEFSAII (Michael W. Deem and Ramdas Pophale) SiO2 
 PCOD9072031
Probable space group: P -1
;
_chemical_formula_sum "Si O2"
_cell_formula_units_Z 16
_cell_length_a 8.433237
_cell_length_b 28.269606
_cell_length_c 14.612146
_cell_angle_alpha 160.986368
_cell_angle_beta 138.915168
_cell_angle_gamma 35.540269
_cell_volume 657.472872
_symmetry_space_group_name_H-M "P -1"
_symmetry_group_IT_number 2
_symmetry_cell_setting 'triclinic'
loop_
_space_group_symop_operation_xyz
x,y,z
-x,-y,-z
loop_
_atom_site_type_symbol
_atom_site_label
_atom_site_fract_x
_atom_site_fract_y
_atom_site_fract_z
Si Si1 0.845785 0.409642 0.390743
Si Si2 0.518089 0.093330 0.294239
Si Si3 0.216407 0.892414 0.975320
Si Si4 0.131681 0.946128 0.238252
Si Si5 0.451491 0.244485 0.291619
Si Si6 0.318850 0.883319 0.399511
Si Si7 0.965434 0.387232 0.590677
Si Si8 0.403002 0.497198 0.206491
O O1 0.815181 0.492402 0.628140
O O2 0.602934 0.491983 0.365771
O O3 0.138356 0.368983 0.403437
O O4 0.862484 0.230995 0.083459
O O5 0.512387 0.090876 0.398602
O O6 0.284210 0.276112 0.502532
O O7 0.814677 0.067676 0.346564
O O8 0.481649 0.932396 0.955958
O O9 0.205585 0.971876 0.214385
O O10 0.500548 0.804819 0.884816
O O11 0.121911 0.754913 0.699104
O O12 0.000000 0.000000 0.000000
O O13 0.321849 0.929666 0.378592
O O14 0.623426 0.343415 0.569178
O O15 0.429861 0.685924 0.095275
O O16 0.000000 0.000000 0.500000
O O17 0.868790 0.478518 0.812452
#
# Coordination Sequence:
#
# PCOD9072031 Si02
#       8
#     2   2   2   2   2   2   2   2
#     4   9  18  32  52  80 107 141 184 224 270 319
#     4  10  19  34  56  83 108 147 187 216 266 325
#     4  10  18  30  50  82 117 137 170 225 280 313
#     4   8  18  32  53  77 107 146 182 219 264 324
#     4  10  20  32  56  85 110 139 178 233 273 312
#     4   9  19  38  57  76 105 148 189 218 265 332
#     4  10  20  31  53  80 112 143 178 227 269 328
#     4  10  20  35  54  80 109 145 177 229 279 315
#
# _framework density 24.335605000000001
#
# number of rings (size 3 to 8) (size 9 to 14) (size 15 to 20)
#    0.000    2.500    1.250    1.500    1.750    3.000 
#    0.000    0.625    0.000    3.750    0.000    0.000 
#    0.000    0.000    0.000    0.000    0.000    0.000 
#
# Total GULP energy -89118.619331 kJ/mol
# GULP energy per Si atom -5569.913708 kJ/mol
# Density = 2.428022 g / cm^3
# Si number density = 24.335605 Si / 1000 Ang^3
#
#
#
# Elastic Constant Matrix: (Units=GPa)
#
#
# Indices 1 2 3 4 5 6 
#
# 1 87.5653 10.4694 20.6820 -0.5098 -20.8766 14.2543
# 2 10.4694 56.0408 19.4506 -7.7119 -5.8405 16.4826
# 3 20.6820 19.4506 109.1529 11.3289 -10.3471 -0.7729
# 4 -0.5098 -7.7119 11.3289 32.9082 2.9445 -12.3117
# 5 -20.8766 -5.8405 -10.3471 2.9445 28.3938 0.0471
# 6 14.2543 16.4826 -0.7729 -12.3117 0.0471 34.0869
#
#
#
# Elastic Compliance Matrix: (Units=1/GPa)
#
#
# Indices 1 2 3 4 5 6 
#
# 1 0.015784 0.000856 -0.001803 -0.003011 0.011450 -0.008158
# 2 0.000856 0.023029 -0.004271 0.002571 0.003561 -0.010666
# 3 -0.001803 -0.004271 0.010950 -0.004455 0.002246 0.001455
# 4 -0.003011 0.002571 -0.004455 0.038274 -0.007300 0.013749
# 5 0.011450 0.003561 0.002246 -0.007300 0.045960 -0.009159
# 6 -0.008158 -0.010666 0.001455 0.013749 -0.009159 0.042918
#
#
# Mechanical properties :
#
#
# Convention : Reuss Voigt Hill
#
# Bulk Modulus (GPa) = 25.42841 39.32922 32.37882
# Shear Modulus (GPa) = 24.94275 32.55490 28.74883
#
# Velocity S-wave (km/s) = 3.20496 3.66149 3.44080
# Velocity P-wave (km/s) = 4.91603 5.83709 5.39625
#
# Compressibility (1/GPa) = 0.03932609
#
# Stress axis : x y z
#
# Youngs Moduli (GPa) = 63.35563 43.42433 91.32734
#
# Poissons Ratio (x) = -0.03715 0.16467
# Poissons Ratio (y) = -0.05420 0.39002
# Poissons Ratio (z) = 0.11423 0.18545
#
# Static dielectric constant tensor:
#      x y z
#    x 2.090070 0.062400 -0.020620 
#    y 0.062400 2.028970 0.031870 
#    z -0.020620 0.031870 2.011950 
# 
# From -- ./inp_files/344538.got.cif
#   From: 2010.05.17/outbox.cif.g08.bks.cpg/sg2_173_cif.got.tgz:344538.got - 2010.06.03 11:33:40.
