data_PCOD9072040
_publ_section_title
;
Structure prediction by ZEFSAII (Michael W. Deem and Ramdas Pophale) SiO2 
 PCOD9072040
Probable space group: P -1
;
_chemical_formula_sum "Si O2"
_cell_formula_units_Z 16
_cell_length_a 9.000000
_cell_length_b 15.000000
_cell_length_c 12.000000
_cell_angle_alpha 40.000000
_cell_angle_beta 120.000000
_cell_angle_gamma 100.000000
_cell_volume 835.587839
_symmetry_space_group_name_H-M "P -1"
_symmetry_group_IT_number 2
_symmetry_cell_setting 'triclinic'
loop_
_space_group_symop_operation_xyz
x,y,z
-x,-y,-z
loop_
_atom_site_type_symbol
_atom_site_label
_atom_site_fract_x
_atom_site_fract_y
_atom_site_fract_z
Si Si1 0.508315 0.094642 0.572979
Si Si2 0.921900 0.910375 0.977135
Si Si3 0.035390 0.867689 0.816273
Si Si4 0.084309 0.409674 0.953622
Si Si5 0.291397 0.413493 0.249844
Si Si6 0.426142 0.673279 0.048271
Si Si7 0.153672 0.375336 0.748743
Si Si8 0.330462 0.878892 0.626771
O O1 0.405728 0.239049 0.468627
O O2 0.545871 0.140820 0.418258
O O3 0.712819 0.007673 0.774287
O O4 0.399374 0.984108 0.629822
O O5 0.041504 0.874228 0.944731
O O6 0.906830 0.763391 0.160842
O O7 0.000000 0.000000 0.000000
O O8 0.243487 0.799685 0.913905
O O9 0.887808 0.027926 0.565803
O O10 0.936343 0.748174 0.872052
O O11 0.140720 0.405232 0.849970
O O12 0.880475 0.531810 0.782796
O O13 0.211212 0.438298 0.069259
O O14 0.409611 0.515286 0.215199
O O15 0.631723 0.662122 0.166243
O O16 0.385353 0.721197 0.857995
O O17 0.000000 0.500000 0.500000
#
# Coordination Sequence:
#
# PCOD9072040 Si02
#       8
#     2   2   2   2   2   2   2   2
#     4  10  19  34  60  84 110 151 188 227 281 348
#     4  10  22  42  60  78 107 155 201 231 267 339
#     4   9  19  38  61  84 114 148 186 230 289 341
#     4   9  19  39  59  83 119 151 183 231 281 348
#     4  10  20  35  61  91 113 143 189 233 287 338
#     4  11  22  36  58  90 116 146 183 239 288 334
#     4  11  24  42  58  79 118 156 192 234 285 329
#     4  10  18  34  59  86 117 146 178 229 300 339
#
# _framework density 19.148195999999999
#
# number of rings (size 3 to 8) (size 9 to 14) (size 15 to 20)
#    0.000    2.000    2.500    1.125    1.750    2.000 
#    4.500    2.500    0.000    0.000    0.000    0.000 
#    0.000    0.000    0.000    0.000    0.000    0.000 
#
# Total GULP energy -89182.483129 kJ/mol
# GULP energy per Si atom -5573.905196 kJ/mol
# Density = 1.910461 g / cm^3
# Si number density = 19.148196 Si / 1000 Ang^3
#
#
#
# Elastic Constant Matrix: (Units=GPa)
#
#
# Indices 1 2 3 4 5 6 
#
# 1 88.9541 37.7365 29.7648 9.6588 14.4481 11.5747
# 2 37.7365 66.5781 -7.1992 -6.6837 0.5409 10.1015
# 3 29.7648 -7.1992 19.5270 -4.6162 7.0152 10.6434
# 4 9.6588 -6.6837 -4.6162 15.0800 0.6088 13.3143
# 5 14.4481 0.5409 7.0152 0.6088 8.9162 -7.7861
# 6 11.5747 10.1015 10.6434 13.3143 -7.7861 7.3025
#
#
#
# Elastic Compliance Matrix: (Units=1/GPa)
#
#
# Indices 1 2 3 4 5 6 
#
# 1 0.118891 -0.065570 -0.092932 -0.041636 -0.195911 -0.095270
# 2 -0.065570 0.048839 0.046305 0.018959 0.119025 0.061223
# 3 -0.092932 0.046305 0.094615 0.008556 0.165500 0.106207
# 4 -0.041636 0.018959 0.008556 0.045686 0.109762 0.061031
# 5 -0.195911 0.119025 0.165500 0.109762 0.387062 0.117235
# 6 -0.095270 0.061223 0.106207 0.061031 0.117235 0.062183
#
#
# Mechanical properties :
#
#
# Convention : Reuss Voigt Hill
#
# Bulk Modulus (GPa) = 26.34960 32.85149 29.60054
# Shear Modulus (GPa) = 5.02856 13.91021 9.46938
#
# Velocity S-wave (km/s) = 1.62229 2.69820 2.22622
# Velocity P-wave (km/s) = 4.15931 5.18659 4.70109
#
# Compressibility (1/GPa) = 0.03795125
#
# Stress axis : x y z
#
# Youngs Moduli (GPa) = 8.41104 20.47539 10.56920
#
# Poissons Ratio (x) = 1.34257 0.98222
# Poissons Ratio (y) = 0.55151 -0.48940
# Poissons Ratio (z) = 0.78165 -0.94811
#
# Static dielectric constant tensor:
#      x y z
#    x 1.777740 0.057400 -0.169340 
#    y 0.057400 1.611190 -0.147020 
#    z -0.169340 -0.147020 1.912330 
# 
# From -- ./inp_files/202077.got.cif
#   From: 2010.05.17/outbox.ucp.g08.bks.cvg/sg2_102_cif.got.tgz:202077.got - 2010.06.11 11:32:03.
