data_PCOD9072887
_publ_section_title
;
Structure prediction by ZEFSAII (Michael W. Deem and Ramdas Pophale) SiO2 
 PCOD9072887
Probable space group: P -1
;
_chemical_formula_sum "Si O2"
_cell_formula_units_Z 16
_cell_length_a 9.000000
_cell_length_b 15.000000
_cell_length_c 30.000000
_cell_angle_alpha 20.000000
_cell_angle_beta 140.000000
_cell_angle_gamma 130.000000
_cell_volume 833.890543
_symmetry_space_group_name_H-M "P -1"
_symmetry_group_IT_number 2
_symmetry_cell_setting 'triclinic'
loop_
_space_group_symop_operation_xyz
x,y,z
-x,-y,-z
loop_
_atom_site_type_symbol
_atom_site_label
_atom_site_fract_x
_atom_site_fract_y
_atom_site_fract_z
Si Si1 0.041909 0.736362 0.835566
Si Si2 0.783606 0.304886 0.656386
Si Si3 0.605121 0.713610 0.686295
Si Si4 0.266415 0.005126 0.547983
Si Si5 0.305563 0.162652 0.204854
Si Si6 0.736313 0.100737 0.835707
Si Si7 0.149477 0.306204 0.584310
Si Si8 0.179156 0.589457 0.203384
O O1 0.871287 0.680255 0.784146
O O2 0.878731 0.789541 0.818036
O O3 0.085901 0.023107 0.699452
O O4 0.267589 0.452116 0.033837
O O5 0.500000 0.500000 0.500000
O O6 0.850934 0.214440 0.765970
O O7 0.905187 0.490009 0.567721
O O8 0.776798 0.036380 0.753566
O O9 0.648186 0.476984 0.769883
O O10 0.500000 0.000000 0.500000
O O11 0.422471 0.759010 0.665313
O O12 0.217783 0.294158 0.374563
O O13 0.429173 0.974465 0.645126
O O14 0.000000 0.000000 0.500000
O O15 0.445727 0.187555 0.717172
O O16 0.750906 0.243840 0.818986
O O17 0.905007 0.777666 0.034771
O O18 0.000000 0.500000 0.500000
#
# Coordination Sequence:
#
# PCOD9072887 Si02
#       8
#     2   2   2   2   2   2   2   2
#     4  10  21  37  64  95 121 161 209 270 315 374
#     4  10  20  39  59  88 124 165 202 252 321 377
#     4   9  20  39  62  85 121 170 208 248 315 384
#     4  10  21  37  62  93 124 160 202 263 316 379
#     4  10  20  38  62  90 129 161 205 260 326 376
#     4  10  23  40  63  87 125 170 210 266 314 375
#     4  11  22  38  65  96 125 159 214 265 321 388
#     4  10  21  43  62  83 123 175 215 247 321 376
#
# _framework density 19.187169999999998
#
# number of rings (size 3 to 8) (size 9 to 14) (size 15 to 20)
#    0.000    2.000    1.250    2.250    5.250    0.000 
#   13.500    3.125    0.000    3.000    0.000    0.000 
#    0.000    0.000    0.000    0.000    0.000    0.000 
#
# Total GULP energy -89132.348301 kJ/mol
# GULP energy per Si atom -5570.771769 kJ/mol
# Density = 1.914350 g / cm^3
# Si number density = 19.187170 Si / 1000 Ang^3
#
#
#
# Elastic Constant Matrix: (Units=GPa)
#
#
# Indices 1 2 3 4 5 6 
#
# 1 84.6047 42.9097 28.1283 -3.1890 -8.0886 -7.9314
# 2 42.9097 75.1151 34.5105 -0.1927 -6.6426 -15.6411
# 3 28.1283 34.5105 128.2167 6.4024 -12.0630 0.8573
# 4 -3.1890 -0.1927 6.4024 39.1794 -1.6759 0.3846
# 5 -8.0886 -6.6426 -12.0630 -1.6759 33.4529 -1.1039
# 6 -7.9314 -15.6411 0.8573 0.3846 -1.1039 36.5475
#
#
#
# Elastic Compliance Matrix: (Units=1/GPa)
#
#
# Indices 1 2 3 4 5 6 
#
# 1 0.017035 -0.009019 -0.001205 0.001624 0.001972 -0.000092
# 2 -0.009019 0.021903 -0.003870 -0.000024 0.001021 0.007538
# 3 -0.001205 -0.003870 0.009401 -0.001540 0.002185 -0.002056
# 4 0.001624 -0.000024 -0.001540 0.025955 0.001138 0.000139
# 5 0.001972 0.001021 0.002185 0.001138 0.031475 0.001752
# 6 -0.000092 0.007538 -0.002056 0.000139 0.001752 0.030668
#
#
# Mechanical properties :
#
#
# Convention : Reuss Voigt Hill
#
# Bulk Modulus (GPa) = 49.62056 55.44815 52.53435
# Shear Modulus (GPa) = 29.18158 33.99516 31.58837
#
# Velocity S-wave (km/s) = 3.90409 4.21380 4.06190
# Velocity P-wave (km/s) = 6.80000 7.25508 7.03122
#
# Compressibility (1/GPa) = 0.02015294
#
# Stress axis : x y z
#
# Youngs Moduli (GPa) = 58.70126 45.65661 106.36636
#
# Poissons Ratio (x) = 0.41176 0.12815
# Poissons Ratio (y) = 0.52940 0.41163
# Poissons Ratio (z) = 0.07072 0.17669
#
# Static dielectric constant tensor:
#      x y z
#    x 1.696470 -0.007540 0.007730 
#    y -0.007540 1.587850 0.062380 
#    z 0.007730 0.062380 1.634470 
# 
# From -- ./inp_files/260679.got.cif
#   From: 2010.05.17/outbox.ucp.g08.bks.cvg/sg2_131_cif.got.tgz:260679.got - 2010.06.11 11:32:03.
