data_PCOD9072002
_publ_section_title
;
Structure prediction by ZEFSAII (Michael W. Deem and Ramdas Pophale) SiO2 
 PCOD9072002
Probable space group: P -1
;
_chemical_formula_sum "Si O2"
_cell_formula_units_Z 13
_cell_length_a 7.775988
_cell_length_b 8.988632
_cell_length_c 7.694798
_cell_angle_alpha 66.260732
_cell_angle_beta 61.842849
_cell_angle_gamma 82.693859
_cell_volume 432.744655
_symmetry_space_group_name_H-M "P -1"
_symmetry_group_IT_number 2
_symmetry_cell_setting 'triclinic'
loop_
_space_group_symop_operation_xyz
x,y,z
-x,-y,-z
loop_
_atom_site_type_symbol
_atom_site_label
_atom_site_fract_x
_atom_site_fract_y
_atom_site_fract_z
Si Si1 0.000000 0.000000 0.000000
Si Si2 0.514977 0.410470 0.766077
Si Si3 0.900951 0.520006 0.845930
Si Si4 0.172022 0.791964 0.473183
Si Si5 0.316880 0.781944 0.794886
Si Si6 0.226325 0.332741 0.620714
Si Si7 0.377490 0.097414 0.155343
O O1 0.160861 0.143751 0.764941
O O2 0.125938 0.859456 0.926252
O O3 0.697365 0.303485 0.677325
O O4 0.361982 0.398941 0.685194
O O5 0.635516 0.588595 0.637048
O O6 0.383404 0.284728 0.009729
O O7 0.030939 0.423653 0.694699
O O8 0.000000 0.500000 0.000000
O O9 0.037082 0.298255 0.341414
O O10 0.703063 0.403752 0.027843
O O11 0.291146 0.783770 0.600601
O O12 0.181043 0.977798 0.313905
O O13 0.501350 0.889196 0.731783
O O14 0.500000 0.000000 0.000000
#
# Coordination Sequence:
#
# PCOD9072002 Si02
#       7
#     1   2   2   2   2   2   2
#     4  10  18  30  50  76  96 126 168 200 238 294
#     4   9  18  33  52  72  98 129 163 203 247 289
#     4   8  16  31  52  73  94 127 167 203 240 290
#     4   9  17  32  53  74  96 128 166 202 243 291
#     4  10  19  32  53  75 100 131 164 202 244 294
#     4   9  17  31  51  70  95 131 164 198 244 294
#     4  10  19  31  49  76 103 128 162 204 245 289
#
# _framework density 30.040811000000001
#
# number of rings (size 3 to 8) (size 9 to 14) (size 15 to 20)
#    0.000    2.769    0.000    2.308    0.000    0.000 
#    0.000   13.846    0.000   48.000    0.000    0.000 
#    0.000    0.000    0.000    0.000    0.000    0.000 
#
# Total GULP energy -72496.750200 kJ/mol
# GULP energy per Si atom -5576.673092 kJ/mol
# Density = 2.997244 g / cm^3
# Si number density = 30.040811 Si / 1000 Ang^3
#
#
#
# Elastic Constant Matrix: (Units=GPa)
#
#
# Indices 1 2 3 4 5 6 
#
# 1 83.9108 13.0585 28.1587 -4.8415 -18.8968 45.1501
# 2 13.0585 141.0991 65.0516 -64.3987 -6.9987 11.5785
# 3 28.1587 65.0516 254.9998 -75.7594 -59.1203 16.2489
# 4 -4.8415 -64.3987 -75.7594 92.5344 10.4081 -8.6564
# 5 -18.8968 -6.9987 -59.1203 10.4081 57.0005 -10.3592
# 6 45.1501 11.5785 16.2489 -8.6564 -10.3592 40.5688
#
#
#
# Elastic Compliance Matrix: (Units=1/GPa)
#
#
# Indices 1 2 3 4 5 6 
#
# 1 0.031394 -0.001028 -0.001374 -0.003760 0.003356 -0.034040
# 2 -0.001028 0.010626 -0.000852 0.006743 -0.001227 -0.000422
# 3 -0.001374 -0.000852 0.006934 0.004468 0.006089 0.001504
# 4 -0.003760 0.006743 0.004468 0.019246 0.001608 0.004988
# 5 0.003356 -0.001227 0.006089 0.001608 0.024677 0.000821
# 6 -0.034040 -0.000422 0.001504 0.004988 0.000821 0.063326
#
#
# Mechanical properties :
#
#
# Convention : Reuss Voigt Hill
#
# Bulk Modulus (GPa) = 23.55965 76.94970 50.25468
# Shear Modulus (GPa) = 28.27105 62.93680 45.60393
#
# Velocity S-wave (km/s) = 3.07104 4.58213 3.90046
# Velocity P-wave (km/s) = 4.52047 7.32565 6.08687
#
# Compressibility (1/GPa) = 0.04244545
#
# Stress axis : x y z
#
# Youngs Moduli (GPa) = 31.85367 94.10689 144.21809
#
# Poissons Ratio (x) = 0.09676 0.19820
# Poissons Ratio (y) = 0.03275 0.12283
# Poissons Ratio (z) = 0.04378 0.08015
#
# Static dielectric constant tensor:
#      x y z
#    x 2.643030 0.077110 0.385250 
#    y 0.077110 2.359130 0.142390 
#    z 0.385250 0.142390 2.756700 
# 
# From -- ./inp_files/167402.got.cif
#   From: 2010.05.17/outbox.cif.g08.bks.cpg/sg2_84_cif.got.tgz:167402.got - 2010.06.03 11:33:40.
