data_PCOD9072628
_publ_section_title
;
Structure prediction by ZEFSAII (Michael W. Deem and Ramdas Pophale) SiO2 
 PCOD9072628
Probable space group: P -1
;
_chemical_formula_sum "Si O2"
_cell_formula_units_Z 16
_cell_length_a 9.000000
_cell_length_b 9.000000
_cell_length_c 24.000000
_cell_angle_alpha 60.000000
_cell_angle_beta 50.000000
_cell_angle_gamma 30.000000
_cell_volume 736.400153
_symmetry_space_group_name_H-M "P -1"
_symmetry_group_IT_number 2
_symmetry_cell_setting 'triclinic'
loop_
_space_group_symop_operation_xyz
x,y,z
-x,-y,-z
loop_
_atom_site_type_symbol
_atom_site_label
_atom_site_fract_x
_atom_site_fract_y
_atom_site_fract_z
Si Si1 0.713558 0.876473 0.108615
Si Si2 0.088432 0.443966 0.199368
Si Si3 0.221193 0.909126 0.412272
Si Si4 0.777245 0.308609 0.337585
Si Si5 0.277398 0.134542 0.685978
Si Si6 0.637292 0.524204 0.702151
Si Si7 0.194974 0.090511 0.041922
Si Si8 0.469752 0.715382 0.143823
O O1 0.472388 0.896226 0.140810
O O2 0.991516 0.585643 0.135054
O O3 0.492246 0.144084 0.155391
O O4 0.821557 0.902742 0.022590
O O5 0.931377 0.368251 0.261160
O O6 0.952001 0.646950 0.246877
O O7 0.063956 0.025842 0.364380
O O8 0.514125 0.557937 0.400877
O O9 0.413878 0.949441 0.372935
O O10 0.000000 0.000000 0.500000
O O11 0.558831 0.372213 0.329258
O O12 0.033327 0.296465 0.659257
O O13 0.431964 0.836220 0.715126
O O14 0.612334 0.373758 0.775608
O O15 0.850605 0.419650 0.085765
O O16 0.255120 0.883957 0.106700
O O17 0.500000 0.000000 0.000000
#
# Coordination Sequence:
#
# PCOD9072628 Si02
#       8
#     2   2   2   2   2   2   2   2
#     4  11  19  33  60  88 120 159 224 272 315 364
#     4  11  21  37  62  89 124 164 218 268 313 367
#     4  11  24  47  71  96 132 171 209 253 311 384
#     4  11  23  40  69 100 125 167 220 260 307 375
#     4  11  25  43  63  97 132 171 208 262 327 386
#     4  12  24  41  66  96 137 166 213 270 324 377
#     4  10  20  32  52  87 128 161 211 273 327 376
#     4  11  21  35  56  90 127 166 205 270 338 366
#
# _framework density 21.727318
#
# number of rings (size 3 to 8) (size 9 to 14) (size 15 to 20)
#    0.000    1.000    1.250    9.375    1.750    0.000 
#    0.000    3.750    0.000   15.000    0.000    0.000 
#    0.000    0.000    0.000    0.000    0.000    0.000 
#
# Total GULP energy -89217.990148 kJ/mol
# GULP energy per Si atom -5576.124384 kJ/mol
# Density = 2.167787 g / cm^3
# Si number density = 21.727318 Si / 1000 Ang^3
#
#
#
# Elastic Constant Matrix: (Units=GPa)
#
#
# Indices 1 2 3 4 5 6 
#
# 1 73.8323 3.2835 17.6150 -22.1616 1.9991 -12.5954
# 2 3.2835 90.9905 15.9290 0.0981 2.0019 -2.6269
# 3 17.6150 15.9290 88.8142 1.8936 8.3623 4.1624
# 4 -22.1616 0.0981 1.8936 35.9557 -4.4191 9.8886
# 5 1.9991 2.0019 8.3623 -4.4191 20.3050 -3.7864
# 6 -12.5954 -2.6269 4.1624 9.8886 -3.7864 39.6602
#
#
#
# Elastic Compliance Matrix: (Units=1/GPa)
#
#
# Indices 1 2 3 4 5 6 
#
# 1 0.018439 0.000136 -0.004386 0.010901 0.003078 0.003901
# 2 0.000136 0.011386 -0.002105 -0.000136 -0.000104 0.001042
# 3 -0.004386 -0.002105 0.013275 -0.003413 -0.006065 -0.002654
# 4 0.010901 -0.000136 -0.003413 0.036920 0.007509 -0.004677
# 5 0.003078 -0.000104 -0.006065 0.007509 0.054000 0.004890
# 6 0.003901 0.001042 -0.002654 -0.004677 0.004890 0.028434
#
#
# Mechanical properties :
#
#
# Convention : Reuss Voigt Hill
#
# Bulk Modulus (GPa) = 32.90712 36.36576 34.63644
# Shear Modulus (GPa) = 26.98382 33.63815 30.31099
#
# Velocity S-wave (km/s) = 3.52793 3.93898 3.73911
# Velocity P-wave (km/s) = 5.63679 6.12055 5.88364
#
# Compressibility (1/GPa) = 0.03038856
#
# Stress axis : x y z
#
# Youngs Moduli (GPa) = 54.23313 87.82461 75.32819
#
# Poissons Ratio (x) = -0.01192 0.33042
# Poissons Ratio (y) = -0.00736 0.15858
# Poissons Ratio (z) = 0.23789 0.18489
#
# Static dielectric constant tensor:
#      x y z
#    x 1.811160 -0.007690 -0.006820 
#    y -0.007690 1.907950 0.025930 
#    z -0.006820 0.025930 1.791420 
# 
# From -- ./inp_files/217771.got.cif
#   From: 2010.05.17/outbox.ucp.g08.bks.cvg/sg2_109_cif.got.tgz:217771.got - 2010.06.11 11:32:03.
