data_PCOD9072159
_publ_section_title
;
Structure prediction by ZEFSAII (Michael W. Deem and Ramdas Pophale) SiO2 
 PCOD9072159
Probable space group: P -1
;
_chemical_formula_sum "Si O2"
_cell_formula_units_Z 16
_cell_length_a 15.000000
_cell_length_b 9.000000
_cell_length_c 24.000000
_cell_angle_alpha 150.000000
_cell_angle_beta 150.000000
_cell_angle_gamma 50.000000
_cell_volume 731.734496
_symmetry_space_group_name_H-M "P -1"
_symmetry_group_IT_number 2
_symmetry_cell_setting 'triclinic'
loop_
_space_group_symop_operation_xyz
x,y,z
-x,-y,-z
loop_
_atom_site_type_symbol
_atom_site_label
_atom_site_fract_x
_atom_site_fract_y
_atom_site_fract_z
Si Si1 0.529545 0.755479 0.269083
Si Si2 0.868903 0.230958 0.671131
Si Si3 0.328201 0.951662 0.050609
Si Si4 0.216848 0.198255 0.775639
Si Si5 0.894711 0.439710 0.984991
Si Si6 0.900975 0.774979 0.781956
Si Si7 0.445618 0.792981 0.957619
Si Si8 0.313859 0.794290 0.603436
O O1 0.659177 0.929106 0.449283
O O2 0.551645 0.013691 0.315057
O O3 0.309107 0.535739 0.100381
O O4 0.632479 0.565285 0.227430
O O5 0.851274 0.538524 0.731374
O O6 0.019370 0.147572 0.685794
O O7 0.951689 0.336863 0.812144
O O8 0.311690 0.589037 0.940659
O O9 0.136762 0.978067 0.976609
O O10 0.318007 0.912279 0.966214
O O11 0.527851 0.221928 0.272248
O O12 0.364589 0.148929 0.882967
O O13 0.211782 0.986611 0.648327
O O14 0.000000 0.500000 0.000000
O O15 0.821408 0.048307 0.828119
O O16 0.837574 0.540808 0.616602
O O17 0.500000 0.000000 0.000000
#
# Coordination Sequence:
#
# PCOD9072159 Si02
#       8
#     2   2   2   2   2   2   2   2
#     4  11  22  41  66  93 122 167 207 251 315 360
#     4  10  23  41  70  93 117 162 215 261 301 366
#     4  10  19  36  63  91 128 158 199 251 307 367
#     4  10  18  39  64  96 132 155 192 256 322 364
#     4  12  27  47  61  82 134 169 209 257 305 365
#     4  10  24  38  66  95 119 163 210 255 304 365
#     4  11  21  35  61  91 130 165 197 245 308 378
#     4  10  19  37  66  99 124 154 201 263 308 366
#
# _framework density 21.865853999999999
#
# number of rings (size 3 to 8) (size 9 to 14) (size 15 to 20)
#    0.000    1.500    3.750    1.875    3.500    5.000 
#    4.500    0.625    0.000    0.000    0.000    0.000 
#    0.000    0.000    0.000    0.000    0.000    0.000 
#
# Total GULP energy -89147.156642 kJ/mol
# GULP energy per Si atom -5571.697290 kJ/mol
# Density = 2.181609 g / cm^3
# Si number density = 21.865854 Si / 1000 Ang^3
#
#
#
# Elastic Constant Matrix: (Units=GPa)
#
#
# Indices 1 2 3 4 5 6 
#
# 1 104.8470 16.4335 39.8149 -13.6258 -23.6422 21.7078
# 2 16.4335 39.4137 9.8664 5.0044 -4.1671 3.3276
# 3 39.8149 9.8664 96.6697 -24.2674 -33.6392 10.7537
# 4 -13.6258 5.0044 -24.2674 7.8379 3.3230 -9.8076
# 5 -23.6422 -4.1671 -33.6392 3.3230 38.4072 -1.6880
# 6 21.7078 3.3276 10.7537 -9.8076 -1.6880 22.2892
#
#
#
# Elastic Compliance Matrix: (Units=1/GPa)
#
#
# Indices 1 2 3 4 5 6 
#
# 1 0.014756 -0.002035 -0.004720 -0.008906 0.004825 -0.015344
# 2 -0.002035 0.012039 0.018426 0.069544 0.011175 0.022741
# 3 -0.004720 0.018426 -0.009666 -0.090704 -0.003002 -0.033629
# 4 -0.008906 0.069544 -0.090704 -0.317319 -0.054396 -0.101693
# 5 0.004825 0.011175 -0.003002 -0.054396 0.031132 -0.026496
# 6 -0.015344 0.022741 -0.033629 -0.101693 -0.026496 0.025885
#
#
# Mechanical properties :
#
#
# Convention : Reuss Voigt Hill
#
# Bulk Modulus (GPa) = 24.70782 41.46221 33.08502
# Shear Modulus (GPa) = -19.76091 25.36123 2.80016
#
# Velocity S-wave (km/s) = -3.00948 3.40936 1.13287
# Velocity P-wave (km/s) = 0.86700 5.87380 4.10791
#
# Compressibility (1/GPa) = 0.04047302
#
# Stress axis : x y z
#
# Youngs Moduli (GPa) = 67.76713 83.06213 -103.45768
#
# Poissons Ratio (x) = 0.16902 -0.48828
# Poissons Ratio (y) = 0.13790 1.90632
# Poissons Ratio (z) = 0.31984 -1.53051
#
# Static dielectric constant tensor:
#      x y z
#    x 1.810260 -0.001770 0.032630 
#    y -0.001770 1.839030 -0.017490 
#    z 0.032630 -0.017490 1.785490 
# 
# From -- ./inp_files/207839.got.cif
#   From: 2010.05.17/outbox.ucp.g08.bks.cvg/sg2_104_cif.got.tgz:207839.got - 2010.06.11 11:32:03.
