data_PCOD9072855
_publ_section_title
;
Structure prediction by ZEFSAII (Michael W. Deem and Ramdas Pophale) SiO2 
 PCOD9072855
Probable space group: P -1
;
_chemical_formula_sum "Si O2"
_cell_formula_units_Z 14
_cell_length_a 7.858824
_cell_length_b 26.561203
_cell_length_c 8.955417
_cell_angle_alpha 24.940536
_cell_angle_beta 38.728864
_cell_angle_gamma 39.297709
_cell_volume 477.241579
_symmetry_space_group_name_H-M "P -1"
_symmetry_group_IT_number 2
_symmetry_cell_setting 'triclinic'
loop_
_space_group_symop_operation_xyz
x,y,z
-x,-y,-z
loop_
_atom_site_type_symbol
_atom_site_label
_atom_site_fract_x
_atom_site_fract_y
_atom_site_fract_z
Si Si1 0.601655 0.070202 0.558085
Si Si2 0.405667 0.831614 0.399947
Si Si3 0.018709 0.247729 0.470912
Si Si4 0.193176 0.068404 0.469192
Si Si5 0.122507 0.605704 0.555084
Si Si6 0.234222 0.460931 0.593598
Si Si7 0.394480 0.308866 0.619410
O O1 0.662820 0.162847 0.392288
O O2 0.284993 0.138030 0.541202
O O3 0.828592 0.030854 0.378832
O O4 0.579753 0.934757 0.988538
O O5 0.531312 0.702277 0.578659
O O6 0.111747 0.895965 0.345384
O O7 0.032615 0.274640 0.566557
O O8 0.699365 0.252186 0.640278
O O9 0.077632 0.362381 0.030007
O O10 0.500000 0.000000 0.500000
O O11 0.230712 0.203536 0.039232
O O12 0.111578 0.586216 0.436270
O O13 0.447185 0.580792 0.448658
O O14 0.000000 0.500000 0.000000
O O15 0.269690 0.434074 0.462849
#
# Coordination Sequence:
#
# PCOD9072855 Si02
#       7
#     2   2   2   2   2   2   2
#     4  10  21  34  49  69 100 135 167 201 241 289
#     4  10  21  35  47  68 101 137 168 199 241 288
#     4  10  18  31  51  76  99 126 164 205 244 287
#     4  11  20  32  50  71  95 127 168 209 244 283
#     4   8  16  29  48  75 103 124 152 199 250 294
#     4   9  16  29  49  76 101 124 156 201 250 289
#     4  10  19  30  49  73  97 127 164 202 243 287
#
# _framework density 29.335246999999999
#
# number of rings (size 3 to 8) (size 9 to 14) (size 15 to 20)
#    0.000    2.286    0.000    3.857    0.000    3.429 
#    0.000    0.000    0.000    0.857    0.000   41.000 
#    0.000    0.000    0.000    0.000    0.000    0.000 
#
# Total GULP energy -78318.975477 kJ/mol
# GULP energy per Si atom -5594.212534 kJ/mol
# Density = 2.926848 g / cm^3
# Si number density = 29.335247 Si / 1000 Ang^3
#
#
#
# Elastic Constant Matrix: (Units=GPa)
#
#
# Indices 1 2 3 4 5 6 
#
# 1 112.0194 50.1870 26.7901 -19.8314 -14.8439 26.8049
# 2 50.1870 292.1768 17.9192 -17.7172 -8.5163 36.6638
# 3 26.7901 17.9192 131.0696 -11.4703 -17.5365 -11.9451
# 4 -19.8314 -17.7172 -11.4703 32.0088 -2.9812 -6.8802
# 5 -14.8439 -8.5163 -17.5365 -2.9812 37.3071 -23.4285
# 6 26.8049 36.6638 -11.9451 -6.8802 -23.4285 72.1629
#
#
#
# Elastic Compliance Matrix: (Units=1/GPa)
#
#
# Indices 1 2 3 4 5 6 
#
# 1 0.011844 -0.001167 -0.001700 0.005705 0.002358 -0.002778
# 2 -0.001167 0.003909 -0.000524 0.000765 -0.000930 -0.001868
# 3 -0.001700 -0.000524 0.009907 0.004069 0.007566 0.005382
# 4 0.005705 0.000765 0.004069 0.038826 0.010843 0.005388
# 5 0.002358 -0.000930 0.007566 0.010843 0.041622 0.015396
# 6 -0.002778 -0.001868 0.005382 0.005388 0.015396 0.022242
#
#
# Mechanical properties :
#
#
# Convention : Reuss Voigt Hill
#
# Bulk Modulus (GPa) = 52.96746 80.56202 66.76474
# Shear Modulus (GPa) = 35.35504 57.65373 46.50438
#
# Velocity S-wave (km/s) = 3.47537 4.43802 3.98587
# Velocity P-wave (km/s) = 5.84803 7.33373 6.63261
#
# Compressibility (1/GPa) = 0.01887952
#
# Stress axis : x y z
#
# Youngs Moduli (GPa) = 84.43369 255.83066 100.93497
#
# Poissons Ratio (x) = 0.29850 0.17155
# Poissons Ratio (y) = 0.09852 0.05286
# Poissons Ratio (z) = 0.14350 0.13399
#
# Static dielectric constant tensor:
#      x y z
#    x 2.609540 0.120250 0.011030 
#    y 0.120250 2.330050 0.084000 
#    z 0.011030 0.084000 2.134680 
# 
# From -- ./inp_files/26894.got.cif
#   From: 2010.05.17/outbox.cif.g08.bks.cpg/sg2_14_cif.got.tgz:26894.got - 2010.06.03 11:33:40.
