data_PCOD9072645
_publ_section_title
;
Structure prediction by ZEFSAII (Michael W. Deem and Ramdas Pophale) SiO2 
 PCOD9072645
Probable space group: P -1
;
_chemical_formula_sum "Si O2"
_cell_formula_units_Z 16
_cell_length_a 5.633603
_cell_length_b 9.756230
_cell_length_c 23.899007
_cell_angle_alpha 32.433301
_cell_angle_beta 98.236840
_cell_angle_gamma 82.692347
_cell_volume 616.351727
_symmetry_space_group_name_H-M "P -1"
_symmetry_group_IT_number 2
_symmetry_cell_setting 'triclinic'
loop_
_space_group_symop_operation_xyz
x,y,z
-x,-y,-z
loop_
_atom_site_type_symbol
_atom_site_label
_atom_site_fract_x
_atom_site_fract_y
_atom_site_fract_z
Si Si1 0.991653 0.136446 0.513472
Si Si2 0.478630 0.158624 0.506347
Si Si3 0.328634 0.487540 0.757588
Si Si4 0.587035 0.162557 0.108243
Si Si5 0.915624 0.303728 0.818904
Si Si6 0.891898 0.818780 0.857283
Si Si7 0.601489 0.275335 0.952170
Si Si8 0.251803 0.280702 0.229465
O O1 0.163664 0.306753 0.459589
O O2 0.166344 0.822103 0.657389
O O3 0.679208 0.297666 0.463132
O O4 0.000000 0.000000 0.500000
O O5 0.601909 0.953116 0.636400
O O6 0.500000 0.000000 0.500000
O O7 0.100994 0.410116 0.753201
O O8 0.469398 0.284185 0.885471
O O9 0.597181 0.429724 0.751030
O O10 0.420931 0.038979 0.180984
O O11 0.913482 0.041808 0.167055
O O12 0.500000 0.500000 0.000000
O O13 0.486163 0.187403 0.032067
O O14 0.915539 0.447555 0.829450
O O15 0.084062 0.963790 0.949559
O O16 0.895977 0.799523 0.796540
O O17 0.000000 0.500000 0.000000
O O18 0.578681 0.594225 0.843999
#
# Coordination Sequence:
#
# PCOD9072645 Si02
#       8
#     2   2   2   2   2   2   2   2
#     4  10  18  31  49  70  97 137 166 207 253 305
#     4  10  20  32  50  74 101 136 167 211 263 317
#     4  11  20  35  48  73 103 141 172 208 255 309
#     4  10  21  35  48  71  97 135 177 217 247 288
#     4  11  24  33  49  77 102 147 176 203 251 317
#     4  10  21  32  51  71  96 137 172 211 255 298
#     4  11  22  35  53  72 109 144 181 207 249 311
#     4  11  19  35  54  72 110 137 171 208 265 302
#
# _framework density 25.959205000000001
#
# number of rings (size 3 to 8) (size 9 to 14) (size 15 to 20)
#    0.000    1.500    6.250    1.875    3.500    2.000 
#    0.000    0.000    0.000    0.000    0.000    0.000 
#    0.000    2.000    0.500    0.000    0.000    0.000 
#
# Total GULP energy -89085.789996 kJ/mol
# GULP energy per Si atom -5567.861875 kJ/mol
# Density = 2.590012 g / cm^3
# Si number density = 25.959205 Si / 1000 Ang^3
#
#
#
# Elastic Constant Matrix: (Units=GPa)
#
#
# Indices 1 2 3 4 5 6 
#
# 1 278.4990 8.8383 21.6296 -5.7487 22.2269 -6.2021
# 2 8.8383 64.8173 39.4953 30.9571 4.0408 14.9634
# 3 21.6296 39.4953 136.5069 31.0074 7.0360 3.3706
# 4 -5.7487 30.9571 31.0074 33.3123 6.3162 1.9173
# 5 22.2269 4.0408 7.0360 6.3162 14.3175 7.1242
# 6 -6.2021 14.9634 3.3706 1.9173 7.1242 25.3813
#
#
#
# Elastic Compliance Matrix: (Units=1/GPa)
#
#
# Indices 1 2 3 4 5 6 
#
# 1 0.005328 -0.005518 -0.000752 0.008996 -0.014286 0.007985
# 2 -0.005518 0.044670 -0.002917 -0.044176 0.033478 -0.033355
# 3 -0.000752 -0.002917 0.009759 -0.006483 -0.000358 0.000830
# 4 0.008996 -0.044176 -0.006483 0.087021 -0.055690 0.038161
# 5 -0.014286 0.033478 -0.000358 -0.055690 0.135714 -0.057066
# 6 0.007985 -0.033355 0.000830 0.038161 -0.057066 0.074040
#
#
# Mechanical properties :
#
#
# Convention : Reuss Voigt Hill
#
# Bulk Modulus (GPa) = 24.16449 68.86107 46.51278
# Shear Modulus (GPa) = 12.86339 41.92621 27.39480
#
# Velocity S-wave (km/s) = 2.22845 4.02317 3.25207
# Velocity P-wave (km/s) = 3.99377 6.94013 5.66196
#
# Compressibility (1/GPa) = 0.04138303
#
# Stress axis : x y z
#
# Youngs Moduli (GPa) = 187.69147 22.38648 102.46555
#
# Poissons Ratio (x) = 0.12352 0.07706
# Poissons Ratio (y) = 1.03560 0.29893
# Poissons Ratio (z) = 0.14116 0.06531
#
# Static dielectric constant tensor:
#      x y z
#    x 2.297090 -0.044230 0.029540 
#    y -0.044230 2.445920 -0.097690 
#    z 0.029540 -0.097690 2.416060 
# 
# From -- ./inp_files/604309.got.cif
#   From: 2010.05.17/outbox.cif.g08.bks.cpg/sg2_303_cif.got.tgz:604309.got - 2010.06.03 11:33:40.
