data_PCOD9072603
_publ_section_title
;
Structure prediction by ZEFSAII (Michael W. Deem and Ramdas Pophale) SiO2 
 PCOD9072603
Probable space group: P -1
;
_chemical_formula_sum "Si O2"
_cell_formula_units_Z 16
_cell_length_a 12.000000
_cell_length_b 9.000000
_cell_length_c 18.000000
_cell_angle_alpha 40.000000
_cell_angle_beta 50.000000
_cell_angle_gamma 80.000000
_cell_volume 729.599496
_symmetry_space_group_name_H-M "P -1"
_symmetry_group_IT_number 2
_symmetry_cell_setting 'triclinic'
loop_
_space_group_symop_operation_xyz
x,y,z
-x,-y,-z
loop_
_atom_site_type_symbol
_atom_site_label
_atom_site_fract_x
_atom_site_fract_y
_atom_site_fract_z
Si Si1 0.150410 0.446351 0.239461
Si Si2 0.724281 0.240445 0.145899
Si Si3 0.069373 0.060076 0.177075
Si Si4 0.691076 0.712215 0.159876
Si Si5 0.686990 0.921480 0.427734
Si Si6 0.880610 0.091251 0.623999
Si Si7 0.497054 0.988285 0.192266
Si Si8 0.926911 0.533005 0.183154
O O1 0.062850 0.353319 0.395310
O O2 0.026011 0.509344 0.221140
O O3 0.150325 0.196025 0.292204
O O4 0.371465 0.742117 0.026912
O O5 0.572380 0.120538 0.192130
O O6 0.641841 0.026941 0.334005
O O7 0.822070 0.583385 0.993396
O O8 0.897453 0.266683 0.026991
O O9 0.097921 0.935105 0.286974
O O10 0.167131 0.076456 0.051035
O O11 0.843753 0.894348 0.342218
O O12 0.506283 0.377102 0.340800
O O13 0.813593 0.661692 0.180095
O O14 0.577513 0.808752 0.211209
O O15 0.789661 0.195604 0.337071
O O16 0.715050 0.118521 0.678147
#
# Coordination Sequence:
#
# PCOD9072603 Si02
#       8
#     2   2   2   2   2   2   2   2
#     4  10  23  42  72  96 120 172 219 274 307 374
#     4  10  20  40  68  92 130 164 214 276 314 366
#     4  11  22  43  67  94 126 170 219 268 308 375
#     4  12  26  38  65 100 136 170 201 263 338 382
#     4  11  21  40  65  98 125 169 221 262 314 379
#     4  11  23  44  70  92 126 171 225 261 309 380
#     4  11  26  43  59 104 134 168 207 262 332 380
#     4  10  19  42  65  99 126 160 221 265 321 374
#
# _framework density 21.929839999999999
#
# number of rings (size 3 to 8) (size 9 to 14) (size 15 to 20)
#    0.000    1.250    6.250    1.500    1.750    5.000 
#    0.000    1.250    0.000    0.000    0.000    0.000 
#    0.000    0.000    0.000    0.000    0.000    0.000 
#
# Total GULP energy -89296.988188 kJ/mol
# GULP energy per Si atom -5581.061762 kJ/mol
# Density = 2.187993 g / cm^3
# Si number density = 21.929840 Si / 1000 Ang^3
#
#
#
# Elastic Constant Matrix: (Units=GPa)
#
#
# Indices 1 2 3 4 5 6 
#
# 1 72.8727 19.8076 1.2863 8.5238 -6.7468 -21.7532
# 2 19.8076 73.7533 6.7159 12.6841 -5.5920 -24.2938
# 3 1.2863 6.7159 77.8813 20.2219 -5.0909 7.8286
# 4 8.5238 12.6841 20.2219 28.8412 -2.9204 -3.5457
# 5 -6.7468 -5.5920 -5.0909 -2.9204 29.4440 6.8243
# 6 -21.7532 -24.2938 7.8286 -3.5457 6.8243 37.2516
#
#
#
# Elastic Compliance Matrix: (Units=1/GPa)
#
#
# Indices 1 2 3 4 5 6 
#
# 1 0.017144 -0.001018 -0.000136 -0.003304 0.001341 0.008816
# 2 -0.001018 0.018632 -0.001273 -0.005620 -0.000093 0.011306
# 3 -0.000136 -0.001273 0.016764 -0.011608 0.002880 -0.006065
# 4 -0.003304 -0.005620 -0.011608 0.046455 0.000504 0.001174
# 5 0.001341 -0.000093 0.002880 0.000504 0.036303 -0.006485
# 6 0.008816 0.011306 -0.006065 0.001174 -0.006485 0.041940
#
#
# Mechanical properties :
#
#
# Convention : Reuss Voigt Hill
#
# Bulk Modulus (GPa) = 20.97096 31.12520 26.04808
# Shear Modulus (GPa) = 25.25414 32.22054 28.73734
#
# Velocity S-wave (km/s) = 3.39719 3.83725 3.62390
# Velocity P-wave (km/s) = 4.99713 5.81863 5.42346
#
# Compressibility (1/GPa) = 0.04768499
#
# Stress axis : x y z
#
# Youngs Moduli (GPa) = 58.32992 53.67225 59.65167
#
# Poissons Ratio (x) = 0.05465 0.00811
# Poissons Ratio (y) = 0.05939 0.07594
# Poissons Ratio (z) = 0.00793 0.06833
#
# Static dielectric constant tensor:
#      x y z
#    x 1.806230 -0.009120 0.003820 
#    y -0.009120 1.856430 -0.057440 
#    z 0.003820 -0.057440 1.823620 
# 
# From -- ./inp_files/566434.got.cif
#   From: 2010.05.17/outbox.ucp.g08.bks.cvg/sg2_284_cif.got.tgz:566434.got - 2010.06.11 11:32:03.
