data_PCOD9072956
_publ_section_title
;
Structure prediction by ZEFSAII (Michael W. Deem and Ramdas Pophale) SiO2 
 PCOD9072956
Probable space group: P -1
;
_chemical_formula_sum "Si O2"
_cell_formula_units_Z 12
_cell_length_a 9.000000
_cell_length_b 18.000000
_cell_length_c 9.000000
_cell_angle_alpha 140.000000
_cell_angle_beta 90.000000
_cell_angle_gamma 60.000000
_cell_volume 588.959657
_symmetry_space_group_name_H-M "P -1"
_symmetry_group_IT_number 2
_symmetry_cell_setting 'triclinic'
loop_
_space_group_symop_operation_xyz
x,y,z
-x,-y,-z
loop_
_atom_site_type_symbol
_atom_site_label
_atom_site_fract_x
_atom_site_fract_y
_atom_site_fract_z
Si Si1 0.800448 0.521155 0.856372
Si Si2 0.943781 0.835888 0.502053
Si Si3 0.841828 0.762247 0.787306
Si Si4 0.437047 0.867740 0.803405
Si Si5 0.398230 0.691612 0.305936
Si Si6 0.773490 0.796761 0.185586
O O1 0.949440 0.345842 0.698398
O O2 0.888957 0.411215 0.534227
O O3 0.530713 0.672894 0.141763
O O4 0.830799 0.640561 0.027716
O O5 0.901852 0.821065 0.312153
O O6 0.122516 0.834264 0.511655
O O7 0.713872 0.016777 0.870052
O O8 0.695060 0.758588 0.681152
O O9 0.835974 0.744550 0.933821
O O10 0.701568 0.965417 0.058725
O O11 0.447616 0.736386 0.523616
O O12 0.500000 0.500000 0.000000
O O13 0.500000 0.000000 0.500000
#
# Coordination Sequence:
#
# PCOD9072956 Si02
#       6
#     2   2   2   2   2   2
#     4  10  23  39  61  90 123 163 200 248 298 362
#     4  10  22  40  64  89 122 162 202 247 304 360
#     4  10  22  37  64  94 120 156 203 259 298 350
#     4  10  20  39  64  90 120 159 208 248 299 357
#     4  10  22  38  63  89 121 164 204 243 299 369
#     4  12  22  39  62  96 122 155 206 254 305 351
#
# _framework density 20.37491
#
# number of rings (size 3 to 8) (size 9 to 14) (size 15 to 20)
#    0.000    1.667    1.667    2.500    9.333    0.000 
#    0.000    4.167    3.667    0.000    0.000    0.000 
#    0.000    0.000    0.000    0.000    0.000    0.000 
#
# Total GULP energy -66857.411991 kJ/mol
# GULP energy per Si atom -5571.450999 kJ/mol
# Density = 2.032854 g / cm^3
# Si number density = 20.374910 Si / 1000 Ang^3
#
#
#
# Elastic Constant Matrix: (Units=GPa)
#
#
# Indices 1 2 3 4 5 6 
#
# 1 44.7755 29.8291 31.4858 -31.9099 19.4492 -6.4844
# 2 29.8291 46.2771 25.4041 -29.3224 3.7722 -5.7903
# 3 31.4858 25.4041 95.9156 -8.8155 8.3737 3.8702
# 4 -31.9099 -29.3224 -8.8155 24.8582 1.0142 0.8549
# 5 19.4492 3.7722 8.3737 1.0142 44.3867 -8.3278
# 6 -6.4844 -5.7903 3.8702 0.8549 -8.3278 14.9503
#
#
#
# Elastic Compliance Matrix: (Units=1/GPa)
#
#
# Indices 1 2 3 4 5 6 
#
# 1 -0.028984 -0.054168 0.015084 -0.095364 0.011873 -0.025389
# 2 -0.054168 0.036916 0.003685 -0.025645 0.021060 0.003047
# 3 0.015084 0.003685 0.007792 0.026870 -0.009133 -0.000671
# 4 -0.095364 -0.025645 0.026870 -0.103215 0.035102 -0.032796
# 5 0.011873 0.021060 -0.009133 0.035102 0.021241 0.025496
# 6 -0.025389 0.003047 -0.000671 -0.032796 0.025496 0.073308
#
#
# Mechanical properties :
#
#
# Convention : Reuss Voigt Hill
#
# Bulk Modulus (GPa) = -18.15801 40.04513 10.94356
# Shear Modulus (GPa) = 84.03584 23.52231 53.77908
#
# Velocity S-wave (km/s) = 6.42918 3.40144 5.14316
# Velocity P-wave (km/s) = 6.79567 5.92648 6.37590
#
# Compressibility (1/GPa) = -0.05507213
#
# Stress axis : x y z
#
# Youngs Moduli (GPa) = -34.50220 27.08822 128.33661
#
# Poissons Ratio (x) = 1.46732 -1.93587
# Poissons Ratio (y) = -1.86892 -0.47295
# Poissons Ratio (z) = 0.52044 -0.09983
#
# Static dielectric constant tensor:
#      x y z
#    x 1.784510 0.023060 -0.045990 
#    y 0.023060 1.731830 -0.009640 
#    z -0.045990 -0.009640 1.757000 
# 
# From -- ./inp_files/144867.got.cif
#   From: 2010.05.17/outbox.ucp.g08.bks.cvg/sg2_73_cif.got.tgz:144867.got - 2010.06.11 11:32:03.
