data_PCOD9072104
_publ_section_title
;
Structure prediction by ZEFSAII (Michael W. Deem and Ramdas Pophale) SiO2 
 PCOD9072104
Probable space group: P -1
;
_chemical_formula_sum "Si O2"
_cell_formula_units_Z 14
_cell_length_a 9.000000
_cell_length_b 9.000000
_cell_length_c 12.000000
_cell_angle_alpha 70.000000
_cell_angle_beta 120.000000
_cell_angle_gamma 70.000000
_cell_volume 614.029152
_symmetry_space_group_name_H-M "P -1"
_symmetry_group_IT_number 2
_symmetry_cell_setting 'triclinic'
loop_
_space_group_symop_operation_xyz
x,y,z
-x,-y,-z
loop_
_atom_site_type_symbol
_atom_site_label
_atom_site_fract_x
_atom_site_fract_y
_atom_site_fract_z
Si Si1 0.880938 0.862075 0.665863
Si Si2 0.530347 0.267805 0.311107
Si Si3 0.840694 0.381143 0.366905
Si Si4 0.756348 0.806602 0.876368
Si Si5 0.587923 0.160964 0.883206
Si Si6 0.807605 0.335514 0.802146
Si Si7 0.056026 0.104490 0.733644
O O1 0.810099 0.825662 0.764599
O O2 0.021403 0.676077 0.679752
O O3 0.669469 0.043379 0.470277
O O4 0.011522 0.949199 0.720585
O O5 0.695999 0.304034 0.317796
O O6 0.359025 0.297064 0.149820
O O7 0.399779 0.429069 0.320898
O O8 0.657616 0.624719 0.251156
O O9 0.997782 0.249004 0.567302
O O10 0.598898 0.018784 0.830145
O O11 0.985785 0.694485 0.056774
O O12 0.742103 0.215310 0.878126
O O13 0.709210 0.030404 0.076345
O O14 0.877502 0.251229 0.725351
#
# Coordination Sequence:
#
# PCOD9072104 Si02
#       7
#     2   2   2   2   2   2   2
#     4  11  21  39  59  88 121 158 194 248 297 358
#     4  10  22  35  60  91 118 155 195 250 303 344
#     4  10  24  39  62  89 120 160 202 238 300 362
#     4  11  20  38  63  89 120 148 204 252 295 350
#     4  10  20  38  64  88 114 165 200 245 290 353
#     4  10  19  36  61  91 113 157 202 250 288 350
#     4  10  18  36  62  87 118 149 212 241 281 352
#
# _framework density 22.800219999999999
#
# number of rings (size 3 to 8) (size 9 to 14) (size 15 to 20)
#    0.000    1.714    2.857    3.429    2.000    2.286 
#    2.571    0.714    3.143    6.857    0.000    0.000 
#    0.000    0.000    0.000    0.000    0.000    0.000 
#
# Total GULP energy -78365.153099 kJ/mol
# GULP energy per Si atom -5597.510936 kJ/mol
# Density = 2.274833 g / cm^3
# Si number density = 22.800220 Si / 1000 Ang^3
#
#
#
# Elastic Constant Matrix: (Units=GPa)
#
#
# Indices 1 2 3 4 5 6 
#
# 1 43.1336 40.2088 26.1483 1.1308 -2.5609 -24.9449
# 2 40.2088 118.1429 46.8608 -0.8525 1.8697 -36.4214
# 3 26.1483 46.8608 86.5813 1.7140 -5.8163 -22.1114
# 4 1.1308 -0.8525 1.7140 38.6531 -5.9769 4.8011
# 5 -2.5609 1.8697 -5.8163 -5.9769 12.6206 4.4218
# 6 -24.9449 -36.4214 -22.1114 4.8011 4.4218 38.2459
#
#
#
# Elastic Compliance Matrix: (Units=1/GPa)
#
#
# Indices 1 2 3 4 5 6 
#
# 1 0.044099 -0.007124 -0.004318 -0.003881 -0.000856 0.020068
# 2 -0.007124 0.015634 -0.004659 -0.001886 -0.009932 0.008934
# 3 -0.004318 -0.004659 0.016158 0.000221 0.006924 0.001260
# 4 -0.003881 -0.001886 0.000221 0.029826 0.017199 -0.009932
# 5 -0.000856 -0.009932 0.006924 0.017199 0.098732 -0.019587
# 6 0.020068 0.008934 0.001260 -0.009932 -0.019587 0.051983
#
#
# Mechanical properties :
#
#
# Convention : Reuss Voigt Hill
#
# Bulk Modulus (GPa) = 22.88852 52.69931 37.79391
# Shear Modulus (GPa) = 16.49089 26.87991 21.68540
#
# Velocity S-wave (km/s) = 2.69230 3.43728 3.08734
# Velocity P-wave (km/s) = 4.44130 6.23834 5.41489
#
# Compressibility (1/GPa) = 0.04369003
#
# Stress axis : x y z
#
# Youngs Moduli (GPa) = 22.67627 63.96147 61.88848
#
# Poissons Ratio (x) = 0.45564 0.26726
# Poissons Ratio (y) = 0.16154 0.28832
# Poissons Ratio (z) = 0.09792 0.29798
#
# Static dielectric constant tensor:
#      x y z
#    x 1.852150 -0.004410 0.035810 
#    y -0.004410 1.848640 -0.023930 
#    z 0.035810 -0.023930 1.845550 
# 
# From -- ./inp_files/157524.got.cif
#   From: 2010.05.17/outbox.ucp.g08.bks.cvg/sg2_79_cif.got.tgz:157524.got - 2010.06.11 11:32:03.
