data_PCOD9072214
_publ_section_title
;
Structure prediction by ZEFSAII (Michael W. Deem and Ramdas Pophale) SiO2 
 PCOD9072214
Probable space group: P -1
;
_chemical_formula_sum "Si O2"
_cell_formula_units_Z 16
_cell_length_a 15.000000
_cell_length_b 24.000000
_cell_length_c 21.000000
_cell_angle_alpha 170.000000
_cell_angle_beta 40.000000
_cell_angle_gamma 140.000000
_cell_volume 839.239567
_symmetry_space_group_name_H-M "P -1"
_symmetry_group_IT_number 2
_symmetry_cell_setting 'triclinic'
loop_
_space_group_symop_operation_xyz
x,y,z
-x,-y,-z
loop_
_atom_site_type_symbol
_atom_site_label
_atom_site_fract_x
_atom_site_fract_y
_atom_site_fract_z
Si Si1 0.668870 0.153378 0.620844
Si Si2 0.179530 0.680730 0.060349
Si Si3 0.485558 0.784565 0.011566
Si Si4 0.326947 0.644893 0.507109
Si Si5 0.503249 0.754274 0.362249
Si Si6 0.759809 0.983667 0.239699
Si Si7 0.115756 0.396790 0.911077
Si Si8 0.037550 0.877742 0.912039
O O1 0.585501 0.852028 0.362552
O O2 0.721141 0.033780 0.390197
O O3 0.562041 0.430480 0.988894
O O4 0.800127 0.326876 0.782663
O O5 0.335102 0.650431 0.916532
O O6 0.051401 0.606375 0.998017
O O7 0.161896 0.044509 0.503918
O O8 0.153795 0.454360 0.880957
O O9 0.546686 0.103996 0.301523
O O10 0.453067 0.933033 0.265467
O O11 0.607001 0.549506 0.690414
O O12 0.197739 0.865175 0.832397
O O13 0.286034 0.364000 0.160396
O O14 0.336994 0.770488 0.465182
O O15 0.926151 0.031786 0.191192
O O16 0.000000 0.500000 0.500000
O O17 0.000000 0.000000 0.000000
#
# Coordination Sequence:
#
# PCOD9072214 Si02
#       8
#     2   2   2   2   2   2   2   2
#     4  12  21  34  48  72 104 135 168 194 236 295
#     4  10  19  32  51  70 100 129 165 201 249 279
#     4  11  18  33  51  74  97 130 163 204 246 287
#     4  10  21  33  51  72  96 126 168 207 246 289
#     4  11  21  32  46  71 105 135 164 195 232 292
#     4  10  23  34  51  72 100 139 164 202 245 289
#     4  10  19  33  49  72  97 135 163 202 236 291
#     4  10  20  37  51  69  96 127 169 213 246 281
#
# _framework density 19.064878
#
# number of rings (size 3 to 8) (size 9 to 14) (size 15 to 20)
#    0.000    1.500    2.500    5.250    0.000    5.000 
#    0.000    0.000    0.000    0.000    0.000    1.750 
#    0.000    0.000    0.000    0.375    0.000    0.000 
#
# Total GULP energy -89170.788698 kJ/mol
# GULP energy per Si atom -5573.174294 kJ/mol
# Density = 1.902149 g / cm^3
# Si number density = 19.064878 Si / 1000 Ang^3
#
#
#
# Elastic Constant Matrix: (Units=GPa)
#
#
# Indices 1 2 3 4 5 6 
#
# 1 77.0283 18.8679 23.0185 -1.1138 -7.6351 31.7710
# 2 18.8679 66.6095 23.2586 -8.5207 -9.4947 20.3860
# 3 23.0185 23.2586 55.5002 -0.1107 -21.9285 4.6272
# 4 -1.1138 -8.5207 -0.1107 34.9277 0.9393 -8.7950
# 5 -7.6351 -9.4947 -21.9285 0.9393 30.0497 4.5707
# 6 31.7710 20.3860 4.6272 -8.7950 4.5707 37.9589
#
#
#
# Elastic Compliance Matrix: (Units=1/GPa)
#
#
# Indices 1 2 3 4 5 6 
#
# 1 0.024225 0.002754 -0.007233 -0.004395 0.005312 -0.022532
# 2 0.002754 0.021686 -0.007581 0.001963 0.003943 -0.013048
# 3 -0.007233 -0.007581 0.030887 -0.001483 0.017763 0.003878
# 4 -0.004395 0.001963 -0.001483 0.031764 -0.004195 0.010670
# 5 0.005312 0.003943 0.017763 -0.004195 0.051384 -0.015888
# 6 -0.022532 -0.013048 0.003878 0.010670 -0.015888 0.056123
#
#
# Mechanical properties :
#
#
# Convention : Reuss Voigt Hill
#
# Bulk Modulus (GPa) = 18.98279 36.60311 27.79295
# Shear Modulus (GPa) = 19.39879 29.52013 24.45946
#
# Velocity S-wave (km/s) = 3.19331 3.93924 3.58573
# Velocity P-wave (km/s) = 4.85540 6.31911 5.63498
#
# Compressibility (1/GPa) = 0.05267929
#
# Stress axis : x y z
#
# Youngs Moduli (GPa) = 41.27903 46.11229 32.37641
#
# Poissons Ratio (x) = -0.12701 0.23418
# Poissons Ratio (y) = -0.11370 0.24543
# Poissons Ratio (z) = 0.29858 0.34956
#
# Static dielectric constant tensor:
#      x y z
#    x 1.732350 0.019970 -0.019580 
#    y 0.019970 1.756300 0.022580 
#    z -0.019580 0.022580 1.627740 
# 
# From -- ./inp_files/369003.got.cif
#   From: 2010.05.17/outbox.ucp.g08.bks.cvg/sg2_185_cif.got.tgz:369003.got - 2010.06.11 11:32:03.
