data_PCOD9072661
_publ_section_title
;
Structure prediction by ZEFSAII (Michael W. Deem and Ramdas Pophale) SiO2 
 PCOD9072661
Probable space group: P -1
;
_chemical_formula_sum "Si O2"
_cell_formula_units_Z 15
_cell_length_a 7.285283
_cell_length_b 9.365151
_cell_length_c 12.847755
_cell_angle_alpha 148.363501
_cell_angle_beta 93.662372
_cell_angle_gamma 90.572751
_cell_volume 455.365127
_symmetry_space_group_name_H-M "P -1"
_symmetry_group_IT_number 2
_symmetry_cell_setting 'triclinic'
loop_
_space_group_symop_operation_xyz
x,y,z
-x,-y,-z
loop_
_atom_site_type_symbol
_atom_site_label
_atom_site_fract_x
_atom_site_fract_y
_atom_site_fract_z
Si Si1 0.914794 0.077302 0.905383
Si Si2 0.358979 0.224063 0.744748
Si Si3 0.655932 0.307029 0.288871
Si Si4 0.752135 0.570580 0.653829
Si Si5 0.822416 0.865386 0.541119
Si Si6 0.000000 0.500000 0.000000
Si Si7 0.503233 0.199412 0.951517
Si Si8 0.839306 0.314828 0.695948
O O1 0.920599 0.816636 0.821003
O O2 0.884092 0.910282 0.693896
O O3 0.714769 0.182241 0.981867
O O4 0.045637 0.359166 0.053735
O O5 0.457045 0.090169 0.762888
O O6 0.292344 0.041964 0.526598
O O7 0.184364 0.353181 0.867563
O O8 0.503135 0.478003 0.868069
O O9 0.777936 0.371952 0.436516
O O10 0.439130 0.316909 0.311983
O O11 0.703535 0.560003 0.369488
O O12 0.638483 0.971181 0.079030
O O13 0.717499 0.423768 0.669874
O O14 0.999300 0.778108 0.430362
O O15 0.854751 0.232486 0.768499
#
# Coordination Sequence:
#
# PCOD9072661 Si02
#       8
#     2   2   2   2   2   1   2   2
#     4   9  19  32  51  73  93 129 166 210 239 284
#     4   9  19  31  47  75 105 131 156 194 247 306
#     4   9  15  26  46  74 103 127 154 195 245 302
#     4   9  16  27  47  75  98 123 160 204 247 287
#     4   8  17  27  45  70  97 126 159 192 242 272
#     4  10  20  36  50  70  96 124 180 214 238 266
#     4  10  18  31  49  74 107 127 161 190 247 311
#     4   9  18  32  47  71  98 130 164 203 238 285
#
# _framework density 32.940598000000001
#
# number of rings (size 3 to 8) (size 9 to 14) (size 15 to 20)
#    0.800    2.133    1.333    0.800    0.000    4.267 
#    0.000    0.667    0.000    0.000    0.000    4.667 
#    0.000    0.000    0.000    0.000    0.000    0.000 
#
# Total GULP energy -83741.530351 kJ/mol
# GULP energy per Si atom -5582.768690 kJ/mol
# Density = 3.286562 g / cm^3
# Si number density = 32.940598 Si / 1000 Ang^3
#
#
#
# Elastic Constant Matrix: (Units=GPa)
#
#
# Indices 1 2 3 4 5 6 
#
# 1 92.1837 6.6209 37.3667 18.6678 8.1383 7.2471
# 2 6.6209 198.4243 80.8477 76.5189 24.8425 47.7217
# 3 37.3667 80.8477 293.0138 -20.6095 34.7910 19.5792
# 4 18.6678 76.5189 -20.6095 108.0586 15.6025 17.6567
# 5 8.1383 24.8425 34.7910 15.6025 61.8434 12.7634
# 6 7.2471 47.7217 19.5792 17.6567 12.7634 73.2396
#
#
#
# Elastic Compliance Matrix: (Units=1/GPa)
#
#
# Indices 1 2 3 4 5 6 
#
# 1 0.012656 0.002554 -0.002549 -0.004294 0.000076 -0.001213
# 2 0.002554 0.010365 -0.003486 -0.007796 0.000305 -0.004248
# 3 -0.002549 -0.003486 0.005239 0.004163 -0.002372 0.000533
# 4 -0.004294 -0.007796 0.004163 0.016597 -0.003022 0.000917
# 5 0.000076 0.000305 -0.002372 -0.003022 0.018563 -0.002079
# 6 -0.001213 -0.004248 0.000533 0.000917 -0.002079 0.016541
#
#
# Mechanical properties :
#
#
# Convention : Reuss Voigt Hill
#
# Bulk Modulus (GPa) = 46.95297 92.58805 69.77051
# Shear Modulus (GPa) = 53.18029 79.21408 66.19719
#
# Velocity S-wave (km/s) = 4.02236 4.90915 4.48771
# Velocity P-wave (km/s) = 5.98809 7.76541 6.93393
#
# Compressibility (1/GPa) = 0.02129791
#
# Stress axis : x y z
#
# Youngs Moduli (GPa) = 79.01512 96.48231 190.89191
#
# Poissons Ratio (x) = -0.24645 0.48653
# Poissons Ratio (y) = -0.20184 0.66549
# Poissons Ratio (z) = 0.20139 0.33636
#
# Static dielectric constant tensor:
#      x y z
#    x 2.519110 -0.250450 0.240460 
#    y -0.250450 3.265960 -0.391780 
#    z 0.240460 -0.391780 3.638650 
# 
# From -- ./inp_files/163215.got.cif
#   From: 2010.05.17/outbox.cif.g08.bks.cpg/sg2_82_cif.got.tgz:163215.got - 2010.06.03 11:33:40.
