data_PCOD9072764
_publ_section_title
;
Structure prediction by ZEFSAII (Michael W. Deem and Ramdas Pophale) SiO2 
 PCOD9072764
Probable space group: P -1
;
_chemical_formula_sum "Si O2"
_cell_formula_units_Z 16
_cell_length_a 22.444983
_cell_length_b 14.268090
_cell_length_c 11.741657
_cell_angle_alpha 50.253631
_cell_angle_beta 149.159992
_cell_angle_gamma 149.861940
_cell_volume 886.737033
_symmetry_space_group_name_H-M "P -1"
_symmetry_group_IT_number 2
_symmetry_cell_setting 'triclinic'
loop_
_space_group_symop_operation_xyz
x,y,z
-x,-y,-z
loop_
_atom_site_type_symbol
_atom_site_label
_atom_site_fract_x
_atom_site_fract_y
_atom_site_fract_z
Si Si1 0.789495 0.767678 0.363088
Si Si2 0.128132 0.513533 0.605308
Si Si3 0.389441 0.529889 0.907962
Si Si4 0.185991 0.395849 0.003205
Si Si5 0.883016 0.788501 0.749929
Si Si6 0.761711 0.781247 0.915733
Si Si7 0.284464 0.862134 0.715812
Si Si8 0.640233 0.792932 0.479319
O O1 0.709648 0.609013 0.259229
O O2 0.811824 0.718619 0.559076
O O3 0.622311 0.732219 0.121259
O O4 0.000000 0.000000 0.500000
O O5 0.267283 0.544909 0.734523
O O6 0.223611 0.725811 0.614636
O O7 0.896560 0.310894 0.358155
O O8 0.132928 0.459538 0.783031
O O9 0.362949 0.407035 0.059508
O O10 0.122496 0.330499 0.080347
O O11 0.118238 0.216064 0.966169
O O12 0.417927 0.590540 0.236347
O O13 0.755094 0.787634 0.600252
O O14 0.100022 0.022640 0.931374
O O15 0.656445 0.773553 0.654451
O O16 0.295284 0.014868 0.588340
O O17 0.500000 0.000000 0.000000
#
# Coordination Sequence:
#
# PCOD9072764 Si02
#       8
#     2   2   2   2   2   2   2   2
#     4  11  22  34  52  82 111 145 181 213 268 324
#     4  10  21  38  55  78 113 143 179 222 263 319
#     4  10  21  38  55  78 113 143 179 222 263 319
#     4  10  18  31  50  78 108 142 171 213 273 330
#     4  11  19  31  51  79 112 141 173 215 270 328
#     4  10  18  31  50  78 108 142 171 213 273 330
#     4  11  22  34  52  82 111 145 181 213 268 324
#     4  11  19  31  51  79 112 141 173 215 270 328
#
# _framework density 18.043680999999999
#
# number of rings (size 3 to 8) (size 9 to 14) (size 15 to 20)
#    0.000    1.500    2.500    7.500    0.000    0.000 
#    0.000    0.000    0.000    0.000    0.000   17.500 
#    0.000    0.250    0.000    0.000    0.000    0.000 
#
# Total GULP energy -89175.252447 kJ/mol
# GULP energy per Si atom -5573.453278 kJ/mol
# Density = 1.800261 g / cm^3
# Si number density = 18.043681 Si / 1000 Ang^3
#
#
#
# Elastic Constant Matrix: (Units=GPa)
#
#
# Indices 1 2 3 4 5 6 
#
# 1 85.0315 16.0454 35.2154 4.1528 -5.0127 0.0192
# 2 16.0454 52.0443 5.5748 9.3232 0.0308 -2.2942
# 3 35.2154 5.5748 92.2483 19.8599 -2.3897 0.5368
# 4 4.1528 9.3232 19.8599 35.6188 9.5947 4.1757
# 5 -5.0127 0.0308 -2.3897 9.5947 43.3399 -0.6718
# 6 0.0192 -2.2942 0.5368 4.1757 -0.6718 19.6360
#
#
#
# Elastic Compliance Matrix: (Units=1/GPa)
#
#
# Indices 1 2 3 4 5 6 
#
# 1 0.015016 -0.004505 -0.006009 0.002670 0.000803 -0.000917
# 2 -0.004505 0.021840 0.001928 -0.007063 0.001196 0.004046
# 3 -0.006009 0.001928 0.014989 -0.008948 0.002139 0.001797
# 4 0.002670 -0.007063 -0.008948 0.038005 -0.008732 -0.008964
# 5 0.000803 0.001196 0.002139 -0.008732 0.025260 0.002802
# 6 -0.000917 0.004046 0.001797 -0.008964 0.002802 0.053354
#
#
# Mechanical properties :
#
#
# Convention : Reuss Voigt Hill
#
# Bulk Modulus (GPa) = 28.84081 38.11059 33.47570
# Shear Modulus (GPa) = 25.35592 31.21816 28.28704
#
# Velocity S-wave (km/s) = 3.75274 4.16401 3.96371
# Velocity P-wave (km/s) = 5.89881 6.65476 6.28815
#
# Compressibility (1/GPa) = 0.03467309
#
# Stress axis : x y z
#
# Youngs Moduli (GPa) = 66.59517 45.78824 66.71546
#
# Poissons Ratio (x) = 0.20628 0.40087
# Poissons Ratio (y) = 0.30001 -0.12862
# Poissons Ratio (z) = 0.40015 -0.08828
#
# Static dielectric constant tensor:
#      x y z
#    x 1.643110 0.024080 0.016870 
#    y 0.024080 1.666430 0.016000 
#    z 0.016870 0.016000 1.675960 
# 
# From -- ./inp_files/431085.got.cif
#   From: 2010.05.17/outbox.cif.g08.bks.cpg/sg2_216_cif.got.tgz:431085.got - 2010.06.03 11:33:40.
