data_PCOD9072864
_publ_section_title
;
Structure prediction by ZEFSAII (Michael W. Deem and Ramdas Pophale) SiO2 
 PCOD9072864
Probable space group: P -1
;
_chemical_formula_sum "Si O2"
_cell_formula_units_Z 10
_cell_length_a 7.584884
_cell_length_b 14.405234
_cell_length_c 9.282322
_cell_angle_alpha 91.741025
_cell_angle_beta 133.316639
_cell_angle_gamma 48.757027
_cell_volume 353.238337
_symmetry_space_group_name_H-M "P -1"
_symmetry_group_IT_number 2
_symmetry_cell_setting 'triclinic'
loop_
_space_group_symop_operation_xyz
x,y,z
-x,-y,-z
loop_
_atom_site_type_symbol
_atom_site_label
_atom_site_fract_x
_atom_site_fract_y
_atom_site_fract_z
Si Si1 0.583292 0.570605 0.342999
Si Si2 0.678447 0.057223 0.200705
Si Si3 0.954408 0.566035 0.127772
Si Si4 0.342207 0.146825 0.722659
Si Si5 0.134707 0.712924 0.816679
O O1 0.000000 0.500000 0.500000
O O2 0.593837 0.602233 0.514525
O O3 0.860103 0.377191 0.485938
O O4 0.114378 0.734594 0.977858
O O5 0.727982 0.933671 0.264237
O O6 0.145412 0.290852 0.936393
O O7 0.748013 0.045400 0.065030
O O8 0.000000 0.000000 0.500000
O O9 0.454225 0.689589 0.926087
O O10 0.000000 0.500000 0.000000
O O11 0.344097 0.142605 0.548673
O O12 0.500000 0.500000 0.000000
#
# Coordination Sequence:
#
# PCOD9072864 Si02
#       5
#     2   2   2   2   2
#     4   8  16  30  51  76 100 139 173 212 252 314
#     4  10  18  31  51  77 109 137 172 219 261 314
#     4  10  19  32  52  82 109 134 171 226 271 299
#     4   9  17  29  52  78  96 135 190 210 247 308
#     4   9  16  31  53  76 100 137 182 213 246 320
#
# _framework density 28.309501000000001
#
# number of rings (size 3 to 8) (size 9 to 14) (size 15 to 20)
#    0.000    2.800    2.000    0.000    0.000    0.000 
#    0.000    9.000    0.000   12.000    0.000    0.000 
#    0.000    0.000    0.000    0.000    0.000    0.000 
#
# Total GULP energy -55857.477448 kJ/mol
# GULP energy per Si atom -5585.747745 kJ/mol
# Density = 2.824507 g / cm^3
# Si number density = 28.309501 Si / 1000 Ang^3
#
#
#
# Elastic Constant Matrix: (Units=GPa)
#
#
# Indices 1 2 3 4 5 6 
#
# 1 108.8642 52.9101 55.9482 14.3619 -25.2274 3.1097
# 2 52.9101 141.8074 94.8875 1.3301 -17.6519 26.6840
# 3 55.9482 94.8875 300.3646 74.8881 -73.2476 -25.1400
# 4 14.3619 1.3301 74.8881 96.3335 -13.7637 -15.3372
# 5 -25.2274 -17.6519 -73.2476 -13.7637 53.3871 6.5021
# 6 3.1097 26.6840 -25.1400 -15.3372 6.5021 36.9447
#
#
#
# Elastic Compliance Matrix: (Units=1/GPa)
#
#
# Indices 1 2 3 4 5 6 
#
# 1 0.012410 -0.005012 0.001035 -0.001594 0.005004 0.001737
# 2 -0.005012 0.015525 -0.006933 0.003170 -0.004293 -0.013438
# 3 0.001035 -0.006933 0.009320 -0.004818 0.008802 0.007713
# 4 -0.001594 0.003170 -0.004818 0.014063 -0.002800 0.000897
# 5 0.005004 -0.004293 0.008802 -0.002800 0.030777 0.002091
# 6 0.001737 -0.013438 0.007713 0.000897 0.002091 0.041880
#
#
# Mechanical properties :
#
#
# Convention : Reuss Voigt Hill
#
# Bulk Modulus (GPa) = 64.78461 106.50308 85.64384
# Shear Modulus (GPa) = 33.12556 60.48575 46.80565
#
# Velocity S-wave (km/s) = 3.42442 4.62734 4.07056
# Velocity P-wave (km/s) = 6.21044 8.13955 7.23954
#
# Compressibility (1/GPa) = 0.01543576
#
# Stress axis : x y z
#
# Youngs Moduli (GPa) = 80.57960 64.41092 107.29377
#
# Poissons Ratio (x) = 0.32281 -0.11103
# Poissons Ratio (y) = 0.40384 0.74387
# Poissons Ratio (z) = -0.08339 0.44656
#
# Static dielectric constant tensor:
#      x y z
#    x 2.526230 -0.048710 0.106390 
#    y -0.048710 2.205700 0.032800 
#    z 0.106390 0.032800 2.241000 
# 
# From -- ./inp_files/145891.got.cif
#   From: 2010.05.17/outbox.cif.g08.bks.cpg/sg2_73_cif.got.tgz:145891.got - 2010.06.03 11:33:40.
