data_PCOD9072966
_publ_section_title
;
Structure prediction by ZEFSAII (Michael W. Deem and Ramdas Pophale) SiO2 
 PCOD9072966
Probable space group: P -1
;
_chemical_formula_sum "Si O2"
_cell_formula_units_Z 16
_cell_length_a 15.000000
_cell_length_b 12.000000
_cell_length_c 9.000000
_cell_angle_alpha 50.000000
_cell_angle_beta 70.000000
_cell_angle_gamma 40.000000
_cell_volume 759.581896
_symmetry_space_group_name_H-M "P -1"
_symmetry_group_IT_number 2
_symmetry_cell_setting 'triclinic'
loop_
_space_group_symop_operation_xyz
x,y,z
-x,-y,-z
loop_
_atom_site_type_symbol
_atom_site_label
_atom_site_fract_x
_atom_site_fract_y
_atom_site_fract_z
Si Si1 0.915741 0.246422 0.283046
Si Si2 0.405654 0.420731 0.949243
Si Si3 0.290363 0.108765 0.231476
Si Si4 0.327622 0.411997 0.331966
Si Si5 0.430067 0.061392 0.773964
Si Si6 0.514820 0.395549 0.424187
Si Si7 0.897936 0.464441 0.823611
Si Si8 0.124664 0.423388 0.793406
O O1 0.742135 0.423797 0.199198
O O2 0.932876 0.355127 0.302514
O O3 0.952673 0.282033 0.071925
O O4 0.000000 0.000000 0.500000
O O5 0.463542 0.510204 0.796111
O O6 0.371366 0.433885 0.131049
O O7 0.524046 0.159237 0.068437
O O8 0.234105 0.283749 0.243614
O O9 0.434515 0.015215 0.162029
O O10 0.347626 0.878347 0.423472
O O11 0.164081 0.277461 0.039159
O O12 0.416819 0.162831 0.537954
O O13 0.372723 0.467507 0.392999
O O14 0.164400 0.547984 0.272393
O O15 0.274824 0.269957 0.754820
O O16 0.500000 0.500000 0.500000
O O17 0.016181 0.450415 0.738175
#
# Coordination Sequence:
#
# PCOD9072966 Si02
#       8
#     2   2   2   2   2   2   2   2
#     4  10  22  38  64  94 136 177 218 266 323 403
#     4  11  22  40  66 100 128 173 220 266 333 386
#     4  10  20  39  65  92 130 170 220 270 319 385
#     4  10  23  44  64  91 136 173 222 265 325 403
#     4  11  21  38  68  93 129 170 219 279 320 373
#     4  11  25  37  65 100 132 165 214 283 336 377
#     4  10  22  42  64  92 128 186 218 262 322 399
#     4  11  22  37  63  99 135 165 226 273 328 379
#
# _framework density 21.064219999999999
#
# number of rings (size 3 to 8) (size 9 to 14) (size 15 to 20)
#    0.000    1.500    3.750    3.375    8.750    0.500 
#    0.000    0.000    0.000    9.000    0.000    0.000 
#    0.000    0.000    0.000    0.000    0.000    0.000 
#
# Total GULP energy -89194.303925 kJ/mol
# GULP energy per Si atom -5574.643995 kJ/mol
# Density = 2.101628 g / cm^3
# Si number density = 21.064220 Si / 1000 Ang^3
#
#
#
# Elastic Constant Matrix: (Units=GPa)
#
#
# Indices 1 2 3 4 5 6 
#
# 1 142.7090 28.0682 41.3356 -5.5601 2.9935 2.0134
# 2 28.0682 62.3982 36.0561 -13.5934 -6.6692 2.4837
# 3 41.3356 36.0561 144.5950 -33.2660 -17.5912 15.1269
# 4 -5.5601 -13.5934 -33.2660 30.5560 13.2860 -6.5551
# 5 2.9935 -6.6692 -17.5912 13.2860 41.5707 -0.7976
# 6 2.0134 2.4837 15.1269 -6.5551 -0.7976 34.7469
#
#
#
# Elastic Compliance Matrix: (Units=1/GPa)
#
#
# Indices 1 2 3 4 5 6 
#
# 1 0.008178 -0.002917 -0.002161 -0.001427 -0.001508 0.000372
# 2 -0.002917 0.020249 -0.003083 0.005109 0.000541 0.001040
# 3 -0.002161 -0.003083 0.010770 0.008802 0.001354 -0.002651
# 4 -0.001427 0.005109 0.008802 0.050357 -0.011349 0.005125
# 5 -0.001508 0.000541 0.001354 -0.011349 0.028412 -0.002030
# 6 0.000372 0.001040 -0.002651 0.005125 -0.002030 0.030758
#
#
# Mechanical properties :
#
#
# Convention : Reuss Voigt Hill
#
# Bulk Modulus (GPa) = 43.71634 62.29133 53.00383
# Shear Modulus (GPa) = 28.95700 37.65753 33.30726
#
# Velocity S-wave (km/s) = 3.71172 4.23276 3.98078
# Velocity P-wave (km/s) = 6.25844 7.31606 6.80782
#
# Compressibility (1/GPa) = 0.02287474
#
# Stress axis : x y z
#
# Youngs Moduli (GPa) = 122.28444 49.38529 92.85300
#
# Poissons Ratio (x) = 0.14403 0.20066
# Poissons Ratio (y) = 0.35665 0.28628
# Poissons Ratio (z) = 0.26427 0.15226
#
# Static dielectric constant tensor:
#      x y z
#    x 1.833990 -0.028500 0.018350 
#    y -0.028500 1.775140 0.048400 
#    z 0.018350 0.048400 1.791820 
# 
# From -- ./inp_files/306487.got.cif
#   From: 2010.05.17/outbox.ucp.g08.bks.cvg/sg2_154_cif.got.tgz:306487.got - 2010.06.11 11:32:03.
