data_PCOD9072862
_publ_section_title
;
Structure prediction by ZEFSAII (Michael W. Deem and Ramdas Pophale) SiO2 
 PCOD9072862
Probable space group: P -1
;
_chemical_formula_sum "Si O2"
_cell_formula_units_Z 16
_cell_length_a 15.000000
_cell_length_b 15.000000
_cell_length_c 15.000000
_cell_angle_alpha 150.000000
_cell_angle_beta 130.000000
_cell_angle_gamma 30.000000
_cell_volume 762.223433
_symmetry_space_group_name_H-M "P -1"
_symmetry_group_IT_number 2
_symmetry_cell_setting 'triclinic'
loop_
_space_group_symop_operation_xyz
x,y,z
-x,-y,-z
loop_
_atom_site_type_symbol
_atom_site_label
_atom_site_fract_x
_atom_site_fract_y
_atom_site_fract_z
Si Si1 0.970657 0.245705 0.171868
Si Si2 0.855990 0.730430 0.187997
Si Si3 0.582785 0.248672 0.975574
Si Si4 0.543275 0.200207 0.116649
Si Si5 0.730026 0.649702 0.200077
Si Si6 0.576136 0.668413 0.375085
Si Si7 0.781583 0.550094 0.754526
Si Si8 0.432003 0.421534 0.501008
O O1 0.905654 0.370580 0.136676
O O2 0.770824 0.529316 0.344454
O O3 0.185347 0.065909 0.172623
O O4 0.000000 0.000000 0.000000
O O5 0.807313 0.627455 0.134846
O O6 0.985837 0.715020 0.312196
O O7 0.651069 0.071318 0.319626
O O8 0.000000 0.500000 0.000000
O O9 0.426019 0.320062 0.884356
O O10 0.555631 0.221956 0.038165
O O11 0.546900 0.508481 0.172727
O O12 0.333666 0.382233 0.174119
O O13 0.576404 0.353431 0.315589
O O14 0.695490 0.854605 0.941473
O O15 0.609321 0.969323 0.438286
O O16 0.606342 0.585852 0.427421
O O17 0.717932 0.495327 0.587750
#
# Coordination Sequence:
#
# PCOD9072862 Si02
#       8
#     2   2   2   2   2   2   2   2
#     4  10  22  40  62  91 119 151 202 247 290 357
#     4  11  23  39  62  92 121 155 202 243 288 356
#     4  10  21  40  62  85 120 156 192 245 300 347
#     4  10  20  38  60  86 120 156 195 244 294 350
#     4  11  22  40  64  86 119 161 194 241 302 349
#     4   9  21  40  59  87 120 150 198 248 288 352
#     4  11  21  37  61  85 119 159 196 242 297 346
#     4  10  22  40  58  84 121 156 196 244 293 349
#
# _framework density 20.991219999999998
#
# number of rings (size 3 to 8) (size 9 to 14) (size 15 to 20)
#    0.000    1.750    0.000    5.250    0.000    3.000 
#    0.000   22.500    0.000    0.000    0.000    0.000 
#    0.000    0.000    0.000    0.000    0.000    0.000 
#
# Total GULP energy -89449.535437 kJ/mol
# GULP energy per Si atom -5590.595965 kJ/mol
# Density = 2.094344 g / cm^3
# Si number density = 20.991220 Si / 1000 Ang^3
#
#
#
# Elastic Constant Matrix: (Units=GPa)
#
#
# Indices 1 2 3 4 5 6 
#
# 1 101.8218 13.2580 21.5187 -1.7944 9.3511 -5.5743
# 2 13.2580 87.3665 11.5107 -7.0344 18.9580 -22.3626
# 3 21.5187 11.5107 75.7681 -3.9430 17.3955 0.0120
# 4 -1.7944 -7.0344 -3.9430 15.4031 -6.7359 10.9909
# 5 9.3511 18.9580 17.3955 -6.7359 33.0000 0.7216
# 6 -5.5743 -22.3626 0.0120 10.9909 0.7216 41.0200
#
#
#
# Elastic Compliance Matrix: (Units=1/GPa)
#
#
# Indices 1 2 3 4 5 6 
#
# 1 0.010669 -0.000655 -0.002643 -0.001523 -0.001598 0.001530
# 2 -0.000655 0.015922 -0.000170 -0.004278 -0.009962 0.009913
# 3 -0.002643 -0.000170 0.015680 0.000868 -0.007229 -0.000562
# 4 -0.001523 -0.004278 0.000868 0.092318 0.021880 -0.027660
# 5 -0.001598 -0.009962 -0.007229 0.021880 0.045025 -0.012301
# 6 0.001530 0.009913 -0.000562 -0.027660 -0.012301 0.037618
#
#
# Mechanical properties :
#
#
# Convention : Reuss Voigt Hill
#
# Bulk Modulus (GPa) = 28.30110 39.72570 34.01340
# Shear Modulus (GPa) = 21.19132 32.46257 26.82694
#
# Velocity S-wave (km/s) = 3.18076 3.93680 3.57880
# Velocity P-wave (km/s) = 5.19628 6.29528 5.77199
#
# Compressibility (1/GPa) = 0.03533431
#
# Stress axis : x y z
#
# Youngs Moduli (GPa) = 93.73293 62.80475 63.77697
#
# Poissons Ratio (x) = 0.04115 0.16857
# Poissons Ratio (y) = 0.06141 0.01084
# Poissons Ratio (z) = 0.24774 0.01067
#
# Static dielectric constant tensor:
#      x y z
#    x 1.755840 0.007220 -0.032680 
#    y 0.007220 1.756110 -0.019490 
#    z -0.032680 -0.019490 1.779930 
# 
# From -- ./inp_files/534596.got.cif
#   From: 2010.05.17/outbox.ucp.g08.bks.cvg/sg2_268_cif.got.tgz:534596.got - 2010.06.11 11:32:03.
