data_PCOD9072516
_publ_section_title
;
Structure prediction by ZEFSAII (Michael W. Deem and Ramdas Pophale) SiO2 
 PCOD9072516
Probable space group: P -1
;
_chemical_formula_sum "Si O2"
_cell_formula_units_Z 14
_cell_length_a 15.652290
_cell_length_b 5.437968
_cell_length_c 16.188003
_cell_angle_alpha 106.701792
_cell_angle_beta 152.497350
_cell_angle_gamma 60.446711
_cell_volume 513.410958
_symmetry_space_group_name_H-M "P -1"
_symmetry_group_IT_number 2
_symmetry_cell_setting 'triclinic'
loop_
_space_group_symop_operation_xyz
x,y,z
-x,-y,-z
loop_
_atom_site_type_symbol
_atom_site_label
_atom_site_fract_x
_atom_site_fract_y
_atom_site_fract_z
Si Si1 0.513946 0.542846 0.611656
Si Si2 0.760384 0.348029 0.189342
Si Si3 0.769531 0.262879 0.948497
Si Si4 0.676902 0.855094 0.061738
Si Si5 0.851668 0.659599 0.967476
Si Si6 0.261949 0.662643 0.557841
Si Si7 0.742340 0.755616 0.358539
O O1 0.500000 0.500000 0.500000
O O2 0.604410 0.759940 0.734681
O O3 0.296448 0.642493 0.486953
O O4 0.821293 0.992367 0.452888
O O5 0.783389 0.498254 0.139815
O O6 0.817778 0.506038 0.326505
O O7 0.830098 0.994538 0.211530
O O8 0.500000 0.500000 0.000000
O O9 0.898483 0.428606 0.060189
O O10 0.707032 0.239841 0.795046
O O11 0.523378 0.479330 0.791995
O O12 0.877260 0.931011 0.042890
O O13 0.500000 0.000000 0.000000
O O14 0.519002 0.013245 0.862904
O O15 0.000000 0.500000 0.000000
O O16 0.201327 0.446757 0.531078
#
# Coordination Sequence:
#
# PCOD9072516 Si02
#       7
#     2   2   2   2   2   2   2
#     4   8  19  30  41  56  81 102 127 167 204 227
#     4   8  13  19  28  43  60  86 117 154 180 199
#     4   8  18  27  40  56  76  93 128 158 201 225
#     4   8  13  19  28  43  60  86 117 154 180 199
#     4   9  16  29  45  59  71  94 127 166 200 235
#     4   9  17  23  34  50  67  96 124 150 196 223
#     4  10  13  22  32  45  67  89 122 161 179 220
#
# _framework density 27.268602000000001
#
# number of rings (size 3 to 8) (size 9 to 14) (size 15 to 20)
#    1.714    1.714    0.000    5.571    0.000    0.571 
#    0.000    0.000    0.000    0.000    0.000    0.000 
#    0.000    0.000    0.000    0.000    0.000    0.000 
#
# Total GULP energy -78021.467543 kJ/mol
# GULP energy per Si atom -5572.961967 kJ/mol
# Density = 2.720654 g / cm^3
# Si number density = 27.268602 Si / 1000 Ang^3
#
#
#
# Elastic Constant Matrix: (Units=GPa)
#
#
# Indices 1 2 3 4 5 6 
#
# 1 95.5889 53.4179 39.8980 -11.6989 -27.2629 20.6915
# 2 53.4179 242.0137 33.3004 -11.1204 3.5859 52.5292
# 3 39.8980 33.3004 99.8324 26.9803 -9.6217 26.2260
# 4 -11.6989 -11.1204 26.9803 32.6181 4.9264 2.7288
# 5 -27.2629 3.5859 -9.6217 4.9264 32.7779 6.5659
# 6 20.6915 52.5292 26.2260 2.7288 6.5659 56.7426
#
#
#
# Elastic Compliance Matrix: (Units=1/GPa)
#
#
# Indices 1 2 3 4 5 6 
#
# 1 0.022334 -0.002446 -0.009014 0.012692 0.015106 -0.004072
# 2 -0.002446 0.005788 -0.000844 0.002500 -0.002509 -0.003906
# 3 -0.009014 -0.000844 0.021232 -0.021115 0.003018 -0.005078
# 4 0.012692 0.002500 -0.021115 0.054101 -0.004186 0.000699
# 5 0.015106 -0.002509 0.003018 -0.004186 0.046825 -0.009797
# 6 -0.004072 -0.003906 -0.005078 0.000699 -0.009797 0.026171
#
#
# Mechanical properties :
#
#
# Convention : Reuss Voigt Hill
#
# Bulk Modulus (GPa) = 40.41361 76.74083 58.57722
# Shear Modulus (GPa) = 23.88810 45.14897 34.51854
#
# Velocity S-wave (km/s) = 2.96299 4.07346 3.56177
# Velocity P-wave (km/s) = 5.15349 7.09421 6.20025
#
# Compressibility (1/GPa) = 0.02474414
#
# Stress axis : x y z
#
# Youngs Moduli (GPa) = 44.77487 172.77388 47.09798
#
# Poissons Ratio (x) = 0.42263 0.42456
# Poissons Ratio (y) = 0.10953 0.03977
# Poissons Ratio (z) = 0.40362 0.14591
#
# Static dielectric constant tensor:
#      x y z
#    x 2.239350 -0.024510 0.034590 
#    y -0.024510 2.310570 -0.033030 
#    z 0.034590 -0.033030 2.439390 
# 
# From -- ./inp_files/536378.got.cif
#   From: 2010.05.17/outbox.cif.g08.bks.cpg/sg2_269_cif.got.tgz:536378.got - 2010.06.03 11:33:40.
