data_PCOD9072134
_publ_section_title
;
Structure prediction by ZEFSAII (Michael W. Deem and Ramdas Pophale) SiO2 
 PCOD9072134
Probable space group: P -1
;
_chemical_formula_sum "Si O2"
_cell_formula_units_Z 14
_cell_length_a 9.000000
_cell_length_b 12.000000
_cell_length_c 12.000000
_cell_angle_alpha 40.000000
_cell_angle_beta 70.000000
_cell_angle_gamma 60.000000
_cell_volume 719.485186
_symmetry_space_group_name_H-M "P -1"
_symmetry_group_IT_number 2
_symmetry_cell_setting 'triclinic'
loop_
_space_group_symop_operation_xyz
x,y,z
-x,-y,-z
loop_
_atom_site_type_symbol
_atom_site_label
_atom_site_fract_x
_atom_site_fract_y
_atom_site_fract_z
Si Si1 0.897095 0.323513 0.577779
Si Si2 0.059571 0.992890 0.361281
Si Si3 0.569322 0.706616 0.746890
Si Si4 0.565947 0.057925 0.620192
Si Si5 0.767699 0.759166 0.286726
Si Si6 0.799368 0.103776 0.949597
Si Si7 0.233746 0.708008 0.948351
O O1 0.940188 0.193037 0.558036
O O2 0.807126 0.545565 0.403793
O O3 0.778697 0.252980 0.742803
O O4 0.074712 0.275598 0.638787
O O5 0.256233 0.969638 0.343882
O O6 0.000000 0.000000 0.500000
O O7 0.934415 0.163223 0.180687
O O8 0.512174 0.787968 0.576184
O O9 0.397344 0.687717 0.848449
O O10 0.594995 0.862291 0.699839
O O11 0.734288 0.507913 0.863678
O O12 0.412342 0.135201 0.687681
O O13 0.758359 0.920223 0.076257
O O14 0.739948 0.200123 0.011756
O O15 0.000000 0.000000 0.000000
#
# Coordination Sequence:
#
# PCOD9072134 Si02
#       7
#     2   2   2   2   2   2   2
#     4  10  22  40  67  91 124 167 213 256 314 370
#     4  12  24  41  61  93 136 164 193 269 330 369
#     4  10  22  37  66  90 118 170 214 254 298 386
#     4  11  22  39  62  93 128 163 208 261 316 370
#     4  10  20  39  66  94 114 167 221 255 297 379
#     4  10  18  37  65  88 120 159 216 257 295 368
#     4  11  20  41  64  90 123 162 216 255 310 371
#
# _framework density 19.458358
#
# number of rings (size 3 to 8) (size 9 to 14) (size 15 to 20)
#    0.000    1.429    5.714    0.857    2.000    1.143 
#    0.000    2.143    0.000    0.000    0.000    0.000 
#    0.000    0.000    0.000    0.000    0.000    0.000 
#
# Total GULP energy -77957.321459 kJ/mol
# GULP energy per Si atom -5568.380104 kJ/mol
# Density = 1.941407 g / cm^3
# Si number density = 19.458358 Si / 1000 Ang^3
#
#
#
# Elastic Constant Matrix: (Units=GPa)
#
#
# Indices 1 2 3 4 5 6 
#
# 1 58.1957 17.8748 39.8034 -4.5658 5.9127 5.0593
# 2 17.8748 89.1161 65.6634 -22.6769 2.2623 9.0535
# 3 39.8034 65.6634 114.2816 -36.1237 1.0127 2.9409
# 4 -4.5658 -22.6769 -36.1237 25.8304 0.4013 -6.5449
# 5 5.9127 2.2623 1.0127 0.4013 23.2681 4.4717
# 6 5.0593 9.0535 2.9409 -6.5449 4.4717 29.6380
#
#
#
# Elastic Compliance Matrix: (Units=1/GPa)
#
#
# Indices 1 2 3 4 5 6 
#
# 1 0.027290 0.003179 -0.016563 -0.017263 -0.004867 -0.007064
# 2 0.003179 0.020566 -0.013134 -0.001153 -0.001139 -0.005605
# 3 -0.016563 -0.013134 0.032376 0.033539 0.001419 0.010819
# 4 -0.017263 -0.001153 0.033539 0.086505 -0.002182 0.019403
# 5 -0.004867 -0.001139 0.001419 -0.002182 0.045514 -0.006311
# 6 -0.007064 -0.005605 0.010819 0.019403 -0.006311 0.040822
#
#
# Mechanical properties :
#
#
# Convention : Reuss Voigt Hill
#
# Bulk Modulus (GPa) = 36.77150 56.47517 46.62334
# Shear Modulus (GPa) = 15.86424 24.96408 20.41416
#
# Velocity S-wave (km/s) = 2.85843 3.58571 3.24253
# Velocity P-wave (km/s) = 5.46193 6.79925 6.16695
#
# Compressibility (1/GPa) = 0.02719497
#
# Stress axis : x y z
#
# Youngs Moduli (GPa) = 36.64377 48.62341 30.88689
#
# Poissons Ratio (x) = -0.15456 0.51158
# Poissons Ratio (y) = -0.11648 0.40568
# Poissons Ratio (z) = 0.60694 0.63863
#
# Static dielectric constant tensor:
#      x y z
#    x 1.646400 -0.048220 -0.090040 
#    y -0.048220 1.604320 -0.030390 
#    z -0.090040 -0.030390 1.784180 
# 
# From -- ./inp_files/240226.got.cif
#   From: 2010.05.17/outbox.ucp.g08.bks.cvg/sg2_121_cif.got.tgz:240226.got - 2010.06.11 11:32:03.
