data_PCOD9072846
_publ_section_title
;
Structure prediction by ZEFSAII (Michael W. Deem and Ramdas Pophale) SiO2 
 PCOD9072846
Probable space group: P -1
;
_chemical_formula_sum "Si O2"
_cell_formula_units_Z 16
_cell_length_a 12.000000
_cell_length_b 9.000000
_cell_length_c 15.000000
_cell_angle_alpha 60.000000
_cell_angle_beta 120.000000
_cell_angle_gamma 70.000000
_cell_volume 745.925389
_symmetry_space_group_name_H-M "P -1"
_symmetry_group_IT_number 2
_symmetry_cell_setting 'triclinic'
loop_
_space_group_symop_operation_xyz
x,y,z
-x,-y,-z
loop_
_atom_site_type_symbol
_atom_site_label
_atom_site_fract_x
_atom_site_fract_y
_atom_site_fract_z
Si Si1 0.500814 0.309538 0.512535
Si Si2 0.075698 0.546925 0.267487
Si Si3 0.251338 0.902047 0.905353
Si Si4 0.734756 0.923123 0.883953
Si Si5 0.928008 0.158267 0.560106
Si Si6 0.022804 0.241467 0.401618
Si Si7 0.516190 0.453299 0.725295
Si Si8 0.562907 0.835966 0.982772
O O1 0.500000 0.500000 0.500000
O O2 0.273401 0.462024 0.378863
O O3 0.532559 0.322230 0.416514
O O4 0.661802 0.023077 0.721729
O O5 0.136053 0.296506 0.403771
O O6 0.891053 0.817588 0.176328
O O7 0.971205 0.637852 0.099728
O O8 0.083785 0.971105 0.760727
O O9 0.392857 0.863052 0.905147
O O10 0.402688 0.636914 0.112965
O O11 0.597523 0.927390 0.885079
O O12 0.695722 0.156017 0.836651
O O13 0.689087 0.449258 0.401106
O O14 0.012426 0.214185 0.510487
O O15 0.898575 0.014280 0.536035
O O16 0.787164 0.516018 0.188956
O O17 0.500000 0.000000 0.000000
#
# Coordination Sequence:
#
# PCOD9072846 Si02
#       8
#     2   2   2   2   2   2   2   2
#     4  10  21  35  57  86 117 150 191 238 281 335
#     4  10  21  37  58  88 112 149 192 239 282 328
#     4  11  21  33  63  87 110 155 186 235 289 338
#     4   9  19  33  56  87 116 150 182 242 286 330
#     4  11  23  38  56  87 118 155 186 232 289 344
#     4  10  22  40  56  83 127 146 185 240 284 346
#     4  10  20  38  54  80 122 148 189 235 279 341
#     4  11  17  36  59  87 122 142 185 242 287 334
#
# _framework density 21.449866
#
# number of rings (size 3 to 8) (size 9 to 14) (size 15 to 20)
#    0.000    1.750    5.000    1.500    1.750    6.500 
#    0.000    0.625    0.000    3.750    0.000    0.000 
#    0.000    0.000    0.000    0.000    0.000    0.000 
#
# Total GULP energy -89166.256823 kJ/mol
# GULP energy per Si atom -5572.891051 kJ/mol
# Density = 2.140105 g / cm^3
# Si number density = 21.449866 Si / 1000 Ang^3
#
#
#
# Elastic Constant Matrix: (Units=GPa)
#
#
# Indices 1 2 3 4 5 6 
#
# 1 123.3350 15.5290 69.0228 23.5436 -17.8090 13.3522
# 2 15.5290 6.6995 8.8803 4.8909 -4.1810 2.8208
# 3 69.0228 8.8803 125.4524 38.4567 -20.3314 -0.2780
# 4 23.5436 4.8909 38.4567 30.8808 -1.1684 -0.9558
# 5 -17.8090 -4.1810 -20.3314 -1.1684 50.6822 8.8584
# 6 13.3522 2.8208 -0.2780 -0.9558 8.8584 12.4128
#
#
#
# Elastic Compliance Matrix: (Units=1/GPa)
#
#
# Indices 1 2 3 4 5 6 
#
# 1 0.017421 -0.018953 -0.006810 -0.002178 0.004975 -0.018303
# 2 -0.018953 0.249524 0.007811 -0.035586 0.026316 -0.057663
# 3 -0.006810 0.007811 0.017177 -0.017223 0.004501 0.001397
# 4 -0.002178 -0.035586 -0.017223 0.061372 -0.013455 0.024371
# 5 0.004975 0.026316 0.004501 -0.013455 0.031178 -0.034517
# 6 -0.018303 -0.057663 0.001397 0.024371 -0.034517 0.139895
#
#
# Mechanical properties :
#
#
# Convention : Reuss Voigt Hill
#
# Bulk Modulus (GPa) = 4.02872 49.15012 26.58942
# Shear Modulus (GPa) = 7.87140 29.59881 18.73511
#
# Velocity S-wave (km/s) = 1.91772 3.71874 2.95860
# Velocity P-wave (km/s) = 2.60496 6.43447 4.90857
#
# Compressibility (1/GPa) = 0.24821772
#
# Stress axis : x y z
#
# Youngs Moduli (GPa) = 57.40199 4.00763 58.21700
#
# Poissons Ratio (x) = 0.07596 0.39646
# Poissons Ratio (y) = 1.08794 -0.45472
# Poissons Ratio (z) = 0.39091 -0.03130
#
# Static dielectric constant tensor:
#      x y z
#    x 1.844190 -0.045060 0.009800 
#    y -0.045060 1.857040 -0.017680 
#    z 0.009800 -0.017680 1.799340 
# 
# From -- ./inp_files/345375.got.cif
#   From: 2010.05.17/outbox.ucp.g08.bks.cvg/sg2_173_cif.got.tgz:345375.got - 2010.06.11 11:32:03.
