data_PCOD9072691
_publ_section_title
;
Structure prediction by ZEFSAII (Michael W. Deem and Ramdas Pophale) SiO2 
 PCOD9072691
Probable space group: P -1
;
_chemical_formula_sum "Si O2"
_cell_formula_units_Z 16
_cell_length_a 21.130939
_cell_length_b 14.281484
_cell_length_c 14.325514
_cell_angle_alpha 159.473296
_cell_angle_beta 51.224707
_cell_angle_gamma 138.289360
_cell_volume 958.197534
_symmetry_space_group_name_H-M "P -1"
_symmetry_group_IT_number 2
_symmetry_cell_setting 'triclinic'
loop_
_space_group_symop_operation_xyz
x,y,z
-x,-y,-z
loop_
_atom_site_type_symbol
_atom_site_label
_atom_site_fract_x
_atom_site_fract_y
_atom_site_fract_z
Si Si1 0.810098 0.738600 0.735648
Si Si2 0.920777 0.612320 0.741066
Si Si3 0.500255 0.609590 0.827892
Si Si4 0.637633 0.396012 0.427300
Si Si5 0.076842 0.562294 0.629303
Si Si6 0.410487 0.310048 0.831372
Si Si7 0.431329 0.606821 0.700281
Si Si8 0.283497 0.542394 0.239184
O O1 0.738822 0.596099 0.579536
O O2 0.900123 0.696170 0.603587
O O3 0.745216 0.532808 0.694925
O O4 0.852903 0.109550 0.069395
O O5 0.898190 0.398910 0.468621
O O6 0.818070 0.557820 0.811336
O O7 0.969820 0.505530 0.670418
O O8 0.000000 0.000000 0.000000
O O9 0.560579 0.460634 0.603673
O O10 0.451328 0.480062 0.852376
O O11 0.417180 0.516127 0.737674
O O12 0.582099 0.004529 0.120238
O O13 0.651356 0.502134 0.404512
O O14 0.367401 0.929084 0.510116
O O15 0.500000 0.500000 0.000000
O O16 0.324197 0.342386 0.977004
O O17 0.500000 0.500000 0.500000
O O18 0.500000 0.000000 0.000000
#
# Coordination Sequence:
#
# PCOD9072691 Si02
#       8
#     2   2   2   2   2   2   2   2
#     4  11  19  30  45  71  98 122 154 192 244 289
#     4  10  19  34  51  67  93 124 165 202 248 275
#     4  10  19  33  47  64  96 130 164 204 226 267
#     4  10  18  31  50  69  93 125 159 197 247 287
#     4  10  19  29  47  68  94 122 146 195 248 289
#     4  12  23  34  45  67 100 136 170 187 218 271
#     4   8  16  29  48  68  85 118 161 200 245 277
#     4  11  22  32  49  67  92 133 165 191 227 280
#
# _framework density 16.698018000000001
#
# number of rings (size 3 to 8) (size 9 to 14) (size 15 to 20)
#    0.000    1.750    2.500    4.875    1.750    0.000 
#    0.000    0.000    0.000    0.000    0.000    0.000 
#    0.000    6.000    0.000    0.000    0.000    0.000 
#
# Total GULP energy -89155.176578 kJ/mol
# GULP energy per Si atom -5572.198536 kJ/mol
# Density = 1.666001 g / cm^3
# Si number density = 16.698018 Si / 1000 Ang^3
#
#
#
# Elastic Constant Matrix: (Units=GPa)
#
#
# Indices 1 2 3 4 5 6 
#
# 1 86.1880 24.8164 -6.5381 -18.9784 17.5480 -8.6534
# 2 24.8164 32.4661 -2.8807 -6.3137 5.8413 -5.7891
# 3 -6.5381 -2.8807 67.7811 -7.3702 -2.1175 -5.6276
# 4 -18.9784 -6.3137 -7.3702 16.1561 1.9432 -0.5606
# 5 17.5480 5.8413 -2.1175 1.9432 33.0153 -6.3415
# 6 -8.6534 -5.7891 -5.6276 -0.5606 -6.3415 26.8882
#
#
#
# Elastic Compliance Matrix: (Units=1/GPa)
#
#
# Indices 1 2 3 4 5 6 
#
# 1 0.023520 -0.009309 0.004911 0.027747 -0.011307 0.004505
# 2 -0.009309 0.040597 0.001955 0.006189 -0.001327 0.005970
# 3 0.004911 0.001955 0.017332 0.014830 -0.001652 0.005548
# 4 0.027747 0.006189 0.014830 0.106347 -0.019019 0.011098
# 5 -0.011307 -0.001327 -0.001652 -0.019019 0.038390 0.004387
# 6 0.004505 0.005970 0.005548 0.011098 0.004387 0.042354
#
#
# Mechanical properties :
#
#
# Convention : Reuss Voigt Hill
#
# Bulk Modulus (GPa) = 13.06129 24.13670 18.59900
# Shear Modulus (GPa) = 16.72550 26.61442 21.66996
#
# Velocity S-wave (km/s) = 3.16831 3.99666 3.60635
# Velocity P-wave (km/s) = 4.60688 5.98197 5.33888
#
# Compressibility (1/GPa) = 0.07656209
#
# Stress axis : x y z
#
# Youngs Moduli (GPa) = 42.51790 24.63247 57.69741
#
# Poissons Ratio (x) = 0.22929 -0.28335
# Poissons Ratio (y) = 0.39578 -0.11278
# Poissons Ratio (z) = -0.20880 -0.04815
#
# Static dielectric constant tensor:
#      x y z
#    x 1.621800 0.010060 -0.001220 
#    y 0.010060 1.542300 -0.011610 
#    z -0.001220 -0.011610 1.582790 
# 
# From -- ./inp_files/483316.got.cif
#   From: 2010.05.17/outbox.cif.g08.bks.cpg/sg2_242_cif.got.tgz:483316.got - 2010.06.03 11:33:40.
