data_PCOD9072485
_publ_section_title
;
Structure prediction by ZEFSAII (Michael W. Deem and Ramdas Pophale) SiO2 
 PCOD9072485
Probable space group: P -1
;
_chemical_formula_sum "Si O2"
_cell_formula_units_Z 16
_cell_length_a 9.000000
_cell_length_b 24.000000
_cell_length_c 6.000000
_cell_angle_alpha 130.000000
_cell_angle_beta 110.000000
_cell_angle_gamma 50.000000
_cell_volume 754.912344
_symmetry_space_group_name_H-M "P -1"
_symmetry_group_IT_number 2
_symmetry_cell_setting 'triclinic'
loop_
_space_group_symop_operation_xyz
x,y,z
-x,-y,-z
loop_
_atom_site_type_symbol
_atom_site_label
_atom_site_fract_x
_atom_site_fract_y
_atom_site_fract_z
Si Si1 0.026954 0.094834 0.426916
Si Si2 0.847412 0.635251 0.776654
Si Si3 0.934868 0.758859 0.378349
Si Si4 0.350988 0.766237 0.143432
Si Si5 0.699282 0.113583 0.981598
Si Si6 0.701935 0.526723 0.352028
Si Si7 0.368899 0.617204 0.041860
Si Si8 0.671623 0.760839 0.606181
O O1 0.105236 0.149704 0.503741
O O2 0.874475 0.153844 0.697195
O O3 0.196348 0.990563 0.307463
O O4 0.872496 0.101791 0.189453
O O5 0.705870 0.604556 0.677129
O O6 0.798338 0.668348 0.578412
O O7 0.063788 0.550686 0.749401
O O8 0.837022 0.718426 0.089509
O O9 0.829573 0.771652 0.595695
O O10 0.171613 0.684179 0.266887
O O11 0.359354 0.806441 0.015950
O O12 0.362418 0.677772 0.994459
O O13 0.524446 0.756918 0.354333
O O14 0.495359 0.154092 0.111499
O O15 0.561524 0.573847 0.184920
O O16 0.636689 0.465389 0.255175
#
# Coordination Sequence:
#
# PCOD9072485 Si02
#       8
#     2   2   2   2   2   2   2   2
#     4   9  21  39  61  95 123 155 209 259 297 364
#     4  10  20  38  62  88 126 166 197 249 318 363
#     4  10  22  38  61  90 127 162 200 253 306 363
#     4  10  19  37  65  91 122 162 202 253 309 362
#     4  10  21  39  65  89 122 165 204 250 311 363
#     4   9  18  36  65  90 124 155 208 259 302 365
#     4   9  18  37  64  95 124 155 207 262 298 356
#     4  11  22  38  58  87 124 168 204 244 305 372
#
# _framework density 21.194514000000002
#
# number of rings (size 3 to 8) (size 9 to 14) (size 15 to 20)
#    0.000    2.250    1.250    1.125    0.000    3.500 
#    0.000    8.750    5.500    0.000    0.000    0.000 
#    0.000    0.000    0.000    0.000    0.000    0.000 
#
# Total GULP energy -89080.380890 kJ/mol
# GULP energy per Si atom -5567.523806 kJ/mol
# Density = 2.114627 g / cm^3
# Si number density = 21.194514 Si / 1000 Ang^3
#
#
#
# Elastic Constant Matrix: (Units=GPa)
#
#
# Indices 1 2 3 4 5 6 
#
# 1 153.6737 41.3018 32.8017 11.1283 -5.3248 12.5490
# 2 41.3018 134.2394 19.2322 13.6570 -0.9930 1.8139
# 3 32.8017 19.2322 35.1606 14.1730 11.9701 5.7701
# 4 11.1283 13.6570 14.1730 28.7790 8.9118 14.2944
# 5 -5.3248 -0.9930 11.9701 8.9118 36.4833 -3.1727
# 6 12.5490 1.8139 5.7701 14.2944 -3.1727 40.9484
#
#
#
# Elastic Compliance Matrix: (Units=1/GPa)
#
#
# Indices 1 2 3 4 5 6 
#
# 1 0.009049 -0.001559 -0.009179 0.001371 0.003817 -0.001593
# 2 -0.001559 0.008699 -0.002803 -0.003735 0.002010 0.001947
# 3 -0.009179 -0.002803 0.049370 -0.015254 -0.013868 0.000231
# 4 0.001371 -0.003735 -0.015254 0.055746 -0.010109 -0.018348
# 5 0.003817 0.002010 -0.013868 -0.010109 0.035648 0.006987
# 6 -0.001593 0.001947 0.000231 -0.018348 0.006987 0.031737
#
#
# Mechanical properties :
#
#
# Convention : Reuss Voigt Hill
#
# Bulk Modulus (GPa) = 24.97763 56.63835 40.80799
# Shear Modulus (GPa) = 21.67549 36.55802 29.11676
#
# Velocity S-wave (km/s) = 3.20143 4.15767 3.71048
# Velocity P-wave (km/s) = 5.04738 7.05900 6.13618
#
# Compressibility (1/GPa) = 0.04003582
#
# Stress axis : x y z
#
# Youngs Moduli (GPa) = 110.51388 114.95646 20.25539
#
# Poissons Ratio (x) = 0.17917 0.18593
# Poissons Ratio (y) = 0.17225 0.05677
# Poissons Ratio (z) = 1.01446 0.32217
#
# Static dielectric constant tensor:
#      x y z
#    x 1.766380 0.008250 -0.045690 
#    y 0.008250 1.743510 0.003770 
#    z -0.045690 0.003770 1.892160 
# 
# From -- ./inp_files/55750.got.cif
#   From: 2010.05.17/outbox.ucp.g08.bks.cvg/sg2_28_cif.got.tgz:55750.got - 2010.06.11 11:32:03.
