data_PCOD9072768
_publ_section_title
;
Structure prediction by ZEFSAII (Michael W. Deem and Ramdas Pophale) SiO2 
 PCOD9072768
Probable space group: P -1
;
_chemical_formula_sum "Si O2"
_cell_formula_units_Z 16
_cell_length_a 9.000000
_cell_length_b 12.000000
_cell_length_c 27.000000
_cell_angle_alpha 30.000000
_cell_angle_beta 30.000000
_cell_angle_gamma 40.000000
_cell_volume 727.497153
_symmetry_space_group_name_H-M "P -1"
_symmetry_group_IT_number 2
_symmetry_cell_setting 'triclinic'
loop_
_space_group_symop_operation_xyz
x,y,z
-x,-y,-z
loop_
_atom_site_type_symbol
_atom_site_label
_atom_site_fract_x
_atom_site_fract_y
_atom_site_fract_z
Si Si1 0.782872 0.840760 0.429532
Si Si2 0.238196 0.717315 0.692657
Si Si3 0.701283 0.859770 0.198294
Si Si4 0.621449 0.995433 0.056971
Si Si5 0.395351 0.325099 0.137387
Si Si6 0.660567 0.546209 0.063979
Si Si7 0.662641 0.405323 0.758319
Si Si8 0.211160 0.548627 0.493200
O O1 0.446335 0.830862 0.549582
O O2 0.783012 0.702063 0.433198
O O3 0.007802 0.705399 0.454130
O O4 0.865466 0.093737 0.310225
O O5 0.448186 0.542589 0.728729
O O6 0.959324 0.633283 0.776834
O O7 0.535542 0.655748 0.351939
O O8 0.673057 0.861160 0.145695
O O9 0.493977 0.075894 0.189791
O O10 0.046098 0.922381 0.085665
O O11 0.427647 0.844484 0.134799
O O12 0.418096 0.224345 0.031301
O O13 0.553719 0.360703 0.129595
O O14 0.500000 0.500000 0.000000
O O15 0.458942 0.556189 0.166842
O O16 0.000000 0.500000 0.000000
O O17 0.989374 0.507206 0.619463
#
# Coordination Sequence:
#
# PCOD9072768 Si02
#       8
#     2   2   2   2   2   2   2   2
#     4   9  18  34  62  94 131 171 216 274 318 390
#     4  10  20  36  64  98 128 169 225 270 325 380
#     4  11  22  40  69 107 128 170 226 290 325 378
#     4  11  24  42  70  96 135 171 232 277 327 397
#     4  12  23  39  65  96 128 169 224 277 322 380
#     4  12  27  45  67  96 137 179 222 273 337 407
#     4  11  25  42  65 100 136 180 218 269 343 413
#     4  10  20  36  63  98 137 172 219 273 342 395
#
# _framework density 21.993213000000001
#
# number of rings (size 3 to 8) (size 9 to 14) (size 15 to 20)
#    0.000    1.250    2.500    4.875    3.500    0.000 
#    0.000    1.250    0.000    0.000    0.000    0.000 
#    0.000    0.000    0.000    0.000    0.000    0.000 
#
# Total GULP energy -89183.972626 kJ/mol
# GULP energy per Si atom -5573.998289 kJ/mol
# Density = 2.194316 g / cm^3
# Si number density = 21.993213 Si / 1000 Ang^3
#
#
#
# Elastic Constant Matrix: (Units=GPa)
#
#
# Indices 1 2 3 4 5 6 
#
# 1 67.1915 9.0121 38.5697 15.2175 -17.5209 5.3460
# 2 9.0121 60.5732 20.0836 1.8220 -4.4162 2.0959
# 3 38.5697 20.0836 130.3552 29.7963 -17.9093 6.8905
# 4 15.2175 1.8220 29.7963 33.0306 1.0190 -4.3864
# 5 -17.5209 -4.4162 -17.9093 1.0190 25.7066 6.9469
# 6 5.3460 2.0959 6.8905 -4.3864 6.9469 38.5312
#
#
#
# Elastic Compliance Matrix: (Units=1/GPa)
#
#
# Indices 1 2 3 4 5 6 
#
# 1 0.023389 -0.001148 -0.001556 -0.010791 0.017035 -0.007204
# 2 -0.001148 0.017567 -0.002803 0.002068 0.000228 -0.000101
# 3 -0.001556 -0.002803 0.012695 -0.011504 0.009068 -0.004847
# 4 -0.010791 0.002068 -0.011504 0.047802 -0.020299 0.012544
# 5 0.017035 0.000228 0.009068 -0.020299 0.062419 -0.017562
# 6 -0.007204 -0.000101 -0.004847 0.012544 -0.017562 0.032419
#
#
# Mechanical properties :
#
#
# Convention : Reuss Voigt Hill
#
# Bulk Modulus (GPa) = 23.45345 43.71674 33.58509
# Shear Modulus (GPa) = 22.57167 32.15065 27.36116
#
# Velocity S-wave (km/s) = 3.20707 3.82756 3.53097
# Velocity P-wave (km/s) = 4.93972 6.28125 5.65044
#
# Compressibility (1/GPa) = 0.04263766
#
# Stress axis : x y z
#
# Youngs Moduli (GPa) = 42.75517 56.92499 78.77031
#
# Poissons Ratio (x) = 0.06536 0.12254
# Poissons Ratio (y) = 0.04909 0.22078
# Poissons Ratio (z) = 0.06651 0.15955
#
# Static dielectric constant tensor:
#      x y z
#    x 1.803750 0.073490 -0.015840 
#    y 0.073490 1.924770 0.004730 
#    z -0.015840 0.004730 1.871390 
# 
# From -- ./inp_files/508086.got.cif
#   From: 2010.05.17/outbox.ucp.g08.bks.cvg/sg2_255_cif.got.tgz:508086.got - 2010.06.11 11:32:03.
