data_PCOD9072321
_publ_section_title
;
Structure prediction by ZEFSAII (Michael W. Deem and Ramdas Pophale) SiO2 
 PCOD9072321
Probable space group: P -1
;
_chemical_formula_sum "Si O2"
_cell_formula_units_Z 12
_cell_length_a 18.000000
_cell_length_b 12.000000
_cell_length_c 9.000000
_cell_angle_alpha 140.000000
_cell_angle_beta 30.000000
_cell_angle_gamma 140.000000
_cell_volume 592.077935
_symmetry_space_group_name_H-M "P -1"
_symmetry_group_IT_number 2
_symmetry_cell_setting 'triclinic'
loop_
_space_group_symop_operation_xyz
x,y,z
-x,-y,-z
loop_
_atom_site_type_symbol
_atom_site_label
_atom_site_fract_x
_atom_site_fract_y
_atom_site_fract_z
Si Si1 0.777743 0.369414 0.943151
Si Si2 0.955115 0.010174 0.762820
Si Si3 0.481358 0.099291 0.285183
Si Si4 0.789351 0.753873 0.219991
Si Si5 0.880118 0.627497 0.631075
Si Si6 0.739687 0.223405 0.515214
O O1 0.772273 0.278686 0.693249
O O2 0.954846 0.402996 0.721614
O O3 0.653242 0.245179 0.147919
O O4 0.737079 0.558194 0.192592
O O5 0.110984 0.088730 0.678963
O O6 0.864240 0.797361 0.739429
O O7 0.854344 0.138207 0.133215
O O8 0.000000 0.000000 0.500000
O O9 0.348894 0.192359 0.567458
O O10 0.419518 0.948293 0.366311
O O11 0.500000 0.000000 0.000000
O O12 0.889400 0.707655 0.864884
O O13 0.753110 0.424593 0.633887
#
# Coordination Sequence:
#
# PCOD9072321 Si02
#       6
#     2   2   2   2   2   2
#     4  10  19  34  62  94 111 148 187 248 290 331
#     4  12  23  35  58  87 117 154 193 237 283 336
#     4  10  20  32  59  91 121 141 186 246 295 331
#     4  11  19  37  60  88 116 150 195 242 278 343
#     4  11  20  37  65  83 113 150 194 247 282 326
#     4  10  19  37  54  87 115 145 193 233 284 334
#
# _framework density 20.267602
#
# number of rings (size 3 to 8) (size 9 to 14) (size 15 to 20)
#    0.000    1.333    5.000    4.000    0.000    0.667 
#    0.000    0.000    0.000   10.000    0.000    0.000 
#    0.000    0.000    0.000    0.000    0.000    0.000 
#
# Total GULP energy -66808.423958 kJ/mol
# GULP energy per Si atom -5567.368663 kJ/mol
# Density = 2.022147 g / cm^3
# Si number density = 20.267602 Si / 1000 Ang^3
#
#
#
# Elastic Constant Matrix: (Units=GPa)
#
#
# Indices 1 2 3 4 5 6 
#
# 1 18.8295 19.7510 13.5369 -2.1537 14.5994 -7.2302
# 2 19.7510 157.3598 54.7007 2.7793 8.4268 -29.2408
# 3 13.5369 54.7007 92.0143 3.7838 5.0744 -3.3234
# 4 -2.1537 2.7793 3.7838 40.8753 -3.3322 -4.3869
# 5 14.5994 8.4268 5.0744 -3.3322 26.9499 -3.8588
# 6 -7.2302 -29.2408 -3.3234 -4.3869 -3.8588 18.1366
#
#
#
# Elastic Compliance Matrix: (Units=1/GPa)
#
#
# Indices 1 2 3 4 5 6 
#
# 1 0.122420 -0.001841 -0.012813 0.006565 -0.057825 0.032772
# 2 -0.001841 0.012123 -0.006415 0.001741 0.001254 0.018324
# 3 -0.012813 -0.006415 0.016022 -0.002737 0.003821 -0.012364
# 4 0.006565 0.001741 -0.002737 0.026294 0.001322 0.011564
# 5 -0.057825 0.001254 0.003821 0.001322 0.066648 -0.005831
# 6 0.032772 0.018324 -0.012364 0.011564 -0.005831 0.097035
#
#
# Mechanical properties :
#
#
# Convention : Reuss Voigt Hill
#
# Bulk Modulus (GPa) = 9.22281 49.35344 29.28813
# Shear Modulus (GPa) = 11.93821 29.20669 20.57245
#
# Velocity S-wave (km/s) = 2.42963 3.80024 3.18943
# Velocity P-wave (km/s) = 3.52579 6.60754 5.29579
#
# Compressibility (1/GPa) = 0.10842680
#
# Stress axis : x y z
#
# Youngs Moduli (GPa) = 8.16858 82.48827 62.41545
#
# Poissons Ratio (x) = 0.15188 0.79972
# Poissons Ratio (y) = 0.01504 0.40039
# Poissons Ratio (z) = 0.10466 0.52915
#
# Static dielectric constant tensor:
#      x y z
#    x 1.723850 -0.021480 -0.033090 
#    y -0.021480 1.821200 -0.035570 
#    z -0.033090 -0.035570 1.750100 
# 
# From -- ./inp_files/150805.got.cif
#   From: 2010.05.17/outbox.ucp.g08.bks.cvg/sg2_76_cif.got.tgz:150805.got - 2010.06.11 11:32:03.
