data_PCOD9072968
_publ_section_title
;
Structure prediction by ZEFSAII (Michael W. Deem and Ramdas Pophale) SiO2 
 PCOD9072968
Probable space group: P -1
;
_chemical_formula_sum "Si O2"
_cell_formula_units_Z 16
_cell_length_a 14.567863
_cell_length_b 8.009878
_cell_length_c 10.209269
_cell_angle_alpha 42.212702
_cell_angle_beta 75.464563
_cell_angle_gamma 54.565121
_cell_volume 616.536082
_symmetry_space_group_name_H-M "P -1"
_symmetry_group_IT_number 2
_symmetry_cell_setting 'triclinic'
loop_
_space_group_symop_operation_xyz
x,y,z
-x,-y,-z
loop_
_atom_site_type_symbol
_atom_site_label
_atom_site_fract_x
_atom_site_fract_y
_atom_site_fract_z
Si Si1 0.794740 0.799721 0.040634
Si Si2 0.215061 0.590570 0.509347
Si Si3 0.438883 0.914397 0.178088
Si Si4 0.003159 0.198624 0.266241
Si Si5 0.132074 0.953858 0.772679
Si Si6 0.301526 0.565667 0.139740
Si Si7 0.106680 0.508026 0.348523
Si Si8 0.532798 0.693451 0.540831
O O1 0.773489 0.589952 0.261560
O O2 0.937449 0.557118 0.113808
O O3 0.700915 0.893124 0.907294
O O4 0.749871 0.116232 0.944942
O O5 0.140843 0.538908 0.465934
O O6 0.341761 0.437704 0.493439
O O7 0.142249 0.962846 0.323893
O O8 0.450590 0.952839 0.307252
O O9 0.493577 0.556749 0.326953
O O10 0.500000 0.000000 0.000000
O O11 0.921613 0.206836 0.178427
O O12 0.000000 0.000000 0.500000
O O13 0.125758 0.183325 0.533624
O O14 0.032355 0.192639 0.779745
O O15 0.265651 0.709971 0.922271
O O16 0.206961 0.491361 0.239747
O O17 0.430379 0.322985 0.308055
#
# Coordination Sequence:
#
# PCOD9072968 Si02
#       8
#     2   2   2   2   2   2   2   2
#     4  10  18  32  53  79 106 141 172 213 266 311
#     4   9  15  32  49  75 107 136 169 215 254 309
#     4  10  18  31  52  76 108 132 172 221 268 303
#     4   9  20  33  53  76 112 146 169 203 266 321
#     4  10  18  33  51  70 102 144 174 213 255 305
#     4  10  19  31  53  76 101 132 182 218 255 307
#     4   9  18  29  51  74 100 133 183 218 247 294
#     4   9  19  30  50  82 102 132 175 223 261 302
#
# _framework density 25.951440999999999
#
# number of rings (size 3 to 8) (size 9 to 14) (size 15 to 20)
#    0.000    2.500    2.500    0.375    1.750    0.000 
#    0.000   10.000    8.250    0.750    0.000   12.250 
#    0.000    0.000    0.000    0.000    0.000    0.000 
#
# Total GULP energy -89249.089990 kJ/mol
# GULP energy per Si atom -5578.068124 kJ/mol
# Density = 2.589237 g / cm^3
# Si number density = 25.951441 Si / 1000 Ang^3
#
#
#
# Elastic Constant Matrix: (Units=GPa)
#
#
# Indices 1 2 3 4 5 6 
#
# 1 96.6806 10.3699 34.4086 7.2667 1.6856 14.8488
# 2 10.3699 33.0062 2.4416 12.4762 7.8249 19.9768
# 3 34.4086 2.4416 127.3288 2.0717 20.0245 13.3248
# 4 7.2667 12.4762 2.0717 31.5836 7.5475 10.0971
# 5 1.6856 7.8249 20.0245 7.5475 61.5026 3.5629
# 6 14.8488 19.9768 13.3248 10.0971 3.5629 23.3190
#
#
#
# Elastic Compliance Matrix: (Units=1/GPa)
#
#
# Indices 1 2 3 4 5 6 
#
# 1 0.012332 0.000146 -0.002848 -0.001018 0.001047 -0.006070
# 2 0.000146 0.070096 0.005963 -0.007617 -0.006496 -0.059259
# 3 -0.002848 0.005963 0.009998 0.001398 -0.003582 -0.009066
# 4 -0.001018 -0.007617 0.001398 0.038848 -0.003653 -0.009888
# 5 0.001047 -0.006496 -0.003582 -0.003653 0.018340 0.005724
# 6 -0.006070 -0.059259 -0.009066 -0.009888 0.005724 0.106102
#
#
# Mechanical properties :
#
#
# Convention : Reuss Voigt Hill
#
# Bulk Modulus (GPa) = 10.10625 39.05064 24.57845
# Shear Modulus (GPa) = 17.71946 37.26740 27.49343
#
# Velocity S-wave (km/s) = 2.61587 3.79363 3.25840
# Velocity P-wave (km/s) = 3.60921 5.85398 4.86289
#
# Compressibility (1/GPa) = 0.09894864
#
# Stress axis : x y z
#
# Youngs Moduli (GPa) = 81.09121 14.26623 100.01559
#
# Poissons Ratio (x) = -0.00209 0.28487
# Poissons Ratio (y) = -0.01187 -0.59642
# Poissons Ratio (z) = 0.23097 -0.08507
#
# Static dielectric constant tensor:
#      x y z
#    x 2.015680 -0.059550 0.035340 
#    y -0.059550 2.224580 0.014190 
#    z 0.035340 0.014190 2.230120 
# 
# From -- ./inp_files/278337.got.cif
#   From: 2010.05.17/outbox.cif.g08.bks.cpg/sg2_140_cif.got.tgz:278337.got - 2010.06.03 11:33:40.
