data_PCOD9072347
_publ_section_title
;
Structure prediction by ZEFSAII (Michael W. Deem and Ramdas Pophale) SiO2 
 PCOD9072347
Probable space group: P -1
;
_chemical_formula_sum "Si O2"
_cell_formula_units_Z 16
_cell_length_a 15.000000
_cell_length_b 9.000000
_cell_length_c 27.000000
_cell_angle_alpha 150.000000
_cell_angle_beta 30.000000
_cell_angle_gamma 130.000000
_cell_volume 823.201308
_symmetry_space_group_name_H-M "P -1"
_symmetry_group_IT_number 2
_symmetry_cell_setting 'triclinic'
loop_
_space_group_symop_operation_xyz
x,y,z
-x,-y,-z
loop_
_atom_site_type_symbol
_atom_site_label
_atom_site_fract_x
_atom_site_fract_y
_atom_site_fract_z
Si Si1 0.430408 0.095424 0.504236
Si Si2 0.043143 0.983045 0.628921
Si Si3 0.816816 0.853529 0.186619
Si Si4 0.241071 0.509396 0.149675
Si Si5 0.542447 0.040354 0.806120
Si Si6 0.575424 0.188803 0.303774
Si Si7 0.879254 0.476321 0.369690
Si Si8 0.959280 0.562672 0.468216
O O1 0.398304 0.474595 0.620600
O O2 0.500000 0.000000 0.500000
O O3 0.235797 0.038669 0.567102
O O4 0.621656 0.879201 0.316657
O O5 0.968636 0.803607 0.653671
O O6 0.059962 0.766201 0.507428
O O7 0.849522 0.314359 0.807569
O O8 0.738975 0.971932 0.202225
O O9 0.882561 0.118363 0.257136
O O10 0.000000 0.500000 0.000000
O O11 0.352331 0.708377 0.179771
O O12 0.046999 0.508713 0.266115
O O13 0.402942 0.159809 0.954962
O O14 0.437290 0.976768 0.790280
O O15 0.729363 0.714142 0.638124
O O16 0.352484 0.292098 0.462383
O O17 0.938264 0.566368 0.420797
#
# Coordination Sequence:
#
# PCOD9072347 Si02
#       8
#     2   2   2   2   2   2   2   2
#     4  11  22  38  61  84 112 151 191 228 273 337
#     4  10  19  35  58  83 108 145 188 224 273 327
#     4  11  24  39  56  83 117 148 185 236 281 327
#     4  10  20  35  59  83 111 142 182 234 276 327
#     4   9  20  36  56  84 112 143 182 227 282 327
#     4  10  21  39  59  80 114 152 188 228 275 337
#     4  10  20  38  58  82 109 145 188 227 277 330
#     4   9  20  36  58  81 111 144 183 230 269 330
#
# _framework density 19.436315
#
# number of rings (size 3 to 8) (size 9 to 14) (size 15 to 20)
#    0.000    2.000    0.000    5.250    0.000    9.500 
#    0.000    1.875    0.000   13.500    0.000    0.000 
#    0.000    0.000    0.000    0.000    0.000    0.000 
#
# Total GULP energy -89072.851798 kJ/mol
# GULP energy per Si atom -5567.053237 kJ/mol
# Density = 1.939208 g / cm^3
# Si number density = 19.436315 Si / 1000 Ang^3
#
#
#
# Elastic Constant Matrix: (Units=GPa)
#
#
# Indices 1 2 3 4 5 6 
#
# 1 137.5469 25.3769 24.7284 5.9375 -14.1998 23.1752
# 2 25.3769 56.2752 11.8916 -6.5494 -9.4588 17.4448
# 3 24.7284 11.8916 44.5492 15.5628 -10.9547 -8.1177
# 4 5.9375 -6.5494 15.5628 12.8435 1.5603 -3.6653
# 5 -14.1998 -9.4588 -10.9547 1.5603 16.4601 9.9075
# 6 23.1752 17.4448 -8.1177 -3.6653 9.9075 41.1832
#
#
#
# Elastic Compliance Matrix: (Units=1/GPa)
#
#
# Indices 1 2 3 4 5 6 
#
# 1 0.011668 0.000796 -0.001437 -0.008907 0.017790 -0.012259
# 2 0.000796 0.035566 -0.024240 0.039852 0.013205 -0.019921
# 3 -0.001437 -0.024240 0.083491 -0.117143 0.048180 0.005517
# 4 -0.008907 0.039852 -0.117143 0.258642 -0.093634 0.010586
# 5 0.017790 0.013205 0.048180 -0.093634 0.155896 -0.051946
# 6 -0.012259 -0.019921 0.005517 0.010586 -0.051946 0.054145
#
#
# Mechanical properties :
#
#
# Convention : Reuss Voigt Hill
#
# Bulk Modulus (GPa) = 12.35138 40.26278 26.30708
# Shear Modulus (GPa) = 7.39471 25.85565 16.62518
#
# Velocity S-wave (km/s) = 1.95265 3.65125 2.92784
# Velocity P-wave (km/s) = 3.38414 6.20771 4.99940
#
# Compressibility (1/GPa) = 0.08096263
#
# Stress axis : x y z
#
# Youngs Moduli (GPa) = 85.70175 28.11643 11.97738
#
# Poissons Ratio (x) = -0.02237 0.01721
# Poissons Ratio (y) = -0.06818 0.29033
# Poissons Ratio (z) = 0.12314 0.68155
#
# Static dielectric constant tensor:
#      x y z
#    x 1.690520 -0.068650 0.028520 
#    y -0.068650 1.758120 -0.001300 
#    z 0.028520 -0.001300 1.703460 
# 
# From -- ./inp_files/187906.got.cif
#   From: 2010.05.17/outbox.ucp.g08.bks.cvg/sg2_94_cif.got.tgz:187906.got - 2010.06.11 11:32:03.
