data_PCOD9072262
_publ_section_title
;
Structure prediction by ZEFSAII (Michael W. Deem and Ramdas Pophale) SiO2 
 PCOD9072262
Probable space group: P -1
;
_chemical_formula_sum "Si O2"
_cell_formula_units_Z 14
_cell_length_a 9.000000
_cell_length_b 27.000000
_cell_length_c 30.000000
_cell_angle_alpha 10.000000
_cell_angle_beta 30.000000
_cell_angle_gamma 30.000000
_cell_volume 625.638279
_symmetry_space_group_name_H-M "P -1"
_symmetry_group_IT_number 2
_symmetry_cell_setting 'triclinic'
loop_
_space_group_symop_operation_xyz
x,y,z
-x,-y,-z
loop_
_atom_site_type_symbol
_atom_site_label
_atom_site_fract_x
_atom_site_fract_y
_atom_site_fract_z
Si Si1 0.968200 0.333615 0.011674
Si Si2 0.460590 0.552960 0.823658
Si Si3 0.723989 0.708998 0.365956
Si Si4 0.672832 0.782876 0.758268
Si Si5 0.830605 0.099687 0.071272
Si Si6 0.838088 0.494203 0.434413
Si Si7 0.101664 0.673565 0.590227
O O1 0.900088 0.597908 0.829303
O O2 0.141585 0.476884 0.799438
O O3 0.658472 0.266450 0.129053
O O4 0.071968 0.027342 0.281734
O O5 0.786379 0.610156 0.707975
O O6 0.323177 0.868066 0.558151
O O7 0.292418 0.403285 0.039731
O O8 0.552385 0.283628 0.005751
O O9 0.805454 0.723219 0.280688
O O10 0.408557 0.585675 0.560726
O O11 0.000000 0.500000 0.500000
O O12 0.714016 0.971309 0.170050
O O13 0.002091 0.825112 0.302018
O O14 0.006217 0.355512 0.779918
O O15 0.500000 0.500000 0.500000
#
# Coordination Sequence:
#
# PCOD9072262 Si02
#       7
#     2   2   2   2   2   2   2
#     4   9  18  32  55  85 113 145 185 241 287 336
#     4  10  19  33  57  85 113 148 188 236 282 343
#     4  10  24  42  60  84 119 159 196 239 292 345
#     4   9  17  32  55  85 116 143 184 235 293 337
#     4  11  23  39  58  85 118 154 193 235 296 348
#     4  11  23  40  62  85 113 149 198 249 290 340
#     4  10  20  34  56  83 112 148 196 237 281 337
#
# _framework density 22.377147000000001
#
# number of rings (size 3 to 8) (size 9 to 14) (size 15 to 20)
#    0.000    2.000    0.000    3.429    0.000   11.429 
#    0.000    0.000    0.000    5.143    0.000    0.000 
#    0.000    0.000    0.000    0.000    0.000    0.000 
#
# Total GULP energy -77937.698705 kJ/mol
# GULP energy per Si atom -5566.978479 kJ/mol
# Density = 2.232622 g / cm^3
# Si number density = 22.377147 Si / 1000 Ang^3
#
#
#
# Elastic Constant Matrix: (Units=GPa)
#
#
# Indices 1 2 3 4 5 6 
#
# 1 72.8566 6.8302 34.4090 -8.9734 10.1776 9.0545
# 2 6.8302 53.0714 22.9500 -1.7234 8.9761 19.0891
# 3 34.4090 22.9500 147.9804 -12.4560 28.0424 15.3542
# 4 -8.9734 -1.7234 -12.4560 46.2291 12.3231 -0.3840
# 5 10.1776 8.9761 28.0424 12.3231 32.2790 5.8726
# 6 9.0545 19.0891 15.3542 -0.3840 5.8726 38.8450
#
#
#
# Elastic Compliance Matrix: (Units=1/GPa)
#
#
# Indices 1 2 3 4 5 6 
#
# 1 0.016162 0.000698 -0.002567 0.003504 -0.003949 -0.002464
# 2 0.000698 0.024124 -0.001946 0.001449 -0.003853 -0.010652
# 3 -0.002567 -0.001946 0.009752 0.004342 -0.008605 -0.000956
# 4 0.003504 0.001449 0.004342 0.027732 -0.015760 -0.000588
# 5 -0.003949 -0.003853 -0.008605 -0.015760 0.046978 -0.001043
# 6 -0.002464 -0.010652 -0.000956 -0.000588 -0.001043 0.032082
#
#
# Mechanical properties :
#
#
# Convention : Reuss Voigt Hill
#
# Bulk Modulus (GPa) = 23.58114 44.69853 34.13984
# Shear Modulus (GPa) = 27.99594 37.45193 32.72393
#
# Velocity S-wave (km/s) = 3.54092 4.09549 3.82826
# Velocity P-wave (km/s) = 5.22287 6.51018 5.90173
#
# Compressibility (1/GPa) = 0.04240676
#
# Stress axis : x y z
#
# Youngs Moduli (GPa) = 61.87325 41.45184 102.54432
#
# Poissons Ratio (x) = -0.02894 0.26328
# Poissons Ratio (y) = -0.04320 0.19960
# Poissons Ratio (z) = 0.15886 0.08068
#
# Static dielectric constant tensor:
#      x y z
#    x 1.266210 0.396020 0.116640 
#    y 0.396020 1.655280 -0.109910 
#    z 0.116640 -0.109910 1.818540 
# 
# From -- ./inp_files/45117.got.cif
#   From: 2010.05.17/outbox.ucp.g08.bks.cvg/sg2_23_cif.got.tgz:45117.got - 2010.06.11 11:32:03.
