data_PCOD9072304
_publ_section_title
;
Structure prediction by ZEFSAII (Michael W. Deem and Ramdas Pophale) SiO2 
 PCOD9072304
Probable space group: P -1
;
_chemical_formula_sum "Si O2"
_cell_formula_units_Z 12
_cell_length_a 9.171830
_cell_length_b 8.569001
_cell_length_c 11.541610
_cell_angle_alpha 138.210778
_cell_angle_beta 58.278131
_cell_angle_gamma 129.615009
_cell_volume 463.411479
_symmetry_space_group_name_H-M "P -1"
_symmetry_group_IT_number 2
_symmetry_cell_setting 'triclinic'
loop_
_space_group_symop_operation_xyz
x,y,z
-x,-y,-z
loop_
_atom_site_type_symbol
_atom_site_label
_atom_site_fract_x
_atom_site_fract_y
_atom_site_fract_z
Si Si1 0.472494 0.495628 0.648427
Si Si2 0.097989 0.716491 0.196267
Si Si3 0.495348 0.235764 0.900951
Si Si4 0.895181 0.029255 0.417804
Si Si5 0.237296 0.782768 0.876641
Si Si6 0.727925 0.246344 0.414731
O O1 0.500000 0.500000 0.500000
O O2 0.287018 0.246165 0.633348
O O3 0.415897 0.731585 0.814999
O O4 0.646784 0.448223 0.598785
O O5 0.304530 0.725249 0.109143
O O6 0.061413 0.941530 0.270457
O O7 0.939768 0.417393 0.087817
O O8 0.077988 0.812382 0.387957
O O9 0.323947 0.088486 0.982629
O O10 0.448543 0.031779 0.700306
O O11 0.500000 0.500000 0.000000
O O12 0.854275 0.184057 0.417897
O O13 0.184183 0.679818 0.708843
#
# Coordination Sequence:
#
# PCOD9072304 Si02
#       6
#     2   2   2   2   2   2
#     4   9  14  28  51  78 108 133 163 211 270 309
#     4  10  19  33  55  79 107 140 169 212 275 314
#     4  10  21  37  55  73 104 147 183 209 255 314
#     4  10  18  30  54  85 110 132 169 219 275 313
#     4   8  19  33  52  81 104 136 174 215 265 306
#     4   9  18  32  53  82 108 136 171 219 263 307
#
# _framework density 25.894914
#
# number of rings (size 3 to 8) (size 9 to 14) (size 15 to 20)
#    1.000    1.667    1.667    0.500    0.000    1.333 
#    0.000    0.833    0.000    4.000    0.000    0.000 
#    0.000    0.000    0.000    0.000    0.000    0.000 
#
# Total GULP energy -66997.528646 kJ/mol
# GULP energy per Si atom -5583.127387 kJ/mol
# Density = 2.583598 g / cm^3
# Si number density = 25.894914 Si / 1000 Ang^3
#
#
#
# Elastic Constant Matrix: (Units=GPa)
#
#
# Indices 1 2 3 4 5 6 
#
# 1 139.5103 40.5455 31.7216 12.1660 -37.1052 -29.5135
# 2 40.5455 173.7668 40.5245 36.0439 -31.3633 -8.2053
# 3 31.7216 40.5245 95.1378 16.5061 -7.2042 -15.8306
# 4 12.1660 36.0439 16.5061 37.2927 -12.2713 -2.0552
# 5 -37.1052 -31.3633 -7.2042 -12.2713 27.5521 5.7453
# 6 -29.5135 -8.2053 -15.8306 -2.0552 5.7453 44.2784
#
#
#
# Elastic Compliance Matrix: (Units=1/GPa)
#
#
# Indices 1 2 3 4 5 6 
#
# 1 0.013412 0.000478 -0.002805 0.002585 0.017808 0.005835
# 2 0.000478 0.008594 -0.002423 -0.004880 0.007656 -0.000175
# 3 -0.002805 -0.002423 0.013294 -0.004305 -0.005594 0.002961
# 4 0.002585 -0.004880 -0.004305 0.036969 0.013421 -0.000746
# 5 0.017808 0.007656 -0.005594 0.013421 0.072999 0.002440
# 6 0.005835 -0.000175 0.002961 -0.000746 0.002440 0.027148
#
#
# Mechanical properties :
#
#
# Convention : Reuss Voigt Hill
#
# Bulk Modulus (GPa) = 38.75737 70.44424 54.60080
# Shear Modulus (GPa) = 26.24452 41.53285 33.88868
#
# Velocity S-wave (km/s) = 3.18701 4.00922 3.62152
# Velocity P-wave (km/s) = 5.34250 6.97816 6.21438
#
# Compressibility (1/GPa) = 0.02580154
#
# Stress axis : x y z
#
# Youngs Moduli (GPa) = 74.56055 116.35668 75.22092
#
# Poissons Ratio (x) = -0.05563 0.21097
# Poissons Ratio (y) = -0.03564 0.18224
# Poissons Ratio (z) = 0.20912 0.28191
#
# Static dielectric constant tensor:
#      x y z
#    x 2.050500 0.040400 0.094960 
#    y 0.040400 2.033590 -0.004940 
#    z 0.094960 -0.004940 2.112700 
# 
# From -- ./inp_files/159761.got.cif
#   From: 2010.05.17/outbox.cif.g08.bks.cpg/sg2_80_cif.got.tgz:159761.got - 2010.06.03 11:33:40.
