data_PCOD9072142
_publ_section_title
;
Structure prediction by ZEFSAII (Michael W. Deem and Ramdas Pophale) SiO2 
 PCOD9072142
Probable space group: P -1
;
_chemical_formula_sum "Si O2"
_cell_formula_units_Z 12
_cell_length_a 15.046577
_cell_length_b 11.930721
_cell_length_c 8.666420
_cell_angle_alpha 30.289677
_cell_angle_beta 103.662210
_cell_angle_gamma 116.780736
_cell_volume 658.909175
_symmetry_space_group_name_H-M "P -1"
_symmetry_group_IT_number 2
_symmetry_cell_setting 'triclinic'
loop_
_space_group_symop_operation_xyz
x,y,z
-x,-y,-z
loop_
_atom_site_type_symbol
_atom_site_label
_atom_site_fract_x
_atom_site_fract_y
_atom_site_fract_z
Si Si1 0.338528 0.722663 0.281380
Si Si2 0.157753 0.812327 0.164439
Si Si3 0.980377 0.401946 0.355712
Si Si4 0.285271 0.360499 0.398295
Si Si5 0.524288 0.673343 0.456280
Si Si6 0.918186 0.720205 0.733049
O O1 0.232984 0.687607 0.358237
O O2 0.311532 0.584104 0.267860
O O3 0.410576 0.631444 0.511002
O O4 0.409646 0.027373 0.918387
O O5 0.102559 0.800202 0.317520
O O6 0.067027 0.639430 0.210060
O O7 0.225900 0.096415 0.786425
O O8 0.040161 0.297630 0.398270
O O9 0.924618 0.509691 0.091665
O O10 0.393766 0.383583 0.350755
O O11 0.200755 0.337301 0.266081
O O12 0.500000 0.500000 0.500000
O O13 0.000000 0.000000 0.500000
#
# Coordination Sequence:
#
# PCOD9072142 Si02
#       6
#     2   2   2   2   2   2
#     4   9  16  30  50  75 104 127 163 214 253 292
#     4  10  19  33  50  75 101 134 171 210 250 294
#     4  10  22  33  48  72 105 137 172 206 248 300
#     4  10  18  30  52  76 100 133 171 207 249 295
#     4   8  16  28  48  78 101 125 163 212 253 297
#     4  11  21  35  49  72 104 140 171 206 248 299
#
# _framework density 18.211917
#
# number of rings (size 3 to 8) (size 9 to 14) (size 15 to 20)
#    0.000    2.333    3.333    0.000    0.000    2.000 
#    0.000    0.000    0.000    1.000    0.000   40.833 
#    0.000    0.000    0.000    0.000    0.000    0.000 
#
# Total GULP energy -66819.376939 kJ/mol
# GULP energy per Si atom -5568.281412 kJ/mol
# Density = 1.817047 g / cm^3
# Si number density = 18.211917 Si / 1000 Ang^3
#
#
#
# Elastic Constant Matrix: (Units=GPa)
#
#
# Indices 1 2 3 4 5 6 
#
# 1 98.1793 26.0965 6.0517 21.9364 27.3205 30.9381
# 2 26.0965 68.9293 14.2880 -7.0804 7.1235 11.9917
# 3 6.0517 14.2880 25.8104 -9.5823 6.3594 0.7205
# 4 21.9364 -7.0804 -9.5823 27.9926 0.4151 4.4569
# 5 27.3205 7.1235 6.3594 0.4151 24.5860 7.8956
# 6 30.9381 11.9917 0.7205 4.4569 7.8956 36.2357
#
#
#
# Elastic Compliance Matrix: (Units=1/GPa)
#
#
# Indices 1 2 3 4 5 6 
#
# 1 0.028613 -0.007324 -0.005208 -0.023497 -0.023466 -0.013899
# 2 -0.007324 0.019491 -0.007043 0.008531 0.004865 -0.002166
# 3 -0.005208 -0.007043 0.052986 0.019758 -0.007815 0.004997
# 4 -0.023497 0.008531 0.019758 0.061899 0.015610 0.005831
# 5 -0.023466 0.004865 -0.007815 0.015610 0.066393 0.002194
# 6 -0.013899 -0.002166 0.004997 0.005831 0.002194 0.038887
#
#
# Mechanical properties :
#
#
# Convention : Reuss Voigt Hill
#
# Bulk Modulus (GPa) = 16.14498 31.75459 23.94978
# Shear Modulus (GPa) = 15.24089 27.52836 21.38463
#
# Velocity S-wave (km/s) = 2.89600 3.89209 3.43039
# Velocity P-wave (km/s) = 4.47959 6.13774 5.37301
#
# Compressibility (1/GPa) = 0.06193875
#
# Stress axis : x y z
#
# Youngs Moduli (GPa) = 34.94919 51.30630 18.87306
#
# Poissons Ratio (x) = 0.37575 0.09830
# Poissons Ratio (y) = 0.25595 0.13293
# Poissons Ratio (z) = 0.18202 0.36137
#
# Static dielectric constant tensor:
#      x y z
#    x 1.695770 0.042480 0.036990 
#    y 0.042480 1.613980 -0.004160 
#    z 0.036990 -0.004160 1.605950 
# 
# From -- ./inp_files/19299.got.cif
#   From: 2010.05.17/outbox.cif.g08.bks.cpg/sg2_10_cif.got.tgz:19299.got - 2010.06.03 11:33:40.
