data_PCOD9072757
_publ_section_title
;
Structure prediction by ZEFSAII (Michael W. Deem and Ramdas Pophale) SiO2 
 PCOD9072757
Probable space group: P -1
;
_chemical_formula_sum "Si O2"
_cell_formula_units_Z 12
_cell_length_a 15.000000
_cell_length_b 12.000000
_cell_length_c 15.000000
_cell_angle_alpha 20.000000
_cell_angle_beta 40.000000
_cell_angle_gamma 40.000000
_cell_volume 580.331274
_symmetry_space_group_name_H-M "P -1"
_symmetry_group_IT_number 2
_symmetry_cell_setting 'triclinic'
loop_
_space_group_symop_operation_xyz
x,y,z
-x,-y,-z
loop_
_atom_site_type_symbol
_atom_site_label
_atom_site_fract_x
_atom_site_fract_y
_atom_site_fract_z
Si Si1 0.815765 0.363526 0.171408
Si Si2 0.136176 0.307642 0.931471
Si Si3 0.854237 0.573203 0.699018
Si Si4 0.674072 0.641167 0.626368
Si Si5 0.378391 0.599252 0.861646
Si Si6 0.169535 0.515088 0.550318
O O1 0.805977 0.494514 0.181380
O O2 0.679835 0.514921 0.100873
O O3 0.835003 0.965784 0.443425
O O4 0.964141 0.436816 0.965083
O O5 0.192392 0.396675 0.724687
O O6 0.162488 0.913695 0.236116
O O7 0.812965 0.491929 0.690773
O O8 0.017970 0.432419 0.701456
O O9 0.738243 0.448957 0.941223
O O10 0.541677 0.457670 0.869232
O O11 0.715528 0.665160 0.473646
O O12 0.629150 0.003958 0.433403
#
# Coordination Sequence:
#
# PCOD9072757 Si02
#       6
#     2   2   2   2   2   2
#     4   9  20  37  60  89 111 154 201 240 283 352
#     4  10  22  38  63  88 120 152 196 243 292 340
#     4  10  20  36  62  85 113 154 199 242 288 342
#     4  10  23  37  56  87 119 155 194 241 295 352
#     4  10  20  39  60  82 116 157 199 236 293 348
#     4  11  23  39  60  92 119 153 191 246 296 341
#
# _framework density 20.677845000000001
#
# number of rings (size 3 to 8) (size 9 to 14) (size 15 to 20)
#    0.000    2.000    1.667    1.000    4.667    2.667 
#    0.000    1.667    0.000    0.000    0.000    0.000 
#    0.000    0.000    0.000    0.000    0.000    0.000 
#
# Total GULP energy -66939.879107 kJ/mol
# GULP energy per Si atom -5578.323259 kJ/mol
# Density = 2.063078 g / cm^3
# Si number density = 20.677845 Si / 1000 Ang^3
#
#
#
# Elastic Constant Matrix: (Units=GPa)
#
#
# Indices 1 2 3 4 5 6 
#
# 1 136.9983 36.2403 31.8329 11.5108 -13.7376 30.4870
# 2 36.2403 39.5514 -3.1740 14.7338 -7.6007 6.8397
# 3 31.8329 -3.1740 46.3653 15.3787 -2.9839 0.0160
# 4 11.5108 14.7338 15.3787 30.7473 1.0793 1.9817
# 5 -13.7376 -7.6007 -2.9839 1.0793 31.1515 7.8500
# 6 30.4870 6.8397 0.0160 1.9817 7.8500 23.9878
#
#
#
# Elastic Compliance Matrix: (Units=1/GPa)
#
#
# Indices 1 2 3 4 5 6 
#
# 1 0.025548 -0.023702 -0.023509 0.015144 0.010351 -0.030334
# 2 -0.023702 0.063487 0.034202 -0.039730 0.006365 0.013198
# 3 -0.023509 0.034202 0.051461 -0.034782 -0.001826 0.023563
# 4 0.015144 -0.039730 -0.034782 0.064219 -0.005717 -0.011330
# 5 0.010351 0.006365 -0.001826 -0.005717 0.045660 -0.029439
# 6 -0.030334 0.013198 0.023563 -0.011330 -0.029439 0.087031
#
#
# Mechanical properties :
#
#
# Convention : Reuss Voigt Hill
#
# Bulk Modulus (GPa) = 8.73536 39.19036 23.96286
# Shear Modulus (GPa) = 12.45068 27.71171 20.08120
#
# Velocity S-wave (km/s) = 2.45649 3.66480 3.11970
# Velocity P-wave (km/s) = 3.50421 6.07467 4.95888
#
# Compressibility (1/GPa) = 0.11447730
#
# Stress axis : x y z
#
# Youngs Moduli (GPa) = 39.14224 15.75123 19.43223
#
# Poissons Ratio (x) = 0.37334 0.45684
# Poissons Ratio (y) = 0.92776 -0.66462
# Poissons Ratio (z) = 0.92020 -0.53873
#
# Static dielectric constant tensor:
#      x y z
#    x 1.797740 -0.039990 0.041540 
#    y -0.039990 1.745100 -0.014600 
#    z 0.041540 -0.014600 1.766150 
# 
# From -- ./inp_files/18303.got.cif
#   From: 2010.05.17/outbox.ucp.g08.bks.cvg/sg2_10_cif.got.tgz:18303.got - 2010.06.11 11:32:03.
