data_PCOD9072818
_publ_section_title
;
Structure prediction by ZEFSAII (Michael W. Deem and Ramdas Pophale) SiO2 
 PCOD9072818
Probable space group: P -1
;
_chemical_formula_sum "Si O2"
_cell_formula_units_Z 10
_cell_length_a 15.000000
_cell_length_b 12.000000
_cell_length_c 15.000000
_cell_angle_alpha 150.000000
_cell_angle_beta 160.000000
_cell_angle_gamma 30.000000
_cell_volume 439.666707
_symmetry_space_group_name_H-M "P -1"
_symmetry_group_IT_number 2
_symmetry_cell_setting 'triclinic'
loop_
_space_group_symop_operation_xyz
x,y,z
-x,-y,-z
loop_
_atom_site_type_symbol
_atom_site_label
_atom_site_fract_x
_atom_site_fract_y
_atom_site_fract_z
Si Si1 0.683884 0.156696 0.314634
Si Si2 0.218003 0.635995 0.786699
Si Si3 0.086745 0.160681 0.036022
Si Si4 0.904475 0.394730 0.543933
Si Si5 0.674202 0.103405 0.462405
O O1 0.702876 0.357900 0.406069
O O2 0.609019 0.235431 0.398955
O O3 0.000000 0.000000 0.500000
O O4 0.500000 0.000000 0.000000
O O5 0.264690 0.612238 0.708579
O O6 0.000000 0.500000 0.500000
O O7 0.500000 0.500000 0.000000
O O8 0.099950 0.898101 0.895987
O O9 0.022603 0.373423 0.194425
O O10 0.394755 0.119809 0.261048
O O11 0.875044 0.195657 0.778066
O O12 0.167530 0.166177 0.609152
#
# Coordination Sequence:
#
# PCOD9072818 Si02
#       5
#     2   2   2   2   2
#     4  10  20  37  63  91 127 167 197 241 304 363
#     4  11  24  43  63  87 122 159 206 265 311 358
#     4  11  24  41  66  94 122 163 207 250 309 369
#     4  10  24  42  66  92 125 164 207 254 304 365
#     4  10  22  41  62  95 133 159 198 250 300 367
#
# _framework density 22.744501
#
# number of rings (size 3 to 8) (size 9 to 14) (size 15 to 20)
#    0.000    1.600    0.000    6.000    0.000   12.800 
#    0.000    0.000    0.000    0.000    0.000    0.000 
#    0.000    0.000    0.000    0.000    0.000    0.000 
#
# Total GULP energy -55807.055470 kJ/mol
# GULP energy per Si atom -5580.705547 kJ/mol
# Density = 2.269273 g / cm^3
# Si number density = 22.744501 Si / 1000 Ang^3
#
#
#
# Elastic Constant Matrix: (Units=GPa)
#
#
# Indices 1 2 3 4 5 6 
#
# 1 24.5372 43.5269 7.5962 -5.1329 -6.2557 -4.4008
# 2 43.5269 97.9324 60.6938 27.6869 -18.2234 -19.7505
# 3 7.5962 60.6938 165.5569 2.3848 -7.8892 -10.4571
# 4 -5.1329 27.6869 2.3848 50.1628 -7.3595 -9.4434
# 5 -6.2557 -18.2234 -7.8892 -7.3595 44.8740 4.4987
# 6 -4.4008 -19.7505 -10.4571 -9.4434 4.4987 38.5296
#
#
#
# Elastic Compliance Matrix: (Units=1/GPa)
#
#
# Indices 1 2 3 4 5 6 
#
# 1 -0.132186 0.096666 -0.027552 -0.062819 0.004575 0.011044
# 2 0.096666 -0.052640 0.014184 0.037880 0.001099 -0.002937
# 3 -0.027552 0.014184 0.002413 -0.010283 0.000436 0.002207
# 4 -0.062819 0.037880 -0.010283 -0.004960 0.003216 0.007860
# 5 0.004575 0.001099 0.000436 0.003216 0.024055 -0.000816
# 6 0.011044 -0.002937 0.002207 0.007860 -0.000816 0.028331
#
#
# Mechanical properties :
#
#
# Convention : Reuss Voigt Hill
#
# Bulk Modulus (GPa) = -63.21363 56.85114 -3.18124
# Shear Modulus (GPa) = -16.29428 38.46057 11.08314
#
# Velocity S-wave (km/s) = -2.67948 4.11662 2.20986
# Velocity P-wave (km/s) = 6.11769 6.90255 2.26044
#
# Compressibility (1/GPa) = -0.01581937
#
# Stress axis : x y z
#
# Youngs Moduli (GPa) = -7.56507 -18.99685 414.45690
#
# Poissons Ratio (x) = 1.83634 11.41928
# Poissons Ratio (y) = 0.73128 -5.87867
# Poissons Ratio (z) = -0.20844 0.26945
#
# Static dielectric constant tensor:
#      x y z
#    x 2.098120 0.130900 0.003750 
#    y 0.130900 1.993720 0.008950 
#    z 0.003750 0.008950 1.779950 
# 
# From -- ./inp_files/19987.got.cif
#   From: 2010.05.17/outbox.ucp.g08.bks.cvg/sg2_10_cif.got.tgz:19987.got - 2010.06.11 11:32:03.
