data_PCOD9072684
_publ_section_title
;
Structure prediction by ZEFSAII (Michael W. Deem and Ramdas Pophale) SiO2 
 PCOD9072684
Probable space group: P -1
;
_chemical_formula_sum "Si O2"
_cell_formula_units_Z 16
_cell_length_a 12.000000
_cell_length_b 18.000000
_cell_length_c 21.000000
_cell_angle_alpha 160.000000
_cell_angle_beta 140.000000
_cell_angle_gamma 30.000000
_cell_volume 744.844803
_symmetry_space_group_name_H-M "P -1"
_symmetry_group_IT_number 2
_symmetry_cell_setting 'triclinic'
loop_
_space_group_symop_operation_xyz
x,y,z
-x,-y,-z
loop_
_atom_site_type_symbol
_atom_site_label
_atom_site_fract_x
_atom_site_fract_y
_atom_site_fract_z
Si Si1 0.571954 0.191969 0.174174
Si Si2 0.169346 0.615654 0.528198
Si Si3 0.420080 0.331231 0.009905
Si Si4 0.623807 0.555342 0.204657
Si Si5 0.551435 0.832326 0.595093
Si Si6 0.237636 0.700397 0.340993
Si Si7 0.844109 0.847612 0.896716
Si Si8 0.345195 0.023066 0.366664
O O1 0.684220 0.287356 0.345849
O O2 0.355699 0.480354 0.274979
O O3 0.500000 0.000000 0.000000
O O4 0.774669 0.000650 0.056920
O O5 0.278673 0.422824 0.485549
O O6 0.179245 0.397067 0.309658
O O7 0.895952 0.871838 0.627825
O O8 0.474764 0.480813 0.106087
O O9 0.230483 0.553129 0.157828
O O10 0.375856 0.140264 0.802477
O O11 0.657895 0.090738 0.960291
O O12 0.593875 0.798120 0.429087
O O13 0.898027 0.289312 0.115702
O O14 0.545363 0.691780 0.209443
O O15 0.410055 0.752992 0.439083
O O16 0.674452 0.888807 0.644138
O O17 0.000000 0.000000 0.500000
#
# Coordination Sequence:
#
# PCOD9072684 Si02
#       8
#     2   2   2   2   2   2   2   2
#     4  10  22  40  61  87 111 154 204 242 290 350
#     4   9  20  38  58  85 117 156 195 236 288 349
#     4  10  20  37  60  86 114 156 201 233 287 355
#     4  10  20  35  56  88 127 154 186 237 297 350
#     4  10  20  36  62  85 115 156 197 237 287 353
#     4  10  22  42  61  83 118 154 197 250 293 343
#     4   9  20  37  60  84 118 153 195 238 285 352
#     4  10  20  35  56  88 126 155 187 235 300 348
#
# _framework density 21.480985
#
# number of rings (size 3 to 8) (size 9 to 14) (size 15 to 20)
#    0.000    2.250    1.250    0.750    1.750    2.500 
#    4.500    0.000    0.000    0.000    0.000    0.000 
#    0.000    0.000    0.000    0.000    0.000    0.000 
#
# Total GULP energy -89200.263339 kJ/mol
# GULP energy per Si atom -5575.016459 kJ/mol
# Density = 2.143209 g / cm^3
# Si number density = 21.480985 Si / 1000 Ang^3
#
#
#
# Elastic Constant Matrix: (Units=GPa)
#
#
# Indices 1 2 3 4 5 6 
#
# 1 32.6338 10.9716 21.9699 17.4570 23.1088 -0.6675
# 2 10.9716 15.6201 22.8955 5.4895 6.6280 -1.1791
# 3 21.9699 22.8955 92.7283 0.0995 4.7983 -2.5694
# 4 17.4570 5.4895 0.0995 29.2473 -5.1244 0.8878
# 5 23.1088 6.6280 4.7983 -5.1244 33.8742 -5.1011
# 6 -0.6675 -1.1791 -2.5694 0.8878 -5.1011 11.0388
#
#
#
# Elastic Compliance Matrix: (Units=1/GPa)
#
#
# Indices 1 2 3 4 5 6 
#
# 1 -0.251833 -0.087654 0.071806 0.202913 0.221226 0.078033
# 2 -0.087654 0.099556 -0.005833 0.041875 0.051128 0.024234
# 3 0.071806 -0.005833 -0.002262 -0.051367 -0.058245 -0.019591
# 4 0.202913 0.041875 -0.051367 -0.122007 -0.167240 -0.062683
# 5 0.221226 0.051128 -0.058245 -0.167240 -0.156522 -0.053598
# 6 0.078033 0.024234 -0.019591 -0.062683 -0.053598 0.073610
#
#
# Mechanical properties :
#
#
# Convention : Reuss Voigt Hill
#
# Bulk Modulus (GPa) = -5.05301 28.07291 11.50995
# Shear Modulus (GPa) = -13.08682 20.50841 3.71079
#
# Velocity S-wave (km/s) = -2.47093 3.09321 1.31576
# Velocity P-wave (km/s) = 3.24008 5.08472 2.77095
#
# Compressibility (1/GPa) = -0.19790192
#
# Stress axis : x y z
#
# Youngs Moduli (GPa) = -3.97088 10.04460 -442.06617
#
# Poissons Ratio (x) = 0.88045 31.74283
# Poissons Ratio (y) = -0.34806 -2.57850
# Poissons Ratio (z) = 0.28513 0.05859
#
# Static dielectric constant tensor:
#      x y z
#    x 1.777460 0.036680 -0.035270 
#    y 0.036680 1.779610 -0.022690 
#    z -0.035270 -0.022690 1.815520 
# 
# From -- ./inp_files/338177.got.cif
#   From: 2010.05.17/outbox.ucp.g08.bks.cvg/sg2_170_cif.got.tgz:338177.got - 2010.06.11 11:32:03.
