data_PCOD9072022
_publ_section_title
;
Structure prediction by ZEFSAII (Michael W. Deem and Ramdas Pophale) SiO2 
 PCOD9072022
Probable space group: P -1
;
_chemical_formula_sum "Si O2"
_cell_formula_units_Z 16
_cell_length_a 30.000000
_cell_length_b 18.000000
_cell_length_c 24.000000
_cell_angle_alpha 20.000000
_cell_angle_beta 10.000000
_cell_angle_gamma 20.000000
_cell_volume 747.142172
_symmetry_space_group_name_H-M "P -1"
_symmetry_group_IT_number 2
_symmetry_cell_setting 'triclinic'
loop_
_space_group_symop_operation_xyz
x,y,z
-x,-y,-z
loop_
_atom_site_type_symbol
_atom_site_label
_atom_site_fract_x
_atom_site_fract_y
_atom_site_fract_z
Si Si1 0.371391 0.171866 0.647176
Si Si2 0.378085 0.988415 0.436388
Si Si3 0.505894 0.261068 0.636767
Si Si4 0.148595 0.765800 0.153386
Si Si5 0.210291 0.206564 0.328747
Si Si6 0.060320 0.899566 0.372281
Si Si7 0.444918 0.524108 0.224769
Si Si8 0.938118 0.384311 0.215329
O O1 0.592568 0.063357 0.497645
O O2 0.443417 0.291777 0.419581
O O3 0.205094 0.394327 0.729043
O O4 0.246909 0.975355 0.912692
O O5 0.404666 0.773882 0.513479
O O6 0.099978 0.145213 0.646341
O O7 0.654176 0.061216 0.029883
O O8 0.500000 0.500000 0.500000
O O9 0.677428 0.049644 0.607589
O O10 0.198983 0.266056 0.011982
O O11 0.024230 0.676589 0.423273
O O12 0.369619 0.569876 0.990691
O O13 0.096622 0.195533 0.415571
O O14 0.431550 0.337291 0.979101
O O15 0.171543 0.697400 0.421276
O O16 0.872182 0.145264 0.447742
O O17 0.000000 0.500000 0.000000
#
# Coordination Sequence:
#
# PCOD9072022 Si02
#       8
#     2   2   2   2   2   2   2   2
#     4  12  25  42  67  99 129 171 214 268 330 376
#     4  10  21  39  67  97 121 162 228 254 308 393
#     4  10  18  33  64  96 121 158 216 262 299 375
#     4  11  23  44  69  91 128 176 222 262 316 387
#     4  11  22  41  65  96 124 170 219 259 319 381
#     4  11  22  41  66  99 125 169 217 263 322 384
#     4  12  27  43  61  99 138 163 215 279 322 372
#     4  11  18  38  67  92 125 165 215 261 305 396
#
# _framework density 21.414933999999999
#
# number of rings (size 3 to 8) (size 9 to 14) (size 15 to 20)
#    0.000    1.000    7.500    3.000    0.000    3.500 
#    0.000    0.625    0.000    0.000    0.000    0.000 
#    0.000    0.000    0.000    0.000    0.000    0.000 
#
# Total GULP energy -89087.081289 kJ/mol
# GULP energy per Si atom -5567.942581 kJ/mol
# Density = 2.136619 g / cm^3
# Si number density = 21.414934 Si / 1000 Ang^3
#
#
#
# Elastic Constant Matrix: (Units=GPa)
#
#
# Indices 1 2 3 4 5 6 
#
# 1 106.0948 21.3424 28.6869 -10.7329 -42.7198 -0.6790
# 2 21.3424 93.0016 8.3056 -1.5744 -19.8157 16.3792
# 3 28.6869 8.3056 17.2790 -12.4831 -22.0121 0.0488
# 4 -10.7329 -1.5744 -12.4831 33.7832 3.8652 2.8877
# 5 -42.7198 -19.8157 -22.0121 3.8652 34.7755 -2.4044
# 6 -0.6790 16.3792 0.0488 2.8877 -2.4044 35.8421
#
#
#
# Elastic Compliance Matrix: (Units=1/GPa)
#
#
# Indices 1 2 3 4 5 6 
#
# 1 0.019378 0.002642 0.043988 0.016549 0.051399 0.001214
# 2 0.002642 0.034455 0.416264 0.125856 0.271811 -0.008168
# 3 0.043988 0.416264 8.180979 2.466627 5.191923 -0.050973
# 4 0.016549 0.125856 2.466627 0.774511 1.566041 -0.017906
# 5 0.051399 0.271811 5.191923 1.566041 3.356925 -0.031289
# 6 0.001214 -0.008168 -0.050973 -0.017906 -0.031289 0.031069
#
#
# Mechanical properties :
#
#
# Convention : Reuss Voigt Hill
#
# Bulk Modulus (GPa) = 0.10916 37.00501 18.55709
# Shear Modulus (GPa) = 0.34423 31.41620 15.88022
#
# Velocity S-wave (km/s) = 0.40136 3.83433 2.72609
# Velocity P-wave (km/s) = 0.51563 6.07621 4.31197
#
# Compressibility (1/GPa) = 9.16059989
#
# Stress axis : x y z
#
# Youngs Moduli (GPa) = 51.60484 29.02358 0.12223
#
# Poissons Ratio (x) = -0.07669 -0.00538
# Poissons Ratio (y) = -0.13636 -0.05088
# Poissons Ratio (z) = -2.27001 -12.08146
#
# Static dielectric constant tensor:
#      x y z
#    x 1.817240 0.029960 0.012410 
#    y 0.029960 1.800100 -0.042640 
#    z 0.012410 -0.042640 1.900280 
# 
# From -- ./inp_files/432359.got.cif
#   From: 2010.05.17/outbox.ucp.g08.bks.cvg/sg2_217_cif.got.tgz:432359.got - 2010.06.11 11:32:03.
