data_PCOD9072476
_publ_section_title
;
Structure prediction by ZEFSAII (Michael W. Deem and Ramdas Pophale) SiO2 
 PCOD9072476
Probable space group: P -1
;
_chemical_formula_sum "Si O2"
_cell_formula_units_Z 16
_cell_length_a 15.000000
_cell_length_b 12.000000
_cell_length_c 12.000000
_cell_angle_alpha 100.000000
_cell_angle_beta 150.000000
_cell_angle_gamma 60.000000
_cell_volume 748.962810
_symmetry_space_group_name_H-M "P -1"
_symmetry_group_IT_number 2
_symmetry_cell_setting 'triclinic'
loop_
_space_group_symop_operation_xyz
x,y,z
-x,-y,-z
loop_
_atom_site_type_symbol
_atom_site_label
_atom_site_fract_x
_atom_site_fract_y
_atom_site_fract_z
Si Si1 0.703204 0.309899 0.317165
Si Si2 0.613834 0.178334 0.823382
Si Si3 0.568564 0.284628 0.549407
Si Si4 0.932739 0.630499 0.675735
Si Si5 0.180332 0.160262 0.951924
Si Si6 0.561215 0.749035 0.836855
Si Si7 0.195270 0.691253 0.827071
Si Si8 0.927004 0.338193 0.929228
O O1 0.613028 0.227403 0.251175
O O2 0.811664 0.267214 0.301922
O O3 0.914038 0.264449 0.619526
O O4 0.455037 0.501500 0.088124
O O5 0.602279 0.193943 0.679681
O O6 0.335485 0.311549 0.602023
O O7 0.779348 0.208303 0.052889
O O8 0.716540 0.010240 0.940050
O O9 0.558364 0.230624 0.408648
O O10 0.789248 0.279187 0.781472
O O11 0.300897 0.470851 0.306991
O O12 0.980777 0.702710 0.644179
O O13 0.166865 0.437445 0.890974
O O14 0.951976 0.683830 0.825722
O O15 0.119535 0.249599 0.019121
O O16 0.370145 0.150158 0.081398
#
# Coordination Sequence:
#
# PCOD9072476 Si02
#       8
#     2   2   2   2   2   2   2   2
#     4  10  22  43  68  89 112 152 209 259 294 340
#     4  12  25  38  58  90 129 162 191 238 301 368
#     4  10  19  37  64  90 118 155 201 248 294 347
#     4  10  21  39  64  90 118 155 200 250 296 347
#     4  12  25  38  58  90 129 162 191 238 301 368
#     4  10  21  39  64  90 118 155 200 250 296 347
#     4  10  22  43  68  89 112 152 209 259 294 340
#     4  10  19  37  64  90 118 155 201 248 294 347
#
# _framework density 21.362876
#
# number of rings (size 3 to 8) (size 9 to 14) (size 15 to 20)
#    0.000    1.500    2.500    3.000    0.000    7.000 
#    0.000    5.000    0.000    0.000    0.000    0.000 
#    0.000    0.000    0.000    0.000    0.000    0.000 
#
# Total GULP energy -89538.656396 kJ/mol
# GULP energy per Si atom -5596.166025 kJ/mol
# Density = 2.131425 g / cm^3
# Si number density = 21.362876 Si / 1000 Ang^3
#
#
#
# Elastic Constant Matrix: (Units=GPa)
#
#
# Indices 1 2 3 4 5 6 
#
# 1 144.5360 22.9141 11.2173 -5.0427 -21.0087 30.6042
# 2 22.9141 32.8186 -1.1628 3.2930 -6.2651 24.5338
# 3 11.2173 -1.1628 7.4779 1.2547 -3.9696 3.7287
# 4 -5.0427 3.2930 1.2547 6.8884 8.9993 7.1350
# 5 -21.0087 -6.2651 -3.9696 8.9993 18.9704 4.9707
# 6 30.6042 24.5338 3.7287 7.1350 4.9707 36.3962
#
#
#
# Elastic Compliance Matrix: (Units=1/GPa)
#
#
# Indices 1 2 3 4 5 6 
#
# 1 0.011938 -0.002346 -0.015730 0.023050 0.001243 -0.011534
# 2 -0.002346 -0.041646 -0.136286 0.229417 -0.159145 0.020768
# 3 -0.015730 -0.136286 -0.090202 0.301104 -0.247492 0.089108
# 4 0.023050 0.229417 0.301104 -0.187635 0.308391 -0.210208
# 5 0.001243 -0.159145 -0.247492 0.308391 -0.223178 0.101610
# 6 -0.011534 0.020768 0.089108 -0.210208 0.101610 0.041377
#
#
# Mechanical properties :
#
#
# Convention : Reuss Voigt Hill
#
# Bulk Modulus (GPa) = -2.33300 27.86329 12.76515
# Shear Modulus (GPa) = -15.45598 22.57526 3.55964
#
# Velocity S-wave (km/s) = -2.69271 3.25430 1.29224
# Velocity P-wave (km/s) = 3.28055 5.21457 2.86616
#
# Compressibility (1/GPa) = -0.42863236
#
# Stress axis : x y z
#
# Youngs Moduli (GPa) = 83.76338 -24.01186 -11.08629
#
# Poissons Ratio (x) = -0.05633 -0.17438
# Poissons Ratio (y) = 0.19651 -1.51091
# Poissons Ratio (z) = 1.31756 -3.27248
#
# Static dielectric constant tensor:
#      x y z
#    x 1.759740 0.006060 0.005370 
#    y 0.006060 1.767730 -0.003930 
#    z 0.005370 -0.003930 1.768130 
# 
# From -- ./inp_files/258795.got.cif
#   From: 2010.05.17/outbox.ucp.g08.bks.cvg/sg2_130_cif.got.tgz:258795.got - 2010.06.11 11:32:03.
