data_PCOD9072307
_publ_section_title
;
Structure prediction by ZEFSAII (Michael W. Deem and Ramdas Pophale) SiO2 
 PCOD9072307
Probable space group: P -1
;
_chemical_formula_sum "Si O2"
_cell_formula_units_Z 14
_cell_length_a 13.618945
_cell_length_b 14.434983
_cell_length_c 7.416447
_cell_angle_alpha 66.408169
_cell_angle_beta 47.603177
_cell_angle_gamma 31.320917
_cell_volume 497.586549
_symmetry_space_group_name_H-M "P -1"
_symmetry_group_IT_number 2
_symmetry_cell_setting 'triclinic'
loop_
_space_group_symop_operation_xyz
x,y,z
-x,-y,-z
loop_
_atom_site_type_symbol
_atom_site_label
_atom_site_fract_x
_atom_site_fract_y
_atom_site_fract_z
Si Si1 0.049996 0.319329 0.173437
Si Si2 0.566369 0.115834 0.602183
Si Si3 0.425396 0.492240 0.412483
Si Si4 0.342309 0.717610 0.075704
Si Si5 0.324708 0.921993 0.121518
Si Si6 0.349868 0.204438 0.474574
Si Si7 0.049236 0.639858 0.335136
O O1 0.986568 0.387780 0.404444
O O2 0.762365 0.479469 0.326354
O O3 0.183093 0.122687 0.141151
O O4 0.284181 0.241369 0.886657
O O5 0.628399 0.139595 0.682229
O O6 0.494762 0.191288 0.430222
O O7 0.831318 0.873078 0.439817
O O8 0.500000 0.500000 0.500000
O O9 0.647471 0.310961 0.129939
O O10 0.264237 0.674744 0.333970
O O11 0.647185 0.530128 0.913163
O O12 0.204528 0.910120 0.163247
O O13 0.589631 0.787279 0.800272
O O14 0.053244 0.359043 0.706251
O O15 0.500000 0.000000 0.500000
#
# Coordination Sequence:
#
# PCOD9072307 Si02
#       7
#     2   2   2   2   2   2   2
#     4  10  18  37  61  82 114 157 186 231 278 342
#     4  10  19  34  58  91 115 150 186 221 291 347
#     4  10  24  44  62  76 110 157 202 233 283 335
#     4  10  24  40  59  86 112 153 190 240 288 327
#     4  11  20  37  58  90 122 140 188 239 282 344
#     4  10  18  30  54  85 117 151 179 215 279 344
#     4   9  17  35  56  80 119 147 184 223 284 346
#
# _framework density 28.135808999999998
#
# number of rings (size 3 to 8) (size 9 to 14) (size 15 to 20)
#    0.000    2.000    4.286    0.857    2.000    2.286 
#    0.000    1.429    0.000    0.000    0.000    0.000 
#    0.000    0.000    0.000    0.000    0.000    0.000 
#
# Total GULP energy -78053.041708 kJ/mol
# GULP energy per Si atom -5575.217265 kJ/mol
# Density = 2.807177 g / cm^3
# Si number density = 28.135809 Si / 1000 Ang^3
#
#
#
# Elastic Constant Matrix: (Units=GPa)
#
#
# Indices 1 2 3 4 5 6 
#
# 1 175.2490 19.1470 24.5783 2.6311 34.4246 -4.3710
# 2 19.1470 76.2338 -4.3175 9.9721 15.1905 5.3008
# 3 24.5783 -4.3175 90.9911 -12.7971 -5.8304 -2.9527
# 4 2.6311 9.9721 -12.7971 23.9509 2.3258 -3.8516
# 5 34.4246 15.1905 -5.8304 2.3258 58.9850 1.0256
# 6 -4.3710 5.3008 -2.9527 -3.8516 1.0256 55.9291
#
#
#
# Elastic Compliance Matrix: (Units=1/GPa)
#
#
# Indices 1 2 3 4 5 6 
#
# 1 0.006954 -0.000968 -0.002323 -0.001132 -0.004003 0.000508
# 2 -0.000968 0.014890 -0.000155 -0.006184 -0.003009 -0.001866
# 3 -0.002323 -0.000155 0.012788 0.007076 0.002364 0.000952
# 4 -0.001132 -0.006184 0.007076 0.048817 0.000954 0.004216
# 5 -0.004003 -0.003009 0.002364 0.000954 0.020264 -0.000209
# 6 0.000508 -0.001866 0.000952 0.004216 -0.000209 0.018441
#
#
# Mechanical properties :
#
#
# Convention : Reuss Voigt Hill
#
# Bulk Modulus (GPa) = 36.05030 46.80995 41.43012
# Shear Modulus (GPa) = 36.15523 47.97742 42.06633
#
# Velocity S-wave (km/s) = 3.58861 4.13390 3.87087
# Velocity P-wave (km/s) = 5.47829 6.28162 5.89366
#
# Compressibility (1/GPa) = 0.02773902
#
# Stress axis : x y z
#
# Youngs Moduli (GPa) = 143.80768 67.15914 78.19889
#
# Poissons Ratio (x) = 0.06499 0.18169
# Poissons Ratio (y) = 0.13916 0.01213
# Poissons Ratio (z) = 0.33413 0.01042
#
# Static dielectric constant tensor:
#      x y z
#    x 2.243990 0.123920 0.120010 
#    y 0.123920 2.461910 0.089060 
#    z 0.120010 0.089060 2.373440 
# 
# From -- ./inp_files/270422.got.cif
#   From: 2010.05.17/outbox.cif.g08.bks.cpg/sg2_136_cif.got.tgz:270422.got - 2010.06.03 11:33:40.
