data_PCOD9072576
_publ_section_title
;
Structure prediction by ZEFSAII (Michael W. Deem and Ramdas Pophale) SiO2 
 PCOD9072576
Probable space group: P -1
;
_chemical_formula_sum "Si O2"
_cell_formula_units_Z 16
_cell_length_a 12.000000
_cell_length_b 9.000000
_cell_length_c 12.000000
_cell_angle_alpha 60.000000
_cell_angle_beta 130.000000
_cell_angle_gamma 120.000000
_cell_volume 828.039435
_symmetry_space_group_name_H-M "P -1"
_symmetry_group_IT_number 2
_symmetry_cell_setting 'triclinic'
loop_
_space_group_symop_operation_xyz
x,y,z
-x,-y,-z
loop_
_atom_site_type_symbol
_atom_site_label
_atom_site_fract_x
_atom_site_fract_y
_atom_site_fract_z
Si Si1 0.826448 0.312799 0.662331
Si Si2 0.268597 0.380520 0.620765
Si Si3 0.698068 0.921201 0.372186
Si Si4 0.325259 0.873383 0.930725
Si Si5 0.147627 0.543226 0.802308
Si Si6 0.079296 0.783797 0.476455
Si Si7 0.361886 0.334994 0.942920
Si Si8 0.360011 0.945715 0.171933
O O1 0.723560 0.422001 0.491264
O O2 0.895793 0.233661 0.631282
O O3 0.736115 0.163524 0.746532
O O4 0.971567 0.460784 0.752863
O O5 0.316454 0.282383 0.583489
O O6 0.356023 0.345865 0.800384
O O7 0.094653 0.283492 0.576234
O O8 0.535245 0.942526 0.294942
O O9 0.742734 0.015065 0.244346
O O10 0.831573 0.019495 0.501976
O O11 0.262964 0.677485 0.909505
O O12 0.286473 0.856210 0.042058
O O13 0.500000 0.000000 0.000000
O O14 0.150830 0.653092 0.647272
O O15 0.214505 0.380142 0.879175
O O16 0.500000 0.500000 0.000000
O O17 0.370547 0.152598 0.074609
#
# Coordination Sequence:
#
# PCOD9072576 Si02
#       8
#     2   2   2   2   2   2   2   2
#     4  11  23  41  60  90 128 160 194 255 306 361
#     4  11  21  39  66  88 115 160 210 248 294 364
#     4  10  21  38  62  88 117 160 209 251 289 360
#     4   9  18  36  60  86 117 157 199 251 287 350
#     4  10  20  38  64  88 121 160 210 246 294 360
#     4  10  19  40  63  90 117 159 207 250 301 353
#     4  12  22  38  64  94 111 159 208 249 301 362
#     4  11  25  39  59  92 128 158 196 250 316 353
#
# _framework density 19.322751
#
# number of rings (size 3 to 8) (size 9 to 14) (size 15 to 20)
#    0.000    1.500    3.750    3.375    1.750    2.000 
#    0.000    1.250    0.000    0.000    0.000    0.000 
#    0.000    0.000    0.000    0.000    0.000    0.000 
#
# Total GULP energy -89098.635695 kJ/mol
# GULP energy per Si atom -5568.664731 kJ/mol
# Density = 1.927877 g / cm^3
# Si number density = 19.322751 Si / 1000 Ang^3
#
#
#
# Elastic Constant Matrix: (Units=GPa)
#
#
# Indices 1 2 3 4 5 6 
#
# 1 74.8391 40.9307 50.7605 -11.4937 -16.3562 11.0902
# 2 40.9307 116.9018 59.2730 7.2473 -11.3992 2.6367
# 3 50.7605 59.2730 76.9258 4.3371 -11.1177 6.6341
# 4 -11.4937 7.2473 4.3371 38.6656 0.9354 -3.0007
# 5 -16.3562 -11.3992 -11.1177 0.9354 22.5006 -8.4720
# 6 11.0902 2.6367 6.6341 -3.0007 -8.4720 28.8138
#
#
#
# Elastic Compliance Matrix: (Units=1/GPa)
#
#
# Indices 1 2 3 4 5 6 
#
# 1 0.031014 -0.001053 -0.018368 0.010959 0.011294 -0.003150
# 2 -0.001053 0.014321 -0.010071 -0.001775 0.002305 0.001906
# 3 -0.018368 -0.010071 0.033062 -0.007308 -0.002202 -0.001029
# 4 0.010959 -0.001775 -0.007308 0.030330 0.002801 0.001609
# 5 0.011294 0.002305 -0.002202 0.002801 0.057576 0.013169
# 6 -0.003150 0.001906 -0.001029 0.001609 0.013169 0.040020
#
#
# Mechanical properties :
#
#
# Convention : Reuss Voigt Hill
#
# Bulk Modulus (GPa) = 51.50898 63.39946 57.45422
# Shear Modulus (GPa) = 18.39735 25.84283 22.12009
#
# Velocity S-wave (km/s) = 3.08897 3.66106 3.38711
# Velocity P-wave (km/s) = 6.27992 7.12412 6.71530
#
# Compressibility (1/GPa) = 0.01941409
#
# Stress axis : x y z
#
# Youngs Moduli (GPa) = 32.24325 69.82728 30.24596
#
# Poissons Ratio (x) = 0.07353 0.55555
# Poissons Ratio (y) = 0.03395 0.30461
# Poissons Ratio (z) = 0.59224 0.70323
#
# Static dielectric constant tensor:
#      x y z
#    x 1.709230 -0.074740 0.044880 
#    y -0.074740 1.726620 0.014060 
#    z 0.044880 0.014060 1.696670 
# 
# From -- ./inp_files/397471.got.cif
#   From: 2010.05.17/outbox.ucp.g08.bks.cvg/sg2_199_cif.got.tgz:397471.got - 2010.06.11 11:32:03.
