data_PCOD9072508
_publ_section_title
;
Structure prediction by ZEFSAII (Michael W. Deem and Ramdas Pophale) SiO2 
 PCOD9072508
Probable space group: P -1
;
_chemical_formula_sum "Si O2"
_cell_formula_units_Z 15
_cell_length_a 9.529467
_cell_length_b 9.619090
_cell_length_c 18.608226
_cell_angle_alpha 142.421374
_cell_angle_beta 44.716349
_cell_angle_gamma 109.241751
_cell_volume 613.928210
_symmetry_space_group_name_H-M "P -1"
_symmetry_group_IT_number 2
_symmetry_cell_setting 'triclinic'
loop_
_space_group_symop_operation_xyz
x,y,z
-x,-y,-z
loop_
_atom_site_type_symbol
_atom_site_label
_atom_site_fract_x
_atom_site_fract_y
_atom_site_fract_z
Si Si1 0.725205 0.910773 0.228140
Si Si2 0.500000 0.000000 0.000000
Si Si3 0.312461 0.780068 0.042076
Si Si4 0.915632 0.300871 0.324665
Si Si5 0.587592 0.530154 0.666280
Si Si6 0.995593 0.998239 0.382736
Si Si7 0.213515 0.458557 0.826975
Si Si8 0.176655 0.225672 0.532990
O O1 0.732042 0.820325 0.272154
O O2 0.809115 0.118235 0.276998
O O3 0.461392 0.043735 0.352652
O O4 0.930758 0.653598 0.003710
O O5 0.494606 0.196233 0.150179
O O6 0.565075 0.736205 0.926035
O O7 0.275921 0.585939 0.925753
O O8 0.179946 0.087314 0.175209
O O9 0.194320 0.829406 0.181263
O O10 0.735968 0.514786 0.536478
O O11 0.909739 0.467659 0.328063
O O12 0.780339 0.262613 0.530661
O O13 0.368182 0.485697 0.720528
O O14 0.088884 0.108857 0.455363
O O15 0.906211 0.824331 0.381563
#
# Coordination Sequence:
#
# PCOD9072508 Si02
#       8
#     2   1   2   2   2   2   2   2
#     4  10  20  38  58  82 114 158 189 237 282 337
#     4  10  18  30  62  84 120 136 184 244 286 320
#     4   9  19  37  59  89 107 152 194 237 278 338
#     4  10  21  36  62  85 114 146 200 238 279 330
#     4  10  19  37  60  90 107 150 195 238 279 339
#     4  10  21  37  61  85 116 149 195 230 284 347
#     4   9  19  37  61  80 115 145 199 236 282 330
#     4  11  21  36  58  86 119 150 184 240 290 337
#
# _framework density 24.432828000000001
#
# number of rings (size 3 to 8) (size 9 to 14) (size 15 to 20)
#    0.000    2.133    1.333    2.000    0.000    2.667 
#    4.800    1.333   14.667    0.000    0.000    0.000 
#    0.000    0.000    0.000    0.000    0.000    0.000 
#
# Total GULP energy -83716.778401 kJ/mol
# GULP energy per Si atom -5581.118560 kJ/mol
# Density = 2.437722 g / cm^3
# Si number density = 24.432828 Si / 1000 Ang^3
#
#
#
# Elastic Constant Matrix: (Units=GPa)
#
#
# Indices 1 2 3 4 5 6 
#
# 1 39.7567 33.1584 13.4725 0.8842 -18.9228 16.7188
# 2 33.1584 153.2930 19.8243 3.6442 -4.6422 18.5831
# 3 13.4725 19.8243 66.9366 -13.3942 2.3722 3.8145
# 4 0.8842 3.6442 -13.3942 41.1436 6.1589 2.7171
# 5 -18.9228 -4.6422 2.3722 6.1589 39.8044 -4.0930
# 6 16.7188 18.5831 3.8145 2.7171 -4.0930 37.7600
#
#
#
# Elastic Compliance Matrix: (Units=1/GPa)
#
#
# Indices 1 2 3 4 5 6 
#
# 1 0.052850 -0.007399 -0.009648 -0.006203 0.024180 -0.015717
# 2 -0.007399 0.008291 -0.000908 -0.000429 -0.002528 -0.000956
# 3 -0.009648 -0.000908 0.018764 0.007308 -0.006781 0.001562
# 4 -0.006203 -0.000429 0.007308 0.028073 -0.007845 -0.000651
# 5 0.024180 -0.002528 -0.006781 -0.007845 0.037515 -0.004146
# 6 -0.015717 -0.000956 0.001562 -0.000651 -0.004146 0.033352
#
#
# Mechanical properties :
#
#
# Convention : Reuss Voigt Hill
#
# Bulk Modulus (GPa) = 22.73063 43.65518 33.19291
# Shear Modulus (GPa) = 21.79410 36.64366 29.21888
#
# Velocity S-wave (km/s) = 2.98988 3.87689 3.46191
# Velocity P-wave (km/s) = 4.60898 6.16008 5.44009
#
# Compressibility (1/GPa) = 0.04399350
#
# Stress axis : x y z
#
# Youngs Moduli (GPa) = 18.92159 120.61487 53.29315
#
# Poissons Ratio (x) = 0.89243 0.51420
# Poissons Ratio (y) = 0.14000 0.04840
# Poissons Ratio (z) = 0.18256 0.10953
#
# Static dielectric constant tensor:
#      x y z
#    x 2.051460 0.112510 -0.082160 
#    y 0.112510 2.131770 -0.110630 
#    z -0.082160 -0.110630 2.068010 
# 
# From -- ./inp_files/376748.got.cif
#   From: 2010.05.17/outbox.cif.g08.bks.cpg/sg2_189_cif.got.tgz:376748.got - 2010.06.03 11:33:40.
