data_PCOD9072123
_publ_section_title
;
Structure prediction by ZEFSAII (Michael W. Deem and Ramdas Pophale) SiO2 
 PCOD9072123
Probable space group: P -1
;
_chemical_formula_sum "Si O2"
_cell_formula_units_Z 16
_cell_length_a 21.000000
_cell_length_b 12.000000
_cell_length_c 9.000000
_cell_angle_alpha 110.000000
_cell_angle_beta 140.000000
_cell_angle_gamma 40.000000
_cell_volume 754.890988
_symmetry_space_group_name_H-M "P -1"
_symmetry_group_IT_number 2
_symmetry_cell_setting 'triclinic'
loop_
_space_group_symop_operation_xyz
x,y,z
-x,-y,-z
loop_
_atom_site_type_symbol
_atom_site_label
_atom_site_fract_x
_atom_site_fract_y
_atom_site_fract_z
Si Si1 0.121614 0.458474 0.921114
Si Si2 0.036962 0.658898 0.172586
Si Si3 0.226912 0.310553 0.594851
Si Si4 0.284953 0.628841 0.547987
Si Si5 0.694517 0.966025 0.888187
Si Si6 0.361207 0.810736 0.844974
Si Si7 0.534637 0.140243 0.228344
Si Si8 0.612407 0.615743 0.645729
O O1 0.940926 0.588840 0.586321
O O2 0.063401 0.550636 0.026963
O O3 0.263830 0.208911 0.066480
O O4 0.206645 0.495939 0.037205
O O5 0.152192 0.482058 0.426856
O O6 0.116660 0.709512 0.307314
O O7 0.835249 0.858687 0.962372
O O8 0.337817 0.097298 0.611929
O O9 0.354167 0.251595 0.908624
O O10 0.258429 0.793317 0.608881
O O11 0.351112 0.536999 0.455204
O O12 0.444594 0.424460 0.849593
O O13 0.495367 0.190428 0.573419
O O14 0.727212 0.023500 0.108025
O O15 0.390100 0.867101 0.782982
O O16 0.502092 0.268085 0.356971
#
# Coordination Sequence:
#
# PCOD9072123 Si02
#       8
#     2   2   2   2   2   2   2   2
#     4  10  20  34  58  83 116 144 186 228 272 331
#     4  10  18  37  59  85 111 144 185 235 269 324
#     4  10  21  34  53  84 119 146 173 225 287 327
#     4   9  20  39  60  77 110 144 198 228 267 317
#     4  10  20  34  59  84 110 145 190 224 279 322
#     4  10  21  38  56  83 109 150 185 235 267 323
#     4  11  22  35  55  82 122 146 178 222 282 339
#     4  10  21  35  57  83 108 153 182 226 275 334
#
# _framework density 21.195112999999999
#
# number of rings (size 3 to 8) (size 9 to 14) (size 15 to 20)
#    0.000    2.000    1.250    3.375    3.500    1.500 
#    2.250    0.000    0.000    6.750    0.000    0.000 
#    0.000    0.000    0.000    0.000    0.000    0.000 
#
# Total GULP energy -89303.212600 kJ/mol
# GULP energy per Si atom -5581.450788 kJ/mol
# Density = 2.114687 g / cm^3
# Si number density = 21.195113 Si / 1000 Ang^3
#
#
#
# Elastic Constant Matrix: (Units=GPa)
#
#
# Indices 1 2 3 4 5 6 
#
# 1 39.7794 34.9485 20.4761 17.5110 -1.3213 -17.2910
# 2 34.9485 112.7439 22.8688 39.2742 3.9431 -7.1594
# 3 20.4761 22.8688 58.2025 7.6236 10.2185 11.6293
# 4 17.5110 39.2742 7.6236 26.8103 2.0061 3.8378
# 5 -1.3213 3.9431 10.2185 2.0061 9.2657 13.6893
# 6 -17.2910 -7.1594 11.6293 3.8378 13.6893 27.2162
#
#
#
# Elastic Compliance Matrix: (Units=1/GPa)
#
#
# Indices 1 2 3 4 5 6 
#
# 1 -0.030233 -0.027966 0.008861 0.063355 0.164041 -0.121794
# 2 -0.027966 0.013080 0.005385 -0.000148 0.035324 -0.034374
# 3 0.008861 0.005385 0.020378 -0.019395 -0.081317 0.041975
# 4 0.063355 -0.000148 -0.019395 -0.004938 -0.160090 0.129718
# 5 0.164041 0.035324 -0.081317 -0.160090 -0.045792 0.193864
# 6 -0.121794 -0.034374 0.041975 0.129718 0.193864 -0.183415
#
#
# Mechanical properties :
#
#
# Convention : Reuss Voigt Hill
#
# Bulk Modulus (GPa) = -41.29758 40.81253 -0.24253
# Shear Modulus (GPa) = -23.63482 21.48727 -1.07378
#
# Velocity S-wave (km/s) = -3.34294 3.18745 -0.71254
# Velocity P-wave (km/s) = 5.86747 5.73096 0.88973
#
# Compressibility (1/GPa) = -0.02421449
#
# Stress axis : x y z
#
# Youngs Moduli (GPa) = -33.07655 76.45366 49.07220
#
# Poissons Ratio (x) = 2.13813 -0.43484
# Poissons Ratio (y) = -0.92503 -0.26428
# Poissons Ratio (z) = 0.29310 -0.41174
#
# Static dielectric constant tensor:
#      x y z
#    x 1.776490 -0.053880 0.020140 
#    y -0.053880 1.745120 -0.012390 
#    z 0.020140 -0.012390 1.789900 
# 
# From -- ./inp_files/180091.got.cif
#   From: 2010.05.17/outbox.ucp.g08.bks.cvg/sg2_91_cif.got.tgz:180091.got - 2010.06.11 11:32:03.
