data_PCOD9072366
_publ_section_title
;
Structure prediction by ZEFSAII (Michael W. Deem and Ramdas Pophale) SiO2 
 PCOD9072366
Probable space group: P -1
;
_chemical_formula_sum "Si O2"
_cell_formula_units_Z 16
_cell_length_a 14.634651
_cell_length_b 7.714311
_cell_length_c 14.990269
_cell_angle_alpha 96.978082
_cell_angle_beta 157.787856
_cell_angle_gamma 90.673048
_cell_volume 599.223761
_symmetry_space_group_name_H-M "P -1"
_symmetry_group_IT_number 2
_symmetry_cell_setting 'triclinic'
loop_
_space_group_symop_operation_xyz
x,y,z
-x,-y,-z
loop_
_atom_site_type_symbol
_atom_site_label
_atom_site_fract_x
_atom_site_fract_y
_atom_site_fract_z
Si Si1 0.067118 0.724065 0.584501
Si Si2 0.538427 0.530540 0.796729
Si Si3 0.499136 0.666404 0.077488
Si Si4 0.788120 0.636439 0.662198
Si Si5 0.994954 0.200299 0.831474
Si Si6 0.442717 0.768612 0.483021
Si Si7 0.728091 0.069655 0.908685
Si Si8 0.695867 0.153890 0.377461
O O1 0.144858 0.827360 0.566813
O O2 0.000000 0.500000 0.500000
O O3 0.804822 0.757077 0.378897
O O4 0.321604 0.773574 0.879595
O O5 0.627165 0.436589 0.952917
O O6 0.297184 0.393770 0.519299
O O7 0.461434 0.704470 0.772310
O O8 0.753236 0.622380 0.923024
O O9 0.500000 0.500000 0.000000
O O10 0.626211 0.752383 0.569561
O O11 0.682599 0.435934 0.600571
O O12 0.093414 0.732322 0.950323
O O13 0.817065 0.181074 0.755505
O O14 0.870046 0.226774 0.626484
O O15 0.067260 0.017566 0.872459
O O16 0.600990 0.925106 0.705722
O O17 0.505969 0.037069 0.779425
#
# Coordination Sequence:
#
# PCOD9072366 Si02
#       8
#     2   2   2   2   2   2   2   2
#     4  10  18  30  55  91 119 163 211 256 313 377
#     4  11  20  35  57  88 121 155 203 258 308 369
#     4  10  19  30  55  91 121 160 211 259 312 379
#     4  11  22  41  61  88 124 157 202 260 311 371
#     4  10  19  37  59  85 122 157 206 251 304 376
#     4  10  22  42  61  86 120 163 203 251 313 371
#     4  10  22  40  59  88 123 159 204 254 307 374
#     4  10  19  35  58  86 121 159 201 252 307 370
#
# _framework density 26.70121
#
# number of rings (size 3 to 8) (size 9 to 14) (size 15 to 20)
#    0.000    1.750    6.250    1.875    1.750    1.000 
#    4.500    0.000    0.000    1.500    0.000    0.000 
#    0.000    0.000    0.000    0.000    0.000    0.000 
#
# Total GULP energy -89496.424657 kJ/mol
# GULP energy per Si atom -5593.526541 kJ/mol
# Density = 2.664044 g / cm^3
# Si number density = 26.701210 Si / 1000 Ang^3
#
#
#
# Elastic Constant Matrix: (Units=GPa)
#
#
# Indices 1 2 3 4 5 6 
#
# 1 99.0307 25.6560 35.1821 16.9308 25.6329 23.8154
# 2 25.6560 102.3570 29.3747 15.2335 11.1521 8.8404
# 3 35.1821 29.3747 124.2725 16.5003 34.9753 8.4583
# 4 16.9308 15.2335 16.5003 52.9942 -0.4697 8.0405
# 5 25.6329 11.1521 34.9753 -0.4697 42.4306 2.2315
# 6 23.8154 8.8404 8.4583 8.0405 2.2315 31.4161
#
#
#
# Elastic Compliance Matrix: (Units=1/GPa)
#
#
# Indices 1 2 3 4 5 6 
#
# 1 0.015732 -0.001560 -0.000783 -0.002891 -0.007956 -0.009971
# 2 -0.001560 0.011088 -0.001692 -0.002027 -0.000551 -0.000924
# 3 -0.000783 -0.001692 0.011497 -0.002813 -0.008553 -0.000698
# 4 -0.002891 -0.002027 -0.002813 0.021657 0.004963 -0.002376
# 5 -0.007956 -0.000551 -0.008553 0.004963 0.035376 0.004706
# 6 -0.009971 -0.000924 -0.000698 -0.002376 0.004706 0.040111
#
#
# Mechanical properties :
#
#
# Convention : Reuss Voigt Hill
#
# Bulk Modulus (GPa) = 33.06354 56.23176 44.64765
# Shear Modulus (GPa) = 32.54930 41.06468 36.80699
#
# Velocity S-wave (km/s) = 3.49523 3.92590 3.71681
# Velocity P-wave (km/s) = 5.35710 6.45412 5.93103
#
# Compressibility (1/GPa) = 0.03024480
#
# Stress axis : x y z
#
# Youngs Moduli (GPa) = 63.56605 90.18887 86.98092
#
# Poissons Ratio (x) = 0.14070 0.06814
# Poissons Ratio (y) = 0.09917 0.14719
# Poissons Ratio (z) = 0.04980 0.15262
#
# Static dielectric constant tensor:
#      x y z
#    x 2.052920 -0.037600 0.055240 
#    y -0.037600 2.165720 0.006260 
#    z 0.055240 0.006260 2.171280 
# 
# From -- ./inp_files/575416.got.cif
#   From: 2010.05.17/outbox.cif.g08.bks.cpg/sg2_288_cif.got.tgz:575416.got - 2010.06.03 11:33:40.
