data_PCOD9072837
_publ_section_title
;
Structure prediction by ZEFSAII (Michael W. Deem and Ramdas Pophale) SiO2 
 PCOD9072837
Probable space group: P -1
;
_chemical_formula_sum "Si O2"
_cell_formula_units_Z 16
_cell_length_a 12.000000
_cell_length_b 9.000000
_cell_length_c 18.000000
_cell_angle_alpha 50.000000
_cell_angle_beta 30.000000
_cell_angle_gamma 60.000000
_cell_volume 736.400153
_symmetry_space_group_name_H-M "P -1"
_symmetry_group_IT_number 2
_symmetry_cell_setting 'triclinic'
loop_
_space_group_symop_operation_xyz
x,y,z
-x,-y,-z
loop_
_atom_site_type_symbol
_atom_site_label
_atom_site_fract_x
_atom_site_fract_y
_atom_site_fract_z
Si Si1 0.395685 0.213635 0.099556
Si Si2 0.662019 0.877320 0.051770
Si Si3 0.146412 0.243125 0.511306
Si Si4 0.248342 0.527762 0.616454
Si Si5 0.984240 0.190389 0.247734
Si Si6 0.204488 0.629675 0.442767
Si Si7 0.920345 0.147261 0.941610
Si Si8 0.494215 0.654443 0.848513
O O1 0.396861 0.216083 0.186963
O O2 0.142882 0.179293 0.230604
O O3 0.535618 0.053792 0.037084
O O4 0.497115 0.430022 0.942710
O O5 0.460277 0.713435 0.246307
O O6 0.833686 0.780986 0.932482
O O7 0.802267 0.002489 0.994211
O O8 0.128790 0.406040 0.531474
O O9 0.377189 0.302351 0.315169
O O10 0.956566 0.257091 0.552369
O O11 0.142748 0.029255 0.616374
O O12 0.500000 0.500000 0.500000
O O13 0.159805 0.642436 0.700811
O O14 0.205559 0.640132 0.528215
O O15 0.118767 0.310099 0.748006
O O16 0.750499 0.282557 0.031940
O O17 0.000000 0.000000 0.000000
#
# Coordination Sequence:
#
# PCOD9072837 Si02
#       8
#     2   2   2   2   2   2   2   2
#     4  10  20  37  66  97 138 170 216 264 342 402
#     4  11  24  43  70 101 138 178 219 271 337 407
#     4  11  25  38  68 105 142 170 220 276 343 392
#     4  12  28  49  70  96 134 179 232 282 330 394
#     4  12  24  42  68 102 134 177 221 273 337 403
#     4  11  25  44  67 102 144 174 216 280 337 397
#     4  11  25  47  70  94 131 181 230 277 331 392
#     4  10  22  38  64 100 132 180 217 274 328 409
#
# _framework density 21.727318
#
# number of rings (size 3 to 8) (size 9 to 14) (size 15 to 20)
#    0.000    1.000    2.500    3.375   12.250    1.000 
#    2.250    2.500    0.000    0.000    0.000    0.000 
#    0.000    0.000    0.000    0.000    0.000    0.000 
#
# Total GULP energy -89271.059846 kJ/mol
# GULP energy per Si atom -5579.441240 kJ/mol
# Density = 2.167787 g / cm^3
# Si number density = 21.727318 Si / 1000 Ang^3
#
#
#
# Elastic Constant Matrix: (Units=GPa)
#
#
# Indices 1 2 3 4 5 6 
#
# 1 33.2446 39.2145 29.2082 13.8698 -7.6094 -7.9476
# 2 39.2145 66.9515 29.7827 15.7558 -2.5940 10.8572
# 3 29.2082 29.7827 80.5363 2.5076 -4.3571 3.0983
# 4 13.8698 15.7558 2.5076 38.2119 1.3953 -2.3561
# 5 -7.6094 -2.5940 -4.3571 1.3953 28.7255 3.0424
# 6 -7.9476 10.8572 3.0983 -2.3561 3.0424 20.5843
#
#
#
# Elastic Compliance Matrix: (Units=1/GPa)
#
#
# Indices 1 2 3 4 5 6 
#
# 1 -0.374809 0.229764 0.058174 0.022660 -0.042668 -0.265759
# 2 0.229764 -0.118213 -0.043111 -0.023594 0.028847 0.150588
# 3 0.058174 -0.043111 0.006083 -0.001381 0.007958 0.042950
# 4 0.022660 -0.023594 -0.001381 0.029308 -0.000389 0.024814
# 5 -0.042668 0.028847 0.007958 -0.000389 0.031319 -0.037561
# 6 -0.265759 0.150588 0.042950 0.024814 -0.037561 -0.131530
#
#
# Mechanical properties :
#
#
# Convention : Reuss Voigt Hill
#
# Bulk Modulus (GPa) = 368.20892 41.90482 205.05687
# Shear Modulus (GPa) = -4.77742 23.00613 9.11436
#
# Velocity S-wave (km/s) = -1.48445 3.25754 2.05036
# Velocity P-wave (km/s) = 12.91890 5.78596 10.00938
#
# Compressibility (1/GPa) = 0.00271585
#
# Stress axis : x y z
#
# Youngs Moduli (GPa) = -2.66803 -8.45931 164.40312
#
# Poissons Ratio (x) = 1.94365 -9.56398
# Poissons Ratio (y) = 0.61302 7.08756
# Poissons Ratio (z) = 0.15521 -0.36469
#
# Static dielectric constant tensor:
#      x y z
#    x 1.654630 0.108930 0.012090 
#    y 0.108930 1.750040 -0.016550 
#    z 0.012090 -0.016550 1.813650 
# 
# From -- ./inp_files/182367.got.cif
#   From: 2010.05.17/outbox.ucp.g08.bks.cvg/sg2_92_cif.got.tgz:182367.got - 2010.06.11 11:32:03.
