data_PCOD9072571
_publ_section_title
;
Structure prediction by ZEFSAII (Michael W. Deem and Ramdas Pophale) SiO2 
 PCOD9072571
Probable space group: P -1
;
_chemical_formula_sum "Si O2"
_cell_formula_units_Z 12
_cell_length_a 12.000000
_cell_length_b 9.000000
_cell_length_c 12.000000
_cell_angle_alpha 40.000000
_cell_angle_beta 40.000000
_cell_angle_gamma 60.000000
_cell_volume 523.519695
_symmetry_space_group_name_H-M "P -1"
_symmetry_group_IT_number 2
_symmetry_cell_setting 'triclinic'
loop_
_space_group_symop_operation_xyz
x,y,z
-x,-y,-z
loop_
_atom_site_type_symbol
_atom_site_label
_atom_site_fract_x
_atom_site_fract_y
_atom_site_fract_z
Si Si1 0.399504 0.513351 0.187460
Si Si2 0.896271 0.894386 0.385737
Si Si3 0.280332 0.997763 0.999148
Si Si4 0.971343 0.259495 0.406153
Si Si5 0.675703 0.235888 0.489062
Si Si6 0.715600 0.624159 0.053252
O O1 0.257968 0.278188 0.461603
O O2 0.551025 0.558529 0.136785
O O3 0.500000 0.500000 0.000000
O O4 0.301622 0.730057 0.134354
O O5 0.961929 0.726887 0.526248
O O6 0.790969 0.072479 0.427699
O O7 0.076536 0.006052 0.116856
O O8 0.466298 0.127129 0.725118
O O9 0.279866 0.112400 0.056703
O O10 0.777710 0.285023 0.500853
O O11 0.000000 0.000000 0.500000
O O12 0.114585 0.414343 0.124314
O O13 0.697077 0.470959 0.266289
#
# Coordination Sequence:
#
# PCOD9072571 Si02
#       6
#     2   2   2   2   2   2
#     4  12  24  45  68  99 133 176 224 274 329 391
#     4  11  24  44  69  99 131 178 222 272 330 391
#     4  12  25  44  70  97 132 178 230 267 322 400
#     4  10  19  39  69  97 128 172 221 270 319 384
#     4  11  24  42  69 101 139 167 222 276 333 391
#     4  12  24  42  73 100 132 178 217 276 334 390
#
# _framework density 22.921773999999999
#
# number of rings (size 3 to 8) (size 9 to 14) (size 15 to 20)
#    0.000    0.667    6.667    3.000    2.333    0.667 
#    0.000    0.833    0.000    0.000    0.000    0.000 
#    0.000    0.000    0.000    0.000    0.000    0.000 
#
# Total GULP energy -66983.965599 kJ/mol
# GULP energy per Si atom -5581.997133 kJ/mol
# Density = 2.286960 g / cm^3
# Si number density = 22.921774 Si / 1000 Ang^3
#
#
#
# Elastic Constant Matrix: (Units=GPa)
#
#
# Indices 1 2 3 4 5 6 
#
# 1 9.7275 38.4422 -4.5013 -10.2898 -20.6834 11.0921
# 2 38.4422 97.0405 36.8579 13.1115 -11.4144 -15.6042
# 3 -4.5013 36.8579 85.2503 32.6736 -32.1044 -11.8006
# 4 -10.2898 13.1115 32.6736 30.5523 -3.8937 -20.3916
# 5 -20.6834 -11.4144 -32.1044 -3.8937 50.2141 2.1897
# 6 11.0921 -15.6042 -11.8006 -20.3916 2.1897 17.8017
#
#
#
# Elastic Compliance Matrix: (Units=1/GPa)
#
#
# Indices 1 2 3 4 5 6 
#
# 1 0.002358 0.011986 -0.031060 0.087285 -0.013322 0.090071
# 2 0.011986 0.003676 0.005095 -0.013475 0.008743 -0.017380
# 3 -0.031060 0.005095 0.030039 -0.065435 0.003878 -0.031699
# 4 0.087285 -0.013475 -0.065435 0.275672 0.003457 0.205779
# 5 -0.013322 0.008743 0.003878 0.003457 0.018279 0.020247
# 6 0.090071 -0.017380 -0.031699 0.205779 0.020247 0.197030
#
#
# Mechanical properties :
#
#
# Convention : Reuss Voigt Hill
#
# Bulk Modulus (GPa) = 123.23637 37.06841 80.15239
# Shear Modulus (GPa) = 8.96513 27.79492 18.38002
#
# Velocity S-wave (km/s) = 1.97982 3.48602 2.83478
# Velocity P-wave (km/s) = 7.68810 5.69297 6.76449
#
# Compressibility (1/GPa) = 0.00811449
#
# Stress axis : x y z
#
# Youngs Moduli (GPa) = 424.07053 272.04634 33.29052
#
# Poissons Ratio (x) = -3.26080 1.03401
# Poissons Ratio (y) = -5.08299 -0.16962
# Poissons Ratio (z) = 13.17177 -1.38611
#
# Static dielectric constant tensor:
#      x y z
#    x 1.842490 0.040930 -0.024300 
#    y 0.040930 1.855380 0.001100 
#    z -0.024300 0.001100 1.981040 
# 
# From -- ./inp_files/184950.got.cif
#   From: 2010.05.17/outbox.ucp.g08.bks.cvg/sg2_93_cif.got.tgz:184950.got - 2010.06.11 11:32:03.
