data_PCOD9072847
_publ_section_title
;
Structure prediction by ZEFSAII (Michael W. Deem and Ramdas Pophale) SiO2 
 PCOD9072847
Probable space group: P -1
;
_chemical_formula_sum "Si O2"
_cell_formula_units_Z 14
_cell_length_a 8.145350
_cell_length_b 13.899370
_cell_length_c 18.035868
_cell_angle_alpha 156.831900
_cell_angle_beta 49.347228
_cell_angle_gamma 138.652559
_cell_volume 524.800814
_symmetry_space_group_name_H-M "P -1"
_symmetry_group_IT_number 2
_symmetry_cell_setting 'triclinic'
loop_
_space_group_symop_operation_xyz
x,y,z
-x,-y,-z
loop_
_atom_site_type_symbol
_atom_site_label
_atom_site_fract_x
_atom_site_fract_y
_atom_site_fract_z
Si Si1 0.888731 0.662631 0.692688
Si Si2 0.847643 0.996718 0.374879
Si Si3 0.049080 0.616867 0.986621
Si Si4 0.349466 0.356731 0.672251
Si Si5 0.070010 0.668214 0.788524
Si Si6 0.506679 0.396480 0.341378
Si Si7 0.660273 0.412949 0.840867
O O1 0.084132 0.815494 0.810535
O O2 0.755378 0.757107 0.736894
O O3 0.000000 0.500000 0.500000
O O4 0.026887 0.667919 0.431834
O O5 0.808364 0.882952 0.390869
O O6 0.563740 0.846968 0.319957
O O7 0.334874 0.334274 0.570871
O O8 0.000415 0.878174 0.198635
O O9 0.296492 0.612688 0.886584
O O10 0.840716 0.387409 0.829015
O O11 0.000000 0.500000 0.000000
O O12 0.640703 0.458688 0.669669
O O13 0.864906 0.651899 0.895132
O O14 0.342716 0.770123 0.814575
O O15 0.500000 0.500000 0.500000
O O16 0.500000 0.500000 0.000000
#
# Coordination Sequence:
#
# PCOD9072847 Si02
#       7
#     2   2   2   2   2   2   2
#     4  10  20  34  55  80 106 141 192 225 258 324
#     4  10  21  32  54  85 114 139 173 229 284 318
#     4   9  18  35  49  76 112 148 182 208 266 348
#     4   9  18  34  52  79 109 143 180 219 271 325
#     4  12  20  36  56  85 115 137 178 237 272 317
#     4  10  20  34  55  78 103 149 186 220 268 313
#     4  10  18  31  51  76 110 147 173 204 273 335
#
# _framework density 26.676787999999998
#
# number of rings (size 3 to 8) (size 9 to 14) (size 15 to 20)
#    0.857    1.143    4.286    0.429    0.000    0.571 
#    5.143    0.000    0.000    3.429    0.000    6.000 
#    0.000    0.000    0.000    0.000    0.000    0.000 
#
# Total GULP energy -78056.407235 kJ/mol
# GULP energy per Si atom -5575.457660 kJ/mol
# Density = 2.661607 g / cm^3
# Si number density = 26.676788 Si / 1000 Ang^3
#
#
#
# Elastic Constant Matrix: (Units=GPa)
#
#
# Indices 1 2 3 4 5 6 
#
# 1 203.1515 68.7867 60.6125 -9.2791 26.3087 -3.7362
# 2 68.7867 97.9264 55.9655 -18.1607 -7.5327 -8.5168
# 3 60.6125 55.9655 137.8204 -28.6217 -12.7608 -10.1363
# 4 -9.2791 -18.1607 -28.6217 58.6960 1.0102 -2.0077
# 5 26.3087 -7.5327 -12.7608 1.0102 56.9218 -28.4692
# 6 -3.7362 -8.5168 -10.1363 -2.0077 -28.4692 49.0304
#
#
#
# Elastic Compliance Matrix: (Units=1/GPa)
#
#
# Indices 1 2 3 4 5 6 
#
# 1 0.008749 -0.005933 -0.003087 -0.002017 -0.008494 -0.006017
# 2 -0.005933 0.017710 -0.002673 0.003335 0.007796 0.006735
# 3 -0.003087 -0.002673 0.011625 0.004435 0.006403 0.005603
# 4 -0.002017 0.003335 0.004435 0.019998 0.004360 0.004693
# 5 -0.008494 0.007796 0.006403 0.004360 0.035215 0.022656
# 6 -0.006017 0.006735 0.005603 0.004693 0.022656 0.035613
#
#
# Mechanical properties :
#
#
# Convention : Reuss Voigt Hill
#
# Bulk Modulus (GPa) = 68.02849 89.95866 78.99358
# Shear Modulus (GPa) = 31.80768 49.83189 40.81978
#
# Velocity S-wave (km/s) = 3.45677 4.32671 3.91597
# Velocity P-wave (km/s) = 6.44117 7.66521 7.07969
#
# Compressibility (1/GPa) = 0.01469972
#
# Stress axis : x y z
#
# Youngs Moduli (GPa) = 114.29315 56.46393 86.02330
#
# Poissons Ratio (x) = 0.33497 0.26554
# Poissons Ratio (y) = 0.67805 0.22995
# Poissons Ratio (z) = 0.35280 0.15093
#
# Static dielectric constant tensor:
#      x y z
#    x 2.130540 0.020250 0.003380 
#    y 0.020250 2.011040 -0.076110 
#    z 0.003380 -0.076110 1.970390 
# 
# From -- ./inp_files/356127.got.cif
#   From: 2010.05.17/outbox.cif.g08.bks.cpg/sg2_179_cif.got.tgz:356127.got - 2010.06.03 11:33:40.
