data_PCOD9072649
_publ_section_title
;
Structure prediction by ZEFSAII (Michael W. Deem and Ramdas Pophale) SiO2 
 PCOD9072649
Probable space group: P -1
;
_chemical_formula_sum "Si O2"
_cell_formula_units_Z 16
_cell_length_a 11.291825
_cell_length_b 13.529888
_cell_length_c 14.553827
_cell_angle_alpha 20.125725
_cell_angle_beta 79.929008
_cell_angle_gamma 79.399606
_cell_volume 751.990403
_symmetry_space_group_name_H-M "P -1"
_symmetry_group_IT_number 2
_symmetry_cell_setting 'triclinic'
loop_
_space_group_symop_operation_xyz
x,y,z
-x,-y,-z
loop_
_atom_site_type_symbol
_atom_site_label
_atom_site_fract_x
_atom_site_fract_y
_atom_site_fract_z
Si Si1 0.263330 0.735459 0.238230
Si Si2 0.887355 0.349794 0.018530
Si Si3 0.086708 0.925159 0.935379
Si Si4 0.510787 0.629701 0.487745
Si Si5 0.150327 0.062267 0.246697
Si Si6 0.073814 0.572035 0.552607
Si Si7 0.634669 0.833989 0.007137
Si Si8 0.858792 0.989130 0.504344
O O1 0.178606 0.871046 0.052368
O O2 0.357798 0.496234 0.391902
O O3 0.188028 0.583445 0.460721
O O4 0.327632 0.992664 0.057647
O O5 0.032350 0.285100 0.069631
O O6 0.827766 0.229750 0.223228
O O7 0.859934 0.187122 0.070590
O O8 0.850177 0.682452 0.725253
O O9 0.973740 0.728415 0.145820
O O10 0.033351 0.247582 0.644367
O O11 0.500000 0.500000 0.500000
O O12 0.476252 0.965860 0.193952
O O13 0.409554 0.475548 0.693260
O O14 0.252601 0.170159 0.072325
O O15 0.199280 0.003745 0.393522
O O16 0.103143 0.771815 0.461320
O O17 0.000000 0.000000 0.500000
#
# Coordination Sequence:
#
# PCOD9072649 Si02
#       8
#     2   2   2   2   2   2   2   2
#     4  10  21  35  54  71 101 139 163 202 250 285
#     4  10  20  31  47  75 104 128 163 198 235 301
#     4  11  21  34  49  74 104 136 167 196 236 299
#     4  10  21  36  51  73 100 129 170 213 244 285
#     4   9  19  33  53  74 103 134 159 204 254 289
#     4  10  22  33  48  76 105 131 168 199 235 300
#     4  10  22  35  52  77 100 127 170 209 246 292
#     4  10  18  31  49  72 100 132 160 197 248 295
#
# _framework density 21.276868
#
# number of rings (size 3 to 8) (size 9 to 14) (size 15 to 20)
#    0.000    2.000    0.000    6.000    0.000   17.000 
#    0.000    0.000    0.000    0.000    0.000    5.250 
#    0.000    0.000    0.000    0.000    0.000    0.000 
#
# Total GULP energy -89535.362838 kJ/mol
# GULP energy per Si atom -5595.960177 kJ/mol
# Density = 2.122844 g / cm^3
# Si number density = 21.276868 Si / 1000 Ang^3
#
#
#
# Elastic Constant Matrix: (Units=GPa)
#
#
# Indices 1 2 3 4 5 6 
#
# 1 41.1381 23.5428 2.1730 3.4725 10.3024 -5.6568
# 2 23.5428 70.9508 13.0348 16.9548 2.3174 0.5304
# 3 2.1730 13.0348 73.1395 7.4563 1.2128 1.0840
# 4 3.4725 16.9548 7.4563 31.9776 0.0706 -1.7901
# 5 10.3024 2.3174 1.2128 0.0706 21.6613 -0.6990
# 6 -5.6568 0.5304 1.0840 -1.7901 -0.6990 17.9353
#
#
#
# Elastic Compliance Matrix: (Units=1/GPa)
#
#
# Indices 1 2 3 4 5 6 
#
# 1 0.036847 -0.012738 0.000937 0.003221 -0.015849 0.011645
# 2 -0.012738 0.020934 -0.002372 -0.009468 0.003812 -0.005290
# 3 0.000937 -0.002372 0.014322 -0.002224 -0.001011 -0.000761
# 4 0.003221 -0.009468 -0.002224 0.036746 -0.000350 0.005084
# 5 -0.015849 0.003812 -0.001011 -0.000350 0.053256 -0.003010
# 6 0.011645 -0.005290 -0.000761 0.005084 -0.003010 0.060021
#
#
# Mechanical properties :
#
#
# Convention : Reuss Voigt Hill
#
# Bulk Modulus (GPa) = 22.85271 29.19215 26.02243
# Shear Modulus (GPa) = 18.86375 24.08002 21.47189
#
# Velocity S-wave (km/s) = 2.98079 3.36779 3.18018
# Velocity P-wave (km/s) = 4.75508 5.37333 5.07363
#
# Compressibility (1/GPa) = 0.04375848
#
# Stress axis : x y z
#
# Youngs Moduli (GPa) = 27.13911 47.76875 69.82174
#
# Poissons Ratio (x) = 0.60847 -0.06544
# Poissons Ratio (y) = 0.34569 0.16562
# Poissons Ratio (z) = -0.02544 0.11331
#
# Static dielectric constant tensor:
#      x y z
#    x 1.813200 -0.006880 0.016430 
#    y -0.006880 1.808450 0.004830 
#    z 0.016430 0.004830 1.800800 
# 
# From -- ./inp_files/522081.got.cif
#   From: 2010.05.17/outbox.cif.g08.bks.cpg/sg2_262_cif.got.tgz:522081.got - 2010.06.03 11:33:40.
