data_PCOD9072756
_publ_section_title
;
Structure prediction by ZEFSAII (Michael W. Deem and Ramdas Pophale) SiO2 
 PCOD9072756
Probable space group: P -1
;
_chemical_formula_sum "Si O2"
_cell_formula_units_Z 16
_cell_length_a 27.000000
_cell_length_b 9.000000
_cell_length_c 9.000000
_cell_angle_alpha 110.000000
_cell_angle_beta 40.000000
_cell_angle_gamma 140.000000
_cell_volume 727.930595
_symmetry_space_group_name_H-M "P -1"
_symmetry_group_IT_number 2
_symmetry_cell_setting 'triclinic'
loop_
_space_group_symop_operation_xyz
x,y,z
-x,-y,-z
loop_
_atom_site_type_symbol
_atom_site_label
_atom_site_fract_x
_atom_site_fract_y
_atom_site_fract_z
Si Si1 0.685791 0.724112 0.230890
Si Si2 0.337807 0.393956 0.436289
Si Si3 0.623904 0.115418 0.676868
Si Si4 0.132346 0.247917 0.673772
Si Si5 0.167909 0.690518 0.277503
Si Si6 0.626361 0.893196 0.835462
Si Si7 0.381297 0.058544 0.653474
Si Si8 0.890261 0.054640 0.614954
O O1 0.735017 0.757024 0.290959
O O2 0.528495 0.388168 0.470789
O O3 0.692731 0.924225 0.259298
O O4 0.773046 0.813687 0.922221
O O5 0.258049 0.378873 0.515790
O O6 0.344751 0.241363 0.280944
O O7 0.500357 0.716648 0.175130
O O8 0.784703 0.447293 0.444776
O O9 0.596204 0.898168 0.742272
O O10 0.597621 0.050998 0.541478
O O11 0.500000 0.000000 0.000000
O O12 0.095978 0.076188 0.560057
O O13 0.000000 0.000000 0.000000
O O14 0.143217 0.837734 0.359597
O O15 0.033134 0.352786 0.463609
O O16 0.239737 0.791119 0.303222
O O17 0.277265 0.834770 0.946814
#
# Coordination Sequence:
#
# PCOD9072756 Si02
#       8
#     2   2   2   2   2   2   2   2
#     4  10  20  36  65  95 122 157 219 269 306 364
#     4  11  22  41  67 100 126 164 221 267 313 369
#     4  12  24  41  62  97 133 169 209 259 327 389
#     4  12  26  45  64  92 138 175 203 255 336 395
#     4  10  20  40  66  94 123 159 221 266 306 372
#     4  11  22  40  69  99 126 161 225 270 305 370
#     4  10  20  36  61  95 127 163 205 263 321 367
#     4  10  22  40  63  93 128 170 204 259 325 376
#
# _framework density 21.980117
#
# number of rings (size 3 to 8) (size 9 to 14) (size 15 to 20)
#    0.000    1.250    5.000    1.500    0.000    1.000 
#    0.000    8.750    0.000    0.000    0.000    0.000 
#    0.000    0.000    0.000    0.000    0.000    0.000 
#
# Total GULP energy -89092.183834 kJ/mol
# GULP energy per Si atom -5568.261490 kJ/mol
# Density = 2.193009 g / cm^3
# Si number density = 21.980117 Si / 1000 Ang^3
#
#
#
# Elastic Constant Matrix: (Units=GPa)
#
#
# Indices 1 2 3 4 5 6 
#
# 1 58.2292 25.9348 41.3876 22.2767 50.9549 30.8772
# 2 25.9348 30.0145 28.0359 42.1675 40.5565 25.6013
# 3 41.3876 28.0359 147.0078 74.4906 97.3729 48.0321
# 4 22.2767 42.1675 74.4906 40.7524 40.0825 39.9507
# 5 50.9549 40.5565 97.3729 40.0825 91.1428 45.8254
# 6 30.8772 25.6013 48.0321 39.9507 45.8254 52.9111
#
#
#
# Elastic Compliance Matrix: (Units=1/GPa)
#
#
# Indices 1 2 3 4 5 6 
#
# 1 0.038695 -0.005672 0.006875 0.003642 -0.024022 -0.008023
# 2 -0.005672 0.013542 -0.018137 0.028215 0.014484 -0.020626
# 3 0.006875 -0.018137 0.007972 0.014613 -0.006953 -0.007485
# 4 0.003642 0.028215 0.014613 -0.004763 -0.027127 -0.001953
# 5 -0.024022 0.014484 -0.006953 -0.027127 0.035991 0.002634
# 6 -0.008023 -0.020626 -0.007485 -0.001953 0.002634 0.039549
#
#
# Mechanical properties :
#
#
# Convention : Reuss Voigt Hill
#
# Bulk Modulus (GPa) = 37.96245 47.32978 42.64611
# Shear Modulus (GPa) = 28.79583 46.28749 37.54166
#
# Velocity S-wave (km/s) = 3.62344 4.59397 4.13726
# Velocity P-wave (km/s) = 5.90038 7.05118 6.50129
#
# Compressibility (1/GPa) = 0.02634182
#
# Stress axis : x y z
#
# Youngs Moduli (GPa) = 25.84293 73.84204 125.43271
#
# Poissons Ratio (x) = 0.41881 -0.86233
# Poissons Ratio (y) = 0.14657 2.27501
# Poissons Ratio (z) = -0.17767 1.33929
#
# Static dielectric constant tensor:
#      x y z
#    x 1.816420 0.088720 -0.110960 
#    y 0.088720 1.806420 0.029420 
#    z -0.110960 0.029420 1.701930 
# 
# From -- ./inp_files/186977.got.cif
#   From: 2010.05.17/outbox.ucp.g08.bks.cvg/sg2_94_cif.got.tgz:186977.got - 2010.06.11 11:32:03.
