data_PCOD9072634
_publ_section_title
;
Structure prediction by ZEFSAII (Michael W. Deem and Ramdas Pophale) SiO2 
 PCOD9072634
Probable space group: P -1
;
_chemical_formula_sum "Si O2"
_cell_formula_units_Z 14
_cell_length_a 22.616368
_cell_length_b 9.250881
_cell_length_c 8.406976
_cell_angle_alpha 66.872154
_cell_angle_beta 50.637558
_cell_angle_gamma 31.353238
_cell_volume 657.372652
_symmetry_space_group_name_H-M "P -1"
_symmetry_group_IT_number 2
_symmetry_cell_setting 'triclinic'
loop_
_space_group_symop_operation_xyz
x,y,z
-x,-y,-z
loop_
_atom_site_type_symbol
_atom_site_label
_atom_site_fract_x
_atom_site_fract_y
_atom_site_fract_z
Si Si1 0.035202 0.153232 0.772874
Si Si2 0.949076 0.659133 0.708406
Si Si3 0.630355 0.550675 0.989988
Si Si4 0.891196 0.303605 0.658489
Si Si5 0.692011 0.268996 0.695477
Si Si6 0.596190 0.245073 0.578766
Si Si7 0.154412 0.056131 0.913257
O O1 0.049751 0.135017 0.945244
O O2 0.998103 0.400507 0.689304
O O3 0.926533 0.241750 0.814156
O O4 0.193024 0.838476 0.564887
O O5 0.063198 0.601160 0.512798
O O6 0.797275 0.969685 0.746467
O O7 0.916950 0.718845 0.924323
O O8 0.724731 0.543433 0.819750
O O9 0.618065 0.506895 0.850022
O O10 0.477099 0.793136 0.236063
O O11 0.738653 0.248161 0.039725
O O12 0.000000 0.000000 0.500000
O O13 0.594489 0.346118 0.703113
O O14 0.500000 0.500000 0.500000
O O15 0.755143 0.989425 0.341891
#
# Coordination Sequence:
#
# PCOD9072634 Si02
#       7
#     2   2   2   2   2   2   2
#     4  10  19  31  52  75 100 135 165 198 250 295
#     4  10  19  33  52  75 100 134 167 198 245 300
#     4  10  18  31  48  75 103 129 160 205 252 289
#     4  11  18  32  49  73 108 125 159 212 249 291
#     4   9  16  29  49  69  96 129 162 205 235 290
#     4   9  18  30  47  73  99 130 166 202 245 291
#     4   9  18  32  51  72 100 132 168 207 234 292
#
# _framework density 21.296900999999998
#
# number of rings (size 3 to 8) (size 9 to 14) (size 15 to 20)
#    0.000    2.286    4.286    2.571    0.000    0.571 
#    0.000    0.000    0.000    8.571    0.000    0.000 
#    0.000    0.000    0.000    0.000    0.000    0.000 
#
# Total GULP energy -77963.708113 kJ/mol
# GULP energy per Si atom -5568.836294 kJ/mol
# Density = 2.124843 g / cm^3
# Si number density = 21.296901 Si / 1000 Ang^3
#
#
#
# Elastic Constant Matrix: (Units=GPa)
#
#
# Indices 1 2 3 4 5 6 
#
# 1 163.4044 17.8130 72.2731 -2.9154 15.5122 -13.7534
# 2 17.8130 37.0940 13.6737 -15.8550 -3.9138 3.2227
# 3 72.2731 13.6737 87.0171 5.5325 -6.6969 13.7926
# 4 -2.9154 -15.8550 5.5325 18.1501 0.9120 1.1643
# 5 15.5122 -3.9138 -6.6969 0.9120 48.7785 -5.8028
# 6 -13.7534 3.2227 13.7926 1.1643 -5.8028 32.2863
#
#
#
# Elastic Compliance Matrix: (Units=1/GPa)
#
#
# Indices 1 2 3 4 5 6 
#
# 1 0.013764 -0.000736 -0.013746 0.005331 -0.005151 0.010691
# 2 -0.000736 0.052311 -0.010151 0.048750 0.001813 -0.002631
# 3 -0.013746 -0.010151 0.028607 -0.019117 0.006023 -0.015291
# 4 0.005331 0.048750 -0.019117 0.104385 -0.002192 0.001413
# 5 -0.005151 0.001813 0.006023 -0.002192 0.023066 -0.000723
# 6 0.010691 -0.002631 -0.015291 0.001413 -0.000723 0.042141
#
#
# Mechanical properties :
#
#
# Convention : Reuss Voigt Hill
#
# Bulk Modulus (GPa) = 22.01955 55.00389 38.51172
# Shear Modulus (GPa) = 15.21243 32.09335 23.65289
#
# Velocity S-wave (km/s) = 2.67554 3.88616 3.33622
# Velocity P-wave (km/s) = 4.46167 6.78377 5.74134
#
# Compressibility (1/GPa) = 0.04541420
#
# Stress axis : x y z
#
# Youngs Moduli (GPa) = 72.65493 19.11641 34.95698
#
# Poissons Ratio (x) = 0.01408 0.48051
# Poissons Ratio (y) = 0.05350 0.35486
# Poissons Ratio (z) = 0.99870 0.19406
#
# Static dielectric constant tensor:
#      x y z
#    x 1.813590 -0.033660 -0.016440 
#    y -0.033660 1.796330 -0.020080 
#    z -0.016440 -0.020080 1.834040 
# 
# From -- ./inp_files/171330.got.cif
#   From: 2010.05.17/outbox.cif.g08.bks.cpg/sg2_86_cif.got.tgz:171330.got - 2010.06.03 11:33:40.
