data_PCOD9072678
_publ_section_title
;
Structure prediction by ZEFSAII (Michael W. Deem and Ramdas Pophale) SiO2 
 PCOD9072678
Probable space group: P -1
;
_chemical_formula_sum "Si O2"
_cell_formula_units_Z 16
_cell_length_a 12.000000
_cell_length_b 18.000000
_cell_length_c 12.000000
_cell_angle_alpha 140.000000
_cell_angle_beta 110.000000
_cell_angle_gamma 40.000000
_cell_volume 862.732557
_symmetry_space_group_name_H-M "P -1"
_symmetry_group_IT_number 2
_symmetry_cell_setting 'triclinic'
loop_
_space_group_symop_operation_xyz
x,y,z
-x,-y,-z
loop_
_atom_site_type_symbol
_atom_site_label
_atom_site_fract_x
_atom_site_fract_y
_atom_site_fract_z
Si Si1 0.395233 0.878081 0.631835
Si Si2 0.387830 0.696845 0.583965
Si Si3 0.872551 0.675649 0.940469
Si Si4 0.137728 0.774573 0.751239
Si Si5 0.712667 0.012045 0.943170
Si Si6 0.241188 0.282558 0.291242
Si Si7 0.451007 0.152687 0.807675
Si Si8 0.624805 0.754671 0.360372
O O1 0.329439 0.810696 0.583348
O O2 0.595326 0.766661 0.645072
O O3 0.478145 0.801594 0.447288
O O4 0.213055 0.123604 0.860005
O O5 0.217796 0.738289 0.611985
O O6 0.628788 0.448048 0.372745
O O7 0.365144 0.817979 0.809997
O O8 0.772657 0.693994 0.819433
O O9 0.126571 0.465880 0.782528
O O10 0.776777 0.693857 0.038233
O O11 0.964036 0.819152 0.772670
O O12 0.000000 0.000000 0.000000
O O13 0.694580 0.902158 0.870326
O O14 0.581104 0.116771 0.903641
O O15 0.000000 0.500000 0.500000
O O16 0.423935 0.229839 0.766894
O O17 0.570156 0.932940 0.575574
#
# Coordination Sequence:
#
# PCOD9072678 Si02
#       8
#     2   2   2   2   2   2   2   2
#     4  11  20  32  51  79 110 137 173 217 261 321
#     4  10  20  35  54  80 107 134 172 219 271 321
#     4  11  19  32  48  72 106 141 174 214 258 309
#     4   9  21  36  54  78 105 136 171 215 275 322
#     4  11  19  34  52  78 109 140 173 217 261 315
#     4  12  19  30  49  81 111 138 168 211 270 315
#     4  10  21  35  49  71 109 148 187 212 243 315
#     4  10  21  34  48  73 107 152 183 210 253 298
#
# _framework density 18.545724
#
# number of rings (size 3 to 8) (size 9 to 14) (size 15 to 20)
#    0.000    1.500    5.000    2.250    0.000    1.000 
#    0.000    0.000    0.000    0.750    0.000    8.750 
#    0.000    0.000    0.000    0.000    0.000    0.000 
#
# Total GULP energy -89223.146781 kJ/mol
# GULP energy per Si atom -5576.446674 kJ/mol
# Density = 1.850351 g / cm^3
# Si number density = 18.545724 Si / 1000 Ang^3
#
#
#
# Elastic Constant Matrix: (Units=GPa)
#
#
# Indices 1 2 3 4 5 6 
#
# 1 48.0230 10.7077 5.0683 -2.1899 -22.3959 19.6967
# 2 10.7077 66.4226 19.2581 -13.7697 -14.8394 21.3884
# 3 5.0683 19.2581 72.4750 5.3469 -19.3030 5.8829
# 4 -2.1899 -13.7697 5.3469 23.9040 -1.2597 -14.1408
# 5 -22.3959 -14.8394 -19.3030 -1.2597 18.8883 -3.6402
# 6 19.6967 21.3884 5.8829 -14.1408 -3.6402 28.8178
#
#
#
# Elastic Compliance Matrix: (Units=1/GPa)
#
#
# Indices 1 2 3 4 5 6 
#
# 1 -1.088580 -0.375197 -0.402126 0.282557 -1.781383 1.018218
# 2 -0.375197 -0.104622 -0.140695 0.105968 -0.598410 0.339222
# 3 -0.402126 -0.140695 -0.128747 0.097492 -0.640628 0.372470
# 4 0.282557 0.105968 0.097492 -0.007682 0.471953 -0.235828
# 5 -1.781383 -0.598410 -0.640628 0.471953 -2.831456 1.666388
# 6 1.018218 0.339222 0.372470 -0.235828 1.666388 -0.894268
#
#
# Mechanical properties :
#
#
# Convention : Reuss Voigt Hill
#
# Bulk Modulus (GPa) = -0.31666 28.55431 14.11883
# Shear Modulus (GPa) = -1.17042 24.44779 11.63869
#
# Velocity S-wave (km/s) = -0.79528 3.63470 2.50785
# Velocity P-wave (km/s) = 1.00718 5.74847 4.00190
#
# Compressibility (1/GPa) = -3.15798539
#
# Stress axis : x y z
#
# Youngs Moduli (GPa) = -0.91863 -9.55821 -7.76720
#
# Poissons Ratio (x) = -3.58621 -3.12340
# Poissons Ratio (y) = -0.34467 -1.09281
# Poissons Ratio (z) = -0.36940 -1.34480
#
# Static dielectric constant tensor:
#      x y z
#    x 1.695700 0.033270 -0.020750 
#    y 0.033270 1.637770 -0.001930 
#    z -0.020750 -0.001930 1.650450 
# 
# From -- ./inp_files/428066.got.cif
#   From: 2010.05.17/outbox.ucp.g08.bks.cvg/sg2_215_cif.got.tgz:428066.got - 2010.06.11 11:32:03.
