data_PCOD9072515
_publ_section_title
;
Structure prediction by ZEFSAII (Michael W. Deem and Ramdas Pophale) SiO2 
 PCOD9072515
Probable space group: P -1
;
_chemical_formula_sum "Si O2"
_cell_formula_units_Z 16
_cell_length_a 15.712893
_cell_length_b 16.357115
_cell_length_c 5.156754
_cell_angle_alpha 75.450515
_cell_angle_beta 112.960619
_cell_angle_gamma 71.433229
_cell_volume 1044.377751
_symmetry_space_group_name_H-M "P -1"
_symmetry_group_IT_number 2
_symmetry_cell_setting 'triclinic'
loop_
_space_group_symop_operation_xyz
x,y,z
-x,-y,-z
loop_
_atom_site_type_symbol
_atom_site_label
_atom_site_fract_x
_atom_site_fract_y
_atom_site_fract_z
Si Si1 0.946964 0.396257 0.524766
Si Si2 0.929473 0.215315 0.462733
Si Si3 0.808184 0.199289 0.832367
Si Si4 0.874073 0.589539 0.018025
Si Si5 0.441095 0.422500 0.720038
Si Si6 0.228629 0.424879 0.603552
Si Si7 0.939017 0.991837 0.184246
Si Si8 0.420431 0.629182 0.566359
O O1 0.048187 0.368825 0.844811
O O2 0.943119 0.307969 0.457823
O O3 0.941774 0.474622 0.244309
O O4 0.843697 0.461133 0.520557
O O5 0.853629 0.211335 0.601430
O O6 0.875575 0.216763 0.123541
O O7 0.039377 0.117280 0.695022
O O8 0.688294 0.275783 0.656406
O O9 0.830376 0.089050 0.973046
O O10 0.784000 0.619546 0.105941
O O11 0.825059 0.604905 0.666118
O O12 0.343350 0.404964 0.679948
O O13 0.402366 0.536487 0.576671
O O14 0.497554 0.379286 0.551011
O O15 0.525969 0.381854 0.082535
O O16 0.000000 0.000000 0.500000
O O17 0.000000 0.000000 0.000000
#
# Coordination Sequence:
#
# PCOD9072515 Si02
#       8
#     2   2   2   2   2   2   2   2
#     4   9  20  28  45  64  90 112 146 171 213 254
#     4  10  19  27  48  66  87 117 147 171 208 265
#     4  10  19  31  45  63  89 119 146 172 218 248
#     4   9  20  29  43  62  89 116 139 180 207 253
#     4  10  20  30  42  60  86 108 152 178 207 243
#     4  10  18  31  44  58  85 121 141 171 216 251
#     4   8  16  30  42  63  87 110 141 179 206 250
#     4  10  20  30  41  62  84 113 141 189 205 238
#
# _framework density 15.320128
#
# number of rings (size 3 to 8) (size 9 to 14) (size 15 to 20)
#    0.750    1.750    0.000    2.625    3.500    1.000 
#    0.000    0.000    0.000    0.000    0.000    0.000 
#    0.000    6.000    0.000    0.000    0.000    0.000 
#
# Total GULP energy -89070.671582 kJ/mol
# GULP energy per Si atom -5566.916974 kJ/mol
# Density = 1.528526 g / cm^3
# Si number density = 15.320128 Si / 1000 Ang^3
#
#
#
# Elastic Constant Matrix: (Units=GPa)
#
#
# Indices 1 2 3 4 5 6 
#
# 1 39.2794 5.2979 3.4109 -7.0971 5.2476 -9.5457
# 2 5.2979 51.2300 17.1436 -7.9341 6.3937 -9.0272
# 3 3.4109 17.1436 41.2388 -6.2594 -2.5299 -13.2042
# 4 -7.0971 -7.9341 -6.2594 26.5267 -12.8206 2.9027
# 5 5.2476 6.3937 -2.5299 -12.8206 24.0679 4.4441
# 6 -9.5457 -9.0272 -13.2042 2.9027 4.4441 16.1257
#
#
#
# Elastic Compliance Matrix: (Units=1/GPa)
#
#
# Indices 1 2 3 4 5 6 
#
# 1 0.033324 0.001372 0.005072 0.002261 -0.010925 0.027251
# 2 0.001372 0.025142 -0.007486 0.000129 -0.009808 0.011437
# 3 0.005072 -0.007486 0.036697 0.006380 0.003183 0.026835
# 4 0.002261 0.000129 0.006380 0.057162 0.032944 -0.012734
# 5 -0.010925 -0.009808 0.003183 0.032944 0.070847 -0.034806
# 6 0.027251 0.011437 0.026835 -0.012734 -0.034806 0.118405
#
#
# Mechanical properties :
#
#
# Convention : Reuss Voigt Hill
#
# Bulk Modulus (GPa) = 10.74343 20.38367 15.56355
# Shear Modulus (GPa) = 13.34445 20.40378 16.87412
#
# Velocity S-wave (km/s) = 2.95454 3.65338 3.32239
# Velocity P-wave (km/s) = 4.32052 5.57945 4.98985
#
# Compressibility (1/GPa) = 0.09308016
#
# Stress axis : x y z
#
# Youngs Moduli (GPa) = 30.00863 39.77358 27.24999
#
# Poissons Ratio (x) = -0.05457 -0.13821
# Poissons Ratio (y) = -0.04118 0.20398
# Poissons Ratio (z) = -0.15220 0.29773
#
# Static dielectric constant tensor:
#      x y z
#    x 1.513490 -0.011820 -0.022330 
#    y -0.011820 1.520030 -0.009580 
#    z -0.022330 -0.009580 1.520020 
# 
# From -- ./inp_files/97049.got.cif
#   From: 2010.05.17/outbox.cif.g08.bks.cpg/sg2_49_cif.got.tgz:97049.got - 2010.06.03 11:33:40.
