data_PCOD9072529
_publ_section_title
;
Structure prediction by ZEFSAII (Michael W. Deem and Ramdas Pophale) SiO2 
 PCOD9072529
Probable space group: P -1
;
_chemical_formula_sum "Si O2"
_cell_formula_units_Z 16
_cell_length_a 9.000000
_cell_length_b 27.000000
_cell_length_c 27.000000
_cell_angle_alpha 10.000000
_cell_angle_beta 40.000000
_cell_angle_gamma 40.000000
_cell_volume 728.340053
_symmetry_space_group_name_H-M "P -1"
_symmetry_group_IT_number 2
_symmetry_cell_setting 'triclinic'
loop_
_space_group_symop_operation_xyz
x,y,z
-x,-y,-z
loop_
_atom_site_type_symbol
_atom_site_label
_atom_site_fract_x
_atom_site_fract_y
_atom_site_fract_z
Si Si1 0.059661 0.714370 0.204794
Si Si2 0.412472 0.897880 0.570387
Si Si3 0.888350 0.574869 0.901101
Si Si4 0.841545 0.197975 0.560120
Si Si5 0.306859 0.213082 0.700305
Si Si6 0.280605 0.113950 0.589356
Si Si7 0.184666 0.328237 0.975827
Si Si8 0.647575 0.354018 0.889254
O O1 0.202592 0.460939 0.446979
O O2 0.109768 0.689068 0.159340
O O3 0.795902 0.737342 0.267501
O O4 0.183119 0.967070 0.948287
O O5 0.609841 0.930416 0.448413
O O6 0.500000 0.000000 0.500000
O O7 0.183776 0.090902 0.418929
O O8 0.346669 0.575407 0.900810
O O9 0.050804 0.455611 0.932323
O O10 0.000000 0.500000 0.000000
O O11 0.580068 0.175173 0.665810
O O12 0.870036 0.501469 0.228858
O O13 0.009701 0.137679 0.622775
O O14 0.878110 0.984896 0.713589
O O15 0.362277 0.378093 0.337109
O O16 0.374232 0.880198 0.834119
O O17 0.450927 0.344027 0.907849
#
# Coordination Sequence:
#
# PCOD9072529 Si02
#       8
#     2   2   2   2   2   2   2   2
#     4  10  20  37  64  94 123 158 202 250 299 358
#     4  12  25  45  63  86 122 170 210 249 314 375
#     4  12  25  42  63  91 121 157 207 266 313 359
#     4  12  23  42  62  96 120 164 207 254 299 361
#     4  10  19  38  64  94 122 157 206 252 289 356
#     4  12  26  40  62  90 132 161 201 258 315 370
#     4  12  23  40  67  89 120 158 216 257 301 364
#     4  12  23  42  61  96 126 164 199 255 318 362
#
# _framework density 21.967760999999999
#
# number of rings (size 3 to 8) (size 9 to 14) (size 15 to 20)
#    0.000    0.500    2.500    7.500    0.000    0.000 
#    0.000    1.250    0.000    0.000    0.000    0.000 
#    0.000    0.000    0.000    0.000    0.000    0.000 
#
# Total GULP energy -89228.782393 kJ/mol
# GULP energy per Si atom -5576.798900 kJ/mol
# Density = 2.191776 g / cm^3
# Si number density = 21.967761 Si / 1000 Ang^3
#
#
#
# Elastic Constant Matrix: (Units=GPa)
#
#
# Indices 1 2 3 4 5 6 
#
# 1 105.6870 -45.5665 21.9620 13.7138 30.6840 8.1228
# 2 -45.5665 86.0890 1.3706 -0.4708 -13.0355 2.0400
# 3 21.9620 1.3706 124.7624 -3.9220 13.7745 6.2624
# 4 13.7138 -0.4708 -3.9220 30.2692 18.6748 3.2413
# 5 30.6840 -13.0355 13.7745 18.6748 51.1319 3.0683
# 6 8.1228 2.0400 6.2624 3.2413 3.0683 29.6277
#
#
#
# Elastic Compliance Matrix: (Units=1/GPa)
#
#
# Indices 1 2 3 4 5 6 
#
# 1 0.015345 0.007421 -0.002146 -0.003516 -0.005254 -0.003336
# 2 0.007421 0.015863 -0.001671 -0.004108 0.001691 -0.002499
# 3 -0.002146 -0.001671 0.008931 0.004065 -0.002949 -0.001324
# 4 -0.003516 -0.004108 0.004065 0.045587 -0.016509 -0.002890
# 5 -0.005254 0.001691 -0.002949 -0.016509 0.029926 0.000654
# 6 -0.003336 -0.002499 -0.001324 -0.002890 0.000654 0.035367
#
#
# Mechanical properties :
#
#
# Convention : Reuss Voigt Hill
#
# Bulk Modulus (GPa) = 21.12057 30.23005 25.67531
# Shear Modulus (GPa) = 31.32940 44.79060 38.06000
#
# Velocity S-wave (km/s) = 3.78054 4.52034 4.16689
# Velocity P-wave (km/s) = 5.35648 6.40591 5.90455
#
# Compressibility (1/GPa) = 0.04734721
#
# Stress axis : x y z
#
# Youngs Moduli (GPa) = 65.16673 63.03968 111.96742
#
# Poissons Ratio (x) = -0.46779 0.24025
# Poissons Ratio (y) = -0.48357 0.18709
# Poissons Ratio (z) = 0.13983 0.10533
#
# Static dielectric constant tensor:
#      x y z
#    x 1.695960 -0.063260 0.020670 
#    y -0.063260 1.912570 0.006010 
#    z 0.020670 0.006010 1.798130 
# 
# From -- ./inp_files/226055.got.cif
#   From: 2010.05.17/outbox.ucp.g08.bks.cvg/sg2_114_cif.got.tgz:226055.got - 2010.06.11 11:32:03.
