data_PCOD9072528
_publ_section_title
;
Structure prediction by ZEFSAII (Michael W. Deem and Ramdas Pophale) SiO2 
 PCOD9072528
Probable space group: P -1
;
_chemical_formula_sum "Si O2"
_cell_formula_units_Z 16
_cell_length_a 21.000000
_cell_length_b 12.000000
_cell_length_c 12.000000
_cell_angle_alpha 120.000000
_cell_angle_beta 140.000000
_cell_angle_gamma 30.000000
_cell_volume 836.888158
_symmetry_space_group_name_H-M "P -1"
_symmetry_group_IT_number 2
_symmetry_cell_setting 'triclinic'
loop_
_space_group_symop_operation_xyz
x,y,z
-x,-y,-z
loop_
_atom_site_type_symbol
_atom_site_label
_atom_site_fract_x
_atom_site_fract_y
_atom_site_fract_z
Si Si1 0.148537 0.472298 0.301000
Si Si2 0.226951 0.871210 0.111951
Si Si3 0.710486 0.940636 0.841923
Si Si4 0.245220 0.562970 0.910538
Si Si5 0.762528 0.410010 0.689010
Si Si6 0.220814 0.893311 0.382812
Si Si7 0.644282 0.732314 0.301224
Si Si8 0.499415 0.823305 0.739421
O O1 0.261086 0.218807 0.276611
O O2 0.232065 0.508866 0.373904
O O3 0.179918 0.443365 0.460728
O O4 0.919815 0.719217 0.078304
O O5 0.244432 0.845369 0.256799
O O6 0.316494 0.900205 0.190519
O O7 0.298317 0.655547 0.045055
O O8 0.989612 0.150252 0.909081
O O9 0.538371 0.110108 0.786505
O O10 0.298226 0.437255 0.800575
O O11 0.359100 0.352253 0.051833
O O12 0.009381 0.826878 0.752722
O O13 0.705390 0.322633 0.566743
O O14 0.627272 0.638472 0.709998
O O15 0.336388 0.893535 0.567148
O O16 0.585765 0.937020 0.271858
#
# Coordination Sequence:
#
# PCOD9072528 Si02
#       8
#     2   2   2   2   2   2   2   2
#     4  10  22  40  63  92 122 157 202 250 298 351
#     4  10  20  40  66  90 119 157 205 252 304 342
#     4  10  22  39  65  93 117 158 205 254 291 350
#     4  11  25  43  58  89 130 160 194 251 302 362
#     4  10  19  38  64  94 118 146 202 264 296 340
#     4  11  22  39  67  91 116 156 208 258 297 346
#     4  12  26  40  60  89 131 164 195 237 306 378
#     4  12  23  38  64  92 116 158 206 250 301 351
#
# _framework density 19.118445000000001
#
# number of rings (size 3 to 8) (size 9 to 14) (size 15 to 20)
#    0.000    1.250    3.750    2.625    1.750    3.000 
#    0.000    5.625    0.000    0.000    0.000    0.000 
#    0.000    0.000    0.000    0.000    0.000    0.000 
#
# Total GULP energy -89442.511467 kJ/mol
# GULP energy per Si atom -5590.156967 kJ/mol
# Density = 1.907493 g / cm^3
# Si number density = 19.118445 Si / 1000 Ang^3
#
#
#
# Elastic Constant Matrix: (Units=GPa)
#
#
# Indices 1 2 3 4 5 6 
#
# 1 104.5037 61.5429 29.7278 9.8589 -1.3159 24.1778
# 2 61.5429 137.3866 40.4826 23.4208 -9.8700 12.8558
# 3 29.7278 40.4826 64.1318 6.1506 -4.2052 -4.4747
# 4 9.8589 23.4208 6.1506 24.7019 1.4433 -5.3109
# 5 -1.3159 -9.8700 -4.2052 1.4433 39.2151 1.8662
# 6 24.1778 12.8558 -4.4747 -5.3109 1.8662 42.7817
#
#
#
# Elastic Compliance Matrix: (Units=1/GPa)
#
#
# Indices 1 2 3 4 5 6 
#
# 1 0.015741 -0.004425 -0.004875 -0.002638 -0.000613 -0.008377
# 2 -0.004425 0.013105 -0.005270 -0.010261 0.003124 -0.003398
# 3 -0.004875 -0.005270 0.021391 0.003087 0.000360 0.006943
# 4 -0.002638 -0.010261 0.003087 0.053300 -0.004860 0.011726
# 5 -0.000613 0.003124 0.000360 -0.004860 0.026594 -0.002318
# 6 -0.008377 -0.003398 0.006943 0.011726 -0.002318 0.031413
#
#
# Mechanical properties :
#
#
# Convention : Reuss Voigt Hill
#
# Bulk Modulus (GPa) = 47.39792 63.28097 55.33944
# Shear Modulus (GPa) = 25.28870 32.95764 29.12317
#
# Velocity S-wave (km/s) = 3.64089 4.15645 3.90718
# Velocity P-wave (km/s) = 6.52076 7.49707 7.02590
#
# Compressibility (1/GPa) = 0.02109797
#
# Stress axis : x y z
#
# Youngs Moduli (GPa) = 63.52810 76.30436 46.74876
#
# Poissons Ratio (x) = 0.33767 0.22790
# Poissons Ratio (y) = 0.28113 0.24635
# Poissons Ratio (z) = 0.30969 0.40209
#
# Static dielectric constant tensor:
#      x y z
#    x 1.660080 0.018020 0.027510 
#    y 0.018020 1.629960 -0.023470 
#    z 0.027510 -0.023470 1.720460 
# 
# From -- ./inp_files/422740.got.cif
#   From: 2010.05.17/outbox.ucp.g08.bks.cvg/sg2_212_cif.got.tgz:422740.got - 2010.06.11 11:32:03.
