data_PCOD9072285
_publ_section_title
;
Structure prediction by ZEFSAII (Michael W. Deem and Ramdas Pophale) SiO2 
 PCOD9072285
Probable space group: P -1
;
_chemical_formula_sum "Si O2"
_cell_formula_units_Z 16
_cell_length_a 11.925365
_cell_length_b 14.487538
_cell_length_c 8.530980
_cell_angle_alpha 139.716252
_cell_angle_beta 132.435367
_cell_angle_gamma 52.888549
_cell_volume 691.098468
_symmetry_space_group_name_H-M "P -1"
_symmetry_group_IT_number 2
_symmetry_cell_setting 'triclinic'
loop_
_space_group_symop_operation_xyz
x,y,z
-x,-y,-z
loop_
_atom_site_type_symbol
_atom_site_label
_atom_site_fract_x
_atom_site_fract_y
_atom_site_fract_z
Si Si1 0.391676 0.596324 0.148660
Si Si2 0.872548 0.240317 0.115644
Si Si3 0.859248 0.479605 0.620172
Si Si4 0.200757 0.493105 0.070070
Si Si5 0.827566 0.754585 0.763132
Si Si6 0.502353 0.098714 0.286493
Si Si7 0.956608 0.183675 0.668239
Si Si8 0.822782 0.996266 0.554680
O O1 0.346613 0.480425 0.079772
O O2 0.456159 0.735722 0.462697
O O3 0.500000 0.500000 0.000000
O O4 0.233552 0.672048 0.009253
O O5 0.816277 0.327933 0.331384
O O6 0.051504 0.246272 0.262877
O O7 0.857280 0.077656 0.849344
O O8 0.777029 0.559768 0.799748
O O9 0.815974 0.588971 0.575734
O O10 0.043166 0.457723 0.802210
O O11 0.155556 0.666688 0.273476
O O12 0.666337 0.864511 0.745907
O O13 0.917324 0.796687 0.056151
O O14 0.641511 0.001502 0.388681
O O15 0.500000 0.000000 0.000000
O O16 0.859104 0.079240 0.532532
O O17 0.048727 0.142386 0.540282
#
# Coordination Sequence:
#
# PCOD9072285 Si02
#       8
#     2   2   2   2   2   2   2   2
#     4  11  22  36  55  85 117 142 179 238 282 318
#     4  10  19  34  53  79 109 141 183 230 274 324
#     4  10  20  34  56  82 106 147 189 221 273 334
#     4  10  20  36  55  80 113 143 184 228 272 333
#     4  10  18  30  54  80 106 142 185 228 263 325
#     4  11  20  31  53  87 112 139 184 232 279 324
#     4   9  15  32  52  74 104 141 175 228 271 318
#     4   9  17  30  52  78 108 135 181 230 279 314
#
# _framework density 23.151547999999998
#
# number of rings (size 3 to 8) (size 9 to 14) (size 15 to 20)
#    0.000    2.000    6.250    1.125    1.750    0.000 
#    0.000    3.125    0.000    0.000    0.000    3.500 
#    0.000    0.000    0.000    0.000    0.000    0.000 
#
# Total GULP energy -89131.969361 kJ/mol
# GULP energy per Si atom -5570.748085 kJ/mol
# Density = 2.309885 g / cm^3
# Si number density = 23.151548 Si / 1000 Ang^3
#
#
#
# Elastic Constant Matrix: (Units=GPa)
#
#
# Indices 1 2 3 4 5 6 
#
# 1 107.7901 14.2014 30.9259 -2.0829 -5.4633 -29.7175
# 2 14.2014 43.1019 0.7286 -0.2260 2.3535 -14.9092
# 3 30.9259 0.7286 103.4858 10.6441 -26.7403 -7.9032
# 4 -2.0829 -0.2260 10.6441 22.6623 -10.0202 -0.2653
# 5 -5.4633 2.3535 -26.7403 -10.0202 27.7704 4.3063
# 6 -29.7175 -14.9092 -7.9032 -0.2653 4.3063 36.2448
#
#
#
# Elastic Compliance Matrix: (Units=1/GPa)
#
#
# Indices 1 2 3 4 5 6 
#
# 1 0.013163 -0.000751 -0.003871 0.002361 -0.001751 0.009865
# 2 -0.000751 0.027629 -0.000247 -0.001815 -0.005133 0.011292
# 3 -0.003871 -0.000247 0.014087 -0.001437 0.012571 -0.001708
# 4 0.002361 -0.001815 -0.001437 0.053203 0.018578 -0.000942
# 5 -0.001751 -0.005133 0.012571 0.018578 0.056044 -0.007329
# 6 0.009865 0.011292 -0.001708 -0.000942 -0.007329 0.040815
#
#
# Mechanical properties :
#
#
# Convention : Reuss Voigt Hill
#
# Bulk Modulus (GPa) = 22.15265 38.45439 30.30352
# Shear Modulus (GPa) = 21.76487 31.23696 26.50092
#
# Velocity S-wave (km/s) = 3.06944 3.67718 3.38697
# Velocity P-wave (km/s) = 4.70651 5.88853 5.33039
#
# Compressibility (1/GPa) = 0.04514133
#
# Stress axis : x y z
#
# Youngs Moduli (GPa) = 75.96807 36.19355 70.98696
#
# Poissons Ratio (x) = 0.02719 0.27476
# Poissons Ratio (y) = 0.05707 0.01756
# Poissons Ratio (z) = 0.29403 0.00896
#
# Static dielectric constant tensor:
#      x y z
#    x 1.971640 0.037840 0.014770 
#    y 0.037840 1.969380 0.078180 
#    z 0.014770 0.078180 1.943310 
# 
# From -- ./inp_files/255356.got.cif
#   From: 2010.05.17/outbox.cif.g08.bks.cpg/sg2_128_cif.got.tgz:255356.got - 2010.06.03 11:33:40.
