data_PCOD9072146
_publ_section_title
;
Structure prediction by ZEFSAII (Michael W. Deem and Ramdas Pophale) SiO2 
 PCOD9072146
Probable space group: P -1
;
_chemical_formula_sum "Si O2"
_cell_formula_units_Z 14
_cell_length_a 10.681130
_cell_length_b 16.175717
_cell_length_c 9.971501
_cell_angle_alpha 131.268015
_cell_angle_beta 71.787912
_cell_angle_gamma 144.700201
_cell_volume 639.239399
_symmetry_space_group_name_H-M "P -1"
_symmetry_group_IT_number 2
_symmetry_cell_setting 'triclinic'
loop_
_space_group_symop_operation_xyz
x,y,z
-x,-y,-z
loop_
_atom_site_type_symbol
_atom_site_label
_atom_site_fract_x
_atom_site_fract_y
_atom_site_fract_z
Si Si1 0.095482 0.086713 0.866699
Si Si2 0.184460 0.511300 0.538571
Si Si3 0.575823 0.734050 0.407872
Si Si4 0.004011 0.150455 0.550016
Si Si5 0.135243 0.331946 0.947020
Si Si6 0.426410 0.333762 0.273487
Si Si7 0.799886 0.222825 0.147771
O O1 0.119708 0.193348 0.854202
O O2 0.098916 0.962279 0.680695
O O3 0.316401 0.271752 0.095797
O O4 0.817768 0.900297 0.827794
O O5 0.398959 0.651536 0.499295
O O6 0.315801 0.549355 0.663366
O O7 0.132213 0.599649 0.688133
O O8 0.936922 0.282388 0.304843
O O9 0.762935 0.770525 0.431885
O O10 0.759795 0.953552 0.514890
O O11 0.394152 0.561339 0.167271
O O12 0.115310 0.330215 0.791515
O O13 0.921420 0.243636 0.007057
O O14 0.500000 0.500000 0.500000
O O15 0.500000 0.000000 0.000000
#
# Coordination Sequence:
#
# PCOD9072146 Si02
#       7
#     2   2   2   2   2   2   2
#     4  11  22  32  52  81 110 143 175 213 261 322
#     4  10  20  36  51  81 108 134 181 216 260 315
#     4  10  18  30  52  76 111 139 163 218 267 311
#     4  11  19  31  51  80 114 137 170 217 260 322
#     4  11  20  33  54  83 110 139 173 214 271 317
#     4  11  22  36  52  74 111 146 177 215 261 315
#     4  10  20  32  56  76 104 140 173 223 263 306
#
# _framework density 21.901026999999999
#
# number of rings (size 3 to 8) (size 9 to 14) (size 15 to 20)
#    0.000    1.429    4.286    3.857    0.000    1.143 
#    0.000    0.000    0.000    0.857    0.000   15.000 
#    0.000    0.000    0.000    0.000    0.000    0.000 
#
# Total GULP energy -78032.268079 kJ/mol
# GULP energy per Si atom -5573.733434 kJ/mol
# Density = 2.185118 g / cm^3
# Si number density = 21.901027 Si / 1000 Ang^3
#
#
#
# Elastic Constant Matrix: (Units=GPa)
#
#
# Indices 1 2 3 4 5 6 
#
# 1 58.1362 11.6640 36.6438 -5.1572 16.0319 15.4870
# 2 11.6640 82.5545 23.9562 7.5845 5.8971 18.1248
# 3 36.6438 23.9562 173.9313 -12.2283 31.2162 12.6094
# 4 -5.1572 7.5845 -12.2283 42.7956 13.6183 0.4301
# 5 16.0319 5.8971 31.2162 13.6183 35.3173 0.8959
# 6 15.4870 18.1248 12.6094 0.4301 0.8959 28.1759
#
#
#
# Elastic Compliance Matrix: (Units=1/GPa)
#
#
# Indices 1 2 3 4 5 6 
#
# 1 0.025829 0.000026 -0.001807 0.006659 -0.012367 -0.013114
# 2 0.000026 0.014780 -0.001719 -0.003174 0.000485 -0.008719
# 3 -0.001807 -0.001719 0.008285 0.005055 -0.008128 -0.001427
# 4 0.006659 -0.003174 0.005055 0.032371 -0.019348 -0.003759
# 5 -0.012367 0.000485 -0.008128 -0.019348 0.048267 0.008884
# 6 -0.013114 -0.008719 -0.001427 -0.003759 0.008884 0.048722
#
#
# Mechanical properties :
#
#
# Convention : Reuss Voigt Hill
#
# Bulk Modulus (GPa) = 23.87047 51.01666 37.44356
# Shear Modulus (GPa) = 25.09812 37.41496 31.25654
#
# Velocity S-wave (km/s) = 3.38890 4.13772 3.78189
# Velocity P-wave (km/s) = 5.12209 6.79503 6.01698
#
# Compressibility (1/GPa) = 0.04189277
#
# Stress axis : x y z
#
# Youngs Moduli (GPa) = 38.71588 67.66031 120.70698
#
# Poissons Ratio (x) = -0.00173 0.21809
# Poissons Ratio (y) = -0.00099 0.20752
# Poissons Ratio (z) = 0.06995 0.11632
#
# Static dielectric constant tensor:
#      x y z
#    x 1.877820 -0.079260 0.021650 
#    y -0.079260 1.882460 -0.007520 
#    z 0.021650 -0.007520 1.888770 
# 
# From -- ./inp_files/427533.got.cif
#   From: 2010.05.17/outbox.cif.g08.bks.cpg/sg2_214_cif.got.tgz:427533.got - 2010.06.03 11:33:40.
