data_PCOD9072435
_publ_section_title
;
Structure prediction by ZEFSAII (Michael W. Deem and Ramdas Pophale) SiO2 
 PCOD9072435
Probable space group: P -1
;
_chemical_formula_sum "Si O2"
_cell_formula_units_Z 16
_cell_length_a 9.128099
_cell_length_b 9.424189
_cell_length_c 20.082365
_cell_angle_alpha 28.363035
_cell_angle_beta 58.730030
_cell_angle_gamma 75.344217
_cell_volume 606.772603
_symmetry_space_group_name_H-M "P -1"
_symmetry_group_IT_number 2
_symmetry_cell_setting 'triclinic'
loop_
_space_group_symop_operation_xyz
x,y,z
-x,-y,-z
loop_
_atom_site_type_symbol
_atom_site_label
_atom_site_fract_x
_atom_site_fract_y
_atom_site_fract_z
Si Si1 0.114779 0.307698 0.122874
Si Si2 0.821609 0.175388 0.352853
Si Si3 0.463302 0.394766 0.872635
Si Si4 0.541349 0.165852 0.516208
Si Si5 0.341734 0.960199 0.214691
Si Si6 0.151006 0.432625 0.367042
Si Si7 0.373201 0.085298 0.728293
Si Si8 0.006946 0.911605 0.175719
O O1 0.228818 0.137402 0.202949
O O2 0.006499 0.042028 0.198046
O O3 0.259048 0.675204 0.905289
O O4 0.977984 0.376323 0.175784
O O5 0.743008 0.355368 0.346976
O O6 0.910313 0.963091 0.456030
O O7 0.628772 0.901452 0.469331
O O8 0.526150 0.796002 0.687472
O O9 0.636108 0.377797 0.798552
O O10 0.451128 0.232795 0.015610
O O11 0.234299 0.177113 0.989747
O O12 0.481777 0.267421 0.557975
O O13 0.476446 0.895927 0.258969
O O14 0.197086 0.600392 0.360656
O O15 0.001208 0.547145 0.327250
O O16 0.195879 0.124389 0.786104
#
# Coordination Sequence:
#
# PCOD9072435 Si02
#       8
#     2   2   2   2   2   2   2   2
#     4  10  19  34  57  83 107 141 190 226 268 320
#     4  10  20  35  59  84 106 146 187 228 260 329
#     4   9  17  36  59  80 106 144 189 230 261 320
#     4  10  19  33  58  84 110 138 181 233 277 305
#     4  10  21  33  58  83 112 146 177 228 281 323
#     4   9  20  38  56  79 114 147 188 215 271 332
#     4  12  20  35  56  89 113 135 182 237 279 316
#     4  10  18  30  57  82 106 143 185 227 262 317
#
# _framework density 26.369022000000001
#
# number of rings (size 3 to 8) (size 9 to 14) (size 15 to 20)
#    0.000    2.250    3.750    3.000    0.000    2.000 
#    0.000    3.750    0.000    0.000    0.000    0.000 
#    0.000    0.000    0.000    0.000    0.000    0.000 
#
# Total GULP energy -89424.983980 kJ/mol
# GULP energy per Si atom -5589.061499 kJ/mol
# Density = 2.630900 g / cm^3
# Si number density = 26.369022 Si / 1000 Ang^3
#
#
#
# Elastic Constant Matrix: (Units=GPa)
#
#
# Indices 1 2 3 4 5 6 
#
# 1 122.9513 44.0423 3.3781 19.6570 16.9430 -35.2233
# 2 44.0423 149.9816 10.9739 32.3356 -4.9257 -29.5834
# 3 3.3781 10.9739 70.0873 34.1885 -11.3166 -9.0103
# 4 19.6570 32.3356 34.1885 39.3707 -13.6155 -2.5094
# 5 16.9430 -4.9257 -11.3166 -13.6155 32.3529 4.0052
# 6 -35.2233 -29.5834 -9.0103 -2.5094 4.0052 47.7046
#
#
#
# Elastic Compliance Matrix: (Units=1/GPa)
#
#
# Indices 1 2 3 4 5 6 
#
# 1 0.018669 0.001989 0.010312 -0.025254 -0.018625 0.017201
# 2 0.001989 0.010901 0.006891 -0.017196 -0.005332 0.009074
# 3 0.010312 0.006891 0.034225 -0.043928 -0.012987 0.017131
# 4 -0.025254 -0.017196 -0.043928 0.102851 0.042958 -0.035804
# 5 -0.018625 -0.005332 -0.012987 0.042958 0.056106 -0.021962
# 6 0.017201 0.009074 0.017131 -0.035804 -0.021962 0.042486
#
#
# Mechanical properties :
#
#
# Convention : Reuss Voigt Hill
#
# Bulk Modulus (GPa) = 9.78673 51.08988 30.43831
# Shear Modulus (GPa) = 19.16331 42.86070 31.01200
#
# Velocity S-wave (km/s) = 2.69873 4.03602 3.43312
# Velocity P-wave (km/s) = 3.66474 6.41376 5.22335
#
# Compressibility (1/GPa) = 0.10217912
#
# Stress axis : x y z
#
# Youngs Moduli (GPa) = 53.56390 91.73324 29.21817
#
# Poissons Ratio (x) = -0.18247 -0.30129
# Poissons Ratio (y) = -0.10654 -0.20134
# Poissons Ratio (z) = -0.55233 -0.63213
#
# Static dielectric constant tensor:
#      x y z
#    x 2.064130 -0.000840 -0.024710 
#    y -0.000840 2.097650 -0.025170 
#    z -0.024710 -0.025170 2.130210 
# 
# From -- ./inp_files/446343.got.cif
#   From: 2010.05.17/outbox.cif.g08.bks.cpg/sg2_224_cif.got.tgz:446343.got - 2010.06.03 11:33:40.
