data_PCOD9072228
_publ_section_title
;
Structure prediction by ZEFSAII (Michael W. Deem and Ramdas Pophale) SiO2 
 PCOD9072228
Probable space group: P -1
;
_chemical_formula_sum "Si O2"
_cell_formula_units_Z 14
_cell_length_a 9.000000
_cell_length_b 15.000000
_cell_length_c 12.000000
_cell_angle_alpha 150.000000
_cell_angle_beta 120.000000
_cell_angle_gamma 60.000000
_cell_volume 693.035739
_symmetry_space_group_name_H-M "P -1"
_symmetry_group_IT_number 2
_symmetry_cell_setting 'triclinic'
loop_
_space_group_symop_operation_xyz
x,y,z
-x,-y,-z
loop_
_atom_site_type_symbol
_atom_site_label
_atom_site_fract_x
_atom_site_fract_y
_atom_site_fract_z
Si Si1 0.972390 0.241750 0.530727
Si Si2 0.159414 0.022313 0.665233
Si Si3 0.939569 0.387642 0.028852
Si Si4 0.764998 0.511640 0.337213
Si Si5 0.653850 0.887262 0.366179
Si Si6 0.021398 0.783877 0.755258
Si Si7 0.590256 0.483839 0.895651
O O1 0.973520 0.442144 0.793173
O O2 0.166393 0.137192 0.521481
O O3 0.944438 0.244872 0.393268
O O4 0.830524 0.136989 0.416970
O O5 0.319606 0.022349 0.644083
O O6 0.000000 0.000000 0.500000
O O7 0.085709 0.213846 0.901544
O O8 0.852656 0.448657 0.181649
O O9 0.778360 0.365985 0.863107
O O10 0.852584 0.680894 0.598339
O O11 0.558494 0.561390 0.292496
O O12 0.826313 0.336942 0.248211
O O13 0.500000 0.000000 0.500000
O O14 0.623358 0.686991 0.107489
O O15 0.000000 0.000000 0.000000
O O16 0.500000 0.500000 0.000000
#
# Coordination Sequence:
#
# PCOD9072228 Si02
#       7
#     2   2   2   2   2   2   2
#     4   9  20  36  55  84 111 150 188 224 279 329
#     4  10  21  34  54  82 114 152 181 224 282 335
#     4   9  18  36  55  81 117 145 188 224 277 344
#     4   9  19  34  53  86 115 146 190 236 274 319
#     4  10  22  35  53  85 116 140 180 232 286 334
#     4  10  19  32  55  84 112 150 194 230 271 328
#     4   9  19  33  54  80 115 147 174 232 287 322
#
# _framework density 20.200977999999999
#
# number of rings (size 3 to 8) (size 9 to 14) (size 15 to 20)
#    0.000    2.571    0.000    1.714   10.000    5.143 
#    0.000    0.000    0.000    0.857    0.000   12.000 
#    0.000    0.000    0.000    0.000    0.000    0.000 
#
# Total GULP energy -78053.811863 kJ/mol
# GULP energy per Si atom -5575.272276 kJ/mol
# Density = 2.015500 g / cm^3
# Si number density = 20.200978 Si / 1000 Ang^3
#
#
#
# Elastic Constant Matrix: (Units=GPa)
#
#
# Indices 1 2 3 4 5 6 
#
# 1 76.0057 27.9577 25.9395 7.0150 8.4394 20.4304
# 2 27.9577 100.8273 34.9518 -0.6966 20.7806 14.9808
# 3 25.9395 34.9518 88.7339 13.6910 7.0758 -1.8709
# 4 7.0150 -0.6966 13.6910 31.0876 1.4949 9.6362
# 5 8.4394 20.7806 7.0758 1.4949 22.6331 2.8832
# 6 20.4304 14.9808 -1.8709 9.6362 2.8832 27.0814
#
#
#
# Elastic Compliance Matrix: (Units=1/GPa)
#
#
# Indices 1 2 3 4 5 6 
#
# 1 0.019770 -0.000165 -0.006319 0.003484 -0.003419 -0.016135
# 2 -0.000165 0.016468 -0.006839 0.007341 -0.012031 -0.010789
# 3 -0.006319 -0.006839 0.017573 -0.010706 0.002149 0.013345
# 4 0.003484 0.007341 -0.010706 0.043424 -0.004709 -0.022379
# 5 -0.003419 -0.012031 0.002149 -0.004709 0.055487 0.005151
# 6 -0.016135 -0.010789 0.013345 -0.022379 0.005151 0.063403
#
#
# Mechanical properties :
#
#
# Convention : Reuss Voigt Hill
#
# Bulk Modulus (GPa) = 36.81455 49.25165 43.03310
# Shear Modulus (GPa) = 19.85507 27.94162 23.89834
#
# Velocity S-wave (km/s) = 3.13849 3.72315 3.44325
# Velocity P-wave (km/s) = 5.60332 6.55105 6.09563
#
# Compressibility (1/GPa) = 0.02716317
#
# Stress axis : x y z
#
# Youngs Moduli (GPa) = 50.58272 60.72495 56.90621
#
# Poissons Ratio (x) = 0.01002 0.35961
# Poissons Ratio (y) = 0.00835 0.38918
# Poissons Ratio (z) = 0.31965 0.41530
#
# Static dielectric constant tensor:
#      x y z
#    x 1.740480 -0.008380 -0.019700 
#    y -0.008380 1.676890 -0.026570 
#    z -0.019700 -0.026570 1.690330 
# 
# From -- ./inp_files/396780.got.cif
#   From: 2010.05.17/outbox.ucp.g08.bks.cvg/sg2_199_cif.got.tgz:396780.got - 2010.06.11 11:32:03.
