data_PCOD9072211
_publ_section_title
;
Structure prediction by ZEFSAII (Michael W. Deem and Ramdas Pophale) SiO2 
 PCOD9072211
Probable space group: P -1
;
_chemical_formula_sum "Si O2"
_cell_formula_units_Z 14
_cell_length_a 15.000000
_cell_length_b 15.000000
_cell_length_c 12.000000
_cell_angle_alpha 60.000000
_cell_angle_beta 40.000000
_cell_angle_gamma 30.000000
_cell_volume 747.221570
_symmetry_space_group_name_H-M "P -1"
_symmetry_group_IT_number 2
_symmetry_cell_setting 'triclinic'
loop_
_space_group_symop_operation_xyz
x,y,z
-x,-y,-z
loop_
_atom_site_type_symbol
_atom_site_label
_atom_site_fract_x
_atom_site_fract_y
_atom_site_fract_z
Si Si1 0.167530 0.846768 0.113638
Si Si2 0.877325 0.540896 0.739190
Si Si3 0.295463 0.687067 0.742167
Si Si4 0.364532 0.802901 0.195621
Si Si5 0.978964 0.788470 0.184180
Si Si6 0.563186 0.748542 0.681197
Si Si7 0.192027 0.728715 0.556872
O O1 0.268657 0.805123 0.169982
O O2 0.098614 0.777084 0.181136
O O3 0.395413 0.752112 0.871442
O O4 0.879434 0.095505 0.215886
O O5 0.689832 0.697181 0.714572
O O6 0.997293 0.347368 0.727574
O O7 0.154155 0.432890 0.549323
O O8 0.659802 0.665013 0.971017
O O9 0.220342 0.697181 0.682522
O O10 0.631411 0.472533 0.550087
O O11 0.177971 0.689864 0.950275
O O12 0.342831 0.735215 0.359470
O O13 0.132166 0.039212 0.296794
O O14 0.672303 0.025591 0.289399
#
# Coordination Sequence:
#
# PCOD9072211 Si02
#       7
#     2   2   2   2   2   2   2
#     4   9  19  32  49  76 106 125 160 202 253 304
#     4  10  19  32  49  73 105 133 165 197 250 297
#     4   9  16  28  46  70 100 127 160 206 251 283
#     4   9  17  30  46  72 100 127 167 207 242 291
#     4  11  19  33  51  78 106 130 158 203 253 306
#     4   9  19  32  47  71 106 134 163 199 239 307
#     4   9  16  28  46  68  99 127 166 210 246 271
#
# _framework density 18.736076000000001
#
# number of rings (size 3 to 8) (size 9 to 14) (size 15 to 20)
#    0.000    2.571    1.429    3.000    0.000    2.286 
#    2.571    0.000    0.000    0.000    0.000   20.000 
#    0.000    1.857    0.000    0.000    0.000    0.000 
#
# Total GULP energy -77961.990322 kJ/mol
# GULP energy per Si atom -5568.713594 kJ/mol
# Density = 1.869343 g / cm^3
# Si number density = 18.736076 Si / 1000 Ang^3
#
#
#
# Elastic Constant Matrix: (Units=GPa)
#
#
# Indices 1 2 3 4 5 6 
#
# 1 34.7666 12.0842 14.0575 2.0314 -0.3009 -5.0661
# 2 12.0842 63.2009 16.2752 6.4741 -7.0161 -8.8493
# 3 14.0575 16.2752 117.8424 23.1153 1.0028 4.2772
# 4 2.0314 6.4741 23.1153 38.1156 -11.8187 2.1970
# 5 -0.3009 -7.0161 1.0028 -11.8187 20.2158 -4.2538
# 6 -5.0661 -8.8493 4.2772 2.1970 -4.2538 20.6840
#
#
#
# Elastic Compliance Matrix: (Units=1/GPa)
#
#
# Indices 1 2 3 4 5 6 
#
# 1 0.032780 -0.004237 -0.003869 0.001379 0.001527 0.007184
# 2 -0.004237 0.019706 -0.002854 0.001013 0.009582 0.009846
# 3 -0.003869 -0.002854 0.011179 -0.008091 -0.007416 -0.005146
# 4 0.001379 0.001013 -0.008091 0.038062 0.023715 0.003279
# 5 0.001527 0.009582 -0.007416 0.023715 0.070847 0.018058
# 6 0.007184 0.009846 -0.005146 0.003279 0.018058 0.058748
#
#
# Mechanical properties :
#
#
# Convention : Reuss Voigt Hill
#
# Bulk Modulus (GPa) = 23.95525 33.40483 28.68004
# Shear Modulus (GPa) = 18.71557 27.36260 23.03909
#
# Velocity S-wave (km/s) = 3.16398 3.82569 3.51046
# Velocity P-wave (km/s) = 5.11479 6.11412 5.63664
#
# Compressibility (1/GPa) = 0.04174450
#
# Stress axis : x y z
#
# Youngs Moduli (GPa) = 30.50643 50.74541 89.45640
#
# Poissons Ratio (x) = 0.21501 0.34614
# Poissons Ratio (y) = 0.12926 0.25529
# Poissons Ratio (z) = 0.11804 0.14482
#
# Static dielectric constant tensor:
#      x y z
#    x 1.631940 -0.002670 0.011730 
#    y -0.002670 1.721110 0.041630 
#    z 0.011730 0.041630 1.677030 
# 
# From -- ./inp_files/167564.got.cif
#   From: 2010.05.17/outbox.ucp.g08.bks.cvg/sg2_84_cif.got.tgz:167564.got - 2010.06.11 11:32:03.
