data_PCOD9072386
_publ_section_title
;
Structure prediction by ZEFSAII (Michael W. Deem and Ramdas Pophale) SiO2 
 PCOD9072386
Probable space group: P -1
;
_chemical_formula_sum "Si O2"
_cell_formula_units_Z 16
_cell_length_a 15.289755
_cell_length_b 19.347327
_cell_length_c 24.879663
_cell_angle_alpha 21.960450
_cell_angle_beta 161.029065
_cell_angle_gamma 148.073098
_cell_volume 870.090464
_symmetry_space_group_name_H-M "P -1"
_symmetry_group_IT_number 2
_symmetry_cell_setting 'triclinic'
loop_
_space_group_symop_operation_xyz
x,y,z
-x,-y,-z
loop_
_atom_site_type_symbol
_atom_site_label
_atom_site_fract_x
_atom_site_fract_y
_atom_site_fract_z
Si Si1 0.870849 0.270831 0.486422
Si Si2 0.685359 0.807268 0.772205
Si Si3 0.973265 0.960214 0.143919
Si Si4 0.229399 0.545963 0.237563
Si Si5 0.731335 0.430273 0.876843
Si Si6 0.132506 0.564650 0.475755
Si Si7 0.227078 0.009481 0.797578
Si Si8 0.409616 0.217993 0.656229
O O1 0.539455 0.315433 0.260099
O O2 0.981541 0.144771 0.695262
O O3 0.997958 0.455357 0.430918
O O4 0.982964 0.138573 0.596762
O O5 0.500000 0.000000 0.500000
O O6 0.841127 0.883823 0.856924
O O7 0.928371 0.690747 0.959647
O O8 0.059705 0.792618 0.272108
O O9 0.655825 0.069677 0.876554
O O10 0.335619 0.493330 0.277630
O O11 0.227245 0.362377 0.404538
O O12 0.434542 0.657461 0.305138
O O13 0.463408 0.493961 0.713241
O O14 0.798829 0.203103 0.074056
O O15 0.000000 0.500000 0.000000
O O16 0.000000 0.500000 0.500000
O O17 0.257530 0.106094 0.688915
O O18 0.500000 0.000000 0.000000
#
# Coordination Sequence:
#
# PCOD9072386 Si02
#       8
#     2   2   2   2   2   2   2   2
#     4  10  18  30  56  81 112 146 194 250 280 348
#     4   9  18  31  55  82 112 150 190 243 285 345
#     4   9  17  31  52  81 110 148 189 233 301 346
#     4  10  21  38  59  91 120 154 202 245 305 347
#     4  12  25  36  59  91 123 153 203 258 291 349
#     4  10  20  33  52  85 116 148 192 242 304 341
#     4  12  18  37  60  87 113 150 211 243 290 349
#     4  10  19  37  64  85 118 159 196 251 294 364
#
# _framework density 18.388892999999999
#
# number of rings (size 3 to 8) (size 9 to 14) (size 15 to 20)
#    0.000    1.750    3.750    2.250    7.000    0.000 
#    0.000    1.875    0.000    0.000    0.000    0.000 
#    0.000    0.000    0.000    0.000    0.000    0.000 
#
# Total GULP energy -89189.962128 kJ/mol
# GULP energy per Si atom -5574.372633 kJ/mol
# Density = 1.834704 g / cm^3
# Si number density = 18.388893 Si / 1000 Ang^3
#
#
#
# Elastic Constant Matrix: (Units=GPa)
#
#
# Indices 1 2 3 4 5 6 
#
# 1 64.8787 24.6261 38.6373 -3.1785 8.0033 9.7405
# 2 24.6261 107.7950 24.5917 -6.4175 13.3761 3.6379
# 3 38.6373 24.5917 67.1998 -1.6881 14.3892 -0.3282
# 4 -3.1785 -6.4175 -1.6881 25.9381 6.4755 10.2210
# 5 8.0033 13.3761 14.3892 6.4755 29.0326 -8.8217
# 6 9.7405 3.6379 -0.3282 10.2210 -8.8217 19.7405
#
#
#
# Elastic Compliance Matrix: (Units=1/GPa)
#
#
# Indices 1 2 3 4 5 6 
#
# 1 0.032477 0.000564 -0.014808 0.021333 -0.017315 -0.035158
# 2 0.000564 0.012104 -0.002179 0.010840 -0.011049 -0.013095
# 3 -0.014808 -0.002179 0.025151 -0.002465 -0.004596 0.007349
# 4 0.021333 0.010840 -0.002465 0.090829 -0.055564 -0.084424
# 5 -0.017315 -0.011049 -0.004596 -0.055564 0.082054 0.075941
# 6 -0.035158 -0.013095 0.007349 -0.084424 0.075941 0.148190
#
#
# Mechanical properties :
#
#
# Convention : Reuss Voigt Hill
#
# Bulk Modulus (GPa) = 27.11156 46.17597 36.64376
# Shear Modulus (GPa) = 11.46932 25.07678 18.27305
#
# Velocity S-wave (km/s) = 2.50013 3.69683 3.15572
# Velocity P-wave (km/s) = 4.80725 6.58691 5.76615
#
# Compressibility (1/GPa) = 0.03688463
#
# Stress axis : x y z
#
# Youngs Moduli (GPa) = 30.79059 82.62024 39.76047
#
# Poissons Ratio (x) = -0.04657 0.58877
# Poissons Ratio (y) = -0.01736 0.08665
# Poissons Ratio (z) = 0.45595 0.18005
#
# Static dielectric constant tensor:
#      x y z
#    x 1.680590 0.036920 0.024620 
#    y 0.036920 1.704960 0.007350 
#    z 0.024620 0.007350 1.649000 
# 
# From -- ./inp_files/619852.got.cif
#   From: 2010.05.17/outbox.cif.g08.bks.cpg/sg2_310_cif.got.tgz:619852.got - 2010.06.03 11:33:40.
