data_PCOD9072735
_publ_section_title
;
Structure prediction by ZEFSAII (Michael W. Deem and Ramdas Pophale) SiO2 
 PCOD9072735
Probable space group: P -1
;
_chemical_formula_sum "Si O2"
_cell_formula_units_Z 10
_cell_length_a 18.000000
_cell_length_b 12.000000
_cell_length_c 15.000000
_cell_angle_alpha 140.000000
_cell_angle_beta 20.000000
_cell_angle_gamma 150.000000
_cell_volume 532.032002
_symmetry_space_group_name_H-M "P -1"
_symmetry_group_IT_number 2
_symmetry_cell_setting 'triclinic'
loop_
_space_group_symop_operation_xyz
x,y,z
-x,-y,-z
loop_
_atom_site_type_symbol
_atom_site_label
_atom_site_fract_x
_atom_site_fract_y
_atom_site_fract_z
Si Si1 0.139759 0.222471 0.420500
Si Si2 0.500220 0.791601 0.141520
Si Si3 0.731030 0.636275 0.068792
Si Si4 0.076678 0.636734 0.383444
Si Si5 0.243619 0.980582 0.823109
O O1 0.384659 0.434645 0.338267
O O2 0.931194 0.253594 0.629506
O O3 0.294891 0.212739 0.155244
O O4 0.000000 0.000000 0.500000
O O5 0.312922 0.816227 0.301451
O O6 0.679126 0.972693 0.131024
O O7 0.247282 0.542180 0.320261
O O8 0.762709 0.826039 0.089651
O O9 0.846912 0.522607 0.821828
O O10 0.926425 0.748751 0.006282
O O11 0.500000 0.000000 0.500000
#
# Coordination Sequence:
#
# PCOD9072735 Si02
#       5
#     2   2   2   2   2
#     4  11  23  39  57  82 119 153 187 229 279 339
#     4  10  21  33  60  87 110 147 188 237 280 327
#     4  10  21  34  59  87 115 147 186 230 289 329
#     4  10  20  36  59  86 114 141 195 239 276 324
#     4  11  20  35  57  90 117 141 183 241 286 327
#
# _framework density 18.795862
#
# number of rings (size 3 to 8) (size 9 to 14) (size 15 to 20)
#    0.000    1.600    4.000    0.600    5.600    3.200 
#    0.000    1.000    0.000    6.000    0.000    0.000 
#    0.000    0.000    0.000    0.000    0.000    0.000 
#
# Total GULP energy -55710.006211 kJ/mol
# GULP energy per Si atom -5571.000621 kJ/mol
# Density = 1.875308 g / cm^3
# Si number density = 18.795862 Si / 1000 Ang^3
#
#
#
# Elastic Constant Matrix: (Units=GPa)
#
#
# Indices 1 2 3 4 5 6 
#
# 1 157.5416 69.5370 40.5795 -8.2299 -44.2633 23.3718
# 2 69.5370 73.8893 19.9180 -2.7903 -12.0376 6.1775
# 3 40.5795 19.9180 37.8333 19.9977 -18.2098 -5.8784
# 4 -8.2299 -2.7903 19.9977 26.4223 5.9447 -13.0035
# 5 -44.2633 -12.0376 -18.2098 5.9447 23.5343 -6.8698
# 6 23.3718 6.1775 -5.8784 -13.0035 -6.8698 51.7952
#
#
#
# Elastic Compliance Matrix: (Units=1/GPa)
#
#
# Indices 1 2 3 4 5 6 
#
# 1 0.021948 -0.009222 -0.037597 0.032218 -0.002205 -0.005275
# 2 -0.009222 0.007604 0.087998 -0.084891 0.076690 0.002101
# 3 -0.037597 0.087998 -0.406362 0.406373 -0.441668 0.003792
# 4 0.032218 -0.084891 0.406373 -0.360523 0.424878 0.007550
# 5 -0.002205 0.076690 -0.441668 0.424878 -0.371765 -0.000918
# 6 -0.005275 0.002101 0.003792 0.007550 -0.000918 0.023640
#
#
# Mechanical properties :
#
#
# Convention : Reuss Voigt Hill
#
# Bulk Modulus (GPa) = -3.39615 58.81483 27.70934
# Shear Modulus (GPa) = -3.94956 29.63232 12.84138
#
# Velocity S-wave (km/s) = -1.45116 3.97487 2.61665
# Velocity P-wave (km/s) = 2.14909 7.24054 4.88911
#
# Compressibility (1/GPa) = -0.29445120
#
# Stress axis : x y z
#
# Youngs Moduli (GPa) = 45.56169 131.50850 -2.46086
#
# Poissons Ratio (x) = 1.21282 -0.09252
# Poissons Ratio (y) = 0.42019 0.21655
# Poissons Ratio (z) = 1.71297 -11.57249
#
# Static dielectric constant tensor:
#      x y z
#    x 1.684570 0.023470 -0.028300 
#    y 0.023470 1.733260 0.000010 
#    z -0.028300 0.000010 1.675970 
# 
# From -- ./inp_files/15752.got.cif
#   From: 2010.05.17/outbox.ucp.g08.bks.cvg/sg2_8_cif.got.tgz:15752.got - 2010.06.11 11:32:03.
