data_PCOD9072578
_publ_section_title
;
Structure prediction by ZEFSAII (Michael W. Deem and Ramdas Pophale) SiO2 
 PCOD9072578
Probable space group: P -1
;
_chemical_formula_sum "Si O2"
_cell_formula_units_Z 16
_cell_length_a 15.000000
_cell_length_b 9.000000
_cell_length_c 30.000000
_cell_angle_alpha 40.000000
_cell_angle_beta 20.000000
_cell_angle_gamma 50.000000
_cell_volume 833.890543
_symmetry_space_group_name_H-M "P -1"
_symmetry_group_IT_number 2
_symmetry_cell_setting 'triclinic'
loop_
_space_group_symop_operation_xyz
x,y,z
-x,-y,-z
loop_
_atom_site_type_symbol
_atom_site_label
_atom_site_fract_x
_atom_site_fract_y
_atom_site_fract_z
Si Si1 0.693338 0.216178 0.251694
Si Si2 0.255589 0.322784 0.187737
Si Si3 0.757017 0.424450 0.274893
Si Si4 0.327237 0.363698 0.902770
Si Si5 0.333348 0.672096 0.557633
Si Si6 0.255249 0.772266 0.315501
Si Si7 0.603299 0.371007 0.099599
Si Si8 0.341912 0.115361 0.812022
O O1 0.691671 0.286160 0.289147
O O2 0.634787 0.421282 0.201397
O O3 0.481062 0.945280 0.406543
O O4 0.996923 0.217811 0.093482
O O5 0.376161 0.363336 0.171745
O O6 0.988221 0.402637 0.288344
O O7 0.179780 0.022038 0.286803
O O8 0.500000 0.500000 0.000000
O O9 0.666927 0.305919 0.392927
O O10 0.615948 0.633311 0.290815
O O11 0.095377 0.540040 0.087172
O O12 0.537390 0.229851 0.821297
O O13 0.396327 0.462725 0.897186
O O14 0.500000 0.500000 0.500000
O O15 0.468331 0.816613 0.247801
O O16 0.000000 0.500000 0.500000
O O17 0.570507 0.104841 0.197287
O O18 0.000000 0.000000 0.000000
#
# Coordination Sequence:
#
# PCOD9072578 Si02
#       8
#     2   2   2   2   2   2   2   2
#     4  10  22  39  63  97 133 167 217 277 326 387
#     4  11  24  46  67  90 138 182 217 267 349 412
#     4  10  19  40  63  92 129 171 216 263 337 386
#     4  10  21  40  69  96 128 167 225 276 329 391
#     4  12  27  41  65  96 133 171 225 273 326 403
#     4  11  23  43  68  98 132 175 230 280 338 398
#     4   9  20  39  66  96 126 170 218 271 329 397
#     4   9  19  35  65  94 126 172 218 267 333 400
#
# _framework density 19.187169999999998
#
# number of rings (size 3 to 8) (size 9 to 14) (size 15 to 20)
#    0.000    1.750    2.500    1.125    5.250    0.000 
#    2.250    2.500    0.000    0.000    0.000    0.000 
#    0.000    0.000    0.000    0.000    0.000    0.000 
#
# Total GULP energy -89111.245924 kJ/mol
# GULP energy per Si atom -5569.452870 kJ/mol
# Density = 1.914350 g / cm^3
# Si number density = 19.187170 Si / 1000 Ang^3
#
#
#
# Elastic Constant Matrix: (Units=GPa)
#
#
# Indices 1 2 3 4 5 6 
#
# 1 75.6185 13.1411 27.8062 13.4165 -2.9946 -10.9764
# 2 13.1411 59.5931 38.6789 19.1164 -1.9346 -11.7070
# 3 27.8062 38.6789 85.2745 -0.4225 -4.0697 0.2863
# 4 13.4165 19.1164 -0.4225 29.3509 0.3074 0.0451
# 5 -2.9946 -1.9346 -4.0697 0.3074 30.0502 4.6403
# 6 -10.9764 -11.7070 0.2863 0.0451 4.6403 26.4477
#
#
#
# Elastic Compliance Matrix: (Units=1/GPa)
#
#
# Indices 1 2 3 4 5 6 
#
# 1 0.020765 0.011616 -0.012213 -0.017247 -0.000833 0.014068
# 2 0.011616 0.048325 -0.026129 -0.037170 -0.003074 0.027097
# 3 -0.012213 -0.026129 0.027894 0.022994 0.003356 -0.017564
# 4 -0.017247 -0.037170 0.022994 0.066510 0.002080 -0.024338
# 5 -0.000833 -0.003074 0.003356 0.002080 0.034638 -0.007823
# 6 0.014068 0.027097 -0.017564 -0.024338 -0.007823 0.057248
#
#
# Mechanical properties :
#
#
# Convention : Reuss Voigt Hill
#
# Bulk Modulus (GPa) = 22.97069 42.19318 32.58193
# Shear Modulus (GPa) = 15.46359 26.56042 21.01201
#
# Velocity S-wave (km/s) = 2.84198 3.72463 3.31283
# Velocity P-wave (km/s) = 4.77148 6.36672 5.62593
#
# Compressibility (1/GPa) = 0.04353374
#
# Stress axis : x y z
#
# Youngs Moduli (GPa) = 48.15738 20.69335 35.85044
#
# Poissons Ratio (x) = -0.24038 0.43782
# Poissons Ratio (y) = -0.55942 0.93673
# Poissons Ratio (z) = 0.58812 0.54069
#
# Static dielectric constant tensor:
#      x y z
#    x 1.678340 0.019180 -0.020510 
#    y 0.019180 1.697130 -0.014660 
#    z -0.020510 -0.014660 1.686860 
# 
# From -- ./inp_files/209299.got.cif
#   From: 2010.05.17/outbox.ucp.g08.bks.cvg/sg2_105_cif.got.tgz:209299.got - 2010.06.11 11:32:03.
