data_PCOD9072030
_publ_section_title
;
Structure prediction by ZEFSAII (Michael W. Deem and Ramdas Pophale) SiO2 
 PCOD9072030
Probable space group: P -1
;
_chemical_formula_sum "Si O2"
_cell_formula_units_Z 14
_cell_length_a 17.142162
_cell_length_b 11.394967
_cell_length_c 14.490986
_cell_angle_alpha 161.037952
_cell_angle_beta 45.326163
_cell_angle_gamma 133.371993
_cell_volume 651.150470
_symmetry_space_group_name_H-M "P -1"
_symmetry_group_IT_number 2
_symmetry_cell_setting 'triclinic'
loop_
_space_group_symop_operation_xyz
x,y,z
-x,-y,-z
loop_
_atom_site_type_symbol
_atom_site_label
_atom_site_fract_x
_atom_site_fract_y
_atom_site_fract_z
Si Si1 0.613297 0.001935 0.854063
Si Si2 0.072573 0.230804 0.185924
Si Si3 0.242924 0.980082 0.984577
Si Si4 0.284857 0.385523 0.664678
Si Si5 0.356684 0.551021 0.436297
Si Si6 0.731594 0.309423 0.742582
Si Si7 0.420022 0.197177 0.645289
O O1 0.681052 0.385849 0.102139
O O2 0.500000 0.000000 0.000000
O O3 0.612137 0.797355 0.605527
O O4 0.674586 0.734202 0.668949
O O5 0.172029 0.458726 0.218953
O O6 0.000000 0.500000 0.500000
O O7 0.126955 0.981754 0.031367
O O8 0.000000 0.000000 0.000000
O O9 0.245709 0.677493 0.839840
O O10 0.328450 0.911614 0.779407
O O11 0.281125 0.381343 0.290654
O O12 0.219571 0.008955 0.472226
O O13 0.484146 0.559303 0.308855
O O14 0.648193 0.093288 0.579027
O O15 0.661014 0.569229 0.055853
O O16 0.500000 0.000000 0.500000
#
# Coordination Sequence:
#
# PCOD9072030 Si02
#       7
#     2   2   2   2   2   2   2
#     4  10  18  30  50  81 122 163 195 221 268 342
#     4  12  26  46  67  86 110 153 204 255 309 361
#     4  10  21  40  61  88 123 158 197 241 291 356
#     4  10  21  35  57  85 119 153 189 245 297 336
#     4  10  19  33  57  88 123 164 195 224 279 352
#     4  12  24  41  62  91 122 154 202 253 293 349
#     4  12  23  37  59  91 129 167 197 235 288 348
#
# _framework density 21.500409000000001
#
# number of rings (size 3 to 8) (size 9 to 14) (size 15 to 20)
#    0.000    1.143    0.000    7.714    0.000    2.286 
#    0.000    1.429    0.000    0.000    0.000    0.000 
#    0.000    0.000    0.000    0.000    0.000    0.000 
#
# Total GULP energy -78017.497990 kJ/mol
# GULP energy per Si atom -5572.678428 kJ/mol
# Density = 2.145147 g / cm^3
# Si number density = 21.500409 Si / 1000 Ang^3
#
#
#
# Elastic Constant Matrix: (Units=GPa)
#
#
# Indices 1 2 3 4 5 6 
#
# 1 122.6612 40.4764 46.6893 2.0749 17.7181 -0.0699
# 2 40.4764 90.7302 44.5352 7.2553 -4.0555 -11.5886
# 3 46.6893 44.5352 113.0216 -15.6028 25.1456 -6.0691
# 4 2.0749 7.2553 -15.6028 34.8783 -3.3629 -1.5285
# 5 17.7181 -4.0555 25.1456 -3.3629 43.8357 6.0426
# 6 -0.0699 -11.5886 -6.0691 -1.5285 6.0426 25.9469
#
#
#
# Elastic Compliance Matrix: (Units=1/GPa)
#
#
# Indices 1 2 3 4 5 6 
#
# 1 0.010869 -0.003837 -0.002549 -0.001365 -0.003167 -0.001624
# 2 -0.003837 0.017670 -0.007384 -0.005947 0.006369 0.004321
# 3 -0.002549 -0.007384 0.016009 0.008147 -0.008614 0.002926
# 4 -0.001365 -0.005947 0.008147 0.033485 -0.002346 0.001765
# 5 -0.003167 0.006369 -0.008614 -0.002346 0.030322 -0.006379
# 6 -0.001624 0.004321 0.002926 0.001765 -0.006379 0.042740
#
#
# Mechanical properties :
#
#
# Convention : Reuss Voigt Hill
#
# Bulk Modulus (GPa) = 58.79703 65.53501 62.16602
# Shear Modulus (GPa) = 27.12929 33.91297 30.52113
#
# Velocity S-wave (km/s) = 3.55604 3.97585 3.77179
# Velocity P-wave (km/s) = 6.65334 7.18495 6.92425
#
# Compressibility (1/GPa) = 0.01700766
#
# Stress axis : x y z
#
# Youngs Moduli (GPa) = 92.00823 56.59314 62.46681
#
# Poissons Ratio (x) = 0.21717 0.15921
# Poissons Ratio (y) = 0.35307 0.46123
# Poissons Ratio (z) = 0.23451 0.41786
#
# Static dielectric constant tensor:
#      x y z
#    x 1.926760 -0.153770 -0.133950 
#    y -0.153770 1.856220 0.091870 
#    z -0.133950 0.091870 1.935720 
# 
# From -- ./inp_files/76247.got.cif
#   From: 2010.05.17/outbox.cif.g08.bks.cpg/sg2_39_cif.got.tgz:76247.got - 2010.06.03 11:33:40.
