data_PCOD9072279
_publ_section_title
;
Structure prediction by ZEFSAII (Michael W. Deem and Ramdas Pophale) SiO2 
 PCOD9072279
Probable space group: P -1
;
_chemical_formula_sum "Si O2"
_cell_formula_units_Z 14
_cell_length_a 7.018324
_cell_length_b 5.364574
_cell_length_c 21.782402
_cell_angle_alpha 77.530842
_cell_angle_beta 140.986327
_cell_angle_gamma 106.263447
_cell_volume 495.605996
_symmetry_space_group_name_H-M "P -1"
_symmetry_group_IT_number 2
_symmetry_cell_setting 'triclinic'
loop_
_space_group_symop_operation_xyz
x,y,z
-x,-y,-z
loop_
_atom_site_type_symbol
_atom_site_label
_atom_site_fract_x
_atom_site_fract_y
_atom_site_fract_z
Si Si1 0.146711 0.853009 0.149772
Si Si2 0.493322 0.329427 0.418833
Si Si3 0.995334 0.880258 0.363126
Si Si4 0.556487 0.217679 0.074091
Si Si5 0.649974 0.925986 0.389957
Si Si6 0.189902 0.283496 0.807766
Si Si7 0.926330 0.614983 0.910339
O O1 0.091959 0.819271 0.210269
O O2 0.274237 0.619132 0.164108
O O3 0.247889 0.145637 0.138977
O O4 0.791932 0.796922 0.034585
O O5 0.776234 0.271141 0.534084
O O6 0.508636 0.166885 0.368243
O O7 0.185875 0.169802 0.381479
O O8 0.527183 0.635001 0.400607
O O9 0.708884 0.910432 0.332798
O O10 0.919494 0.733588 0.288056
O O11 0.665144 0.443169 0.139208
O O12 0.599630 0.936575 0.122392
O O13 0.212943 0.718244 0.930255
O O14 0.000000 0.000000 0.500000
O O15 0.000000 0.500000 0.000000
#
# Coordination Sequence:
#
# PCOD9072279 Si02
#       7
#     2   2   2   2   2   2   2
#     4  10  19  36  57  77 107 148 190 232 271 348
#     4  10  23  39  63  94 119 159 205 242 294 370
#     4  10  22  39  66  87 124 164 195 246 310 350
#     4  10  20  36  58  77 109 147 191 234 273 346
#     4  10  21  39  63  91 122 155 204 248 290 363
#     4  10  20  33  59  82 109 148 188 232 288 345
#     4  10  18  30  54  79 103 137 185 227 278 330
#
# _framework density 28.248244
#
# number of rings (size 3 to 8) (size 9 to 14) (size 15 to 20)
#    0.000    2.000    0.000    6.429    0.000   10.857 
#    0.000    0.000   50.286    0.000    0.000    0.000 
#    0.000    0.000    0.000    0.000    0.000    0.000 
#
# Total GULP energy -78586.502636 kJ/mol
# GULP energy per Si atom -5613.321617 kJ/mol
# Density = 2.818395 g / cm^3
# Si number density = 28.248244 Si / 1000 Ang^3
#
#
#
# Elastic Constant Matrix: (Units=GPa)
#
#
# Indices 1 2 3 4 5 6 
#
# 1 167.4133 46.9423 25.1920 6.5825 -15.6576 13.2378
# 2 46.9423 239.3144 59.4445 13.8259 -21.7391 -5.0420
# 3 25.1920 59.4445 130.7675 21.6154 -48.8044 -7.5294
# 4 6.5825 13.8259 21.6154 48.2568 -18.2046 -15.3682
# 5 -15.6576 -21.7391 -48.8044 -18.2046 51.5438 9.3964
# 6 13.2378 -5.0420 -7.5294 -15.3682 9.3964 37.4616
#
#
#
# Elastic Compliance Matrix: (Units=1/GPa)
#
#
# Indices 1 2 3 4 5 6 
#
# 1 0.006788 -0.001146 -0.000200 -0.000963 0.001670 -0.003407
# 2 -0.001146 0.004913 -0.002113 -0.000285 -0.000496 0.000649
# 3 -0.000200 -0.002113 0.012904 -0.001295 0.010973 -0.000904
# 4 -0.000963 -0.000285 -0.001295 0.026854 0.006109 0.009526
# 5 0.001670 -0.000496 0.010973 0.006109 0.033017 -0.004227
# 6 -0.003407 0.000649 -0.000904 0.009526 -0.004227 0.032772
#
#
# Mechanical properties :
#
#
# Convention : Reuss Voigt Hill
#
# Bulk Modulus (GPa) = 56.54339 88.96144 72.75242
# Shear Modulus (GPa) = 38.44274 54.51354 46.47814
#
# Velocity S-wave (km/s) = 3.69303 4.39772 4.06069
# Velocity P-wave (km/s) = 6.18423 7.57282 6.91348
#
# Compressibility (1/GPa) = 0.01768553
#
# Stress axis : x y z
#
# Youngs Moduli (GPa) = 147.31322 203.52171 77.49605
#
# Poissons Ratio (x) = 0.23328 0.01554
# Poissons Ratio (y) = 0.16885 0.16378
# Poissons Ratio (z) = 0.02953 0.43011
#
# Static dielectric constant tensor:
#      x y z
#    x 2.269130 -0.021230 0.088310 
#    y -0.021230 2.158930 0.037670 
#    z 0.088310 0.037670 2.351240 
# 
# From -- ./inp_files/605489.got.cif
#   From: 2010.05.17/outbox.cif.g08.bks.cpg/sg2_303_cif.got.tgz:605489.got - 2010.06.03 11:33:40.
