data_PCOD9072244
_publ_section_title
;
Structure prediction by ZEFSAII (Michael W. Deem and Ramdas Pophale) SiO2 
 PCOD9072244
Probable space group: P -1
;
_chemical_formula_sum "Si O2"
_cell_formula_units_Z 16
_cell_length_a 20.701505
_cell_length_b 9.040001
_cell_length_c 23.997137
_cell_angle_alpha 142.757856
_cell_angle_beta 164.804381
_cell_angle_gamma 31.324698
_cell_volume 598.646180
_symmetry_space_group_name_H-M "P -1"
_symmetry_group_IT_number 2
_symmetry_cell_setting 'triclinic'
loop_
_space_group_symop_operation_xyz
x,y,z
-x,-y,-z
loop_
_atom_site_type_symbol
_atom_site_label
_atom_site_fract_x
_atom_site_fract_y
_atom_site_fract_z
Si Si1 0.300391 0.689524 0.162234
Si Si2 0.717128 0.526395 0.561970
Si Si3 0.732432 0.074065 0.022892
Si Si4 0.045177 0.129913 0.395655
Si Si5 0.172266 0.205840 0.762923
Si Si6 0.861630 0.844774 0.405845
Si Si7 0.103845 0.441757 0.169778
Si Si8 0.429698 0.843047 0.204346
O O1 0.460805 0.673774 0.348012
O O2 0.466638 0.650662 0.231324
O O3 0.191995 0.473930 0.017617
O O4 0.000000 0.000000 0.000000
O O5 0.805842 0.208592 0.563595
O O6 0.992104 0.466484 0.735095
O O7 0.663578 0.686475 0.624211
O O8 0.687992 0.213726 0.967283
O O9 0.445024 0.063993 0.792429
O O10 0.018769 0.741256 0.160649
O O11 0.786915 0.213509 0.163106
O O12 0.280485 0.155786 0.564984
O O13 0.937167 0.304622 0.416227
O O14 0.164003 0.271325 0.710192
O O15 0.966817 0.067876 0.549416
O O16 0.500000 0.000000 0.000000
O O17 0.194878 0.183597 0.125937
#
# Coordination Sequence:
#
# PCOD9072244 Si02
#       8
#     2   2   2   2   2   2   2   2
#     4  10  22  37  52  74 109 149 181 215 260 313
#     4  10  21  35  54  81 109 137 178 222 263 317
#     4  10  19  34  54  79 107 138 177 223 267 313
#     4   9  19  34  54  79 107 138 179 225 266 309
#     4  10  18  30  53  83 109 136 170 220 276 315
#     4   9  17  30  50  78 109 132 165 213 269 323
#     4  10  20  34  53  76 107 141 179 223 265 308
#     4  10  21  32  51  77 105 144 180 216 263 317
#
# _framework density 26.726970000000001
#
# number of rings (size 3 to 8) (size 9 to 14) (size 15 to 20)
#    0.000    2.250    0.000    4.875    0.000    9.000 
#    0.000    0.000    0.000    3.000    0.000   14.875 
#    0.000    0.000    0.000    0.000    0.000    0.000 
#
# Total GULP energy -89311.854315 kJ/mol
# GULP energy per Si atom -5581.990895 kJ/mol
# Density = 2.666614 g / cm^3
# Si number density = 26.726970 Si / 1000 Ang^3
#
#
#
# Elastic Constant Matrix: (Units=GPa)
#
#
# Indices 1 2 3 4 5 6 
#
# 1 147.5777 25.1645 63.8791 9.9223 -50.5637 5.6986
# 2 25.1645 46.6195 8.9247 -19.2148 -7.6099 15.2296
# 3 63.8791 8.9247 146.0222 -11.9850 -47.7362 2.6849
# 4 9.9223 -19.2148 -11.9850 33.4210 10.1391 -1.0218
# 5 -50.5637 -7.6099 -47.7362 10.1391 63.0791 7.3555
# 6 5.6986 15.2296 2.6849 -1.0218 7.3555 38.7175
#
#
#
# Elastic Compliance Matrix: (Units=1/GPa)
#
#
# Indices 1 2 3 4 5 6 
#
# 1 0.015220 -0.012741 -0.003870 -0.016331 0.010283 0.000656
# 2 -0.012741 0.044448 0.003997 0.031958 -0.005327 -0.014030
# 3 -0.003870 0.003997 0.010292 0.005687 0.004537 -0.002428
# 4 -0.016331 0.031958 0.005687 0.059141 -0.013692 -0.006399
# 5 0.010283 -0.005327 0.004537 -0.013692 0.029757 -0.005747
# 6 0.000656 -0.014030 -0.002428 -0.006399 -0.005747 0.032342
#
#
# Mechanical properties :
#
#
# Convention : Reuss Voigt Hill
#
# Bulk Modulus (GPa) = 22.35644 59.57289 40.96466
# Shear Modulus (GPa) = 21.61319 43.19359 32.40339
#
# Velocity S-wave (km/s) = 2.84679 4.02444 3.48571
# Velocity P-wave (km/s) = 4.38047 6.62817 5.61788
#
# Compressibility (1/GPa) = 0.04472985
#
# Stress axis : x y z
#
# Youngs Moduli (GPa) = 65.70409 22.49801 97.16472
#
# Poissons Ratio (x) = 0.28666 0.37606
# Poissons Ratio (y) = 0.83716 -0.38833
# Poissons Ratio (z) = 0.25430 -0.08992
#
# Static dielectric constant tensor:
#      x y z
#    x 2.126040 -0.032840 -0.022330 
#    y -0.032840 2.216810 0.017680 
#    z -0.022330 0.017680 2.160580 
# 
# From -- ./inp_files/577453.got.cif
#   From: 2010.05.17/outbox.cif.g08.bks.cpg/sg2_289_cif.got.tgz:577453.got - 2010.06.03 11:33:40.
