data_PCOD9072824
_publ_section_title
;
Structure prediction by ZEFSAII (Michael W. Deem and Ramdas Pophale) SiO2 
 PCOD9072824
Probable space group: P -1
;
_chemical_formula_sum "Si O2"
_cell_formula_units_Z 16
_cell_length_a 15.000000
_cell_length_b 18.000000
_cell_length_c 9.000000
_cell_angle_alpha 150.000000
_cell_angle_beta 40.000000
_cell_angle_gamma 140.000000
_cell_volume 740.097418
_symmetry_space_group_name_H-M "P -1"
_symmetry_group_IT_number 2
_symmetry_cell_setting 'triclinic'
loop_
_space_group_symop_operation_xyz
x,y,z
-x,-y,-z
loop_
_atom_site_type_symbol
_atom_site_label
_atom_site_fract_x
_atom_site_fract_y
_atom_site_fract_z
Si Si1 0.841353 0.765129 0.687940
Si Si2 0.756963 0.070926 0.248926
Si Si3 0.484018 0.398558 0.198502
Si Si4 0.962352 0.372931 0.967926
Si Si5 0.039212 0.340763 0.357734
Si Si6 0.377284 0.819223 0.865452
Si Si7 0.643431 0.465723 0.818493
Si Si8 0.528624 0.127434 0.850378
O O1 0.682512 0.639587 0.709636
O O2 0.936980 0.754418 0.690495
O O3 0.918053 0.712588 0.359104
O O4 0.821032 0.930208 0.960757
O O5 0.674573 0.096556 0.550249
O O6 0.887968 0.220402 0.281525
O O7 0.622342 0.017172 0.209700
O O8 0.500000 0.500000 0.500000
O O9 0.610878 0.458624 0.022057
O O10 0.495130 0.233936 0.951442
O O11 0.986535 0.495701 0.283746
O O12 0.800259 0.240588 0.966740
O O13 0.000000 0.500000 0.000000
O O14 0.199036 0.404056 0.186562
O O15 0.373213 0.700476 0.530150
O O16 0.442533 0.782849 0.875483
O O17 0.500000 0.000000 0.000000
O O18 0.500000 0.500000 0.000000
#
# Coordination Sequence:
#
# PCOD9072824 Si02
#       8
#     2   2   2   2   2   2   2   2
#     4  10  20  37  63  95 123 169 222 261 315 391
#     4  10  22  37  64  94 131 173 218 264 326 388
#     4  11  24  40  67  96 128 172 214 267 330 390
#     4   9  20  38  63  94 128 164 225 268 318 382
#     4  10  20  37  65  94 130 166 214 275 323 379
#     4  11  25  41  69  97 130 175 218 273 327 383
#     4  11  23  42  65  98 129 164 221 270 327 386
#     4  10  23  41  62  92 136 170 217 263 325 395
#
# _framework density 21.618776
#
# number of rings (size 3 to 8) (size 9 to 14) (size 15 to 20)
#    0.000    1.750    1.250    2.625   10.500    1.000 
#    0.000    1.875    0.000    3.750    0.000    0.000 
#    0.000    0.000    0.000    0.000    0.000    0.000 
#
# Total GULP energy -89079.317906 kJ/mol
# GULP energy per Si atom -5567.457369 kJ/mol
# Density = 2.156957 g / cm^3
# Si number density = 21.618776 Si / 1000 Ang^3
#
#
#
# Elastic Constant Matrix: (Units=GPa)
#
#
# Indices 1 2 3 4 5 6 
#
# 1 44.1331 24.6337 26.9152 -5.2603 4.4116 13.1299
# 2 24.6337 184.7021 58.2277 -11.7324 1.1297 39.4091
# 3 26.9152 58.2277 122.9964 -16.3638 -5.0428 12.8324
# 4 -5.2603 -11.7324 -16.3638 35.4540 2.0398 2.0763
# 5 4.4116 1.1297 -5.0428 2.0398 33.2456 -0.1452
# 6 13.1299 39.4091 12.8324 2.0763 -0.1452 36.0304
#
#
#
# Elastic Compliance Matrix: (Units=1/GPa)
#
#
# Indices 1 2 3 4 5 6 
#
# 1 0.029407 -0.000178 -0.005277 0.002667 -0.004899 -0.008815
# 2 -0.000178 0.008133 -0.002761 0.001904 -0.000823 -0.007960
# 3 -0.005277 -0.002761 0.011025 0.003212 0.002273 0.000840
# 4 0.002667 0.001904 0.003212 0.031173 -0.001870 -0.006002
# 5 -0.004899 -0.000823 0.002273 -0.001870 0.031226 0.002110
# 6 -0.008815 -0.007960 0.000840 -0.006002 0.002110 0.039728
#
#
# Mechanical properties :
#
#
# Convention : Reuss Voigt Hill
#
# Bulk Modulus (GPa) = 31.12181 63.48720 47.30450
# Shear Modulus (GPa) = 28.11603 37.08299 32.59951
#
# Velocity S-wave (km/s) = 3.61021 4.14613 3.88741
# Velocity P-wave (km/s) = 5.63960 7.23540 6.48676
#
# Compressibility (1/GPa) = 0.03213181
#
# Stress axis : x y z
#
# Youngs Moduli (GPa) = 34.00599 122.96047 90.70257
#
# Poissons Ratio (x) = 0.02190 0.47864
# Poissons Ratio (y) = 0.00606 0.25044
# Poissons Ratio (z) = 0.17945 0.33950
#
# Static dielectric constant tensor:
#      x y z
#    x 1.865330 -0.018250 0.005800 
#    y -0.018250 1.881980 -0.002420 
#    z 0.005800 -0.002420 1.849440 
# 
# From -- ./inp_files/318199.got.cif
#   From: 2010.05.17/outbox.ucp.g08.bks.cvg/sg2_160_cif.got.tgz:318199.got - 2010.06.11 11:32:03.
