data_PCOD9072821
_publ_section_title
;
Structure prediction by ZEFSAII (Michael W. Deem and Ramdas Pophale) SiO2 
 PCOD9072821
Probable space group: P -1
;
_chemical_formula_sum "Si O2"
_cell_formula_units_Z 16
_cell_length_a 27.000000
_cell_length_b 27.000000
_cell_length_c 9.000000
_cell_angle_alpha 140.000000
_cell_angle_beta 140.000000
_cell_angle_gamma 10.000000
_cell_volume 728.340053
_symmetry_space_group_name_H-M "P -1"
_symmetry_group_IT_number 2
_symmetry_cell_setting 'triclinic'
loop_
_space_group_symop_operation_xyz
x,y,z
-x,-y,-z
loop_
_atom_site_type_symbol
_atom_site_label
_atom_site_fract_x
_atom_site_fract_y
_atom_site_fract_z
Si Si1 0.273224 0.392152 0.340805
Si Si2 0.052195 0.845582 0.882655
Si Si3 0.580269 0.506996 0.632529
Si Si4 0.077814 0.997940 0.389583
Si Si5 0.485046 0.689653 0.135730
Si Si6 0.218834 0.160770 0.959904
Si Si7 0.380033 0.034044 0.360434
Si Si8 0.863601 0.574685 0.624704
O O1 0.382913 0.357236 0.612112
O O2 0.131862 0.467187 0.300397
O O3 0.047226 0.629307 0.237275
O O4 0.523957 0.108860 0.176459
O O5 0.977842 0.908213 0.681711
O O6 0.373270 0.510476 0.888684
O O7 0.849132 0.989899 0.853417
O O8 0.017971 0.966143 0.137558
O O9 0.500000 0.500000 0.500000
O O10 0.891491 0.202073 0.573377
O O11 0.391755 0.703423 0.503201
O O12 0.541482 0.605768 0.904579
O O13 0.285613 0.080414 0.102142
O O14 0.167593 0.302661 0.158448
O O15 0.135836 0.292745 0.506251
O O16 0.500000 0.000000 0.500000
O O17 0.617546 0.771594 0.411670
#
# Coordination Sequence:
#
# PCOD9072821 Si02
#       8
#     2   2   2   2   2   2   2   2
#     4  12  25  40  58  90 124 168 198 248 310 359
#     4  11  22  41  63  90 121 154 197 258 298 360
#     4  12  21  39  64  95 117 158 197 252 300 361
#     4  11  22  38  66  95 115 151 207 249 302 352
#     4  12  25  41  60  86 130 161 201 248 309 361
#     4  11  21  40  64  90 118 161 210 248 296 364
#     4  10  20  37  63  93 118 150 198 261 304 344
#     4  11  21  39  65  92 122 154 208 257 296 352
#
# _framework density 21.967760999999999
#
# number of rings (size 3 to 8) (size 9 to 14) (size 15 to 20)
#    0.000    0.750    2.500    7.875    0.000    2.000 
#    0.000    7.500    0.000    0.000    0.000    0.000 
#    0.000    0.000    0.000    0.000    0.000    0.000 
#
# Total GULP energy -89379.852883 kJ/mol
# GULP energy per Si atom -5586.240805 kJ/mol
# Density = 2.191776 g / cm^3
# Si number density = 21.967761 Si / 1000 Ang^3
#
#
#
# Elastic Constant Matrix: (Units=GPa)
#
#
# Indices 1 2 3 4 5 6 
#
# 1 42.5885 15.9770 41.0174 11.1594 -25.8363 1.6896
# 2 15.9770 86.1024 26.7210 6.0746 -14.7074 -14.2784
# 3 41.0174 26.7210 146.7422 -2.6691 -42.3534 -7.5785
# 4 11.1594 6.0746 -2.6691 41.4573 -2.7151 -21.2476
# 5 -25.8363 -14.7074 -42.3534 -2.7151 34.3585 -6.8084
# 6 1.6896 -14.2784 -7.5785 -21.2476 -6.8084 32.2072
#
#
#
# Elastic Compliance Matrix: (Units=1/GPa)
#
#
# Indices 1 2 3 4 5 6 
#
# 1 0.053529 -0.004492 -0.008815 -0.021008 0.022643 -0.015946
# 2 -0.004492 0.015114 0.001753 0.006558 0.008439 0.013459
# 3 -0.008815 0.001753 0.014907 0.012739 0.016815 0.016706
# 4 -0.021008 0.006558 0.012739 0.054455 0.016203 0.046357
# 5 0.022643 0.008439 0.016815 0.016203 0.078447 0.033782
# 6 -0.015946 0.013459 0.016706 0.046357 0.033782 0.079507
#
#
# Mechanical properties :
#
#
# Convention : Reuss Voigt Hill
#
# Bulk Modulus (GPa) = 16.54430 49.20713 32.87571
# Shear Modulus (GPa) = 14.74000 34.38577 24.56288
#
# Velocity S-wave (km/s) = 2.59314 3.96066 3.34748
# Velocity P-wave (km/s) = 4.06367 6.58514 5.47163
#
# Compressibility (1/GPa) = 0.06044379
#
# Stress axis : x y z
#
# Youngs Moduli (GPa) = 18.68149 66.16343 67.08224
#
# Poissons Ratio (x) = 0.29718 0.59132
# Poissons Ratio (y) = 0.08391 -0.11761
# Poissons Ratio (z) = 0.16467 -0.11600
#
# Static dielectric constant tensor:
#      x y z
#    x 1.767900 0.025050 0.021970 
#    y 0.025050 1.878140 -0.021680 
#    z 0.021970 -0.021680 1.755760 
# 
# From -- ./inp_files/343222.got.cif
#   From: 2010.05.17/outbox.ucp.g08.bks.cvg/sg2_172_cif.got.tgz:343222.got - 2010.06.11 11:32:03.
