data_PCOD9072403
_publ_section_title
;
Structure prediction by ZEFSAII (Michael W. Deem and Ramdas Pophale) SiO2 
 PCOD9072403
Probable space group: P -1
;
_chemical_formula_sum "Si O2"
_cell_formula_units_Z 14
_cell_length_a 27.000000
_cell_length_b 15.000000
_cell_length_c 15.000000
_cell_angle_alpha 30.000000
_cell_angle_beta 20.000000
_cell_angle_gamma 20.000000
_cell_volume 703.098487
_symmetry_space_group_name_H-M "P -1"
_symmetry_group_IT_number 2
_symmetry_cell_setting 'triclinic'
loop_
_space_group_symop_operation_xyz
x,y,z
-x,-y,-z
loop_
_atom_site_type_symbol
_atom_site_label
_atom_site_fract_x
_atom_site_fract_y
_atom_site_fract_z
Si Si1 0.051219 0.157026 0.730640
Si Si2 0.235173 0.938239 0.095409
Si Si3 0.776566 0.041078 0.592632
Si Si4 0.667929 0.557507 0.587560
Si Si5 0.815148 0.398255 0.289664
Si Si6 0.356214 0.206534 0.147347
Si Si7 0.073857 0.323804 0.190542
O O1 0.241974 0.136353 0.450181
O O2 0.836750 0.476737 0.822265
O O3 0.129036 0.053757 0.585817
O O4 0.000000 0.000000 0.000000
O O5 0.447626 0.781030 0.816778
O O6 0.245511 0.721910 0.295772
O O7 0.215782 0.082240 0.089414
O O8 0.034339 0.159324 0.179999
O O9 0.760349 0.264638 0.449369
O O10 0.934143 0.783767 0.612576
O O11 0.547568 0.156807 0.905705
O O12 0.651987 0.588906 0.481069
O O13 0.842636 0.533486 0.352671
O O14 0.843956 0.548451 0.051093
O O15 0.500000 0.000000 0.000000
#
# Coordination Sequence:
#
# PCOD9072403 Si02
#       7
#     2   2   2   2   2   2   2
#     4  10  23  44  71  94 120 157 203 248 307 381
#     4  10  19  36  60  80 115 171 207 248 294 346
#     4  11  23  40  60  93 128 156 198 252 310 361
#     4  10  19  36  60  78 120 165 209 247 296 343
#     4  11  22  36  57  87 120 161 204 247 296 350
#     4   9  22  43  68  92 122 156 195 246 313 372
#     4  11  22  37  57  85 123 161 202 251 297 347
#
# _framework density 19.911861999999999
#
# number of rings (size 3 to 8) (size 9 to 14) (size 15 to 20)
#    0.000    1.714    2.857    2.571    0.000   11.429 
#    0.000    0.000    0.000    0.000    0.000    0.000 
#    0.000    0.000    0.000    0.000    0.000    0.000 
#
# Total GULP energy -77966.703754 kJ/mol
# GULP energy per Si atom -5569.050268 kJ/mol
# Density = 1.986654 g / cm^3
# Si number density = 19.911862 Si / 1000 Ang^3
#
#
#
# Elastic Constant Matrix: (Units=GPa)
#
#
# Indices 1 2 3 4 5 6 
#
# 1 63.8472 14.7463 34.6926 -7.6340 0.6697 13.8617
# 2 14.7463 65.3694 38.1009 -9.0590 1.0834 12.1521
# 3 34.6926 38.1009 128.4767 -16.7249 4.6690 21.6541
# 4 -7.6340 -9.0590 -16.7249 53.8086 7.5949 -2.2650
# 5 0.6697 1.0834 4.6690 7.5949 37.6461 -8.9703
# 6 13.8617 12.1521 21.6541 -2.2650 -8.9703 12.9029
#
#
#
# Elastic Compliance Matrix: (Units=1/GPa)
#
#
# Indices 1 2 3 4 5 6 
#
# 1 0.022567 0.001376 -0.000973 0.003019 -0.007790 -0.028794
# 2 0.001376 0.020704 -0.002532 0.002847 -0.005690 -0.020185
# 3 -0.000973 -0.002532 0.013777 0.003846 -0.008301 -0.024787
# 4 0.003019 0.002847 0.003846 0.021257 -0.008344 -0.014449
# 5 -0.007790 -0.005690 -0.008301 -0.008344 0.042932 0.056041
# 6 -0.028794 -0.020185 -0.024787 -0.014449 0.056041 0.205467
#
#
# Mechanical properties :
#
#
# Convention : Reuss Voigt Hill
#
# Bulk Modulus (GPa) = 18.94255 48.08590 33.51422
# Shear Modulus (GPa) = 14.34476 32.21509 23.27993
#
# Velocity S-wave (km/s) = 2.68696 4.02666 3.42299
# Velocity P-wave (km/s) = 4.37724 6.76908 5.70003
#
# Compressibility (1/GPa) = 0.05279121
#
# Stress axis : x y z
#
# Youngs Moduli (GPa) = 44.31230 48.29904 72.58367
#
# Poissons Ratio (x) = -0.06648 0.07062
# Poissons Ratio (y) = -0.06099 0.18380
# Poissons Ratio (z) = 0.04311 0.12230
#
# Static dielectric constant tensor:
#      x y z
#    x 1.771510 -0.017640 -0.041350 
#    y -0.017640 1.714830 -0.011060 
#    z -0.041350 -0.011060 1.755960 
# 
# From -- ./inp_files/529561.got.cif
#   From: 2010.05.17/outbox.ucp.g08.bks.cvg/sg2_265_cif.got.tgz:529561.got - 2010.06.11 11:32:03.
