data_PCOD9072338
_publ_section_title
;
Structure prediction by ZEFSAII (Michael W. Deem and Ramdas Pophale) SiO2 
 PCOD9072338
Probable space group: P -1
;
_chemical_formula_sum "Si O2"
_cell_formula_units_Z 16
_cell_length_a 9.000000
_cell_length_b 12.000000
_cell_length_c 15.000000
_cell_angle_alpha 40.000000
_cell_angle_beta 130.000000
_cell_angle_gamma 110.000000
_cell_volume 759.581896
_symmetry_space_group_name_H-M "P -1"
_symmetry_group_IT_number 2
_symmetry_cell_setting 'triclinic'
loop_
_space_group_symop_operation_xyz
x,y,z
-x,-y,-z
loop_
_atom_site_type_symbol
_atom_site_label
_atom_site_fract_x
_atom_site_fract_y
_atom_site_fract_z
Si Si1 0.754867 0.742216 0.754146
Si Si2 0.594558 0.564174 0.286271
Si Si3 0.171605 0.806757 0.689459
Si Si4 0.479597 0.811739 0.449653
Si Si5 0.125990 0.497467 0.735289
Si Si6 0.618896 0.809598 0.847831
Si Si7 0.658318 0.611113 0.473621
Si Si8 0.823832 0.337382 0.025891
O O1 0.613985 0.856449 0.553977
O O2 0.635169 0.729526 0.803999
O O3 0.952044 0.794763 0.828802
O O4 0.823419 0.536389 0.869011
O O5 0.587890 0.360777 0.437803
O O6 0.773654 0.534031 0.303499
O O7 0.622155 0.668278 0.322179
O O8 0.382809 0.674226 0.089309
O O9 0.150421 0.682432 0.674148
O O10 0.384980 0.845093 0.758845
O O11 0.167149 0.687996 0.848829
O O12 0.000000 0.000000 0.500000
O O13 0.611056 0.755844 0.445500
O O14 0.321047 0.004730 0.247055
O O15 0.893489 0.501616 0.640228
O O16 0.246521 0.335366 0.944796
O O17 0.500000 0.500000 0.500000
#
# Coordination Sequence:
#
# PCOD9072338 Si02
#       8
#     2   2   2   2   2   2   2   2
#     4  10  20  33  61  87 127 158 200 246 313 368
#     4  10  22  41  66  85 125 164 220 251 306 360
#     4  12  23  38  62  95 133 165 196 251 319 381
#     4  10  22  41  61  93 127 165 208 253 305 376
#     4  12  23  41  66  94 126 163 207 260 311 370
#     4  12  23  37  63 100 131 160 202 254 317 374
#     4  10  23  43  68  87 118 171 216 260 306 361
#     4  10  19  35  56  92 118 161 200 252 303 368
#
# _framework density 21.064219999999999
#
# number of rings (size 3 to 8) (size 9 to 14) (size 15 to 20)
#    0.000    1.250    2.500    4.875    5.250    1.000 
#    0.000    3.125    2.750    0.000    0.000    0.000 
#    0.000    0.000    0.000    0.000    0.000    0.000 
#
# Total GULP energy -89140.715230 kJ/mol
# GULP energy per Si atom -5571.294702 kJ/mol
# Density = 2.101628 g / cm^3
# Si number density = 21.064220 Si / 1000 Ang^3
#
#
#
# Elastic Constant Matrix: (Units=GPa)
#
#
# Indices 1 2 3 4 5 6 
#
# 1 105.4964 59.5895 44.6792 12.0391 5.0577 -17.8760
# 2 59.5895 30.7254 44.7153 18.5676 -0.1433 -8.8519
# 3 44.6792 44.7153 68.4966 8.1748 -7.1077 -12.7588
# 4 12.0391 18.5676 8.1748 22.7256 7.6361 -3.6530
# 5 5.0577 -0.1433 -7.1077 7.6361 27.4554 10.5219
# 6 -17.8760 -8.8519 -12.7588 -3.6530 10.5219 32.2059
#
#
#
# Elastic Compliance Matrix: (Units=1/GPa)
#
#
# Indices 1 2 3 4 5 6 
#
# 1 0.005627 0.023136 -0.016859 -0.014956 -0.001766 0.001684
# 2 0.023136 -0.056918 0.018952 0.034369 -0.014299 0.013276
# 3 -0.016859 0.018952 0.015964 -0.017683 0.013935 -0.004383
# 4 -0.014956 0.034369 -0.017683 0.034564 -0.012018 0.001987
# 5 -0.001766 -0.014299 0.013935 -0.012018 0.050197 -0.017153
# 6 0.001684 0.013276 -0.004383 0.001987 -0.017153 0.039727
#
#
# Mechanical properties :
#
#
# Convention : Reuss Voigt Hill
#
# Bulk Modulus (GPa) = 66.08042 55.85403 60.96722
# Shear Modulus (GPa) = 114.29723 20.19301 67.24512
#
# Velocity S-wave (km/s) = 7.37422 3.09955 5.65625
# Velocity P-wave (km/s) = 10.19532 6.27561 8.46545
#
# Compressibility (1/GPa) = 0.01513308
#
# Stress axis : x y z
#
# Youngs Moduli (GPa) = 177.71077 -17.56915 62.64224
#
# Poissons Ratio (x) = 0.40649 1.05608
# Poissons Ratio (y) = -4.11161 -1.18722
# Poissons Ratio (z) = 2.99600 0.33298
#
# Static dielectric constant tensor:
#      x y z
#    x 1.889850 -0.016140 0.041280 
#    y -0.016140 1.800950 -0.002040 
#    z 0.041280 -0.002040 1.761670 
# 
# From -- ./inp_files/176143.got.cif
#   From: 2010.05.17/outbox.ucp.g08.bks.cvg/sg2_89_cif.got.tgz:176143.got - 2010.06.11 11:32:03.
