data_PCOD9072178
_publ_section_title
;
Structure prediction by ZEFSAII (Michael W. Deem and Ramdas Pophale) SiO2 
 PCOD9072178
Probable space group: P -1
;
_chemical_formula_sum "Si O2"
_cell_formula_units_Z 16
_cell_length_a 9.451871
_cell_length_b 8.565144
_cell_length_c 9.630439
_cell_angle_alpha 88.995548
_cell_angle_beta 69.132758
_cell_angle_gamma 65.915484
_cell_volume 657.579115
_symmetry_space_group_name_H-M "P -1"
_symmetry_group_IT_number 2
_symmetry_cell_setting 'triclinic'
loop_
_space_group_symop_operation_xyz
x,y,z
-x,-y,-z
loop_
_atom_site_type_symbol
_atom_site_label
_atom_site_fract_x
_atom_site_fract_y
_atom_site_fract_z
Si Si1 0.817899 0.009300 0.965128
Si Si2 0.848186 0.077130 0.257012
Si Si3 0.389003 0.022568 0.198817
Si Si4 0.238633 0.387725 0.352572
Si Si5 0.698687 0.348621 0.509817
Si Si6 0.747305 0.386207 0.902360
Si Si7 0.453522 0.356244 0.818710
Si Si8 0.925416 0.846077 0.505056
O O1 0.798537 0.010543 0.135608
O O2 0.832680 0.188518 0.923497
O O3 0.670743 0.987991 0.936188
O O4 0.995457 0.880221 0.841136
O O5 0.709757 0.257590 0.360915
O O6 0.891164 0.932715 0.364848
O O7 0.383309 0.206860 0.240936
O O8 0.226502 0.028335 0.343673
O O9 0.534797 0.835592 0.181894
O O10 0.294553 0.472206 0.457985
O O11 0.106945 0.322873 0.459601
O O12 0.186490 0.522093 0.238984
O O13 0.529911 0.369039 0.644654
O O14 0.883007 0.212473 0.512493
O O15 0.709347 0.501092 0.053507
O O16 0.591266 0.375096 0.873932
#
# Coordination Sequence:
#
# PCOD9072178 Si02
#       8
#     2   2   2   2   2   2   2   2
#     4  10  21  33  50  74 108 137 168 205 259 300
#     4  11  19  32  52  77 103 137 168 210 253 305
#     4   9  17  32  49  79  97 133 166 203 258 294
#     4   9  19  29  52  79 103 131 167 209 258 292
#     4  11  17  30  53  79 103 127 172 216 248 295
#     4   9  18  34  49  76 105 132 169 214 246 299
#     4   9  17  30  54  74  99 132 177 212 243 286
#     4  10  18  30  52  79 101 129 168 208 255 295
#
# _framework density 24.331672000000001
#
# number of rings (size 3 to 8) (size 9 to 14) (size 15 to 20)
#    0.750    1.500    2.500    3.000    0.000    0.500 
#    0.000    1.875    0.000    4.500    0.000   15.750 
#    0.000    0.000    0.000    0.000    0.000    0.000 
#
# Total GULP energy -89131.974249 kJ/mol
# GULP energy per Si atom -5570.748391 kJ/mol
# Density = 2.427629 g / cm^3
# Si number density = 24.331672 Si / 1000 Ang^3
#
#
#
# Elastic Constant Matrix: (Units=GPa)
#
#
# Indices 1 2 3 4 5 6 
#
# 1 34.7114 20.8398 17.5206 -16.6647 -3.3780 8.2850
# 2 20.8398 130.1621 48.9783 8.8426 -8.8251 23.1443
# 3 17.5206 48.9783 142.7448 12.3555 -4.3232 6.9354
# 4 -16.6647 8.8426 12.3555 46.6510 1.6261 -8.8912
# 5 -3.3780 -8.8251 -4.3232 1.6261 29.2040 -3.5008
# 6 8.2850 23.1443 6.9354 -8.8912 -3.5008 35.2102
#
#
#
# Elastic Compliance Matrix: (Units=1/GPa)
#
#
# Indices 1 2 3 4 5 6 
#
# 1 0.043835 -0.006260 -0.004712 0.017929 0.001410 -0.000604
# 2 -0.006260 0.011157 -0.002250 -0.005060 0.001815 -0.006515
# 3 -0.004712 -0.002250 0.008672 -0.003561 0.000258 0.000006
# 4 0.017929 -0.005060 -0.003561 0.031222 -0.000808 0.007612
# 5 0.001410 0.001815 0.000258 -0.000808 0.035243 0.001724
# 6 -0.000604 -0.006515 0.000006 0.007612 0.001724 0.034918
#
#
# Mechanical properties :
#
#
# Convention : Reuss Voigt Hill
#
# Bulk Modulus (GPa) = 26.86851 53.58842 40.22847
# Shear Modulus (GPa) = 24.52208 36.89834 30.71021
#
# Velocity S-wave (km/s) = 3.17807 3.89842 3.55653
# Velocity P-wave (km/s) = 4.95312 6.50657 5.78225
#
# Compressibility (1/GPa) = 0.03721829
#
# Stress axis : x y z
#
# Youngs Moduli (GPa) = 22.81285 89.63001 115.31675
#
# Poissons Ratio (x) = 0.56110 0.54340
# Poissons Ratio (y) = 0.14281 0.25950
# Poissons Ratio (z) = 0.10750 0.20170
#
# Static dielectric constant tensor:
#      x y z
#    x 1.959570 -0.066530 -0.052990 
#    y -0.066530 2.024510 0.025400 
#    z -0.052990 0.025400 2.056950 
# 
# From -- ./inp_files/295503.got.cif
#   From: 2010.05.17/outbox.cif.g08.bks.cpg/sg2_148_cif.got.tgz:295503.got - 2010.06.03 11:33:40.
