data_PCOD9072008
_publ_section_title
;
Structure prediction by ZEFSAII (Michael W. Deem and Ramdas Pophale) SiO2 
 PCOD9072008
Probable space group: P -1
;
_chemical_formula_sum "Si O2"
_cell_formula_units_Z 14
_cell_length_a 10.576916
_cell_length_b 6.651039
_cell_length_c 16.844244
_cell_angle_alpha 37.728561
_cell_angle_beta 120.511753
_cell_angle_gamma 113.030459
_cell_volume 624.568437
_symmetry_space_group_name_H-M "P -1"
_symmetry_group_IT_number 2
_symmetry_cell_setting 'triclinic'
loop_
_space_group_symop_operation_xyz
x,y,z
-x,-y,-z
loop_
_atom_site_type_symbol
_atom_site_label
_atom_site_fract_x
_atom_site_fract_y
_atom_site_fract_z
Si Si1 0.234148 0.497511 0.530866
Si Si2 0.412316 0.320968 0.960957
Si Si3 0.096054 0.911601 0.863648
Si Si4 0.614933 0.681590 0.214898
Si Si5 0.997394 0.045478 0.344259
Si Si6 0.160706 0.601611 0.307566
Si Si7 0.160950 0.896864 0.054823
O O1 0.362602 0.483460 0.641353
O O2 0.120231 0.775900 0.440605
O O3 0.267539 0.557734 0.430386
O O4 0.142953 0.157927 0.609246
O O5 0.249769 0.228401 0.963615
O O6 0.491164 0.963942 0.091145
O O7 0.500000 0.500000 0.000000
O O8 0.415478 0.502433 0.820230
O O9 0.230071 0.143622 0.808803
O O10 0.046839 0.761165 0.811469
O O11 0.959172 0.128788 0.784122
O O12 0.152853 0.722587 0.019670
O O13 0.066833 0.280236 0.357799
O O14 0.227016 0.704315 0.211666
O O15 0.000000 0.000000 0.000000
#
# Coordination Sequence:
#
# PCOD9072008 Si02
#       7
#     2   2   2   2   2   2   2
#     4   9  18  31  47  75 109 138 176 218 254 307
#     4  10  21  38  59  79 102 137 178 217 260 314
#     4   8  17  32  49  76 108 136 173 219 259 305
#     4   9  19  35  53  75 103 134 176 221 256 304
#     4   9  17  29  49  76 106 141 179 216 255 303
#     4  10  18  30  50  77 110 141 173 214 264 311
#     4   9  19  35  54  80 110 135 170 219 266 313
#
# _framework density 22.415476999999999
#
# number of rings (size 3 to 8) (size 9 to 14) (size 15 to 20)
#    0.000    2.857    0.000    1.286    0.000    8.571 
#    0.000   12.143    0.000    1.714    0.000    0.000 
#    0.000    0.000    0.000    0.000    0.000    0.000 
#
# Total GULP energy -78028.686384 kJ/mol
# GULP energy per Si atom -5573.477599 kJ/mol
# Density = 2.236446 g / cm^3
# Si number density = 22.415477 Si / 1000 Ang^3
#
#
#
# Elastic Constant Matrix: (Units=GPa)
#
#
# Indices 1 2 3 4 5 6 
#
# 1 28.1890 13.8155 19.4000 14.2722 -4.8319 -6.1495
# 2 13.8155 82.0401 50.1029 33.5572 -2.4277 -6.6796
# 3 19.4000 50.1029 131.9466 60.5322 -22.6175 -20.5592
# 4 14.2722 33.5572 60.5322 49.6872 -2.3210 -7.3188
# 5 -4.8319 -2.4277 -22.6175 -2.3210 20.4441 6.3884
# 6 -6.1495 -6.6796 -20.5592 -7.3188 6.3884 17.6882
#
#
#
# Elastic Compliance Matrix: (Units=1/GPa)
#
#
# Indices 1 2 3 4 5 6 
#
# 1 0.045245 -0.003449 0.004595 -0.014293 0.010614 0.010021
# 2 -0.003449 0.017645 -0.004048 -0.006238 -0.003762 -0.000464
# 3 0.004595 -0.004048 0.028498 -0.030432 0.025070 0.011546
# 4 -0.014293 -0.006238 -0.030432 0.063272 -0.028678 -0.006159
# 5 0.010614 -0.003762 0.025070 -0.028678 0.078170 -0.008690
# 6 0.010021 -0.000464 0.011546 -0.006159 -0.008690 0.073854
#
#
# Mechanical properties :
#
#
# Convention : Reuss Voigt Hill
#
# Bulk Modulus (GPa) = 11.68448 45.42364 28.55406
# Shear Modulus (GPa) = 14.66203 28.15438 21.40821
#
# Velocity S-wave (km/s) = 2.56032 3.54789 3.09376
# Velocity P-wave (km/s) = 3.73688 6.09030 5.05253
#
# Compressibility (1/GPa) = 0.08558363
#
# Stress axis : x y z
#
# Youngs Moduli (GPa) = 22.10191 56.67357 35.09035
#
# Poissons Ratio (x) = 0.19549 -0.16125
# Poissons Ratio (y) = 0.07624 0.14205
# Poissons Ratio (z) = -0.10157 0.22942
#
# Static dielectric constant tensor:
#      x y z
#    x 1.811670 0.005570 -0.029150 
#    y 0.005570 1.850960 0.038820 
#    z -0.029150 0.038820 1.953590 
# 
# From -- ./inp_files/66600.got.cif
#   From: 2010.05.17/outbox.cif.g08.bks.cpg/sg2_34_cif.got.tgz:66600.got - 2010.06.03 11:33:40.
