data_PCOD9072187
_publ_section_title
;
Structure prediction by ZEFSAII (Michael W. Deem and Ramdas Pophale) SiO2 
 PCOD9072187
Probable space group: P -1
;
_chemical_formula_sum "Si O2"
_cell_formula_units_Z 14
_cell_length_a 12.228646
_cell_length_b 12.227911
_cell_length_c 15.586855
_cell_angle_alpha 143.600323
_cell_angle_beta 150.759551
_cell_angle_gamma 52.481758
_cell_volume 639.631315
_symmetry_space_group_name_H-M "P -1"
_symmetry_group_IT_number 2
_symmetry_cell_setting 'triclinic'
loop_
_space_group_symop_operation_xyz
x,y,z
-x,-y,-z
loop_
_atom_site_type_symbol
_atom_site_label
_atom_site_fract_x
_atom_site_fract_y
_atom_site_fract_z
Si Si1 0.106970 0.108135 0.499739
Si Si2 0.601694 0.819911 0.955028
Si Si3 0.520217 0.225406 0.975766
Si Si4 0.286745 0.144704 0.128626
Si Si5 0.824785 0.778154 0.724814
Si Si6 0.728991 0.945036 0.599155
Si Si7 0.072905 0.496645 0.648938
O O1 0.253439 0.135992 0.704268
O O2 0.281714 0.102985 0.538341
O O3 0.021232 0.287995 0.524942
O O4 0.880586 0.916754 0.224404
O O5 0.481417 0.700918 0.881065
O O6 0.583146 0.744831 0.797499
O O7 0.500000 0.000000 0.000000
O O8 0.650092 0.058719 0.955000
O O9 0.649448 0.392914 0.103581
O O10 0.343788 0.249673 0.325637
O O11 0.001380 0.091728 0.887278
O O12 0.720409 0.781821 0.561117
O O13 0.966733 0.627353 0.718629
O O14 0.000000 0.000000 0.000000
O O15 0.500000 0.000000 0.500000
O O16 0.000000 0.500000 0.500000
#
# Coordination Sequence:
#
# PCOD9072187 Si02
#       7
#     2   2   2   2   2   2   2
#     4  11  22  34  54  93 116 144 195 238 289 333
#     4   9  19  37  59  80 111 157 194 232 275 346
#     4  11  20  36  59  82 117 154 190 235 280 351
#     4   9  18  34  54  80 106 148 196 229 272 332
#     4  10  18  34  55  78 113 150 187 231 285 340
#     4  10  18  30  52  81 113 143 186 236 282 333
#     4  12  21  37  57  86 122 147 185 245 297 328
#
# _framework density 21.887608
#
# number of rings (size 3 to 8) (size 9 to 14) (size 15 to 20)
#    0.000    1.714    4.286    3.429    2.000    0.000 
#    0.000    0.000    0.000    8.571    0.000    0.000 
#    0.000    0.000    0.000    0.000    0.000    0.000 
#
# Total GULP energy -78026.700505 kJ/mol
# GULP energy per Si atom -5573.335750 kJ/mol
# Density = 2.183779 g / cm^3
# Si number density = 21.887608 Si / 1000 Ang^3
#
#
#
# Elastic Constant Matrix: (Units=GPa)
#
#
# Indices 1 2 3 4 5 6 
#
# 1 184.0340 24.9317 -0.6972 3.1566 -14.7361 -1.9946
# 2 24.9317 61.0923 1.0559 1.9161 12.5733 -12.4173
# 3 -0.6972 1.0559 33.5481 -5.5250 9.5035 2.1517
# 4 3.1566 1.9161 -5.5250 29.1635 -1.1630 -1.9132
# 5 -14.7361 12.5733 9.5035 -1.1630 24.5216 -5.2429
# 6 -1.9946 -12.4173 2.1517 -1.9132 -5.2429 27.2629
#
#
#
# Elastic Compliance Matrix: (Units=1/GPa)
#
#
# Indices 1 2 3 4 5 6 
#
# 1 0.006498 -0.003951 -0.001686 -0.000499 0.006568 0.000037
# 2 -0.003951 0.022093 0.002397 -0.000635 -0.013163 0.007008
# 3 -0.001686 0.002397 0.035716 0.005814 -0.016808 -0.004675
# 4 -0.000499 -0.000635 0.005814 0.035590 -0.000181 0.001678
# 5 0.006568 -0.013163 -0.016808 -0.000181 0.059532 0.007248
# 6 0.000037 0.007008 -0.004675 0.001678 0.007248 0.041755
#
#
# Mechanical properties :
#
#
# Convention : Reuss Voigt Hill
#
# Bulk Modulus (GPa) = 17.29271 36.58393 26.93832
# Shear Modulus (GPa) = 22.03240 33.08187 27.55713
#
# Velocity S-wave (km/s) = 3.17616 3.89195 3.55213
# Velocity P-wave (km/s) = 4.62261 6.07841 5.39979
#
# Compressibility (1/GPa) = 0.05782785
#
# Stress axis : x y z
#
# Youngs Moduli (GPa) = 153.90418 45.26272 27.99854
#
# Poissons Ratio (x) = 0.17884 0.04720
# Poissons Ratio (y) = 0.60810 -0.06712
# Poissons Ratio (z) = 0.25944 -0.10851
#
# Static dielectric constant tensor:
#      x y z
#    x 1.857770 0.052520 -0.009550 
#    y 0.052520 2.330370 -0.303210 
#    z -0.009550 -0.303210 2.061830 
# 
# From -- ./inp_files/224046.got.cif
#   From: 2010.05.17/outbox.cif.g08.bks.cpg/sg2_113_cif.got.tgz:224046.got - 2010.06.03 11:33:40.
