data_PCOD9072682
_publ_section_title
;
Structure prediction by ZEFSAII (Michael W. Deem and Ramdas Pophale) SiO2 
 PCOD9072682
Probable space group: P -1
;
_chemical_formula_sum "Si O2"
_cell_formula_units_Z 16
_cell_length_a 23.231864
_cell_length_b 8.328858
_cell_length_c 12.577894
_cell_angle_alpha 53.381894
_cell_angle_beta 31.649005
_cell_angle_gamma 44.314248
_cell_volume 891.593305
_symmetry_space_group_name_H-M "P -1"
_symmetry_group_IT_number 2
_symmetry_cell_setting 'triclinic'
loop_
_space_group_symop_operation_xyz
x,y,z
-x,-y,-z
loop_
_atom_site_type_symbol
_atom_site_label
_atom_site_fract_x
_atom_site_fract_y
_atom_site_fract_z
Si Si1 0.096856 0.469778 0.527734
Si Si2 0.339105 0.987334 0.328173
Si Si3 0.316356 0.737685 0.123268
Si Si4 0.121044 0.712460 0.589017
Si Si5 0.502000 0.810090 0.928698
Si Si6 0.915098 0.284745 0.904706
Si Si7 0.167855 0.779982 0.719494
Si Si8 0.862089 0.174181 0.813753
O O1 0.215796 0.231152 0.398431
O O2 0.123653 0.514269 0.589465
O O3 0.091682 0.673592 0.385606
O O4 0.970779 0.453215 0.726812
O O5 0.420399 0.881515 0.136567
O O6 0.284599 0.828428 0.519686
O O7 0.424450 0.046721 0.248031
O O8 0.205751 0.801795 0.358802
O O9 0.407020 0.836743 0.973691
O O10 0.253286 0.807312 0.079905
O O11 0.397394 0.460343 0.112986
O O12 0.169577 0.655505 0.655771
O O13 0.977514 0.916665 0.736015
O O14 0.836043 0.271573 0.935350
O O15 0.845784 0.332965 0.107052
O O16 0.041027 0.031737 0.813263
#
# Coordination Sequence:
#
# PCOD9072682 Si02
#       8
#     2   2   2   2   2   2   2   2
#     4  10  18  31  49  79 104 124 166 204 253 295
#     4  10  18  31  50  77 100 127 167 213 242 283
#     4  10  18  32  49  77 101 128 164 205 255 293
#     4  10  18  32  50  75 105 132 157 202 261 293
#     4  10  19  30  51  77  98 130 169 205 249 281
#     4   9  19  32  50  72  98 138 164 199 246 299
#     4   9  18  33  50  70 102 133 168 199 243 299
#     4  10  19  33  50  73 108 131 156 204 258 299
#
# _framework density 17.945401
#
# number of rings (size 3 to 8) (size 9 to 14) (size 15 to 20)
#    0.000    2.250    3.750    1.875    0.000    0.500 
#    2.250    0.000    0.000    1.500    0.000    0.000 
#    0.000    0.000    0.000    0.000    0.000    0.000 
#
# Total GULP energy -89190.292041 kJ/mol
# GULP energy per Si atom -5574.393253 kJ/mol
# Density = 1.790456 g / cm^3
# Si number density = 17.945401 Si / 1000 Ang^3
#
#
#
# Elastic Constant Matrix: (Units=GPa)
#
#
# Indices 1 2 3 4 5 6 
#
# 1 149.4597 4.1346 35.5122 -2.9205 -8.0599 -4.1996
# 2 4.1346 10.3386 -7.0554 2.5470 -1.3965 0.8860
# 3 35.5122 -7.0554 38.2387 -1.0312 -1.3715 -8.7596
# 4 -2.9205 2.5470 -1.0312 11.6144 1.6995 0.5516
# 5 -8.0599 -1.3965 -1.3715 1.6995 33.3914 2.5339
# 6 -4.1996 0.8860 -8.7596 0.5516 2.5339 13.4415
#
#
#
# Elastic Compliance Matrix: (Units=1/GPa)
#
#
# Indices 1 2 3 4 5 6 
#
# 1 0.010116 -0.013196 -0.012744 0.004310 0.001506 -0.004736
# 2 -0.013196 0.136274 0.039752 -0.030990 0.004724 0.013182
# 3 -0.012744 0.039752 0.051329 -0.008526 -0.000949 0.027377
# 4 0.004310 -0.030990 -0.008526 0.094198 -0.005014 -0.005087
# 5 0.001506 0.004724 -0.000949 -0.005014 0.031191 -0.006133
# 6 -0.004736 0.013182 0.027377 -0.005087 -0.006133 0.091254
#
#
# Mechanical properties :
#
#
# Convention : Reuss Voigt Hill
#
# Bulk Modulus (GPa) = 4.43766 29.24663 16.84214
# Shear Modulus (GPa) = 10.82596 22.71916 16.77256
#
# Velocity S-wave (km/s) = 2.45882 3.56197 3.06051
# Velocity P-wave (km/s) = 3.24643 5.76626 4.67916
#
# Compressibility (1/GPa) = 0.22534423
#
# Stress axis : x y z
#
# Youngs Moduli (GPa) = 98.85039 7.33815 19.48205
#
# Poissons Ratio (x) = 0.09683 0.24828
# Poissons Ratio (y) = 1.30438 -0.77445
# Poissons Ratio (z) = 1.25977 -0.29171
#
# Static dielectric constant tensor:
#      x y z
#    x 1.653290 0.023460 -0.013320 
#    y 0.023460 1.600640 0.010950 
#    z -0.013320 0.010950 1.605200 
# 
# From -- ./inp_files/266827.got.cif
#   From: 2010.05.17/outbox.cif.g08.bks.cpg/sg2_134_cif.got.tgz:266827.got - 2010.06.03 11:33:40.
