data_PCOD9072636
_publ_section_title
;
Structure prediction by ZEFSAII (Michael W. Deem and Ramdas Pophale) SiO2 
 PCOD9072636
Probable space group: P -1
;
_chemical_formula_sum "Si O2"
_cell_formula_units_Z 16
_cell_length_a 15.000000
_cell_length_b 15.000000
_cell_length_c 18.000000
_cell_angle_alpha 40.000000
_cell_angle_beta 160.000000
_cell_angle_gamma 130.000000
_cell_volume 833.890543
_symmetry_space_group_name_H-M "P -1"
_symmetry_group_IT_number 2
_symmetry_cell_setting 'triclinic'
loop_
_space_group_symop_operation_xyz
x,y,z
-x,-y,-z
loop_
_atom_site_type_symbol
_atom_site_label
_atom_site_fract_x
_atom_site_fract_y
_atom_site_fract_z
Si Si1 0.709780 0.269824 0.596627
Si Si2 0.107903 0.444784 0.205184
Si Si3 0.845288 0.670941 0.300886
Si Si4 0.432625 0.567305 0.125628
Si Si5 0.649286 0.912055 0.597951
Si Si6 0.294556 0.164141 0.061354
Si Si7 0.748812 0.276598 0.796156
Si Si8 0.542944 0.388130 0.173237
O O1 0.644788 0.441706 0.422466
O O2 0.447310 0.229836 0.390118
O O3 0.763522 0.247404 0.738944
O O4 0.979914 0.175550 0.822566
O O5 0.419211 0.316974 0.531084
O O6 0.170132 0.581544 0.206165
O O7 0.000000 0.500000 0.000000
O O8 0.868152 0.399042 0.090439
O O9 0.611914 0.672473 0.177948
O O10 0.000000 0.500000 0.500000
O O11 0.126137 0.706542 0.512790
O O12 0.685969 0.780216 0.041198
O O13 0.442456 0.483955 0.107766
O O14 0.500000 0.000000 0.500000
O O15 0.500758 0.008866 0.349245
O O16 0.980797 0.863009 0.878018
O O17 0.363491 0.284019 0.089927
O O18 0.500000 0.500000 0.000000
#
# Coordination Sequence:
#
# PCOD9072636 Si02
#       8
#     2   2   2   2   2   2   2   2
#     4  12  21  38  59  86 128 160 197 242 301 373
#     4  11  22  40  62  88 121 158 207 254 301 350
#     4  10  20  33  52  82 113 154 190 243 298 346
#     4  11  19  36  58  85 121 151 195 248 302 352
#     4  12  25  36  57  91 125 165 200 241 307 365
#     4  12  22  34  56  84 124 160 192 235 301 367
#     4  11  23  39  59  88 121 164 201 246 305 354
#     4  11  19  35  55  86 121 154 196 241 303 361
#
# _framework density 19.187169999999998
#
# number of rings (size 3 to 8) (size 9 to 14) (size 15 to 20)
#    0.000    0.750    8.750    1.875    0.000    0.000 
#    0.000    0.000    0.000    0.750    0.000    4.375 
#    0.000    0.000    0.000    0.000    0.000    0.000 
#
# Total GULP energy -89110.586384 kJ/mol
# GULP energy per Si atom -5569.411649 kJ/mol
# Density = 1.914350 g / cm^3
# Si number density = 19.187170 Si / 1000 Ang^3
#
#
#
# Elastic Constant Matrix: (Units=GPa)
#
#
# Indices 1 2 3 4 5 6 
#
# 1 84.9320 20.5166 51.9491 10.0279 16.7586 39.3847
# 2 20.5166 27.0488 1.6501 10.4432 -1.6045 -2.4049
# 3 51.9491 1.6501 156.1103 7.7965 16.6345 27.8764
# 4 10.0279 10.4432 7.7965 28.7128 6.6781 -2.3343
# 5 16.7586 -1.6045 16.6345 6.6781 35.9433 4.8785
# 6 39.3847 -2.4049 27.8764 -2.3343 4.8785 15.3152
#
#
#
# Elastic Compliance Matrix: (Units=1/GPa)
#
#
# Indices 1 2 3 4 5 6 
#
# 1 -0.018840 0.017955 -0.005426 0.005867 0.002703 0.061177
# 2 0.017955 0.027003 0.004179 -0.022121 0.002290 -0.053641
# 3 -0.005426 0.004179 0.008500 -0.001830 -0.000755 -0.000900
# 4 0.005867 -0.022121 -0.001830 0.043250 -0.010179 -0.005396
# 5 0.002703 0.002290 -0.000755 -0.010179 0.031171 -0.016698
# 6 0.061177 -0.053641 -0.000900 -0.005396 -0.016698 -0.094317
#
#
# Mechanical properties :
#
#
# Convention : Reuss Voigt Hill
#
# Bulk Modulus (GPa) = 19.96810 46.25808 33.11309
# Shear Modulus (GPa) = -250.53864 28.92594 -110.80635
#
# Velocity S-wave (km/s) = -11.43939 3.88695 -7.60760
# Velocity P-wave (km/s) = 12.80820 6.65625 7.73770
#
# Compressibility (1/GPa) = 0.05007989
#
# Stress axis : x y z
#
# Youngs Moduli (GPa) = -53.07921 37.03242 117.65059
#
# Poissons Ratio (x) = -0.66493 0.63836
# Poissons Ratio (y) = 0.95305 -0.49165
# Poissons Ratio (z) = -0.28800 -0.15476
#
# Static dielectric constant tensor:
#      x y z
#    x 1.650720 0.005930 0.012050 
#    y 0.005930 1.724750 0.012280 
#    z 0.012050 0.012280 1.710040 
# 
# From -- ./inp_files/542779.got.cif
#   From: 2010.05.17/outbox.ucp.g08.bks.cvg/sg2_272_cif.got.tgz:542779.got - 2010.06.11 11:32:03.
