data_PCOD9072539
_publ_section_title
;
Structure prediction by ZEFSAII (Michael W. Deem and Ramdas Pophale) SiO2 
 PCOD9072539
Probable space group: P -1
;
_chemical_formula_sum "Si O2"
_cell_formula_units_Z 16
_cell_length_a 9.000000
_cell_length_b 15.000000
_cell_length_c 9.000000
_cell_angle_alpha 60.000000
_cell_angle_beta 120.000000
_cell_angle_gamma 80.000000
_cell_volume 751.948787
_symmetry_space_group_name_H-M "P -1"
_symmetry_group_IT_number 2
_symmetry_cell_setting 'triclinic'
loop_
_space_group_symop_operation_xyz
x,y,z
-x,-y,-z
loop_
_atom_site_type_symbol
_atom_site_label
_atom_site_fract_x
_atom_site_fract_y
_atom_site_fract_z
Si Si1 0.430392 0.952689 0.867744
Si Si2 0.414029 0.137391 0.280231
Si Si3 0.992402 0.810747 0.608283
Si Si4 0.205077 0.399324 0.089157
Si Si5 0.638287 0.322022 0.522585
Si Si6 0.843698 0.085481 0.626316
Si Si7 0.734639 0.442448 0.224392
Si Si8 0.789808 0.180963 0.005941
O O1 0.609001 0.870869 0.901993
O O2 0.345040 0.871297 0.956071
O O3 0.253818 0.084789 0.588947
O O4 0.500000 0.000000 0.000000
O O5 0.242085 0.265530 0.174472
O O6 0.622588 0.132931 0.407643
O O7 0.500000 0.000000 0.500000
O O8 0.046011 0.890592 0.468368
O O9 0.089254 0.683217 0.671095
O O10 0.121364 0.780842 0.847498
O O11 0.406170 0.371125 0.308104
O O12 0.215558 0.458693 0.887879
O O13 0.000000 0.500000 0.000000
O O14 0.789364 0.182269 0.648197
O O15 0.715382 0.402270 0.415708
O O16 0.664404 0.294923 0.733383
O O17 0.998801 0.939819 0.859149
O O18 0.500000 0.500000 0.000000
#
# Coordination Sequence:
#
# PCOD9072539 Si02
#       8
#     2   2   2   2   2   2   2   2
#     4  11  24  38  61  99 137 173 213 271 330 391
#     4  11  23  40  65  95 131 172 223 261 331 395
#     4  10  19  38  67  90 122 172 212 264 327 384
#     4  10  23  41  69  90 130 181 214 266 333 398
#     4   9  20  35  61  97 119 164 216 271 313 383
#     4   9  17  36  58  92 124 164 212 260 322 376
#     4   9  20  40  65  88 120 168 219 265 323 387
#     4  11  19  35  65  95 134 159 214 277 324 381
#
# _framework density 21.278044999999999
#
# number of rings (size 3 to 8) (size 9 to 14) (size 15 to 20)
#    0.000    2.000    2.500    1.875    5.250    0.000 
#    0.000    2.500    2.750    1.500    0.000    0.000 
#    0.000    0.000    0.000    0.000    0.000    0.000 
#
# Total GULP energy -89144.044300 kJ/mol
# GULP energy per Si atom -5571.502769 kJ/mol
# Density = 2.122962 g / cm^3
# Si number density = 21.278045 Si / 1000 Ang^3
#
#
#
# Elastic Constant Matrix: (Units=GPa)
#
#
# Indices 1 2 3 4 5 6 
#
# 1 49.8831 38.7787 15.7333 -5.4614 -1.7444 -19.9686
# 2 38.7787 75.0753 37.1567 -4.5643 -12.4488 -8.6666
# 3 15.7333 37.1567 106.2660 4.6926 -22.5654 -9.9314
# 4 -5.4614 -4.5643 4.6926 41.3534 -6.3142 2.4249
# 5 -1.7444 -12.4488 -22.5654 -6.3142 29.2871 -8.8188
# 6 -19.9686 -8.6666 -9.9314 2.4249 -8.8188 29.0531
#
#
#
# Elastic Compliance Matrix: (Units=1/GPa)
#
#
# Indices 1 2 3 4 5 6 
#
# 1 0.049024 -0.022996 0.004902 0.002612 0.006609 0.030299
# 2 -0.022996 0.028104 -0.006663 0.001825 0.003158 -0.008894
# 3 0.004902 -0.006663 0.014364 -0.000558 0.011353 0.009785
# 4 0.002612 0.001825 -0.000558 0.025688 0.006648 0.002023
# 5 0.006609 0.003158 0.011353 0.006648 0.053615 0.025084
# 6 0.030299 -0.008894 0.009785 0.002023 0.025084 0.063381
#
#
# Mechanical properties :
#
#
# Convention : Reuss Voigt Hill
#
# Bulk Modulus (GPa) = 23.82234 46.06243 34.94238
# Shear Modulus (GPa) = 16.79642 29.24244 23.01943
#
# Velocity S-wave (km/s) = 2.81264 3.71118 3.29270
# Velocity P-wave (km/s) = 4.66561 6.32919 5.55997
#
# Compressibility (1/GPa) = 0.04197741
#
# Stress axis : x y z
#
# Youngs Moduli (GPa) = 20.39834 35.58242 69.61686
#
# Poissons Ratio (x) = 0.81826 -0.34127
# Poissons Ratio (y) = 0.46908 0.46388
# Poissons Ratio (z) = -0.10000 0.23709
#
# Static dielectric constant tensor:
#      x y z
#    x 1.785050 -0.021190 -0.051320 
#    y -0.021190 1.826840 0.003430 
#    z -0.051320 0.003430 1.772370 
# 
# From -- ./inp_files/206046.got.cif
#   From: 2010.05.17/outbox.ucp.g08.bks.cvg/sg2_104_cif.got.tgz:206046.got - 2010.06.11 11:32:03.
