data_PCOD9072126
_publ_section_title
;
Structure prediction by ZEFSAII (Michael W. Deem and Ramdas Pophale) SiO2 
 PCOD9072126
Probable space group: P -1
;
_chemical_formula_sum "Si O2"
_cell_formula_units_Z 16
_cell_length_a 9.000000
_cell_length_b 21.000000
_cell_length_c 21.000000
_cell_angle_alpha 20.000000
_cell_angle_beta 140.000000
_cell_angle_gamma 130.000000
_cell_volume 817.212732
_symmetry_space_group_name_H-M "P -1"
_symmetry_group_IT_number 2
_symmetry_cell_setting 'triclinic'
loop_
_space_group_symop_operation_xyz
x,y,z
-x,-y,-z
loop_
_atom_site_type_symbol
_atom_site_label
_atom_site_fract_x
_atom_site_fract_y
_atom_site_fract_z
Si Si1 0.130185 0.813271 0.851437
Si Si2 0.185014 0.232564 0.469637
Si Si3 0.536990 0.557941 0.126189
Si Si4 0.919234 0.761703 0.053866
Si Si5 0.891036 0.352382 0.638548
Si Si6 0.703816 0.185289 0.620320
Si Si7 0.680503 0.455935 0.707452
Si Si8 0.157557 0.438367 0.044468
O O1 0.882673 0.764125 0.800278
O O2 0.117782 0.038369 0.643624
O O3 0.318780 0.720692 0.941690
O O4 0.238424 0.684133 0.071597
O O5 0.439065 0.181084 0.560707
O O6 0.239191 0.352137 0.434660
O O7 0.973756 0.392703 0.208827
O O8 0.722293 0.660407 0.064443
O O9 0.665338 0.386949 0.380198
O O10 0.419614 0.452732 0.134344
O O11 0.948939 0.735878 0.164058
O O12 0.173022 0.659441 0.196469
O O13 0.823378 0.997009 0.791908
O O14 0.862282 0.195993 0.724363
O O15 0.613401 0.471097 0.459906
O O16 0.000000 0.500000 0.500000
O O17 0.000000 0.500000 0.000000
#
# Coordination Sequence:
#
# PCOD9072126 Si02
#       8
#     2   2   2   2   2   2   2   2
#     4  10  18  37  60  85 119 158 195 241 290 344
#     4  10  19  36  64  86 118 161 194 239 297 341
#     4  11  20  37  60  90 121 151 200 249 287 340
#     4  12  24  38  61  87 121 156 192 244 298 344
#     4  11  21  43  65  83 117 154 192 245 295 345
#     4  11  21  37  61  90 115 154 198 239 289 353
#     4  10  23  41  58  89 122 151 196 241 289 354
#     4   9  18  32  57  95 119 144 203 255 277 336
#
# _framework density 19.578745000000001
#
# number of rings (size 3 to 8) (size 9 to 14) (size 15 to 20)
#    0.000    1.500    7.500    0.750    0.000    4.000 
#    0.000    3.125    0.000    4.500    0.000    0.000 
#    0.000    0.000    0.000    0.000    0.000    0.000 
#
# Total GULP energy -89286.307217 kJ/mol
# GULP energy per Si atom -5580.394201 kJ/mol
# Density = 1.953418 g / cm^3
# Si number density = 19.578745 Si / 1000 Ang^3
#
#
#
# Elastic Constant Matrix: (Units=GPa)
#
#
# Indices 1 2 3 4 5 6 
#
# 1 29.6136 20.6294 10.6968 -18.9804 4.7993 13.1407
# 2 20.6294 90.4437 31.6471 -14.4293 2.0736 27.6858
# 3 10.6968 31.6471 50.0428 -26.7366 0.1544 6.3342
# 4 -18.9804 -14.4293 -26.7366 39.0299 -0.7299 -4.1108
# 5 4.7993 2.0736 0.1544 -0.7299 21.5335 -5.5403
# 6 13.1407 27.6858 6.3342 -4.1108 -5.5403 22.9057
#
#
#
# Elastic Compliance Matrix: (Units=1/GPa)
#
#
# Indices 1 2 3 4 5 6 
#
# 1 0.085585 -0.000032 0.011666 0.043545 -0.031054 -0.051984
# 2 -0.000032 0.024145 -0.013521 -0.003522 -0.009645 -0.028392
# 3 0.011666 -0.013521 0.041247 0.029313 0.000321 0.003582
# 4 0.043545 -0.003522 0.029313 0.063171 -0.012728 -0.020572
# 5 -0.031054 -0.009645 0.000321 -0.012728 0.064865 0.042790
# 6 -0.051984 -0.028392 0.003582 -0.020572 0.042790 0.113464
#
#
# Mechanical properties :
#
#
# Convention : Reuss Voigt Hill
#
# Bulk Modulus (GPa) = 6.79323 32.89410 19.84366
# Shear Modulus (GPa) = 11.22794 23.83560 17.53177
#
# Velocity S-wave (km/s) = 2.39733 3.49294 2.99565
# Velocity P-wave (km/s) = 3.33769 5.75369 4.70346
#
# Compressibility (1/GPa) = 0.14720538
#
# Stress axis : x y z
#
# Youngs Moduli (GPa) = 11.68422 41.41616 24.24441
#
# Poissons Ratio (x) = 0.00131 -0.28284
# Poissons Ratio (y) = 0.00037 0.32780
# Poissons Ratio (z) = -0.13631 0.55998
#
# Static dielectric constant tensor:
#      x y z
#    x 1.658120 -0.020100 0.007350 
#    y -0.020100 1.756820 0.027230 
#    z 0.007350 0.027230 1.705420 
# 
# From -- ./inp_files/202717.got.cif
#   From: 2010.05.17/outbox.ucp.g08.bks.cvg/sg2_102_cif.got.tgz:202717.got - 2010.06.11 11:32:03.
