data_PCOD9072254
_publ_section_title
;
Structure prediction by ZEFSAII (Michael W. Deem and Ramdas Pophale) SiO2 
 PCOD9072254
Probable space group: P -1
;
_chemical_formula_sum "Si O2"
_cell_formula_units_Z 16
_cell_length_a 12.000000
_cell_length_b 15.000000
_cell_length_c 21.000000
_cell_angle_alpha 30.000000
_cell_angle_beta 150.000000
_cell_angle_gamma 130.000000
_cell_volume 853.690245
_symmetry_space_group_name_H-M "P -1"
_symmetry_group_IT_number 2
_symmetry_cell_setting 'triclinic'
loop_
_space_group_symop_operation_xyz
x,y,z
-x,-y,-z
loop_
_atom_site_type_symbol
_atom_site_label
_atom_site_fract_x
_atom_site_fract_y
_atom_site_fract_z
Si Si1 0.123275 0.435528 0.670408
Si Si2 0.791973 0.957350 0.098931
Si Si3 0.022755 0.953548 0.649073
Si Si4 0.750133 0.797817 0.318366
Si Si5 0.539567 0.412950 0.968447
Si Si6 0.180222 0.266833 0.219642
Si Si7 0.474109 0.236420 0.168300
Si Si8 0.719621 0.979586 0.705776
O O1 0.214895 0.202483 0.855865
O O2 0.358699 0.477788 0.777806
O O3 0.000000 0.500000 0.500000
O O4 0.918647 0.565922 0.539021
O O5 0.781319 0.883380 0.211657
O O6 0.043633 0.976286 0.202560
O O7 0.535400 0.149354 0.845766
O O8 0.945654 0.858386 0.729977
O O9 0.152728 0.090459 0.652267
O O10 0.207260 0.767566 0.814966
O O11 0.766155 0.091638 0.403203
O O12 0.566567 0.592633 0.905444
O O13 0.412638 0.332857 0.009025
O O14 0.221563 0.188132 0.216262
O O15 0.464241 0.174169 0.443529
O O16 0.000000 0.500000 0.000000
O O17 0.330350 0.113200 0.197322
#
# Coordination Sequence:
#
# PCOD9072254 Si02
#       8
#     2   2   2   2   2   2   2   2
#     4  10  21  33  57  84 111 145 186 237 286 330
#     4  10  20  35  52  81 113 149 181 229 286 340
#     4  11  19  35  59  85 112 143 192 238 285 332
#     4  10  19  33  54  83 110 141 186 235 282 327
#     4  11  21  38  59  86 113 148 197 233 286 333
#     4  10  21  33  55  84 115 149 182 240 290 339
#     4  10  23  38  58  83 116 154 187 239 276 342
#     4  10  21  37  53  81 117 151 189 225 294 341
#
# _framework density 18.742160999999999
#
# number of rings (size 3 to 8) (size 9 to 14) (size 15 to 20)
#    0.000    1.750    3.750    1.125    0.000    3.000 
#    0.000    0.625    0.000    0.750    0.000    0.000 
#    0.000    0.000    0.000    0.000    0.000    0.000 
#
# Total GULP energy -89192.816813 kJ/mol
# GULP energy per Si atom -5574.551051 kJ/mol
# Density = 1.869950 g / cm^3
# Si number density = 18.742161 Si / 1000 Ang^3
#
#
#
# Elastic Constant Matrix: (Units=GPa)
#
#
# Indices 1 2 3 4 5 6 
#
# 1 66.3005 15.4642 27.9990 8.6846 14.2619 12.9240
# 2 15.4642 41.4061 20.4166 7.9393 18.6289 1.5392
# 3 27.9990 20.4166 87.1229 -13.0087 34.7411 -12.0058
# 4 8.6846 7.9393 -13.0087 23.9582 -7.0023 9.2745
# 5 14.2619 18.6289 34.7411 -7.0023 43.3710 -5.3898
# 6 12.9240 1.5392 -12.0058 9.2745 -5.3898 22.9143
#
#
#
# Elastic Compliance Matrix: (Units=1/GPa)
#
#
# Indices 1 2 3 4 5 6 
#
# 1 0.024413 -0.000423 -0.009984 -0.008830 -0.003284 -0.016170
# 2 -0.000423 0.037464 -0.005887 -0.019322 -0.014474 -0.000947
# 3 -0.009984 -0.005887 0.023046 0.010875 -0.009467 0.011473
# 4 -0.008830 -0.019322 0.010875 0.065145 0.011559 -0.011672
# 5 -0.003284 -0.014474 -0.009467 0.011559 0.040130 0.002625
# 6 -0.016170 -0.000947 0.011473 -0.011672 0.002625 0.064177
#
#
# Mechanical properties :
#
#
# Convention : Reuss Voigt Hill
#
# Bulk Modulus (GPa) = 19.10775 35.84323 27.47549
# Shear Modulus (GPa) = 16.42531 26.77867 21.60199
#
# Velocity S-wave (km/s) = 2.96359 3.78404 3.39866
# Velocity P-wave (km/s) = 4.68270 6.18529 5.48569
#
# Compressibility (1/GPa) = 0.05233478
#
# Stress axis : x y z
#
# Youngs Moduli (GPa) = 40.96196 26.69231 43.39127
#
# Poissons Ratio (x) = 0.01129 0.43321
# Poissons Ratio (y) = 0.01733 0.25546
# Poissons Ratio (z) = 0.40895 0.15715
#
# Static dielectric constant tensor:
#      x y z
#    x 1.661630 -0.005040 -0.020590 
#    y -0.005040 1.639400 0.003280 
#    z -0.020590 0.003280 1.708100 
# 
# From -- ./inp_files/424948.got.cif
#   From: 2010.05.17/outbox.ucp.g08.bks.cvg/sg2_213_cif.got.tgz:424948.got - 2010.06.11 11:32:03.
