data_PCOD9072779
_publ_section_title
;
Structure prediction by ZEFSAII (Michael W. Deem and Ramdas Pophale) SiO2 
 PCOD9072779
Probable space group: P -1
;
_chemical_formula_sum "Si O2"
_cell_formula_units_Z 16
_cell_length_a 12.000000
_cell_length_b 12.000000
_cell_length_c 15.000000
_cell_angle_alpha 60.000000
_cell_angle_beta 150.000000
_cell_angle_gamma 100.000000
_cell_volume 748.962810
_symmetry_space_group_name_H-M "P -1"
_symmetry_group_IT_number 2
_symmetry_cell_setting 'triclinic'
loop_
_space_group_symop_operation_xyz
x,y,z
-x,-y,-z
loop_
_atom_site_type_symbol
_atom_site_label
_atom_site_fract_x
_atom_site_fract_y
_atom_site_fract_z
Si Si1 0.138179 0.696482 0.957437
Si Si2 0.352646 0.883122 0.851776
Si Si3 0.269961 0.171786 0.221700
Si Si4 0.861860 0.867436 0.235029
Si Si5 0.553386 0.338248 0.354073
Si Si6 0.092140 0.156950 0.432802
Si Si7 0.450116 0.816272 0.221073
Si Si8 0.702987 0.311523 0.678443
O O1 0.907903 0.831140 0.677501
O O2 0.960248 0.708723 0.911724
O O3 0.307040 0.525128 0.097009
O O4 0.357540 0.729420 0.128407
O O5 0.224615 0.785112 0.796049
O O6 0.187947 0.028652 0.752786
O O7 0.667837 0.807580 0.125835
O O8 0.278881 0.976381 0.670507
O O9 0.443196 0.236944 0.290590
O O10 0.500000 0.000000 0.500000
O O11 0.039723 0.208094 0.972386
O O12 0.176269 0.724713 0.490978
O O13 0.747162 0.999874 0.023161
O O14 0.637077 0.316286 0.526322
O O15 0.236925 0.233850 0.543806
O O16 0.387654 0.782103 0.289326
O O17 0.500000 0.500000 0.500000
#
# Coordination Sequence:
#
# PCOD9072779 Si02
#       8
#     2   2   2   2   2   2   2   2
#     4  11  22  38  61  93 126 164 203 254 319 374
#     4   9  20  40  65  90 117 157 211 277 314 365
#     4  11  25  40  64  96 130 169 215 255 297 383
#     4  10  21  41  64  91 122 159 213 264 315 371
#     4  12  24  40  65  90 131 173 203 256 320 374
#     4  10  20  36  70  86 114 164 208 257 323 370
#     4  10  20  37  65  89 122 163 206 252 307 380
#     4  11  23  41  62  94 135 169 205 251 310 378
#
# _framework density 21.362876
#
# number of rings (size 3 to 8) (size 9 to 14) (size 15 to 20)
#    0.000    1.500    3.750    2.625    1.750    4.000 
#    2.250    1.250    0.000    0.000    0.000    0.000 
#    0.000    0.000    0.000    0.000    0.000    0.000 
#
# Total GULP energy -89176.472943 kJ/mol
# GULP energy per Si atom -5573.529559 kJ/mol
# Density = 2.131425 g / cm^3
# Si number density = 21.362876 Si / 1000 Ang^3
#
#
#
# Elastic Constant Matrix: (Units=GPa)
#
#
# Indices 1 2 3 4 5 6 
#
# 1 38.2774 -1.3777 16.8254 5.8300 1.2413 -8.2212
# 2 -1.3777 48.9965 26.2388 19.9210 24.2274 13.2686
# 3 16.8254 26.2388 90.2674 24.0175 16.4235 -0.7705
# 4 5.8300 19.9210 24.0175 36.7289 -0.6153 8.5112
# 5 1.2413 24.2274 16.4235 -0.6153 47.3360 7.2894
# 6 -8.2212 13.2686 -0.7705 8.5112 7.2894 16.1962
#
#
#
# Elastic Compliance Matrix: (Units=1/GPa)
#
#
# Indices 1 2 3 4 5 6 
#
# 1 0.034249 0.003568 -0.003633 -0.010142 -0.004960 0.021852
# 2 0.003568 0.044396 -0.005865 -0.017023 -0.018282 -0.017665
# 3 -0.003633 -0.005865 0.017093 -0.010090 -0.004687 0.011186
# 4 -0.010142 -0.017023 -0.010090 0.051035 0.017183 -0.026235
# 5 -0.004960 -0.018282 -0.004687 0.017183 0.034349 -0.012253
# 6 0.021852 -0.017665 0.011186 -0.026235 -0.012253 0.107140
#
#
# Mechanical properties :
#
#
# Convention : Reuss Voigt Hill
#
# Bulk Modulus (GPa) = 11.92220 28.99047 20.45634
# Shear Modulus (GPa) = 15.24001 29.10920 22.17461
#
# Velocity S-wave (km/s) = 2.67383 3.69535 3.22529
# Velocity P-wave (km/s) = 3.88914 5.63981 4.84422
#
# Compressibility (1/GPa) = 0.08387716
#
# Stress axis : x y z
#
# Youngs Moduli (GPa) = 29.19751 22.52457 58.50228
#
# Poissons Ratio (x) = -0.08036 0.21256
# Poissons Ratio (y) = -0.10416 0.34312
# Poissons Ratio (z) = 0.10609 0.13211
#
# Static dielectric constant tensor:
#      x y z
#    x 1.836330 0.008910 -0.017150 
#    y 0.008910 1.784640 0.028100 
#    z -0.017150 0.028100 1.777090 
# 
# From -- ./inp_files/519646.got.cif
#   From: 2010.05.17/outbox.ucp.g08.bks.cvg/sg2_260_cif.got.tgz:519646.got - 2010.06.11 11:32:03.
