data_PCOD9072875
_publ_section_title
;
Structure prediction by ZEFSAII (Michael W. Deem and Ramdas Pophale) SiO2 
 PCOD9072875
Probable space group: P -1
;
_chemical_formula_sum "Si O2"
_cell_formula_units_Z 16
_cell_length_a 15.000000
_cell_length_b 9.000000
_cell_length_c 27.000000
_cell_angle_alpha 40.000000
_cell_angle_beta 160.000000
_cell_angle_gamma 130.000000
_cell_volume 750.501489
_symmetry_space_group_name_H-M "P -1"
_symmetry_group_IT_number 2
_symmetry_cell_setting 'triclinic'
loop_
_space_group_symop_operation_xyz
x,y,z
-x,-y,-z
loop_
_atom_site_type_symbol
_atom_site_label
_atom_site_fract_x
_atom_site_fract_y
_atom_site_fract_z
Si Si1 0.348669 0.956702 0.356439
Si Si2 0.097044 0.656202 0.912518
Si Si3 0.564509 0.858071 0.750599
Si Si4 0.171664 0.185510 0.542290
Si Si5 0.971001 0.840424 0.416853
Si Si6 0.965767 0.634854 0.245039
Si Si7 0.010173 0.292516 0.266279
Si Si8 0.517034 0.913791 0.088173
O O1 0.325356 0.035313 0.266441
O O2 0.196893 0.181009 0.257593
O O3 0.197496 0.762521 0.338484
O O4 0.681474 0.840071 0.561663
O O5 0.154645 0.665898 0.881365
O O6 0.177896 0.371342 0.038666
O O7 0.322457 0.750856 0.031930
O O8 0.303763 0.769875 0.619606
O O9 0.438675 0.047718 0.681900
O O10 0.182690 0.212489 0.600900
O O11 0.015720 0.436278 0.366480
O O12 0.000000 0.000000 0.500000
O O13 0.819742 0.773100 0.306836
O O14 0.921585 0.122819 0.302294
O O15 0.003076 0.516548 0.240177
O O16 0.659903 0.838162 0.038117
O O17 0.500000 0.000000 0.000000
#
# Coordination Sequence:
#
# PCOD9072875 Si02
#       8
#     2   2   2   2   2   2   2   2
#     4  10  22  44  65  92 130 161 219 265 314 367
#     4  11  24  40  64  95 128 170 208 264 318 375
#     4  10  22  41  67  90 132 164 212 258 320 374
#     4  10  20  38  61  97 122 163 207 257 309 374
#     4  10  22  39  63  94 127 165 206 255 319 374
#     4  11  23  41  68  93 125 169 211 265 310 372
#     4  11  21  40  68  94 122 173 213 258 314 375
#     4  11  25  41  61  95 134 160 211 260 312 380
#
# _framework density 21.319078000000001
#
# number of rings (size 3 to 8) (size 9 to 14) (size 15 to 20)
#    0.000    1.500    5.000    1.125    5.250    1.000 
#    0.000    3.125    0.000    0.000    0.000    0.000 
#    0.000    0.000    0.000    0.000    0.000    0.000 
#
# Total GULP energy -89100.029083 kJ/mol
# GULP energy per Si atom -5568.751818 kJ/mol
# Density = 2.127056 g / cm^3
# Si number density = 21.319078 Si / 1000 Ang^3
#
#
#
# Elastic Constant Matrix: (Units=GPa)
#
#
# Indices 1 2 3 4 5 6 
#
# 1 145.1980 16.4816 27.4270 -15.0730 -26.0560 10.0683
# 2 16.4816 30.1874 26.0090 -11.5554 -25.7682 17.4422
# 3 27.4270 26.0090 58.9687 -6.4582 -12.2486 -0.5446
# 4 -15.0730 -11.5554 -6.4582 27.5023 -1.0185 -2.2018
# 5 -26.0560 -25.7682 -12.2486 -1.0185 -9.5407 28.8923
# 6 10.0683 17.4422 -0.5446 -2.2018 28.8923 16.4524
#
#
#
# Elastic Compliance Matrix: (Units=1/GPa)
#
#
# Indices 1 2 3 4 5 6 
#
# 1 0.007529 -0.004083 -0.001701 0.002134 -0.001222 0.002098
# 2 -0.004083 0.027410 -0.013571 0.006050 -0.019854 0.008667
# 3 -0.001701 -0.013571 0.025603 -0.000267 0.009123 0.000219
# 4 0.002134 0.006050 -0.000267 0.040367 -0.005251 0.006896
# 5 -0.001222 -0.019854 0.009123 -0.005251 0.000916 0.019787
# 6 0.002098 0.008667 0.000219 0.006896 0.019787 0.016492
#
#
# Mechanical properties :
#
#
# Convention : Reuss Voigt Hill
#
# Bulk Modulus (GPa) = 45.81118 41.57659 43.69389
# Shear Modulus (GPa) = 30.43112 17.84523 24.13817
#
# Velocity S-wave (km/s) = 3.78221 2.89633 3.36852
# Velocity P-wave (km/s) = 6.37248 5.54341 5.97235
#
# Compressibility (1/GPa) = 0.02182873
#
# Stress axis : x y z
#
# Youngs Moduli (GPa) = 132.82495 36.48346 39.05750
#
# Poissons Ratio (x) = 0.14898 0.06646
# Poissons Ratio (y) = 0.54239 0.53007
# Poissons Ratio (z) = 0.22600 0.49514
#
# Static dielectric constant tensor:
#      x y z
#    x 1.784670 -0.050170 -0.035230 
#    y -0.050170 1.844260 -0.003480 
#    z -0.035230 -0.003480 1.821570 
# 
# From -- ./inp_files/257199.got.cif
#   From: 2010.05.17/outbox.ucp.g08.bks.cvg/sg2_129_cif.got.tgz:257199.got - 2010.06.11 11:32:03.
