data_PCOD9072383
_publ_section_title
;
Structure prediction by ZEFSAII (Michael W. Deem and Ramdas Pophale) SiO2 
 PCOD9072383
Probable space group: P -1
;
_chemical_formula_sum "Si O2"
_cell_formula_units_Z 14
_cell_length_a 7.498728
_cell_length_b 14.305129
_cell_length_c 10.901399
_cell_angle_alpha 40.771676
_cell_angle_beta 56.419539
_cell_angle_gamma 62.588816
_cell_volume 634.367710
_symmetry_space_group_name_H-M "P -1"
_symmetry_group_IT_number 2
_symmetry_cell_setting 'triclinic'
loop_
_space_group_symop_operation_xyz
x,y,z
-x,-y,-z
loop_
_atom_site_type_symbol
_atom_site_label
_atom_site_fract_x
_atom_site_fract_y
_atom_site_fract_z
Si Si1 0.395133 0.426412 0.496407
Si Si2 0.417432 0.639631 0.062787
Si Si3 0.141251 0.676622 0.648100
Si Si4 0.895086 0.015113 0.656041
Si Si5 0.228225 0.160759 0.914355
Si Si6 0.556114 0.079597 0.071960
Si Si7 0.171232 0.546200 0.016881
O O1 0.500000 0.500000 0.500000
O O2 0.332585 0.544162 0.300400
O O3 0.604034 0.337642 0.448718
O O4 0.215918 0.318205 0.706163
O O5 0.281693 0.620838 0.011608
O O6 0.413213 0.799685 0.959442
O O7 0.654733 0.568651 0.002592
O O8 0.056369 0.827357 0.473576
O O9 0.023173 0.542841 0.773882
O O10 0.095787 0.659239 0.827951
O O11 0.642241 0.011208 0.726534
O O12 0.000000 0.000000 0.500000
O O13 0.930869 0.893229 0.867708
O O14 0.254800 0.034506 0.929122
O O15 0.455214 0.156013 0.910160
#
# Coordination Sequence:
#
# PCOD9072383 Si02
#       7
#     2   2   2   2   2   2   2
#     4  11  18  32  59  82 106 149 191 221 272 332
#     4  10  19  34  58  82 114 148 183 229 276 324
#     4  10  19  35  56  79 109 148 186 232 272 330
#     4  10  18  30  56  81 106 141 186 230 274 321
#     4   9  18  31  51  81 109 140 187 222 261 341
#     4   9  16  31  52  79 108 142 180 223 265 324
#     4   9  21  35  53  84 116 140 188 235 272 326
#
# _framework density 22.069217999999999
#
# number of rings (size 3 to 8) (size 9 to 14) (size 15 to 20)
#    0.857    1.429    2.857    0.857    0.000    1.143 
#    0.000    1.429    3.143    0.857    0.000    0.000 
#    0.000    0.000    0.000    0.000    0.000    0.000 
#
# Total GULP energy -78016.333264 kJ/mol
# GULP energy per Si atom -5572.595233 kJ/mol
# Density = 2.201899 g / cm^3
# Si number density = 22.069218 Si / 1000 Ang^3
#
#
#
# Elastic Constant Matrix: (Units=GPa)
#
#
# Indices 1 2 3 4 5 6 
#
# 1 46.8541 18.5003 13.6220 -4.1347 -1.1518 16.0022
# 2 18.5003 128.1232 42.4310 -8.6862 -3.3026 20.4504
# 3 13.6220 42.4310 145.0317 -1.9929 -5.7028 -3.0113
# 4 -4.1347 -8.6862 -1.9929 32.0252 -1.8564 -5.9328
# 5 -1.1518 -3.3026 -5.7028 -1.8564 9.2905 0.3252
# 6 16.0022 20.4504 -3.0113 -5.9328 0.3252 27.9970
#
#
#
# Elastic Compliance Matrix: (Units=1/GPa)
#
#
# Indices 1 2 3 4 5 6 
#
# 1 0.027798 -0.000523 -0.002689 0.000499 0.002260 -0.015716
# 2 -0.000523 0.010156 -0.002966 0.001300 0.002237 -0.007189
# 3 -0.002689 -0.002966 0.008259 0.000431 0.003606 0.004641
# 4 0.000499 0.001300 0.000431 0.033153 0.007212 0.005753
# 5 0.002260 0.002237 0.003606 0.007212 0.112447 -0.002316
# 6 -0.015716 -0.007189 0.004641 0.005753 -0.002316 0.051697
#
#
# Mechanical properties :
#
#
# Convention : Reuss Voigt Hill
#
# Bulk Modulus (GPa) = 29.53392 52.12397 40.82894
# Shear Modulus (GPa) = 18.71597 30.22625 24.47111
#
# Velocity S-wave (km/s) = 2.91530 3.70484 3.33353
# Velocity P-wave (km/s) = 4.97428 6.47849 5.77556
#
# Compressibility (1/GPa) = 0.03385937
#
# Stress axis : x y z
#
# Youngs Moduli (GPa) = 35.97352 98.46514 121.07627
#
# Poissons Ratio (x) = 0.05149 0.32552
# Poissons Ratio (y) = 0.01881 0.35906
# Poissons Ratio (z) = 0.09672 0.29201
#
# Static dielectric constant tensor:
#      x y z
#    x 1.816660 -0.050580 -0.007200 
#    y -0.050580 1.871600 0.017040 
#    z -0.007200 0.017040 1.826230 
# 
# From -- ./inp_files/378931.got.cif
#   From: 2010.05.17/outbox.cif.g08.bks.cpg/sg2_190_cif.got.tgz:378931.got - 2010.06.03 11:33:40.
