data_PCOD9072982
_publ_section_title
;
Structure prediction by ZEFSAII (Michael W. Deem and Ramdas Pophale) SiO2 
 PCOD9072982
Probable space group: P -1
;
_chemical_formula_sum "Si O2"
_cell_formula_units_Z 16
_cell_length_a 18.000000
_cell_length_b 15.000000
_cell_length_c 24.000000
_cell_angle_alpha 160.000000
_cell_angle_beta 160.000000
_cell_angle_gamma 30.000000
_cell_volume 749.971719
_symmetry_space_group_name_H-M "P -1"
_symmetry_group_IT_number 2
_symmetry_cell_setting 'triclinic'
loop_
_space_group_symop_operation_xyz
x,y,z
-x,-y,-z
loop_
_atom_site_type_symbol
_atom_site_label
_atom_site_fract_x
_atom_site_fract_y
_atom_site_fract_z
Si Si1 0.066893 0.492995 0.109202
Si Si2 0.750613 0.849549 0.668836
Si Si3 0.401963 0.167038 0.646534
Si Si4 0.899538 0.682838 0.785278
Si Si5 0.522070 0.255970 0.993683
Si Si6 0.094210 0.262415 0.753548
Si Si7 0.528229 0.124135 0.363606
Si Si8 0.992497 0.895649 0.746989
O O1 0.323858 0.599351 0.358719
O O2 0.958453 0.686452 0.188709
O O3 0.000000 0.500000 0.000000
O O4 0.028342 0.208898 0.944381
O O5 0.795004 0.632167 0.619287
O O6 0.858824 0.824238 0.669373
O O7 0.509592 0.943615 0.555046
O O8 0.880312 0.110775 0.942573
O O9 0.168853 0.192632 0.469798
O O10 0.405800 0.061148 0.649382
O O11 0.508093 0.471679 0.898562
O O12 0.721410 0.829165 0.777848
O O13 0.978334 0.466930 0.754342
O O14 0.358678 0.273904 0.940767
O O15 0.437245 0.010348 0.749536
O O16 0.776292 0.218153 0.160494
O O17 0.000000 0.000000 0.500000
#
# Coordination Sequence:
#
# PCOD9072982 Si02
#       8
#     2   2   2   2   2   2   2   2
#     4  12  25  47  70  94 136 182 230 269 333 411
#     4  10  20  39  67  96 125 170 226 275 328 387
#     4  11  23  41  64  98 138 174 220 280 340 390
#     4  10  21  40  66  99 128 168 229 280 321 393
#     4  12  24  41  66  99 135 173 224 282 336 391
#     4  12  25  43  68 100 136 174 221 283 337 391
#     4  11  23  41  71  98 128 181 226 275 330 399
#     4  12  24  42  67  97 138 182 221 271 340 407
#
# _framework density 21.334137999999999
#
# number of rings (size 3 to 8) (size 9 to 14) (size 15 to 20)
#    0.000    0.750    6.250    1.125    1.750    2.000 
#    0.000    0.625    0.000    0.000    0.000    0.000 
#    0.000    0.000    0.000    0.000    0.000    0.000 
#
# Total GULP energy -89160.078269 kJ/mol
# GULP energy per Si atom -5572.504892 kJ/mol
# Density = 2.128558 g / cm^3
# Si number density = 21.334138 Si / 1000 Ang^3
#
#
#
# Elastic Constant Matrix: (Units=GPa)
#
#
# Indices 1 2 3 4 5 6 
#
# 1 120.7447 51.6855 1.0463 -15.3746 -3.5212 -6.7705
# 2 51.6855 109.9668 11.6589 -21.5872 -13.1811 -2.5782
# 3 1.0463 11.6589 48.4373 -2.0381 -7.3728 -1.4600
# 4 -15.3746 -21.5872 -2.0381 35.6025 1.1285 2.7519
# 5 -3.5212 -13.1811 -7.3728 1.1285 18.3641 -4.6223
# 6 -6.7705 -2.5782 -1.4600 2.7519 -4.6223 30.5092
#
#
#
# Elastic Compliance Matrix: (Units=1/GPa)
#
#
# Indices 1 2 3 4 5 6 
#
# 1 0.010618 -0.004819 0.000943 0.001605 -0.000704 0.001743
# 2 -0.004819 0.013652 -0.001698 0.005792 0.008012 0.000695
# 3 0.000943 -0.001698 0.022418 0.000203 0.008558 0.002417
# 4 0.001605 0.005792 0.000203 0.032372 0.002118 -0.001744
# 5 -0.000704 0.008012 0.008558 0.002118 0.066082 0.010751
# 6 0.001743 0.000695 0.002417 -0.001744 0.010751 0.035124
#
#
# Mechanical properties :
#
#
# Convention : Reuss Voigt Hill
#
# Bulk Modulus (GPa) = 28.13633 45.32558 36.73096
# Shear Modulus (GPa) = 24.59896 31.21237 27.90567
#
# Velocity S-wave (km/s) = 3.39932 3.82910 3.62059
# Velocity P-wave (km/s) = 5.35016 6.39070 5.89344
#
# Compressibility (1/GPa) = 0.03554123
#
# Stress axis : x y z
#
# Youngs Moduli (GPa) = 94.17803 73.24699 44.60777
#
# Poissons Ratio (x) = 0.35299 -0.04209
# Poissons Ratio (y) = 0.45386 0.07573
# Poissons Ratio (z) = -0.08885 0.12436
#
# Static dielectric constant tensor:
#      x y z
#    x 1.792520 0.007880 0.052180 
#    y 0.007880 1.796110 0.017590 
#    z 0.052180 0.017590 1.912240 
# 
# From -- ./inp_files/226641.got.cif
#   From: 2010.05.17/outbox.ucp.g08.bks.cvg/sg2_114_cif.got.tgz:226641.got - 2010.06.11 11:32:03.
