data_PCOD9072701
_publ_section_title
;
Structure prediction by ZEFSAII (Michael W. Deem and Ramdas Pophale) SiO2 
 PCOD9072701
Probable space group: P -1
;
_chemical_formula_sum "Si O2"
_cell_formula_units_Z 14
_cell_length_a 11.625043
_cell_length_b 8.741871
_cell_length_c 14.637805
_cell_angle_alpha 43.987942
_cell_angle_beta 138.605603
_cell_angle_gamma 123.129181
_cell_volume 683.065297
_symmetry_space_group_name_H-M "P -1"
_symmetry_group_IT_number 2
_symmetry_cell_setting 'triclinic'
loop_
_space_group_symop_operation_xyz
x,y,z
-x,-y,-z
loop_
_atom_site_type_symbol
_atom_site_label
_atom_site_fract_x
_atom_site_fract_y
_atom_site_fract_z
Si Si1 0.278969 0.766283 0.565947
Si Si2 0.924616 0.274837 0.354769
Si Si3 0.675318 0.975873 0.239442
Si Si4 0.818046 0.350576 0.647214
Si Si5 0.810127 0.745008 0.061155
Si Si6 0.612780 0.710450 0.140177
Si Si7 0.465183 0.929178 0.320492
O O1 0.130725 0.766993 0.555390
O O2 0.205667 0.723198 0.440234
O O3 0.393530 0.552370 0.749443
O O4 0.399477 0.980897 0.561735
O O5 0.861199 0.075135 0.338912
O O6 0.111479 0.397923 0.407538
O O7 0.799621 0.479261 0.160574
O O8 0.569717 0.911659 0.295645
O O9 0.673660 0.791971 0.240273
O O10 0.564306 0.171365 0.042625
O O11 0.983484 0.216603 0.841821
O O12 0.641748 0.286898 0.620851
O O13 0.751415 0.785245 0.113575
O O14 0.681381 0.884578 0.863349
#
# Coordination Sequence:
#
# PCOD9072701 Si02
#       7
#     2   2   2   2   2   2   2
#     4  10  18  31  50  72  92 125 159 191 229 276
#     4   8  17  29  50  68  94 118 156 193 229 269
#     4   9  17  32  50  72  90 125 160 196 223 275
#     4  10  19  30  49  72 101 118 151 197 239 272
#     4   8  17  30  51  71  93 118 156 196 232 267
#     4   9  17  30  53  69  94 120 164 194 227 268
#     4  10  18  31  51  71  94 125 156 188 234 281
#
# _framework density 20.495843000000001
#
# number of rings (size 3 to 8) (size 9 to 14) (size 15 to 20)
#    0.857    2.000    0.000    2.143    0.000    3.429 
#    0.000    1.429    3.143    2.571    0.000    0.000 
#    0.000    0.000    0.000    0.000    0.000    0.000 
#
# Total GULP energy -78023.665011 kJ/mol
# GULP energy per Si atom -5573.118929 kJ/mol
# Density = 2.044919 g / cm^3
# Si number density = 20.495843 Si / 1000 Ang^3
#
#
#
# Elastic Constant Matrix: (Units=GPa)
#
#
# Indices 1 2 3 4 5 6 
#
# 1 50.3968 54.2223 16.6988 13.2730 6.6493 15.7320
# 2 54.2223 124.9044 26.6606 36.1815 -11.4482 26.4263
# 3 16.6988 26.6606 58.2836 17.0904 3.4515 10.8801
# 4 13.2730 36.1815 17.0904 28.3798 -5.0984 3.2544
# 5 6.6493 -11.4482 3.4515 -5.0984 26.6506 2.1505
# 6 15.7320 26.4263 10.8801 3.2544 2.1505 33.5085
#
#
#
# Elastic Compliance Matrix: (Units=1/GPa)
#
#
# Indices 1 2 3 4 5 6 
#
# 1 0.047346 -0.022768 -0.003099 0.005455 -0.019945 -0.002516
# 2 -0.022768 0.027080 0.001339 -0.021042 0.013918 -0.009952
# 3 -0.003099 0.001339 0.022789 -0.014057 -0.003857 -0.005388
# 4 0.005455 -0.021042 -0.014057 0.067213 0.003322 0.011856
# 5 -0.019945 0.013918 -0.003857 0.003322 0.049926 -0.003886
# 6 -0.002516 -0.009952 -0.005388 0.011856 -0.003886 0.039721
#
#
# Mechanical properties :
#
#
# Convention : Reuss Voigt Hill
#
# Bulk Modulus (GPa) = 20.76411 47.63867 34.20139
# Shear Modulus (GPa) = 15.66501 26.77465 21.21983
#
# Velocity S-wave (km/s) = 2.76760 3.61826 3.22114
# Velocity P-wave (km/s) = 4.51284 6.38352 5.52788
#
# Compressibility (1/GPa) = 0.04816002
#
# Stress axis : x y z
#
# Youngs Moduli (GPa) = 21.12128 36.92718 43.88125
#
# Poissons Ratio (x) = 0.84074 0.13599
# Poissons Ratio (y) = 0.48088 -0.05878
# Poissons Ratio (z) = 0.06546 -0.04946
#
# Static dielectric constant tensor:
#      x y z
#    x 1.720760 0.001460 0.050160 
#    y 0.001460 1.739590 -0.038420 
#    z 0.050160 -0.038420 1.761900 
# 
# From -- ./inp_files/172084.got.cif
#   From: 2010.05.17/outbox.cif.g08.bks.cpg/sg2_87_cif.got.tgz:172084.got - 2010.06.03 11:33:40.
