data_PCOD9072423
_publ_section_title
;
Structure prediction by ZEFSAII (Michael W. Deem and Ramdas Pophale) SiO2 
 PCOD9072423
Probable space group: P -1
;
_chemical_formula_sum "Si O2"
_cell_formula_units_Z 16
_cell_length_a 8.985696
_cell_length_b 15.232420
_cell_length_c 5.565747
_cell_angle_alpha 80.965475
_cell_angle_beta 104.103464
_cell_angle_gamma 123.245176
_cell_volume 617.659818
_symmetry_space_group_name_H-M "P -1"
_symmetry_group_IT_number 2
_symmetry_cell_setting 'triclinic'
loop_
_space_group_symop_operation_xyz
x,y,z
-x,-y,-z
loop_
_atom_site_type_symbol
_atom_site_label
_atom_site_fract_x
_atom_site_fract_y
_atom_site_fract_z
Si Si1 0.780543 0.424612 0.925438
Si Si2 0.577272 0.955975 0.856025
Si Si3 0.313044 0.397998 0.201225
Si Si4 0.878097 0.647456 0.353639
Si Si5 0.776367 0.145152 0.510555
Si Si6 0.939903 0.878760 0.565579
Si Si7 0.828664 0.881199 0.022101
Si Si8 0.688210 0.406057 0.393032
O O1 0.684786 0.492974 0.851021
O O2 0.713437 0.364210 0.673011
O O3 0.712512 0.360699 0.173981
O O4 0.000000 0.500000 0.000000
O O5 0.416833 0.882463 0.642193
O O6 0.731618 0.055745 0.726171
O O7 0.661152 0.892111 0.014610
O O8 0.500000 0.000000 0.000000
O O9 0.198565 0.345429 0.420202
O O10 0.503333 0.407011 0.305442
O O11 0.223999 0.351800 0.927320
O O12 0.845394 0.530859 0.396594
O O13 0.085926 0.740190 0.385734
O O14 0.881499 0.126614 0.343306
O O15 0.860269 0.832407 0.290724
O O16 0.815935 0.834520 0.771705
O O17 0.000000 0.000000 0.500000
O O18 0.000000 0.000000 0.000000
#
# Coordination Sequence:
#
# PCOD9072423 Si02
#       8
#     2   2   2   2   2   2   2   2
#     4  10  18  30  56  93 113 150 194 232 273 341
#     4  11  23  37  59  85 112 151 201 243 287 352
#     4  10  20  38  62  84 116 153 192 236 287 344
#     4  10  21  35  58  89 116 147 190 247 289 330
#     4  11  24  36  59  88 113 151 202 245 288 349
#     4  10  19  36  57  82 106 144 188 232 289 342
#     4  10  19  35  58  80 107 141 188 231 288 340
#     4  10  19  37  61  86 117 153 196 232 283 347
#
# _framework density 25.904226000000001
#
# number of rings (size 3 to 8) (size 9 to 14) (size 15 to 20)
#    0.000    1.750    2.500    5.625    3.500    0.000 
#    0.000    0.000    0.000   24.000    0.000    0.000 
#    0.000    0.000    0.000    0.000    0.000    0.000 
#
# Total GULP energy -89543.799789 kJ/mol
# GULP energy per Si atom -5596.487487 kJ/mol
# Density = 2.584527 g / cm^3
# Si number density = 25.904226 Si / 1000 Ang^3
#
#
#
# Elastic Constant Matrix: (Units=GPa)
#
#
# Indices 1 2 3 4 5 6 
#
# 1 118.2511 6.6868 45.9644 5.9830 -10.1788 10.6121
# 2 6.6868 96.4754 25.8816 5.1011 0.0684 10.7882
# 3 45.9644 25.8816 232.1072 10.0712 -22.0079 5.7841
# 4 5.9830 5.1011 10.0712 36.5349 0.4466 -0.7021
# 5 -10.1788 0.0684 -22.0079 0.4466 47.5466 5.1694
# 6 10.6121 10.7882 5.7841 -0.7021 5.1694 24.5998
#
#
#
# Elastic Compliance Matrix: (Units=1/GPa)
#
#
# Indices 1 2 3 4 5 6 
#
# 1 0.009678 0.000316 -0.001616 -0.001289 0.001809 -0.004351
# 2 0.000316 0.011265 -0.001130 -0.001408 0.000071 -0.004866
# 3 -0.001616 -0.001130 0.005000 -0.000989 0.002027 -0.000437
# 4 -0.001289 -0.001408 -0.000989 0.028114 -0.001265 0.002474
# 5 0.001809 0.000071 0.002027 -0.001265 0.023040 -0.006166
# 6 -0.004351 -0.004866 -0.000437 0.002474 -0.006166 0.046131
#
#
# Mechanical properties :
#
#
# Convention : Reuss Voigt Hill
#
# Bulk Modulus (GPa) = 47.42839 67.09995 57.26417
# Shear Modulus (GPa) = 37.00539 46.28965 41.64752
#
# Velocity S-wave (km/s) = 3.78371 4.23182 4.01403
# Velocity P-wave (km/s) = 6.11862 7.05954 6.60585
#
# Compressibility (1/GPa) = 0.02108442
#
# Stress axis : x y z
#
# Youngs Moduli (GPa) = 103.32523 88.77057 199.98578
#
# Poissons Ratio (x) = -0.02806 0.32317
# Poissons Ratio (y) = -0.03266 0.22592
# Poissons Ratio (z) = 0.16697 0.10028
#
# Static dielectric constant tensor:
#      x y z
#    x 2.046590 -0.040710 -0.051260 
#    y -0.040710 2.083710 0.054960 
#    z -0.051260 0.054960 2.107670 
# 
# From -- ./inp_files/47521.got.cif
#   From: 2010.05.17/outbox.cif.g08.bks.cpg/sg2_24_cif.got.tgz:47521.got - 2010.06.03 11:33:40.
