data_PCOD9072336
_publ_section_title
;
Structure prediction by ZEFSAII (Michael W. Deem and Ramdas Pophale) SiO2 
 PCOD9072336
Probable space group: P -1
;
_chemical_formula_sum "Si O2"
_cell_formula_units_Z 14
_cell_length_a 8.491567
_cell_length_b 17.913747
_cell_length_c 5.644211
_cell_angle_alpha 44.609894
_cell_angle_beta 110.572351
_cell_angle_gamma 117.737633
_cell_volume 533.391062
_symmetry_space_group_name_H-M "P -1"
_symmetry_group_IT_number 2
_symmetry_cell_setting 'triclinic'
loop_
_space_group_symop_operation_xyz
x,y,z
-x,-y,-z
loop_
_atom_site_type_symbol
_atom_site_label
_atom_site_fract_x
_atom_site_fract_y
_atom_site_fract_z
Si Si1 0.380392 0.415339 0.326457
Si Si2 0.166195 0.836673 0.963578
Si Si3 0.804673 0.909147 0.099984
Si Si4 0.245865 0.094431 0.417633
Si Si5 0.052157 0.365859 0.974615
Si Si6 0.277253 0.567518 0.321076
Si Si7 0.349494 0.892313 0.432247
O O1 0.325157 0.492471 0.315200
O O2 0.526116 0.362462 0.631293
O O3 0.500000 0.500000 0.000000
O O4 0.190527 0.342117 0.283814
O O5 0.285078 0.847340 0.762887
O O6 0.139888 0.959120 0.670345
O O7 0.245032 0.831548 0.277882
O O8 0.008127 0.724398 0.065597
O O9 0.779684 0.852038 0.469939
O O10 0.788546 0.852588 0.964553
O O11 0.673756 0.984498 0.861926
O O12 0.000000 0.000000 0.000000
O O13 0.450305 0.101172 0.507353
O O14 0.168408 0.485079 0.656130
O O15 0.869464 0.376683 0.963634
#
# Coordination Sequence:
#
# PCOD9072336 Si02
#       7
#     2   2   2   2   2   2   2
#     4   9  18  35  58  80 110 148 183 231 285 348
#     4  10  20  33  57  85 109 146 186 240 276 334
#     4  10  18  30  55  81 104 136 189 236 271 332
#     4  10  19  36  58  76 108 153 191 225 280 341
#     4  10  20  33  59  84 113 146 192 235 290 335
#     4   9  19  36  58  84 109 150 190 227 285 357
#     4  10  20  37  58  77 110 151 194 224 284 339
#
# _framework density 26.247160000000001
#
# number of rings (size 3 to 8) (size 9 to 14) (size 15 to 20)
#    0.000    2.286    0.000    5.143    2.000    0.000 
#    0.000    0.000   25.143    0.000    0.000    0.000 
#    0.000    0.000    0.000    0.000    0.000    0.000 
#
# Total GULP energy -78214.214661 kJ/mol
# GULP energy per Si atom -5586.729619 kJ/mol
# Density = 2.618742 g / cm^3
# Si number density = 26.247160 Si / 1000 Ang^3
#
#
#
# Elastic Constant Matrix: (Units=GPa)
#
#
# Indices 1 2 3 4 5 6 
#
# 1 169.4671 54.4240 68.7099 28.4459 20.1265 -12.7194
# 2 54.4240 126.6978 54.6698 48.1514 27.9265 12.4596
# 3 68.7099 54.6698 108.9991 42.5537 1.6008 -0.2964
# 4 28.4459 48.1514 42.5537 57.3917 -2.9685 -2.0617
# 5 20.1265 27.9265 1.6008 -2.9685 48.6390 21.6074
# 6 -12.7194 12.4596 -0.2964 -2.0617 21.6074 42.5296
#
#
#
# Elastic Compliance Matrix: (Units=1/GPa)
#
#
# Indices 1 2 3 4 5 6 
#
# 1 0.009607 -0.001155 -0.005435 0.000155 -0.005860 0.006158
# 2 -0.001155 0.015854 -0.002727 -0.011198 -0.008720 -0.001121
# 3 -0.005435 -0.002727 0.016764 -0.007345 0.004246 -0.003223
# 4 0.000155 -0.011198 -0.007345 0.032642 0.008319 0.000632
# 5 -0.005860 -0.008720 0.004246 0.008319 0.035917 -0.017013
# 6 0.006158 -0.001121 -0.003223 0.000632 -0.017013 0.034335
#
#
# Mechanical properties :
#
#
# Convention : Reuss Voigt Hill
#
# Bulk Modulus (GPa) = 42.38532 84.53014 63.45773
# Shear Modulus (GPa) = 29.13488 44.86941 37.00214
#
# Velocity S-wave (km/s) = 3.33531 4.13909 3.75875
# Velocity P-wave (km/s) = 5.56920 7.42416 6.56255
#
# Compressibility (1/GPa) = 0.02359308
#
# Stress axis : x y z
#
# Youngs Moduli (GPa) = 104.08724 63.07665 59.65099
#
# Poissons Ratio (x) = 0.07283 0.32418
# Poissons Ratio (y) = 0.12018 0.16266
# Poissons Ratio (z) = 0.56567 0.17200
#
# Static dielectric constant tensor:
#      x y z
#    x 2.070520 0.058190 0.022300 
#    y 0.058190 2.054820 0.028730 
#    z 0.022300 0.028730 2.076330 
# 
# From -- ./inp_files/34750.got.cif
#   From: 2010.05.17/outbox.cif.g08.bks.cpg/sg2_18_cif.got.tgz:34750.got - 2010.06.03 11:33:40.
