data_PCOD9072752
_publ_section_title
;
Structure prediction by ZEFSAII (Michael W. Deem and Ramdas Pophale) SiO2 
 PCOD9072752
Probable space group: P -1
;
_chemical_formula_sum "Si O2"
_cell_formula_units_Z 14
_cell_length_a 8.274445
_cell_length_b 8.996570
_cell_length_c 12.216627
_cell_angle_alpha 109.361321
_cell_angle_beta 49.524396
_cell_angle_gamma 123.477666
_cell_volume 576.512657
_symmetry_space_group_name_H-M "P -1"
_symmetry_group_IT_number 2
_symmetry_cell_setting 'triclinic'
loop_
_space_group_symop_operation_xyz
x,y,z
-x,-y,-z
loop_
_atom_site_type_symbol
_atom_site_label
_atom_site_fract_x
_atom_site_fract_y
_atom_site_fract_z
Si Si1 0.574829 0.816048 0.713800
Si Si2 0.315746 0.205769 0.880564
Si Si3 0.153556 0.855387 0.200077
Si Si4 0.009267 0.102006 0.195467
Si Si5 0.739114 0.568483 0.700972
Si Si6 0.108400 0.698243 0.962984
Si Si7 0.235600 0.379861 0.539228
O O1 0.588163 0.678540 0.765685
O O2 0.294594 0.733889 0.792929
O O3 0.747234 0.800122 0.544417
O O4 0.660292 0.016336 0.762593
O O5 0.242418 0.153511 0.026147
O O6 0.110966 0.263841 0.955429
O O7 0.569097 0.376467 0.782916
O O8 0.227667 0.026996 0.802320
O O9 0.969372 0.673940 0.294892
O O10 0.020038 0.970156 0.250298
O O11 0.246330 0.813855 0.037194
O O12 0.053144 0.286799 0.277555
O O13 0.809466 0.549354 0.539763
O O14 0.000000 0.500000 0.000000
O O15 0.500000 0.500000 0.500000
#
# Coordination Sequence:
#
# PCOD9072752 Si02
#       7
#     2   2   2   2   2   2   2
#     4   9  19  30  47  75 100 130 160 202 261 293
#     4  10  18  32  49  72 106 130 169 205 252 297
#     4  10  19  32  50  75 103 126 167 208 249 303
#     4   9  19  30  49  74 101 134 164 210 250 293
#     4   9  18  31  50  74 102 126 168 206 254 288
#     4  11  18  31  49  73 104 129 164 207 254 300
#     4  10  18  31  50  77 101 130 166 208 257 295
#
# _framework density 24.283942
#
# number of rings (size 3 to 8) (size 9 to 14) (size 15 to 20)
#    0.857    1.429    1.429    3.857    0.000    0.000 
#    0.000    0.000    0.000    0.857    0.000    4.000 
#    0.000    0.000    0.000    0.000    0.000    0.000 
#
# Total GULP energy -78026.999019 kJ/mol
# GULP energy per Si atom -5573.357073 kJ/mol
# Density = 2.422867 g / cm^3
# Si number density = 24.283942 Si / 1000 Ang^3
#
#
#
# Elastic Constant Matrix: (Units=GPa)
#
#
# Indices 1 2 3 4 5 6 
#
# 1 51.8251 19.6065 7.9318 -0.4444 11.4030 -0.8219
# 2 19.6065 132.7796 21.7964 -6.7241 22.2363 4.8885
# 3 7.9318 21.7964 87.0880 -16.5682 23.4123 1.6559
# 4 -0.4444 -6.7241 -16.5682 40.9023 -1.2901 6.7702
# 5 11.4030 22.2363 23.4123 -1.2901 28.2821 6.9537
# 6 -0.8219 4.8885 1.6559 6.7702 6.9537 26.9890
#
#
#
# Elastic Compliance Matrix: (Units=1/GPa)
#
#
# Indices 1 2 3 4 5 6 
#
# 1 0.021920 -0.002058 0.000642 -0.000673 -0.008615 0.003389
# 2 -0.002058 0.008929 -0.000237 0.001245 -0.005820 -0.000478
# 3 0.000642 -0.000237 0.016219 0.005938 -0.013487 0.001053
# 4 -0.000673 0.001245 0.005938 0.028126 -0.002622 -0.006990
# 5 -0.008615 -0.005820 -0.013487 -0.002622 0.057538 -0.012548
# 6 0.003389 -0.000478 0.001053 -0.006990 -0.012548 0.042164
#
#
# Mechanical properties :
#
#
# Convention : Reuss Voigt Hill
#
# Bulk Modulus (GPa) = 22.85034 41.15136 32.00085
# Shear Modulus (GPa) = 25.93521 34.05854 29.99687
#
# Velocity S-wave (km/s) = 3.27157 3.74908 3.51843
# Velocity P-wave (km/s) = 4.86836 5.97691 5.45089
#
# Compressibility (1/GPa) = 0.04376302
#
# Stress axis : x y z
#
# Youngs Moduli (GPa) = 45.62124 111.98886 61.65650
#
# Poissons Ratio (x) = 0.23050 -0.03961
# Poissons Ratio (y) = 0.09390 0.01459
# Poissons Ratio (z) = -0.02931 0.02650
#
# Static dielectric constant tensor:
#      x y z
#    x 1.959190 0.035800 0.055890 
#    y 0.035800 1.942240 0.061980 
#    z 0.055890 0.061980 1.909950 
# 
# From -- ./inp_files/353461.got.cif
#   From: 2010.05.17/outbox.cif.g08.bks.cpg/sg2_177_cif.got.tgz:353461.got - 2010.06.03 11:33:40.
