data_PCOD9072794
_publ_section_title
;
Structure prediction by ZEFSAII (Michael W. Deem and Ramdas Pophale) SiO2 
 PCOD9072794
Probable space group: P -1
;
_chemical_formula_sum "Si O2"
_cell_formula_units_Z 16
_cell_length_a 15.136863
_cell_length_b 17.671067
_cell_length_c 11.257763
_cell_angle_alpha 31.277003
_cell_angle_beta 138.632605
_cell_angle_gamma 155.440432
_cell_volume 644.750417
_symmetry_space_group_name_H-M "P -1"
_symmetry_group_IT_number 2
_symmetry_cell_setting 'triclinic'
loop_
_space_group_symop_operation_xyz
x,y,z
-x,-y,-z
loop_
_atom_site_type_symbol
_atom_site_label
_atom_site_fract_x
_atom_site_fract_y
_atom_site_fract_z
Si Si1 0.346350 0.825466 0.964722
Si Si2 0.989760 0.454413 0.811268
Si Si3 0.711162 0.934058 0.162172
Si Si4 0.378612 0.615360 0.907454
Si Si5 0.930368 0.869373 0.899925
Si Si6 0.805180 0.593565 0.360277
Si Si7 0.377103 0.125543 0.424252
Si Si8 0.479236 0.513268 0.601480
O O1 0.338235 0.944398 0.699342
O O2 0.116155 0.606513 0.085956
O O3 0.500000 0.000000 0.000000
O O4 0.475052 0.797266 0.080747
O O5 0.931615 0.550022 0.552419
O O6 0.856937 0.200191 0.973412
O O7 0.232760 0.613372 0.825040
O O8 0.841280 0.955441 0.166578
O O9 0.671856 0.799609 0.418630
O O10 0.225245 0.377418 0.994710
O O11 0.475599 0.588023 0.137502
O O12 0.546522 0.824625 0.702194
O O13 0.820740 0.932616 0.694809
O O14 0.929792 0.812362 0.110428
O O15 0.577756 0.370296 0.366202
O O16 0.731461 0.590514 0.417620
O O17 0.500000 0.500000 0.500000
#
# Coordination Sequence:
#
# PCOD9072794 Si02
#       8
#     2   2   2   2   2   2   2   2
#     4  10  18  31  50  84 119 148 168 223 290 341
#     4  10  20  33  60  88 119 142 180 243 289 343
#     4  10  21  35  54  88 112 147 186 229 294 333
#     4  10  22  34  55  90 111 149 188 233 288 333
#     4  10  21  31  60  91 118 139 179 250 289 337
#     4  11  18  38  57  88 116 150 182 227 301 336
#     4  11  18  33  57  88 125 138 179 237 293 340
#     4  12  24  41  58  75 116 162 196 229 270 341
#
# _framework density 24.815805000000001
#
# number of rings (size 3 to 8) (size 9 to 14) (size 15 to 20)
#    0.000    1.500    6.250    1.500    3.500    2.500 
#    0.000    1.250    0.000    0.750    0.000    0.000 
#    0.000    0.000    0.000    0.000    0.000    0.000 
#
# Total GULP energy -89514.816079 kJ/mol
# GULP energy per Si atom -5594.676005 kJ/mol
# Density = 2.475932 g / cm^3
# Si number density = 24.815805 Si / 1000 Ang^3
#
#
#
# Elastic Constant Matrix: (Units=GPa)
#
#
# Indices 1 2 3 4 5 6 
#
# 1 118.1223 67.5198 70.1178 16.4800 -1.3740 56.5024
# 2 67.5198 70.3217 51.2068 9.0717 0.6590 22.7228
# 3 70.1178 51.2068 217.0411 20.1399 -14.6308 45.5233
# 4 16.4800 9.0717 20.1399 19.9712 13.1728 0.7498
# 5 -1.3740 0.6590 -14.6308 13.1728 42.8304 4.5087
# 6 56.5024 22.7228 45.5233 0.7498 4.5087 63.5220
#
#
#
# Elastic Compliance Matrix: (Units=1/GPa)
#
#
# Indices 1 2 3 4 5 6 
#
# 1 0.044782 -0.030868 0.004605 -0.038796 0.018887 -0.032974
# 2 -0.030868 0.039793 -0.005894 0.020448 -0.011804 0.018043
# 3 0.004605 -0.005894 0.008158 -0.014562 0.008373 -0.008256
# 4 -0.038796 0.020448 -0.014562 0.116734 -0.046600 0.039559
# 5 0.018887 -0.011804 0.008373 -0.046600 0.043551 -0.021119
# 6 -0.032974 0.018043 -0.008256 0.039559 -0.021119 0.045567
#
#
# Mechanical properties :
#
#
# Convention : Reuss Voigt Hill
#
# Bulk Modulus (GPa) = 35.18863 87.01932 61.10397
# Shear Modulus (GPa) = 13.42744 39.70742 26.56743
#
# Velocity S-wave (km/s) = 2.32865 4.00445 3.27553
# Velocity P-wave (km/s) = 4.63042 7.51818 6.24355
#
# Compressibility (1/GPa) = 0.02841827
#
# Stress axis : x y z
#
# Youngs Moduli (GPa) = 22.33046 25.13017 122.58422
#
# Poissons Ratio (x) = 0.77572 -0.56446
# Poissons Ratio (y) = 0.68930 0.72246
# Poissons Ratio (z) = -0.10283 0.14811
#
# Static dielectric constant tensor:
#      x y z
#    x 2.023230 -0.091810 0.036620 
#    y -0.091810 2.039860 -0.062750 
#    z 0.036620 -0.062750 1.940360 
# 
# From -- ./inp_files/446217.got.cif
#   From: 2010.05.17/outbox.cif.g08.bks.cpg/sg2_224_cif.got.tgz:446217.got - 2010.06.03 11:33:40.
