data_PCOD9072683
_publ_section_title
;
Structure prediction by ZEFSAII (Michael W. Deem and Ramdas Pophale) SiO2 
 PCOD9072683
Probable space group: P -1
;
_chemical_formula_sum "Si O2"
_cell_formula_units_Z 15
_cell_length_a 7.674280
_cell_length_b 10.705085
_cell_length_c 12.979032
_cell_angle_alpha 130.983497
_cell_angle_beta 54.841351
_cell_angle_gamma 91.418471
_cell_volume 539.879667
_symmetry_space_group_name_H-M "P -1"
_symmetry_group_IT_number 2
_symmetry_cell_setting 'triclinic'
loop_
_space_group_symop_operation_xyz
x,y,z
-x,-y,-z
loop_
_atom_site_type_symbol
_atom_site_label
_atom_site_fract_x
_atom_site_fract_y
_atom_site_fract_z
Si Si1 0.248752 0.857269 0.634164
Si Si2 0.234771 0.147114 0.273239
Si Si3 0.254643 0.702107 0.744622
Si Si4 0.735817 0.448498 0.139151
Si Si5 0.255346 0.418288 0.004667
Si Si6 0.237853 0.297030 0.155004
Si Si7 0.500000 0.000000 0.500000
Si Si8 0.223209 0.037418 0.433275
O O1 0.255210 0.862409 0.758954
O O2 0.482461 0.658770 0.384646
O O3 0.989179 0.876598 0.702855
O O4 0.282017 0.020264 0.664210
O O5 0.227320 0.311159 0.291146
O O6 0.184601 0.177510 0.427503
O O7 0.508729 0.931244 0.062849
O O8 0.500000 0.500000 0.500000
O O9 0.265335 0.708036 0.867475
O O10 0.010252 0.698322 0.794153
O O11 0.717357 0.453266 0.023915
O O12 0.995481 0.434303 0.071360
O O13 0.512184 0.190263 0.776123
O O14 0.258495 0.432992 0.136384
O O15 0.732202 0.868542 0.433679
O O16 0.000000 0.000000 0.500000
#
# Coordination Sequence:
#
# PCOD9072683 Si02
#       8
#     2   2   2   2   2   2   1   2
#     4  10  18  31  49  80 106 141 178 216 272 314
#     4   9  16  30  49  71 107 137 176 210 263 321
#     4   8  15  26  46  74 104 136 180 216 256 315
#     4   9  15  28  48  78 106 133 181 225 249 316
#     4   9  16  27  50  80 100 134 185 215 262 313
#     4   8  15  25  46  75  99 134 171 218 258 310
#     4  12  22  32  52  82 116 134 176 226 262 324
#     4  11  20  34  52  81 108 141 178 216 273 320
#
# _framework density 27.783971000000001
#
# number of rings (size 3 to 8) (size 9 to 14) (size 15 to 20)
#    0.000    2.667    2.667    0.000    0.000    0.000 
#    0.000    0.000    0.000   29.600    0.000   38.267 
#    0.000    0.000    0.000    0.000    0.000    0.000 
#
# Total GULP energy -83555.311762 kJ/mol
# GULP energy per Si atom -5570.354117 kJ/mol
# Density = 2.772073 g / cm^3
# Si number density = 27.783971 Si / 1000 Ang^3
#
#
#
# Elastic Constant Matrix: (Units=GPa)
#
#
# Indices 1 2 3 4 5 6 
#
# 1 81.0401 76.7731 10.4456 -5.6521 -51.4930 -0.0738
# 2 76.7731 232.9104 62.7248 -105.3661 45.2405 -90.3736
# 3 10.4456 62.7248 131.0001 24.8450 -43.8249 7.3914
# 4 -5.6521 -105.3661 24.8450 73.4909 -5.7753 14.4413
# 5 -51.4930 45.2405 -43.8249 -5.7753 46.8852 -13.1879
# 6 -0.0738 -90.3736 7.3914 14.4413 -13.1879 44.2443
#
#
#
# Elastic Compliance Matrix: (Units=1/GPa)
#
#
# Indices 1 2 3 4 5 6 
#
# 1 0.010055 0.006838 -0.005260 0.010175 0.004397 0.012852
# 2 0.006838 -0.000085 0.003186 -0.000332 0.011313 0.002785
# 3 -0.005260 0.003186 0.005139 0.001352 -0.002640 0.004413
# 4 0.010175 -0.000332 0.001352 0.014868 0.014163 -0.001518
# 5 0.004397 0.011313 -0.002640 0.014163 0.021661 0.025390
# 6 0.012852 0.002785 0.004413 -0.001518 0.025390 0.035638
#
#
# Mechanical properties :
#
#
# Convention : Reuss Voigt Hill
#
# Bulk Modulus (GPa) = 40.58853 82.75974 61.67413
# Shear Modulus (GPa) = 58.16621 52.59123 55.37872
#
# Velocity S-wave (km/s) = 4.58046 4.35542 4.46936
# Velocity P-wave (km/s) = 6.52798 7.42593 6.99139
#
# Compressibility (1/GPa) = 0.02463750
#
# Stress axis : x y z
#
# Youngs Moduli (GPa) = 99.45104 -11709.68832 194.58857
#
# Poissons Ratio (x) = 80.06950 1.02347
# Poissons Ratio (y) = -0.68003 -0.61998
# Poissons Ratio (z) = 0.52308 37.30836
#
# Static dielectric constant tensor:
#      x y z
#    x 2.207820 -0.032420 0.169980 
#    y -0.032420 2.295370 0.044760 
#    z 0.169980 0.044760 2.505430 
# 
# From -- ./inp_files/496715.got.cif
#   From: 2010.05.17/outbox.cif.g08.bks.cpg/sg2_249_cif.got.tgz:496715.got - 2010.06.03 11:33:40.
