data_PCOD9072130
_publ_section_title
;
Structure prediction by ZEFSAII (Michael W. Deem and Ramdas Pophale) SiO2 
 PCOD9072130
Probable space group: P -1
;
_chemical_formula_sum "Si O2"
_cell_formula_units_Z 16
_cell_length_a 16.397827
_cell_length_b 7.724978
_cell_length_c 11.698328
_cell_angle_alpha 83.436630
_cell_angle_beta 110.084303
_cell_angle_gamma 143.548784
_cell_volume 791.312194
_symmetry_space_group_name_H-M "P -1"
_symmetry_group_IT_number 2
_symmetry_cell_setting 'triclinic'
loop_
_space_group_symop_operation_xyz
x,y,z
-x,-y,-z
loop_
_atom_site_type_symbol
_atom_site_label
_atom_site_fract_x
_atom_site_fract_y
_atom_site_fract_z
Si Si1 0.243983 0.888138 0.108436
Si Si2 0.796139 0.805400 0.836796
Si Si3 0.508354 0.124351 0.319768
Si Si4 0.010903 0.224537 0.406706
Si Si5 0.953913 0.280104 0.153420
Si Si6 0.131562 0.260354 0.917567
Si Si7 0.815113 0.564272 0.322174
Si Si8 0.693980 0.476191 0.587033
O O1 0.112935 0.583892 0.145579
O O2 0.264895 0.115777 0.151057
O O3 0.400984 0.048523 0.186875
O O4 0.171222 0.799105 0.955783
O O5 0.743809 0.691467 0.691457
O O6 0.764764 0.600438 0.930761
O O7 0.979179 0.105888 0.895866
O O8 0.646739 0.260089 0.311292
O O9 0.592487 0.375474 0.440484
O O10 0.403859 0.822778 0.364943
O O11 0.066134 0.353929 0.551978
O O12 0.157232 0.372877 0.404889
O O13 0.968229 0.309287 0.294409
O O14 0.876625 0.860483 0.364093
O O15 0.911478 0.009614 0.121187
O O16 0.185176 0.441043 0.814275
#
# Coordination Sequence:
#
# PCOD9072130 Si02
#       8
#     2   2   2   2   2   2   2   2
#     4  10  19  29  49  80 104 129 165 206 256 293
#     4  10  18  30  52  74 103 132 165 210 244 299
#     4  10  20  32  51  79 100 130 168 210 249 294
#     4   9  15  30  54  76  93 126 176 213 232 280
#     4   9  16  31  51  73  99 129 173 209 230 288
#     4   9  17  32  52  77  96 130 177 205 242 289
#     4   9  17  29  53  79  96 125 172 215 239 286
#     4  10  18  33  54  74  99 134 172 208 241 289
#
# _framework density 20.219577999999998
#
# number of rings (size 3 to 8) (size 9 to 14) (size 15 to 20)
#    0.000    2.500    3.750    0.000    0.000    0.500 
#    0.000    6.250    0.000    3.750    0.000    0.000 
#    0.000    0.000    0.000    0.000    0.000    0.000 
#
# Total GULP energy -89136.956399 kJ/mol
# GULP energy per Si atom -5571.059775 kJ/mol
# Density = 2.017356 g / cm^3
# Si number density = 20.219578 Si / 1000 Ang^3
#
#
#
# Elastic Constant Matrix: (Units=GPa)
#
#
# Indices 1 2 3 4 5 6 
#
# 1 16.2341 -0.0196 12.4766 3.6608 3.2288 1.8874
# 2 -0.0196 48.6529 10.0320 -8.5207 0.7195 10.2896
# 3 12.4766 10.0320 130.4705 -19.3755 13.2112 -1.7944
# 4 3.6608 -8.5207 -19.3755 33.8731 5.8111 -1.3045
# 5 3.2288 0.7195 13.2112 5.8111 30.2380 -0.7180
# 6 1.8874 10.2896 -1.7944 -1.3045 -0.7180 13.3063
#
#
#
# Elastic Compliance Matrix: (Units=1/GPa)
#
#
# Indices 1 2 3 4 5 6 
#
# 1 0.073692 0.002962 -0.009194 -0.012753 -0.001836 -0.015332
# 2 0.002962 0.026085 -0.001703 0.004753 -0.001592 -0.020441
# 3 -0.009194 -0.001703 0.010335 0.007477 -0.004824 0.004487
# 4 -0.012753 0.004753 0.007477 0.038056 -0.009275 0.002372
# 5 -0.001836 -0.001592 -0.004824 -0.009275 0.037241 0.001941
# 6 -0.015332 -0.020441 0.004487 0.002372 0.001941 0.094076
#
#
# Mechanical properties :
#
#
# Convention : Reuss Voigt Hill
#
# Bulk Modulus (GPa) = 10.61099 26.70393 18.65746
# Shear Modulus (GPa) = 15.30136 27.00807 21.15471
#
# Velocity S-wave (km/s) = 2.75391 3.65874 3.23809
# Velocity P-wave (km/s) = 3.92063 5.57532 4.81952
#
# Compressibility (1/GPa) = 0.09424192
#
# Stress axis : x y z
#
# Youngs Moduli (GPa) = 13.57007 38.33607 96.75628
#
# Poissons Ratio (x) = -0.11353 0.88954
# Poissons Ratio (y) = -0.04019 0.16477
# Poissons Ratio (z) = 0.12476 0.06529
#
# Static dielectric constant tensor:
#      x y z
#    x 1.690510 -0.032560 -0.006080 
#    y -0.032560 1.730350 -0.007580 
#    z -0.006080 -0.007580 1.832050 
# 
# From -- ./inp_files/238949.got.cif
#   From: 2010.05.17/outbox.cif.g08.bks.cpg/sg2_120_cif.got.tgz:238949.got - 2010.06.03 11:33:40.
