data_PCOD9072298
_publ_section_title
;
Structure prediction by ZEFSAII (Michael W. Deem and Ramdas Pophale) SiO2 
 PCOD9072298
Probable space group: P -1
;
_chemical_formula_sum "Si O2"
_cell_formula_units_Z 16
_cell_length_a 11.576319
_cell_length_b 15.311656
_cell_length_c 10.001679
_cell_angle_alpha 135.921456
_cell_angle_beta 84.188009
_cell_angle_gamma 123.277365
_cell_volume 890.716222
_symmetry_space_group_name_H-M "P -1"
_symmetry_group_IT_number 2
_symmetry_cell_setting 'triclinic'
loop_
_space_group_symop_operation_xyz
x,y,z
-x,-y,-z
loop_
_atom_site_type_symbol
_atom_site_label
_atom_site_fract_x
_atom_site_fract_y
_atom_site_fract_z
Si Si1 0.931141 0.751281 0.144103
Si Si2 0.407362 0.417142 0.060162
Si Si3 0.377682 0.811289 0.876487
Si Si4 0.777922 0.091457 0.865226
Si Si5 0.494988 0.781755 0.106423
Si Si6 0.248587 0.643270 0.223427
Si Si7 0.199766 0.874532 0.406758
Si Si8 0.548529 0.283647 0.478524
O O1 0.048819 0.840963 0.101142
O O2 0.046755 0.849786 0.368323
O O3 0.779712 0.726535 0.115914
O O4 0.863079 0.558808 0.955948
O O5 0.433246 0.560278 0.303634
O O6 0.500000 0.500000 0.000000
O O7 0.469853 0.340051 0.040107
O O8 0.359623 0.687252 0.634821
O O9 0.230171 0.790387 0.913558
O O10 0.450088 0.809227 0.001367
O O11 0.500000 0.000000 0.000000
O O12 0.739659 0.101054 0.726114
O O13 0.637634 0.892753 0.706299
O O14 0.353722 0.696030 0.136866
O O15 0.656460 0.961662 0.345850
O O16 0.158829 0.708223 0.288631
O O17 0.372972 0.740383 0.438519
#
# Coordination Sequence:
#
# PCOD9072298 Si02
#       8
#     2   2   2   2   2   2   2   2
#     4   9  20  32  53  85 116 140 172 234 283 316
#     4  11  21  37  55  81 114 146 189 226 262 331
#     4  10  21  35  58  85 109 143 185 229 278 328
#     4   9  17  34  55  82 110 140 175 228 280 318
#     4  12  20  34  59  82 110 148 189 222 269 327
#     4  11  17  33  56  84 111 138 182 235 273 326
#     4  10  18  30  54  84 108 135 179 229 281 312
#     4  10  20  36  55  82 111 151 181 223 273 322
#
# _framework density 17.963072
#
# number of rings (size 3 to 8) (size 9 to 14) (size 15 to 20)
#    0.750    1.000    5.000    2.250    0.000    1.000 
#    0.000    2.500    0.000    9.000    0.000    0.000 
#    0.000    0.000    0.000    0.000    0.000    0.000 
#
# Total GULP energy -89087.782010 kJ/mol
# GULP energy per Si atom -5567.986376 kJ/mol
# Density = 1.792219 g / cm^3
# Si number density = 17.963072 Si / 1000 Ang^3
#
#
#
# Elastic Constant Matrix: (Units=GPa)
#
#
# Indices 1 2 3 4 5 6 
#
# 1 88.9641 16.7030 15.4933 -11.8914 4.0603 6.2824
# 2 16.7030 47.0135 15.0758 -13.6213 6.7078 1.5726
# 3 15.4933 15.0758 64.8524 -13.6053 -14.6812 8.7935
# 4 -11.8914 -13.6213 -13.6053 28.5780 5.3269 -3.1812
# 5 4.0603 6.7078 -14.6812 5.3269 19.5433 7.3195
# 6 6.2824 1.5726 8.7935 -3.1812 7.3195 25.6134
#
#
#
# Elastic Compliance Matrix: (Units=1/GPa)
#
#
# Indices 1 2 3 4 5 6 
#
# 1 0.012893 -0.001526 -0.003168 0.004223 -0.005756 0.000189
# 2 -0.001526 0.035070 -0.013199 0.017223 -0.031538 0.013904
# 3 -0.003168 -0.013199 0.029139 -0.002270 0.034665 -0.018604
# 4 0.004223 0.017223 -0.002270 0.050305 -0.026936 0.012631
# 5 -0.005756 -0.031538 0.034665 -0.026936 0.113137 -0.044229
# 6 0.000189 0.013904 -0.018604 0.012631 -0.044229 0.058738
#
#
# Mechanical properties :
#
#
# Convention : Reuss Voigt Hill
#
# Bulk Modulus (GPa) = 24.20480 32.81934 28.51207
# Shear Modulus (GPa) = 14.33326 24.98412 19.65869
#
# Velocity S-wave (km/s) = 2.82783 3.73347 3.31175
# Velocity P-wave (km/s) = 4.91591 6.07414 5.52546
#
# Compressibility (1/GPa) = 0.04131412
#
# Stress axis : x y z
#
# Youngs Moduli (GPa) = 77.56389 28.51434 34.31866
#
# Poissons Ratio (x) = 0.04352 0.10872
# Poissons Ratio (y) = 0.11837 0.45299
# Poissons Ratio (z) = 0.24572 0.37637
#
# Static dielectric constant tensor:
#      x y z
#    x 1.648050 0.014650 -0.001410 
#    y 0.014650 1.607240 0.020200 
#    z -0.001410 0.020200 1.644290 
# 
# From -- ./inp_files/271096.got.cif
#   From: 2010.05.17/outbox.cif.g08.bks.cpg/sg2_136_cif.got.tgz:271096.got - 2010.06.03 11:33:40.
