data_PCOD9072793
_publ_section_title
;
Structure prediction by ZEFSAII (Michael W. Deem and Ramdas Pophale) SiO2 
 PCOD9072793
Probable space group: P -1
;
_chemical_formula_sum "Si O2"
_cell_formula_units_Z 16
_cell_length_a 18.000000
_cell_length_b 18.000000
_cell_length_c 9.000000
_cell_angle_alpha 50.000000
_cell_angle_beta 50.000000
_cell_angle_gamma 20.000000
_cell_volume 755.591058
_symmetry_space_group_name_H-M "P -1"
_symmetry_group_IT_number 2
_symmetry_cell_setting 'triclinic'
loop_
_space_group_symop_operation_xyz
x,y,z
-x,-y,-z
loop_
_atom_site_type_symbol
_atom_site_label
_atom_site_fract_x
_atom_site_fract_y
_atom_site_fract_z
Si Si1 0.874918 0.264371 0.054477
Si Si2 0.993296 0.187385 0.669620
Si Si3 0.728386 0.614214 0.483137
Si Si4 0.248726 0.996099 0.148415
Si Si5 0.670079 0.974067 0.702526
Si Si6 0.897964 0.587587 0.851244
Si Si7 0.654053 0.664042 0.852434
Si Si8 0.861020 0.080131 0.438207
O O1 0.769486 0.256767 0.246324
O O2 0.987358 0.152645 0.890539
O O3 0.707131 0.503341 0.965143
O O4 0.048020 0.143395 0.113492
O O5 0.793425 0.443369 0.596655
O O6 0.199598 0.073126 0.519463
O O7 0.003975 0.100811 0.630911
O O8 0.642286 0.712019 0.635590
O O9 0.936899 0.496268 0.350693
O O10 0.577311 0.774187 0.330976
O O11 0.301169 0.852164 0.364111
O O12 0.225338 0.096228 0.180921
O O13 0.430215 0.870644 0.964428
O O14 0.687013 0.846381 0.806371
O O15 0.830366 0.556111 0.877657
O O16 0.000000 0.500000 0.000000
O O17 0.000000 0.000000 0.500000
#
# Coordination Sequence:
#
# PCOD9072793 Si02
#       8
#     2   2   2   2   2   2   2   2
#     4  10  20  37  58  81 113 148 186 230 278 327
#     4   9  19  37  59  83 112 146 185 229 275 329
#     4  10  22  39  58  83 113 146 186 228 277 330
#     4  10  21  36  56  83 112 145 187 229 276 330
#     4  10  21  37  58  83 113 149 184 228 277 327
#     4  11  23  38  58  84 113 146 187 229 276 330
#     4  11  23  37  57  83 112 149 187 230 276 328
#     4   9  19  35  58  84 112 147 183 228 280 328
#
# _framework density 21.175476
#
# number of rings (size 3 to 8) (size 9 to 14) (size 15 to 20)
#    0.000    2.000    0.000    3.000    0.000    8.000 
#    0.000    3.750    0.000   13.500    0.000    0.000 
#    0.000    0.000    0.000    0.000    0.000    0.000 
#
# Total GULP energy -89079.739053 kJ/mol
# GULP energy per Si atom -5567.483691 kJ/mol
# Density = 2.112728 g / cm^3
# Si number density = 21.175476 Si / 1000 Ang^3
#
#
#
# Elastic Constant Matrix: (Units=GPa)
#
#
# Indices 1 2 3 4 5 6 
#
# 1 92.3604 -0.0765 1.2833 -7.8242 5.9769 25.9539
# 2 -0.0765 16.0256 -0.2069 -7.6442 -3.7333 3.5320
# 3 1.2833 -0.2069 66.9367 7.3975 8.0450 16.5359
# 4 -7.8242 -7.6442 7.3975 24.2842 4.7188 3.5444
# 5 5.9769 -3.7333 8.0450 4.7188 35.5973 -3.1069
# 6 25.9539 3.5320 16.5359 3.5444 -3.1069 28.5943
#
#
#
# Elastic Compliance Matrix: (Units=1/GPa)
#
#
# Indices 1 2 3 4 5 6 
#
# 1 0.018848 0.009595 0.004926 0.012364 -0.006955 -0.023430
# 2 0.009595 0.083173 0.002543 0.032029 0.000161 -0.024406
# 3 0.004926 0.002543 0.019819 0.000096 -0.006533 -0.016968
# 4 0.012364 0.032029 0.000096 0.060383 -0.008809 -0.023676
# 5 -0.006955 0.000161 -0.006533 -0.008809 0.033210 0.014772
# 6 -0.023430 -0.024406 -0.016968 -0.023676 0.014772 0.073605
#
#
# Mechanical properties :
#
#
# Convention : Reuss Voigt Hill
#
# Bulk Modulus (GPa) = 6.41159 19.70249 13.05704
# Shear Modulus (GPa) = 16.29194 29.31669 22.80432
#
# Velocity S-wave (km/s) = 2.77678 3.72488 3.28521
# Velocity P-wave (km/s) = 3.64898 5.27486 4.53537
#
# Compressibility (1/GPa) = 0.15596762
#
# Stress axis : x y z
#
# Youngs Moduli (GPa) = 53.05609 12.02314 50.45582
#
# Poissons Ratio (x) = -0.11536 -0.24854
# Poissons Ratio (y) = -0.50905 -0.12832
# Poissons Ratio (z) = -0.26135 -0.03058
#
# Static dielectric constant tensor:
#      x y z
#    x 1.726720 0.014510 -0.008350 
#    y 0.014510 1.821900 -0.025480 
#    z -0.008350 -0.025480 1.808830 
# 
# From -- ./inp_files/38082.got.cif
#   From: 2010.05.17/outbox.ucp.g08.bks.cvg/sg2_20_cif.got.tgz:38082.got - 2010.06.11 11:32:03.
