data_PCOD9072610
_publ_section_title
;
Structure prediction by ZEFSAII (Michael W. Deem and Ramdas Pophale) SiO2 
 PCOD9072610
Probable space group: P -1
;
_chemical_formula_sum "Si O2"
_cell_formula_units_Z 16
_cell_length_a 9.000000
_cell_length_b 9.000000
_cell_length_c 15.000000
_cell_angle_alpha 80.000000
_cell_angle_beta 110.000000
_cell_angle_gamma 50.000000
_cell_volume 732.374747
_symmetry_space_group_name_H-M "P -1"
_symmetry_group_IT_number 2
_symmetry_cell_setting 'triclinic'
loop_
_space_group_symop_operation_xyz
x,y,z
-x,-y,-z
loop_
_atom_site_type_symbol
_atom_site_label
_atom_site_fract_x
_atom_site_fract_y
_atom_site_fract_z
Si Si1 0.896098 0.948973 0.775451
Si Si2 0.060358 0.636975 0.014096
Si Si3 0.462527 0.506668 0.385970
Si Si4 0.929847 0.446078 0.657049
Si Si5 0.646335 0.231376 0.178837
Si Si6 0.732032 0.923237 0.087123
Si Si7 0.756632 0.890823 0.575679
Si Si8 0.022229 0.158289 0.550665
O O1 0.760016 0.966211 0.664188
O O2 0.943257 0.818485 0.888727
O O3 0.169178 0.768746 0.809585
O O4 0.728550 0.225920 0.719362
O O5 0.353232 0.453342 0.109116
O O6 0.000000 0.500000 0.000000
O O7 0.919894 0.791918 0.057982
O O8 0.500000 0.500000 0.500000
O O9 0.308192 0.462266 0.356606
O O10 0.750675 0.305380 0.442065
O O11 0.933661 0.621075 0.638576
O O12 0.146640 0.245350 0.786693
O O13 0.960617 0.353851 0.574589
O O14 0.659881 0.130401 0.098114
O O15 0.803000 0.049964 0.315449
O O16 0.500000 0.000000 0.000000
O O17 0.826267 0.934422 0.498615
O O18 0.500000 0.000000 0.500000
#
# Coordination Sequence:
#
# PCOD9072610 Si02
#       8
#     2   2   2   2   2   2   2   2
#     4  12  26  48  70 106 147 183 237 302 353 430
#     4  12  27  46  74 107 146 188 241 303 358 419
#     4  10  19  46  70  96 138 183 227 291 355 424
#     4  10  22  44  67  99 141 178 235 293 348 431
#     4  11  25  50  71 104 147 187 240 303 352 431
#     4  11  23  43  75 100 136 197 237 288 363 419
#     4  12  27  39  67 106 140 183 232 289 359 423
#     4  10  23  43  73  99 140 187 234 288 365 429
#
# _framework density 21.846738999999999
#
# number of rings (size 3 to 8) (size 9 to 14) (size 15 to 20)
#    0.000    1.000    5.000    3.000    3.500    3.000 
#    0.000    0.000    0.000    0.000    0.000    0.000 
#    0.000    0.000    0.000    0.000    0.000    0.000 
#
# Total GULP energy -89126.001773 kJ/mol
# GULP energy per Si atom -5570.375111 kJ/mol
# Density = 2.179701 g / cm^3
# Si number density = 21.846739 Si / 1000 Ang^3
#
#
#
# Elastic Constant Matrix: (Units=GPa)
#
#
# Indices 1 2 3 4 5 6 
#
# 1 33.5916 27.2245 14.7159 -34.1257 12.8786 6.7585
# 2 27.2245 87.9325 17.4644 0.4103 -5.1884 -9.4444
# 3 14.7159 17.4644 81.9833 -18.1429 13.2079 8.2474
# 4 -34.1257 0.4103 -18.1429 28.7937 0.7573 14.9906
# 5 12.8786 -5.1884 13.2079 0.7573 56.4849 -10.7289
# 6 6.7585 -9.4444 8.2474 14.9906 -10.7289 35.6045
#
#
#
# Elastic Compliance Matrix: (Units=1/GPa)
#
#
# Indices 1 2 3 4 5 6 
#
# 1 -0.009302 0.007844 -0.010029 -0.028720 0.009589 0.021151
# 2 0.007844 0.008054 0.000552 0.012414 -0.002374 -0.005422
# 3 -0.010029 0.000552 0.013054 -0.003917 -0.000567 0.000505
# 4 -0.028720 0.012414 -0.003917 -0.011810 0.012241 0.018313
# 5 0.009589 -0.002374 -0.000567 0.012241 0.014689 -0.003046
# 6 0.021151 -0.005422 0.000505 0.018313 -0.003046 0.013888
#
#
# Mechanical properties :
#
#
# Convention : Reuss Voigt Hill
#
# Bulk Modulus (GPa) = 117.13559 35.81299 76.47429
# Shear Modulus (GPa) = 144.14248 33.78346 88.96297
#
# Velocity S-wave (km/s) = 8.13155 3.93668 6.38825
# Velocity P-wave (km/s) = 11.91202 6.09029 9.46012
#
# Compressibility (1/GPa) = 0.00853711
#
# Stress axis : x y z
#
# Youngs Moduli (GPa) = -107.50115 124.16169 76.60470
#
# Poissons Ratio (x) = -0.97387 0.76831
# Poissons Ratio (y) = 0.84319 -0.04225
# Poissons Ratio (z) = -1.07818 -0.06848
#
# Static dielectric constant tensor:
#      x y z
#    x 1.886300 0.050570 0.006740 
#    y 0.050570 2.126630 -0.168000 
#    z 0.006740 -0.168000 1.842250 
# 
# From -- ./inp_files/494917.got.cif
#   From: 2010.05.17/outbox.ucp.g08.bks.cvg/sg2_248_cif.got.tgz:494917.got - 2010.06.11 11:32:03.
