data_PCOD9072458
_publ_section_title
;
Structure prediction by ZEFSAII (Michael W. Deem and Ramdas Pophale) SiO2 
 PCOD9072458
Probable space group: P -1
;
_chemical_formula_sum "Si O2"
_cell_formula_units_Z 16
_cell_length_a 12.000000
_cell_length_b 15.000000
_cell_length_c 12.000000
_cell_angle_alpha 150.000000
_cell_angle_beta 130.000000
_cell_angle_gamma 60.000000
_cell_volume 818.222392
_symmetry_space_group_name_H-M "P -1"
_symmetry_group_IT_number 2
_symmetry_cell_setting 'triclinic'
loop_
_space_group_symop_operation_xyz
x,y,z
-x,-y,-z
loop_
_atom_site_type_symbol
_atom_site_label
_atom_site_fract_x
_atom_site_fract_y
_atom_site_fract_z
Si Si1 0.307473 0.359039 0.407056
Si Si2 0.213855 0.418992 0.845983
Si Si3 0.129049 0.593849 0.397366
Si Si4 0.628561 0.467585 0.134543
Si Si5 0.393836 0.077904 0.853122
Si Si6 0.425970 0.120818 0.673416
Si Si7 0.356527 0.491771 0.250370
Si Si8 0.287435 0.960095 0.886448
O O1 0.188547 0.473025 0.401612
O O2 0.327002 0.390178 0.585513
O O3 0.473897 0.417348 0.528299
O O4 0.262776 0.153412 0.122828
O O5 0.241735 0.527533 0.865412
O O6 0.284605 0.227463 0.669726
O O7 0.042050 0.423682 0.764066
O O8 0.306209 0.508036 0.107471
O O9 0.238747 0.561334 0.331015
O O10 0.168285 0.801655 0.680818
O O11 0.500000 0.500000 0.000000
O O12 0.560325 0.285227 0.956030
O O13 0.389464 0.018650 0.656803
O O14 0.294594 0.967135 0.763496
O O15 0.354339 0.279645 0.042685
O O16 0.557078 0.079193 0.007388
O O17 0.500000 0.000000 0.500000
#
# Coordination Sequence:
#
# PCOD9072458 Si02
#       8
#     2   2   2   2   2   2   2   2
#     4  12  22  40  70  92 127 167 224 259 306 383
#     4  10  24  42  63  94 130 167 212 256 330 375
#     4  12  24  42  62  96 139 165 201 269 323 376
#     4  10  20  41  65  90 119 166 219 259 313 373
#     4  10  19  37  59  97 121 154 223 258 301 368
#     4  10  21  39  66  93 120 163 218 267 302 374
#     4  11  19  41  67  92 127 173 208 267 305 378
#     4  11  23  35  64  96 126 166 207 261 323 368
#
# _framework density 19.554586
#
# number of rings (size 3 to 8) (size 9 to 14) (size 15 to 20)
#    0.000    1.250    6.250    2.250    3.500    1.500 
#    2.250    3.125    0.000    0.000    0.000    0.000 
#    0.000    0.000    0.000    0.000    0.000    0.000 
#
# Total GULP energy -89172.197574 kJ/mol
# GULP energy per Si atom -5573.262348 kJ/mol
# Density = 1.951008 g / cm^3
# Si number density = 19.554586 Si / 1000 Ang^3
#
#
#
# Elastic Constant Matrix: (Units=GPa)
#
#
# Indices 1 2 3 4 5 6 
#
# 1 59.4191 40.0228 23.7828 0.1945 -22.3599 -5.9804
# 2 40.0228 100.7332 36.1660 -4.9236 -5.9655 -0.4886
# 3 23.7828 36.1660 64.8826 5.3955 -13.9713 -5.1125
# 4 0.1945 -4.9236 5.3955 25.7954 5.6575 -3.2935
# 5 -22.3599 -5.9655 -13.9713 5.6575 28.5081 -11.1952
# 6 -5.9804 -0.4886 -5.1125 -3.2935 -11.1952 34.5133
#
#
#
# Elastic Compliance Matrix: (Units=1/GPa)
#
#
# Indices 1 2 3 4 5 6 
#
# 1 0.047386 -0.018770 0.006328 -0.012827 0.048008 0.023231
# 2 -0.018770 0.020418 -0.010886 0.009755 -0.021948 -0.010764
# 3 0.006328 -0.010886 0.025543 -0.010830 0.021548 0.010682
# 4 -0.012827 0.009755 -0.010830 0.047678 -0.025728 -0.007484
# 5 0.048008 -0.021948 0.021548 -0.025728 0.099974 0.041174
# 6 0.023231 -0.010764 0.010682 -0.007484 0.041174 0.047071
#
#
# Mechanical properties :
#
#
# Convention : Reuss Voigt Hill
#
# Bulk Modulus (GPa) = 21.41778 47.21979 34.31879
# Shear Modulus (GPa) = 14.27385 26.10091 20.18738
#
# Velocity S-wave (km/s) = 2.70469 3.65742 3.21652
# Velocity P-wave (km/s) = 4.55306 6.48349 5.60206
#
# Compressibility (1/GPa) = 0.04669018
#
# Stress axis : x y z
#
# Youngs Moduli (GPa) = 21.10340 48.97572 39.14913
#
# Poissons Ratio (x) = 0.91929 -0.24774
# Poissons Ratio (y) = 0.39612 0.42620
# Poissons Ratio (z) = -0.13354 0.53317
#
# Static dielectric constant tensor:
#      x y z
#    x 1.749390 0.027510 -0.002770 
#    y 0.027510 1.700670 0.021330 
#    z -0.002770 0.021330 1.734100 
# 
# From -- ./inp_files/433585.got.cif
#   From: 2010.05.17/outbox.ucp.g08.bks.cvg/sg2_217_cif.got.tgz:433585.got - 2010.06.11 11:32:03.
