data_PCOD9072286
_publ_section_title
;
Structure prediction by ZEFSAII (Michael W. Deem and Ramdas Pophale) SiO2 
 PCOD9072286
Probable space group: P -1
;
_chemical_formula_sum "Si O2"
_cell_formula_units_Z 13
_cell_length_a 8.940931
_cell_length_b 13.323026
_cell_length_c 17.033361
_cell_angle_alpha 155.386231
_cell_angle_beta 44.775896
_cell_angle_gamma 144.273078
_cell_volume 490.140849
_symmetry_space_group_name_H-M "P -1"
_symmetry_group_IT_number 2
_symmetry_cell_setting 'triclinic'
loop_
_space_group_symop_operation_xyz
x,y,z
-x,-y,-z
loop_
_atom_site_type_symbol
_atom_site_label
_atom_site_fract_x
_atom_site_fract_y
_atom_site_fract_z
Si Si1 0.780415 0.506546 0.229649
Si Si2 0.495311 0.781928 0.724283
Si Si3 0.801452 0.341205 0.531228
Si Si4 0.941615 0.949126 0.257403
Si Si5 0.351547 0.010104 0.352146
Si Si6 0.507264 0.426572 0.127745
Si Si7 0.500000 0.500000 0.000000
O O1 0.715584 0.327409 0.207033
O O2 0.716648 0.749068 0.443773
O O3 0.581208 0.314958 0.096773
O O4 0.083036 0.692226 0.227395
O O5 0.500000 0.500000 0.500000
O O6 0.495781 0.912029 0.731883
O O7 0.780315 0.983689 0.798280
O O8 0.922447 0.226055 0.463002
O O9 0.531350 0.067000 0.400335
O O10 0.723265 0.543742 0.741280
O O11 0.000000 0.500000 0.500000
O O12 0.779749 0.750775 0.250440
O O13 0.787055 0.773038 0.112934
O O14 0.467658 0.361237 0.003640
#
# Coordination Sequence:
#
# PCOD9072286 Si02
#       7
#     2   2   2   2   2   2   1
#     4   9  16  29  52  76 104 144 183 224 271 325
#     4  10  18  30  54  80 110 142 185 231 276 330
#     4  11  21  33  52  86 118 140 180 238 289 330
#     4  10  19  36  55  83 112 146 183 229 281 329
#     4   9  17  31  46  76 113 137 176 225 280 334
#     4   9  18  35  55  80 109 145 187 227 275 326
#     4   8  20  34  58  76 112 156 188 220 274 336
#
# _framework density 26.522988000000002
#
# number of rings (size 3 to 8) (size 9 to 14) (size 15 to 20)
#    0.923    1.538    1.538    3.231    2.154    0.000 
#    2.769    3.077    0.000    3.692    0.000   14.000 
#    0.000    0.000    0.000    0.000    0.000    0.000 
#
# Total GULP energy -72442.711211 kJ/mol
# GULP energy per Si atom -5572.516247 kJ/mol
# Density = 2.646262 g / cm^3
# Si number density = 26.522988 Si / 1000 Ang^3
#
#
#
# Elastic Constant Matrix: (Units=GPa)
#
#
# Indices 1 2 3 4 5 6 
#
# 1 170.6811 44.3372 32.9727 -9.9705 4.5393 -13.9837
# 2 44.3372 105.8186 11.3941 -18.7780 0.5185 -25.0492
# 3 32.9727 11.3941 70.2800 -17.0240 20.3066 1.0764
# 4 -9.9705 -18.7780 -17.0240 29.3361 0.7137 9.3219
# 5 4.5393 0.5185 20.3066 0.7137 42.9233 -11.8295
# 6 -13.9837 -25.0492 1.0764 9.3219 -11.8295 46.0177
#
#
#
# Elastic Compliance Matrix: (Units=1/GPa)
#
#
# Indices 1 2 3 4 5 6 
#
# 1 0.007284 -0.002585 -0.004025 -0.002116 0.001686 0.001762
# 2 -0.002585 0.012805 -0.000068 0.005501 0.001568 0.005475
# 3 -0.004025 -0.000068 0.023883 0.015446 -0.013445 -0.008404
# 4 -0.002116 0.005501 0.015446 0.049575 -0.010971 -0.010873
# 5 0.001686 0.001568 -0.013445 -0.010971 0.033061 0.012402
# 6 0.001762 0.005475 -0.008404 -0.010873 0.012402 0.030834
#
#
# Mechanical properties :
#
#
# Convention : Reuss Voigt Hill
#
# Bulk Modulus (GPa) = 32.66189 58.24308 45.45248
# Shear Modulus (GPa) = 27.62394 40.86047 34.24220
#
# Velocity S-wave (km/s) = 3.23074 3.92927 3.59700
# Velocity P-wave (km/s) = 5.12428 6.52630 5.86732
#
# Compressibility (1/GPa) = 0.03061672
#
# Stress axis : x y z
#
# Youngs Moduli (GPa) = 137.28953 78.09414 41.87061
#
# Poissons Ratio (x) = 0.20188 0.16852
# Poissons Ratio (y) = 0.35490 0.00284
# Poissons Ratio (z) = 0.55257 0.00529
#
# Static dielectric constant tensor:
#      x y z
#    x 2.068780 -0.016220 -0.041940 
#    y -0.016220 1.998290 0.090790 
#    z -0.041940 0.090790 2.347720 
# 
# From -- ./inp_files/373498.got.cif
#   From: 2010.05.17/outbox.cif.g08.bks.cpg/sg2_187_cif.got.tgz:373498.got - 2010.06.03 11:33:40.
