data_PCOD9072667
_publ_section_title
;
Structure prediction by ZEFSAII (Michael W. Deem and Ramdas Pophale) SiO2 
 PCOD9072667
Probable space group: P -1
;
_chemical_formula_sum "Si O2"
_cell_formula_units_Z 14
_cell_length_a 9.788233
_cell_length_b 8.542739
_cell_length_c 15.347416
_cell_angle_alpha 137.082972
_cell_angle_beta 143.275835
_cell_angle_gamma 56.805350
_cell_volume 520.074515
_symmetry_space_group_name_H-M "P -1"
_symmetry_group_IT_number 2
_symmetry_cell_setting 'triclinic'
loop_
_space_group_symop_operation_xyz
x,y,z
-x,-y,-z
loop_
_atom_site_type_symbol
_atom_site_label
_atom_site_fract_x
_atom_site_fract_y
_atom_site_fract_z
Si Si1 0.524340 0.225247 0.893338
Si Si2 0.626464 0.551066 0.780958
Si Si3 0.762955 0.068944 0.660785
Si Si4 0.953416 0.362495 0.076544
Si Si5 0.117855 0.106223 0.735310
Si Si6 0.728607 0.259421 0.196785
Si Si7 0.158884 0.369005 0.376873
O O1 0.638513 0.167132 0.019823
O O2 0.715611 0.200750 0.907369
O O3 0.500000 0.500000 0.000000
O O4 0.266931 0.096186 0.719542
O O5 0.763053 0.335767 0.792605
O O6 0.838424 0.701507 0.904853
O O7 0.476372 0.626315 0.814478
O O8 0.415383 0.480772 0.575873
O O9 0.852615 0.034485 0.594034
O O10 0.500000 0.000000 0.500000
O O11 0.859355 0.894885 0.706547
O O12 0.083182 0.389788 0.248131
O O13 0.878552 0.621662 0.129003
O O14 0.221360 0.944096 0.794499
O O15 0.947506 0.444441 0.359336
#
# Coordination Sequence:
#
# PCOD9072667 Si02
#       7
#     2   2   2   2   2   2   2
#     4   9  18  34  52  68  92 131 167 193 234 295
#     4  10  18  31  49  76 101 122 158 207 241 272
#     4   8  16  30  50  71  95 127 162 192 234 291
#     4   9  18  32  50  71  96 130 165 194 232 288
#     4   9  17  32  51  69  94 132 165 189 233 298
#     4  10  19  31  51  75  96 124 162 203 240 279
#     4   9  17  32  51  70  98 134 161 188 237 295
#
# _framework density 26.919217
#
# number of rings (size 3 to 8) (size 9 to 14) (size 15 to 20)
#    0.000    2.857    0.000    1.286    0.000    0.000 
#    0.000   12.143    0.000    0.000    0.000    0.000 
#    0.000    0.000    0.000    0.000    0.000    0.000 
#
# Total GULP energy -78056.285218 kJ/mol
# GULP energy per Si atom -5575.448944 kJ/mol
# Density = 2.685795 g / cm^3
# Si number density = 26.919217 Si / 1000 Ang^3
#
#
#
# Elastic Constant Matrix: (Units=GPa)
#
#
# Indices 1 2 3 4 5 6 
#
# 1 212.1308 37.7390 56.4332 -7.7504 72.6708 -20.6484
# 2 37.7390 113.2538 4.1860 -16.8480 -1.8983 3.1958
# 3 56.4332 4.1860 96.7554 -18.0940 48.0570 -5.7530
# 4 -7.7504 -16.8480 -18.0940 23.3946 -6.2695 6.9962
# 5 72.6708 -1.8983 48.0570 -6.2695 70.8232 -5.7157
# 6 -20.6484 3.1958 -5.7530 6.9962 -5.7157 30.9010
#
#
#
# Elastic Compliance Matrix: (Units=1/GPa)
#
#
# Indices 1 2 3 4 5 6 
#
# 1 0.009090 -0.004032 -0.001595 -0.005096 -0.008336 0.005806
# 2 -0.004032 0.012010 0.001701 0.011298 0.003864 -0.005463
# 3 -0.001595 0.001701 0.018358 0.013036 -0.009830 -0.002594
# 4 -0.005096 0.011298 0.013036 0.064511 0.001060 -0.016556
# 5 -0.008336 0.003864 -0.009830 0.001060 0.029329 -0.002615
# 6 0.005806 -0.005463 -0.002594 -0.016556 -0.002615 0.039588
#
#
# Mechanical properties :
#
#
# Convention : Reuss Voigt Hill
#
# Bulk Modulus (GPa) = 31.63934 68.76183 50.20058
# Shear Modulus (GPa) = 26.14045 46.60922 36.37483
#
# Velocity S-wave (km/s) = 3.11958 4.16558 3.67994
# Velocity P-wave (km/s) = 4.97541 6.98107 6.06176
#
# Compressibility (1/GPa) = 0.03160622
#
# Stress axis : x y z
#
# Youngs Moduli (GPa) = 110.00806 83.26387 54.47163
#
# Poissons Ratio (x) = 0.33570 0.08689
# Poissons Ratio (y) = 0.44353 -0.09264
# Poissons Ratio (z) = 0.17547 -0.14161
#
# Static dielectric constant tensor:
#      x y z
#    x 2.234440 -0.095640 -0.000290 
#    y -0.095640 2.255930 0.059280 
#    z -0.000290 0.059280 2.315470 
# 
# From -- ./inp_files/164648.got.cif
#   From: 2010.05.17/outbox.cif.g08.bks.cpg/sg2_83_cif.got.tgz:164648.got - 2010.06.03 11:33:40.
