data_PCOD9072777
_publ_section_title
;
Structure prediction by ZEFSAII (Michael W. Deem and Ramdas Pophale) SiO2 
 PCOD9072777
Probable space group: P -1
;
_chemical_formula_sum "Si O2"
_cell_formula_units_Z 16
_cell_length_a 21.000000
_cell_length_b 9.000000
_cell_length_c 15.000000
_cell_angle_alpha 130.000000
_cell_angle_beta 160.000000
_cell_angle_gamma 50.000000
_cell_volume 734.602417
_symmetry_space_group_name_H-M "P -1"
_symmetry_group_IT_number 2
_symmetry_cell_setting 'triclinic'
loop_
_space_group_symop_operation_xyz
x,y,z
-x,-y,-z
loop_
_atom_site_type_symbol
_atom_site_label
_atom_site_fract_x
_atom_site_fract_y
_atom_site_fract_z
Si Si1 0.300318 0.175002 0.544712
Si Si2 0.082733 0.623749 0.436400
Si Si3 0.755645 0.148050 0.424796
Si Si4 0.277232 0.740967 0.377185
Si Si5 0.713309 0.663282 0.864965
Si Si6 0.631380 0.774353 0.144745
Si Si7 0.610721 0.046715 0.757069
Si Si8 0.162809 0.639829 0.748511
O O1 0.166591 0.388173 0.450675
O O2 0.404450 0.167976 0.775855
O O3 0.447784 0.152606 0.649337
O O4 0.215322 0.966784 0.348302
O O5 0.160854 0.745100 0.505852
O O6 0.131004 0.703515 0.627828
O O7 0.860853 0.662618 0.139036
O O8 0.786635 0.243944 0.597914
O O9 0.795605 0.908534 0.389172
O O10 0.533525 0.179133 0.125285
O O11 0.504174 0.696124 0.644774
O O12 0.224766 0.549616 0.183383
O O13 0.700966 0.840361 0.843842
O O14 0.667088 0.540445 0.099856
O O15 0.500000 0.000000 0.500000
O O16 0.771845 0.194401 0.034961
O O17 0.000000 0.500000 0.500000
#
# Coordination Sequence:
#
# PCOD9072777 Si02
#       8
#     2   2   2   2   2   2   2   2
#     4   9  20  43  64  94 129 174 221 273 330 399
#     4  11  24  41  68 101 131 164 226 292 330 378
#     4  10  20  36  68  94 123 171 223 278 325 396
#     4   9  21  42  65  90 135 182 223 259 337 417
#     4  10  24  41  64  99 133 179 222 272 335 399
#     4   9  20  39  64  93 125 172 222 268 335 397
#     4  11  25  44  68  97 136 183 224 267 333 410
#     4  11  26  42  65  97 138 176 216 280 339 394
#
# _framework density 21.780488999999999
#
# number of rings (size 3 to 8) (size 9 to 14) (size 15 to 20)
#    0.000    2.000    0.000    1.500    7.000    6.500 
#    0.000    0.000    0.000    0.000    0.000    0.000 
#    0.000    0.000    0.000    0.000    0.000    0.000 
#
# Total GULP energy -89173.231284 kJ/mol
# GULP energy per Si atom -5573.326955 kJ/mol
# Density = 2.173092 g / cm^3
# Si number density = 21.780489 Si / 1000 Ang^3
#
#
#
# Elastic Constant Matrix: (Units=GPa)
#
#
# Indices 1 2 3 4 5 6 
#
# 1 91.9689 18.6762 10.0940 12.0611 -5.0717 12.1554
# 2 18.6762 97.6154 27.9709 20.5802 -15.3677 1.5903
# 3 10.0940 27.9709 77.0424 10.6199 -20.9988 5.1297
# 4 12.0611 20.5802 10.6199 37.3759 2.6687 -5.3097
# 5 -5.0717 -15.3677 -20.9988 2.6687 27.8706 2.6583
# 6 12.1554 1.5903 5.1297 -5.3097 2.6583 31.6065
#
#
#
# Elastic Compliance Matrix: (Units=1/GPa)
#
#
# Indices 1 2 3 4 5 6 
#
# 1 0.012601 -0.000972 0.000658 -0.004803 0.003283 -0.005987
# 2 -0.000972 0.013623 -0.001801 -0.007428 0.006865 -0.001845
# 3 0.000658 -0.001801 0.018692 -0.006332 0.014338 -0.005466
# 4 -0.004803 -0.007428 -0.006332 0.036722 -0.014269 0.010618
# 5 0.003283 0.006865 0.014338 -0.014269 0.053465 -0.010829
# 6 -0.005987 -0.001845 -0.005466 0.010618 -0.010829 0.037616
#
#
# Mechanical properties :
#
#
# Convention : Reuss Voigt Hill
#
# Bulk Modulus (GPa) = 24.57888 42.23430 33.40659
# Shear Modulus (GPa) = 26.24522 33.36297 29.80410
#
# Velocity S-wave (km/s) = 3.47506 3.91805 3.70318
# Velocity P-wave (km/s) = 5.23552 6.31673 5.80137
#
# Compressibility (1/GPa) = 0.04068533
#
# Stress axis : x y z
#
# Youngs Moduli (GPa) = 79.36098 73.40405 53.49837
#
# Poissons Ratio (x) = 0.07137 -0.03518
# Poissons Ratio (y) = 0.07716 0.09633
# Poissons Ratio (z) = -0.05219 0.13217
#
# Static dielectric constant tensor:
#      x y z
#    x 1.796960 0.010710 0.073060 
#    y 0.010710 1.890790 0.001280 
#    z 0.073060 0.001280 1.872990 
# 
# From -- ./inp_files/540577.got.cif
#   From: 2010.05.17/outbox.ucp.g08.bks.cvg/sg2_271_cif.got.tgz:540577.got - 2010.06.11 11:32:03.
