data_PCOD9072726
_publ_section_title
;
Structure prediction by ZEFSAII (Michael W. Deem and Ramdas Pophale) SiO2 
 PCOD9072726
Probable space group: P -1
;
_chemical_formula_sum "Si O2"
_cell_formula_units_Z 14
_cell_length_a 14.043238
_cell_length_b 18.675091
_cell_length_c 14.406970
_cell_angle_alpha 39.632075
_cell_angle_beta 20.356372
_cell_angle_gamma 48.212843
_cell_volume 811.515362
_symmetry_space_group_name_H-M "P -1"
_symmetry_group_IT_number 2
_symmetry_cell_setting 'triclinic'
loop_
_space_group_symop_operation_xyz
x,y,z
-x,-y,-z
loop_
_atom_site_type_symbol
_atom_site_label
_atom_site_fract_x
_atom_site_fract_y
_atom_site_fract_z
Si Si1 0.284115 0.080719 0.618039
Si Si2 0.283199 0.502360 0.610362
Si Si3 0.364290 0.640979 0.650309
Si Si4 0.511133 0.158867 0.515887
Si Si5 0.942165 0.999312 0.278222
Si Si6 0.437695 0.752669 0.271394
Si Si7 0.992915 0.898708 0.533777
O O1 0.408510 0.175808 0.487599
O O2 0.205316 0.097355 0.567072
O O3 0.500000 0.000000 0.500000
O O4 0.000000 0.000000 0.000000
O O5 0.500000 0.500000 0.500000
O O6 0.437675 0.449263 0.440621
O O7 0.274520 0.636093 0.483237
O O8 0.966618 0.424575 0.992092
O O9 0.413092 0.724880 0.609886
O O10 0.454151 0.719600 0.397488
O O11 0.771545 0.099099 0.334583
O O12 0.257009 0.064238 0.892646
O O13 0.936254 0.944344 0.439208
O O14 0.275112 0.853582 0.315313
O O15 0.742217 0.793910 0.904833
O O16 0.000000 0.000000 0.500000
#
# Coordination Sequence:
#
# PCOD9072726 Si02
#       7
#     2   2   2   2   2   2   2
#     4   8  16  29  47  67  94 124 154 191 236 279
#     4  10  20  34  50  69  93 125 160 198 241 280
#     4  11  19  32  52  73  94 121 157 204 243 274
#     4  10  18  31  50  74  97 121 154 201 242 274
#     4  10  19  32  46  70 102 131 157 186 228 287
#     4  11  21  34  47  67  97 128 157 190 228 279
#     4  12  22  32  47  70  98 132 160 184 220 279
#
# _framework density 17.251676
#
# number of rings (size 3 to 8) (size 9 to 14) (size 15 to 20)
#    0.000    1.714    0.000    8.143    0.000    0.000 
#    0.000    0.000    0.000    0.000    0.000    6.000 
#    0.000    0.000    0.000    0.000    0.000    0.000 
#
# Total GULP energy -78043.565102 kJ/mol
# GULP energy per Si atom -5574.540364 kJ/mol
# Density = 1.721241 g / cm^3
# Si number density = 17.251676 Si / 1000 Ang^3
#
#
#
# Elastic Constant Matrix: (Units=GPa)
#
#
# Indices 1 2 3 4 5 6 
#
# 1 98.7882 23.2508 2.8352 -13.2667 4.3270 27.9462
# 2 23.2508 72.7678 -13.9758 1.8566 -0.9418 14.6238
# 3 2.8352 -13.9758 58.7717 8.3652 -0.3487 3.8426
# 4 -13.2667 1.8566 8.3652 33.2727 1.8382 -9.6391
# 5 4.3270 -0.9418 -0.3487 1.8382 12.6670 2.8097
# 6 27.9462 14.6238 3.8426 -9.6391 2.8097 28.6547
#
#
#
# Elastic Compliance Matrix: (Units=1/GPa)
#
#
# Indices 1 2 3 4 5 6 
#
# 1 0.014543 -0.002700 -0.001066 0.003116 -0.003142 -0.011307
# 2 -0.002700 0.018110 0.006133 -0.006938 0.005735 -0.010328
# 3 -0.001066 0.006133 0.020283 -0.008452 0.004398 -0.008084
# 4 0.003116 -0.006938 -0.008452 0.039002 -0.010984 0.015833
# 5 -0.003142 0.005735 0.004398 -0.010984 0.084927 -0.012475
# 6 -0.011307 -0.010328 -0.008084 0.015833 -0.012475 0.058830
#
#
# Mechanical properties :
#
#
# Convention : Reuss Voigt Hill
#
# Bulk Modulus (GPa) = 17.33982 28.28313 22.81148
# Shear Modulus (GPa) = 19.98536 29.46672 24.72604
#
# Velocity S-wave (km/s) = 3.40731 4.13734 3.78994
# Velocity P-wave (km/s) = 5.05495 6.26526 5.69236
#
# Compressibility (1/GPa) = 0.05767071
#
# Stress axis : x y z
#
# Youngs Moduli (GPa) = 68.76040 55.21894 49.30331
#
# Poissons Ratio (x) = 0.14907 0.05258
# Poissons Ratio (y) = 0.18562 -0.30240
# Poissons Ratio (z) = 0.07332 -0.33868
#
# Static dielectric constant tensor:
#      x y z
#    x 1.614940 0.026370 -0.017170 
#    y 0.026370 1.617720 -0.001550 
#    z -0.017170 -0.001550 1.587450 
# 
# From -- ./inp_files/93170.got.cif
#   From: 2010.05.17/outbox.cif.g08.bks.cpg/sg2_47_cif.got.tgz:93170.got - 2010.06.03 11:33:40.
