data_PCOD9072169
_publ_section_title
;
Structure prediction by ZEFSAII (Michael W. Deem and Ramdas Pophale) SiO2 
 PCOD9072169
Probable space group: P -1
;
_chemical_formula_sum "Si O2"
_cell_formula_units_Z 16
_cell_length_a 18.000000
_cell_length_b 9.000000
_cell_length_c 9.000000
_cell_angle_alpha 120.000000
_cell_angle_beta 100.000000
_cell_angle_gamma 40.000000
_cell_volume 752.029055
_symmetry_space_group_name_H-M "P -1"
_symmetry_group_IT_number 2
_symmetry_cell_setting 'triclinic'
loop_
_space_group_symop_operation_xyz
x,y,z
-x,-y,-z
loop_
_atom_site_type_symbol
_atom_site_label
_atom_site_fract_x
_atom_site_fract_y
_atom_site_fract_z
Si Si1 0.825475 0.118857 0.891638
Si Si2 0.333101 0.665511 0.544726
Si Si3 0.323602 0.043532 0.909987
Si Si4 0.481314 0.809904 0.378356
Si Si5 0.671847 0.703428 0.232698
Si Si6 0.432266 0.520872 0.171626
Si Si7 0.071272 0.393162 0.132911
Si Si8 0.922722 0.972315 0.513117
O O1 0.687523 0.311792 0.882569
O O2 0.890315 0.854306 0.887769
O O3 0.895113 0.026448 0.710100
O O4 0.789847 0.358953 0.090537
O O5 0.422574 0.395562 0.551669
O O6 0.395807 0.586174 0.367639
O O7 0.316415 0.878293 0.729056
O O8 0.204110 0.808778 0.521980
O O9 0.331436 0.186852 0.868634
O O10 0.443370 0.818984 0.947101
O O11 0.198293 0.263502 0.071838
O O12 0.550146 0.811310 0.288508
O O13 0.466207 0.655139 0.217854
O O14 0.349545 0.115814 0.553403
O O15 0.991277 0.667841 0.344685
O O16 0.000000 0.500000 0.000000
O O17 0.000000 0.000000 0.500000
#
# Coordination Sequence:
#
# PCOD9072169 Si02
#       8
#     2   2   2   2   2   2   2   2
#     4  11  26  46  68 103 142 172 228 288 344 401
#     4  10  18  40  68  95 134 176 222 268 334 412
#     4  11  20  40  70  97 136 177 230 269 333 410
#     4  10  20  38  64 102 143 171 224 264 339 419
#     4  11  22  37  62 105 140 170 222 276 334 406
#     4  10  20  40  68  95 137 180 211 274 355 395
#     4  12  26  48  72  92 132 191 238 271 330 407
#     4  11  25  49  69 100 134 178 229 291 340 390
#
# _framework density 21.275773999999998
#
# number of rings (size 3 to 8) (size 9 to 14) (size 15 to 20)
#    0.000    1.250    3.750    3.375    0.000    2.500 
#    9.000    1.250    0.000    0.000    0.000    0.000 
#    0.000    0.000    0.000    0.000    0.000    0.000 
#
# Total GULP energy -89376.400864 kJ/mol
# GULP energy per Si atom -5586.025054 kJ/mol
# Density = 2.122735 g / cm^3
# Si number density = 21.275774 Si / 1000 Ang^3
#
#
#
# Elastic Constant Matrix: (Units=GPa)
#
#
# Indices 1 2 3 4 5 6 
#
# 1 103.2666 44.1538 7.8262 -1.1083 -18.3376 20.8389
# 2 44.1538 123.8307 37.2715 4.6450 0.8265 17.4216
# 3 7.8262 37.2715 113.5524 19.3483 -14.5374 11.9005
# 4 -1.1083 4.6450 19.3483 41.2083 2.6914 2.6790
# 5 -18.3376 0.8265 -14.5374 2.6914 33.8841 1.2770
# 6 20.8389 17.4216 11.9005 2.6790 1.2770 46.2237
#
#
#
# Elastic Compliance Matrix: (Units=1/GPa)
#
#
# Indices 1 2 3 4 5 6 
#
# 1 0.014457 -0.005201 0.002551 -0.000476 0.009288 -0.005443
# 2 -0.005201 0.011249 -0.004018 0.000846 -0.004851 -0.000776
# 3 0.002551 -0.004018 0.012073 -0.005446 0.007190 -0.002627
# 4 -0.000476 0.000846 -0.005446 0.027035 -0.004757 -0.000138
# 5 0.009288 -0.004851 0.007190 -0.004757 0.038308 -0.004993
# 6 -0.005443 -0.000776 -0.002627 -0.000138 -0.004993 0.025202
#
#
# Mechanical properties :
#
#
# Convention : Reuss Voigt Hill
#
# Bulk Modulus (GPa) = 40.90939 57.68364 49.29652
# Shear Modulus (GPa) = 33.37606 41.02312 37.19959
#
# Velocity S-wave (km/s) = 3.96502 4.39585 4.18598
# Velocity P-wave (km/s) = 6.34285 7.27570 6.82523
#
# Compressibility (1/GPa) = 0.02444427
#
# Stress axis : x y z
#
# Youngs Moduli (GPa) = 69.17156 88.89580 82.82828
#
# Poissons Ratio (x) = 0.46236 -0.21133
# Poissons Ratio (y) = 0.35977 0.33278
# Poissons Ratio (z) = -0.17648 0.35716
#
# Static dielectric constant tensor:
#      x y z
#    x 1.802790 -0.003700 0.012990 
#    y -0.003700 1.760390 0.037950 
#    z 0.012990 0.037950 1.835100 
# 
# From -- ./inp_files/329464.got.cif
#   From: 2010.05.17/outbox.ucp.g08.bks.cvg/sg2_165_cif.got.tgz:329464.got - 2010.06.11 11:32:03.
