data_PCOD9072157
_publ_section_title
;
Structure prediction by ZEFSAII (Michael W. Deem and Ramdas Pophale) SiO2 
 PCOD9072157
Probable space group: P -1
;
_chemical_formula_sum "Si O2"
_cell_formula_units_Z 16
_cell_length_a 12.000000
_cell_length_b 9.000000
_cell_length_c 18.000000
_cell_angle_alpha 110.000000
_cell_angle_beta 80.000000
_cell_angle_gamma 40.000000
_cell_volume 813.354092
_symmetry_space_group_name_H-M "P -1"
_symmetry_group_IT_number 2
_symmetry_cell_setting 'triclinic'
loop_
_space_group_symop_operation_xyz
x,y,z
-x,-y,-z
loop_
_atom_site_type_symbol
_atom_site_label
_atom_site_fract_x
_atom_site_fract_y
_atom_site_fract_z
Si Si1 0.008074 0.241380 0.589638
Si Si2 0.157195 0.376891 0.180673
Si Si3 0.696723 0.555092 0.934767
Si Si4 0.943911 0.333041 0.225300
Si Si5 0.797774 0.237688 0.003648
Si Si6 0.124333 0.743201 0.541222
Si Si7 0.724277 0.191666 0.778701
Si Si8 0.475205 0.218370 0.550966
O O1 0.851402 0.519496 0.722075
O O2 0.855876 0.392803 0.557210
O O3 0.113896 0.939039 0.552070
O O4 0.254421 0.041078 0.515112
O O5 0.139055 0.524694 0.142190
O O6 0.938024 0.519717 0.230925
O O7 0.420443 0.962742 0.058576
O O8 0.700139 0.394015 0.855394
O O9 0.810977 0.363343 0.966408
O O10 0.691314 0.558342 0.315983
O O11 0.087183 0.154471 0.256607
O O12 0.131009 0.004773 0.094147
O O13 0.541112 0.551267 0.130951
O O14 0.000000 0.000000 0.000000
O O15 0.325439 0.468971 0.537909
O O16 0.848839 0.053629 0.661180
O O17 0.500000 0.000000 0.500000
#
# Coordination Sequence:
#
# PCOD9072157 Si02
#       8
#     2   2   2   2   2   2   2   2
#     4  11  23  42  63  90 125 163 206 251 305 366
#     4  11  19  37  65  87 114 153 203 246 303 353
#     4  10  20  37  64  86 111 154 197 244 294 363
#     4  10  20  38  59  85 117 158 201 244 295 358
#     4  11  22  37  58  90 120 155 194 244 304 357
#     4  10  24  42  62  91 122 165 208 248 303 370
#     4  10  18  39  62  82 114 158 199 239 291 362
#     4  11  23  40  63  90 122 161 205 255 306 354
#
# _framework density 19.671628999999999
#
# number of rings (size 3 to 8) (size 9 to 14) (size 15 to 20)
#    0.000    1.500    5.000    1.125    1.750    0.500 
#    2.250    0.625    0.000    0.000    0.000    0.000 
#    0.000    0.000    0.000    0.000    0.000    0.000 
#
# Total GULP energy -89115.890644 kJ/mol
# GULP energy per Si atom -5569.743165 kJ/mol
# Density = 1.962686 g / cm^3
# Si number density = 19.671629 Si / 1000 Ang^3
#
#
#
# Elastic Constant Matrix: (Units=GPa)
#
#
# Indices 1 2 3 4 5 6 
#
# 1 62.6818 37.1989 22.3849 -21.6906 -15.6084 21.1003
# 2 37.1989 52.9606 -9.4745 -6.1166 -9.5703 13.7139
# 3 22.3849 -9.4745 58.8076 1.0079 -16.2566 8.2659
# 4 -21.6906 -6.1166 1.0079 12.2790 9.4130 -1.3604
# 5 -15.6084 -9.5703 -16.2566 9.4130 27.5866 -2.2654
# 6 21.1003 13.7139 8.2659 -1.3604 -2.2654 18.1288
#
#
#
# Elastic Compliance Matrix: (Units=1/GPa)
#
#
# Indices 1 2 3 4 5 6 
#
# 1 -0.060926 0.040328 0.043220 -0.127400 0.049886 0.017373
# 2 0.040328 0.004943 -0.014655 0.082359 -0.015470 -0.039748
# 3 0.043220 -0.014655 -0.000391 0.071433 -0.008084 -0.034689
# 4 -0.127400 0.082359 0.071433 -0.142209 0.051143 0.049130
# 5 0.049886 -0.015470 -0.008084 0.051143 0.034054 -0.034581
# 6 0.017373 -0.039748 -0.034689 0.049130 -0.034581 0.080191
#
#
# Mechanical properties :
#
#
# Convention : Reuss Voigt Hill
#
# Bulk Modulus (GPa) = 12.28328 30.51873 21.40101
# Shear Modulus (GPa) = -25.64288 19.88827 -2.87730
#
# Velocity S-wave (km/s) = -3.61438 3.18309 -1.21072
# Velocity P-wave (km/s) = 3.34075 5.39047 2.99137
#
# Compressibility (1/GPa) = 0.08141146
#
# Stress axis : x y z
#
# Youngs Moduli (GPa) = -16.41343 202.29386 -2556.63178
#
# Poissons Ratio (x) = -8.15805 110.49823
# Poissons Ratio (y) = 0.66192 -37.46855
# Poissons Ratio (z) = 0.70939 2.96470
#
# Static dielectric constant tensor:
#      x y z
#    x 1.705010 0.020890 0.014320 
#    y 0.020890 1.680890 0.025480 
#    z 0.014320 0.025480 1.636020 
# 
# From -- ./inp_files/176385.got.cif
#   From: 2010.05.17/outbox.ucp.g08.bks.cvg/sg2_89_cif.got.tgz:176385.got - 2010.06.11 11:32:03.
