data_PCOD9072145
_publ_section_title
;
Structure prediction by ZEFSAII (Michael W. Deem and Ramdas Pophale) SiO2 
 PCOD9072145
Probable space group: P -1
;
_chemical_formula_sum "Si O2"
_cell_formula_units_Z 14
_cell_length_a 24.000000
_cell_length_b 15.000000
_cell_length_c 15.000000
_cell_angle_alpha 150.000000
_cell_angle_beta 20.000000
_cell_angle_gamma 160.000000
_cell_volume 624.976433
_symmetry_space_group_name_H-M "P -1"
_symmetry_group_IT_number 2
_symmetry_cell_setting 'triclinic'
loop_
_space_group_symop_operation_xyz
x,y,z
-x,-y,-z
loop_
_atom_site_type_symbol
_atom_site_label
_atom_site_fract_x
_atom_site_fract_y
_atom_site_fract_z
Si Si1 0.757106 0.190977 0.574529
Si Si2 0.122858 0.610813 0.614743
Si Si3 0.196582 0.980828 0.465794
Si Si4 0.278678 0.025238 0.172526
Si Si5 0.470523 0.277697 0.807515
Si Si6 0.923370 0.716220 0.139922
Si Si7 0.774524 0.599515 0.462995
O O1 0.820915 0.200054 0.383657
O O2 0.711193 0.011529 0.568427
O O3 0.000000 0.500000 0.500000
O O4 0.515875 0.114737 0.861617
O O5 0.361274 0.736589 0.414019
O O6 0.022373 0.339029 0.493868
O O7 0.938413 0.560771 0.915876
O O8 0.305966 0.040015 0.252607
O O9 0.172523 0.177298 0.669979
O O10 0.270886 0.224645 0.325811
O O11 0.021188 0.754834 0.283053
O O12 0.558922 0.359276 0.642423
O O13 0.500000 0.500000 0.000000
O O14 0.198392 0.997272 0.988603
O O15 0.804858 0.570725 0.288000
#
# Coordination Sequence:
#
# PCOD9072145 Si02
#       7
#     2   2   2   2   2   2   2
#     4  10  22  36  64  89 119 167 209 255 307 361
#     4  11  22  40  58  93 123 161 212 251 306 375
#     4  10  21  41  62  86 120 170 200 260 310 353
#     4  10  18  38  62  92 123 156 212 251 310 375
#     4  12  20  38  66  92 127 167 203 253 318 368
#     4  11  24  39  62  92 132 157 208 256 307 378
#     4  10  21  36  64  95 124 165 198 260 314 368
#
# _framework density 22.400845
#
# number of rings (size 3 to 8) (size 9 to 14) (size 15 to 20)
#    0.000    1.429    2.857    4.286    2.000    1.143 
#    2.571    0.000    0.000    7.714    0.000    0.000 
#    0.000    0.000    0.000    0.000    0.000    0.000 
#
# Total GULP energy -78082.104201 kJ/mol
# GULP energy per Si atom -5577.293157 kJ/mol
# Density = 2.234986 g / cm^3
# Si number density = 22.400845 Si / 1000 Ang^3
#
#
#
# Elastic Constant Matrix: (Units=GPa)
#
#
# Indices 1 2 3 4 5 6 
#
# 1 160.0509 10.5517 42.7078 8.0154 25.2819 -35.0647
# 2 10.5517 30.2390 -1.3605 3.9044 -2.2487 -4.9653
# 3 42.7078 -1.3605 98.3740 9.1570 6.8566 -4.1464
# 4 8.0154 3.9044 9.1570 32.0614 -9.5851 3.4971
# 5 25.2819 -2.2487 6.8566 -9.5851 35.0667 -8.0776
# 6 -35.0647 -4.9653 -4.1464 3.4971 -8.0776 28.5755
#
#
#
# Elastic Compliance Matrix: (Units=1/GPa)
#
#
# Indices 1 2 3 4 5 6 
#
# 1 0.011001 -0.001958 -0.003477 -0.004560 -0.005969 0.011526
# 2 -0.001958 0.035492 0.001681 -0.003844 0.003573 0.005489
# 3 -0.003477 0.001681 0.011936 -0.002802 -0.000987 -0.002178
# 4 -0.004560 -0.003844 -0.002802 0.038103 0.012187 -0.007889
# 5 -0.005969 0.003573 -0.000987 0.012187 0.037067 0.002140
# 6 0.011526 0.005489 -0.002178 -0.007889 0.002140 0.051346
#
#
# Mechanical properties :
#
#
# Convention : Reuss Voigt Hill
#
# Bulk Modulus (GPa) = 19.63801 43.60686 31.62243
# Shear Modulus (GPa) = 23.87494 34.92506 29.40000
#
# Velocity S-wave (km/s) = 3.26821 3.95282 3.62671
# Velocity P-wave (km/s) = 4.79867 6.35153 5.62891
#
# Compressibility (1/GPa) = 0.05092166
#
# Stress axis : x y z
#
# Youngs Moduli (GPa) = 90.89992 28.17546 83.78217
#
# Poissons Ratio (x) = 0.05516 0.29129
# Poissons Ratio (y) = 0.17795 -0.14083
# Poissons Ratio (z) = 0.31604 -0.04736
#
# Static dielectric constant tensor:
#      x y z
#    x 1.897840 0.032750 0.032000 
#    y 0.032750 1.866590 0.001950 
#    z 0.032000 0.001950 1.824810 
# 
# From -- ./inp_files/177898.got.cif
#   From: 2010.05.17/outbox.ucp.g08.bks.cvg/sg2_89_cif.got.tgz:177898.got - 2010.06.11 11:32:03.
