data_PCOD9072320
_publ_section_title
;
Structure prediction by ZEFSAII (Michael W. Deem and Ramdas Pophale) SiO2 
 PCOD9072320
Probable space group: P -1
;
_chemical_formula_sum "Si O2"
_cell_formula_units_Z 16
_cell_length_a 5.674984
_cell_length_b 21.032456
_cell_length_c 16.290768
_cell_angle_alpha 158.372268
_cell_angle_beta 61.443993
_cell_angle_gamma 110.376496
_cell_volume 601.070247
_symmetry_space_group_name_H-M "P -1"
_symmetry_group_IT_number 2
_symmetry_cell_setting 'triclinic'
loop_
_space_group_symop_operation_xyz
x,y,z
-x,-y,-z
loop_
_atom_site_type_symbol
_atom_site_label
_atom_site_fract_x
_atom_site_fract_y
_atom_site_fract_z
Si Si1 0.082035 0.238233 0.643541
Si Si2 0.017833 0.272579 0.174644
Si Si3 0.714492 0.819358 0.635321
Si Si4 0.872744 0.115223 0.238691
Si Si5 0.169976 0.829610 0.160229
Si Si6 0.723234 0.673982 0.976544
Si Si7 0.444241 0.459089 0.868023
Si Si8 0.507392 0.248042 0.159843
O O1 0.077034 0.250494 0.559839
O O2 0.856173 0.388832 0.913152
O O3 0.055477 0.044399 0.433747
O O4 0.384694 0.267443 0.645610
O O5 0.179722 0.327192 0.289467
O O6 0.680597 0.322911 0.287868
O O7 0.116887 0.337462 0.150552
O O8 0.126888 0.048447 0.892532
O O9 0.434887 0.761766 0.593150
O O10 0.898223 0.792440 0.654381
O O11 0.578537 0.036239 0.914816
O O12 0.000000 0.000000 0.000000
O O13 0.407790 0.790289 0.143302
O O14 0.906499 0.749774 0.102278
O O15 0.342258 0.757679 0.960769
O O16 0.662567 0.502864 0.823291
O O17 0.500000 0.500000 0.000000
#
# Coordination Sequence:
#
# PCOD9072320 Si02
#       8
#     2   2   2   2   2   2   2   2
#     4  10  24  42  60  85 122 167 206 258 307 364
#     4   8  14  27  46  72 107 142 173 217 282 345
#     4   9  18  32  54  77 113 158 189 224 299 370
#     4  10  18  30  54  91 123 143 181 248 308 360
#     4   9  19  35  60  82 105 148 205 247 300 357
#     4  10  21  38  60  85 116 157 204 253 305 359
#     4  11  27  42  58  84 126 163 214 266 302 349
#     4   7  12  24  43  70  97 130 173 219 260 327
#
# _framework density 26.619187
#
# number of rings (size 3 to 8) (size 9 to 14) (size 15 to 20)
#    0.000    2.750    0.000    1.875    7.000    1.000 
#    0.000    0.000    0.000    0.000    0.000    1.750 
#    0.000    0.000    0.000    0.000    0.000    0.000 
#
# Total GULP energy -89325.440060 kJ/mol
# GULP energy per Si atom -5582.840004 kJ/mol
# Density = 2.655860 g / cm^3
# Si number density = 26.619187 Si / 1000 Ang^3
#
#
#
# Elastic Constant Matrix: (Units=GPa)
#
#
# Indices 1 2 3 4 5 6 
#
# 1 242.2317 26.0171 47.7346 17.0862 32.4869 19.6936
# 2 26.0171 98.9748 16.0475 1.6890 4.1980 11.5628
# 3 47.7346 16.0475 72.9074 -5.3226 10.6586 15.1243
# 4 17.0862 1.6890 -5.3226 23.6459 12.3242 9.5370
# 5 32.4869 4.1980 10.6586 12.3242 52.7978 9.3160
# 6 19.6936 11.5628 15.1243 9.5370 9.3160 31.9327
#
#
#
# Elastic Compliance Matrix: (Units=1/GPa)
#
#
# Indices 1 2 3 4 5 6 
#
# 1 0.005360 -0.000743 -0.003417 -0.003786 -0.001702 0.000209
# 2 -0.000743 0.010846 -0.001242 0.000615 0.000256 -0.003139
# 3 -0.003417 -0.001242 0.019530 0.012324 -0.002939 -0.009516
# 4 -0.003786 0.000615 0.012324 0.061131 -0.011173 -0.018722
# 5 -0.001702 0.000256 -0.002939 -0.011173 0.023368 -0.001131
# 6 0.000209 -0.003139 -0.009516 -0.018722 -0.001131 0.042752
#
#
# Mechanical properties :
#
#
# Convention : Reuss Voigt Hill
#
# Bulk Modulus (GPa) = 40.10868 65.96802 53.03835
# Shear Modulus (GPa) = 27.45744 43.29627 35.37685
#
# Velocity S-wave (km/s) = 3.21517 4.03737 3.64950
# Velocity P-wave (km/s) = 5.37432 6.82420 6.14219
#
# Compressibility (1/GPa) = 0.02493226
#
# Stress axis : x y z
#
# Youngs Moduli (GPa) = 186.57916 92.20344 51.20371
#
# Poissons Ratio (x) = 0.06846 0.17494
# Poissons Ratio (y) = 0.13854 0.06361
# Poissons Ratio (z) = 0.63746 0.11455
#
# Static dielectric constant tensor:
#      x y z
#    x 2.202470 0.032230 -0.032150 
#    y 0.032230 2.124040 0.035070 
#    z -0.032150 0.035070 2.081430 
# 
# From -- ./inp_files/107135.got.cif
#   From: 2010.05.17/outbox.cif.g08.bks.cpg/sg2_54_cif.got.tgz:107135.got - 2010.06.03 11:33:40.
