data_PCOD9072558
_publ_section_title
;
Structure prediction by ZEFSAII (Michael W. Deem and Ramdas Pophale) SiO2 
 PCOD9072558
Probable space group: P -1
;
_chemical_formula_sum "Si O2"
_cell_formula_units_Z 16
_cell_length_a 12.000000
_cell_length_b 9.000000
_cell_length_c 15.000000
_cell_angle_alpha 90.000000
_cell_angle_beta 150.000000
_cell_angle_gamma 100.000000
_cell_volume 759.581896
_symmetry_space_group_name_H-M "P -1"
_symmetry_group_IT_number 2
_symmetry_cell_setting 'triclinic'
loop_
_space_group_symop_operation_xyz
x,y,z
-x,-y,-z
loop_
_atom_site_type_symbol
_atom_site_label
_atom_site_fract_x
_atom_site_fract_y
_atom_site_fract_z
Si Si1 0.023824 0.694386 0.171282
Si Si2 0.506290 0.464341 0.772244
Si Si3 0.372604 0.808673 0.238969
Si Si4 0.918080 0.483148 0.618409
Si Si5 0.639851 0.034803 0.957489
Si Si6 0.815425 0.718922 0.282632
Si Si7 0.084745 0.983164 0.347577
Si Si8 0.403371 0.754844 0.914744
O O1 0.183462 0.754715 0.191074
O O2 0.079421 0.566020 0.275679
O O3 0.077989 0.844986 0.273674
O O4 0.739498 0.615707 0.957658
O O5 0.622290 0.348952 0.805348
O O6 0.332515 0.510107 0.584771
O O7 0.327090 0.361835 0.726493
O O8 0.338945 0.916683 0.131757
O O9 0.644761 0.900753 0.458419
O O10 0.991619 0.360472 0.608224
O O11 0.135000 0.642477 0.742228
O O12 0.465931 0.860017 0.868623
O O13 0.545100 0.141875 0.957888
O O14 0.899841 0.056335 0.176906
O O15 0.968654 0.903322 0.362337
O O16 0.603821 0.674898 0.062014
#
# Coordination Sequence:
#
# PCOD9072558 Si02
#       8
#     2   2   2   2   2   2   2   2
#     4  11  26  46  64  93 134 174 217 266 315 378
#     4  12  25  40  68  99 125 171 217 269 324 380
#     4  12  25  44  67  94 131 175 221 259 313 390
#     4  11  23  39  66  95 128 169 211 270 324 382
#     4  10  22  38  63  95 130 171 207 264 323 381
#     4  10  21  40  64  96 133 159 210 269 331 378
#     4  10  25  41  67  95 130 173 212 267 324 380
#     4  10  19  39  63  95 136 164 204 265 332 381
#
# _framework density 21.064219999999999
#
# number of rings (size 3 to 8) (size 9 to 14) (size 15 to 20)
#    0.000    1.250    2.500    2.250    5.250    4.500 
#    0.000    0.000    0.000    0.000    0.000    0.000 
#    0.000    0.000    0.000    0.000    0.000    0.000 
#
# Total GULP energy -89232.578385 kJ/mol
# GULP energy per Si atom -5577.036149 kJ/mol
# Density = 2.101628 g / cm^3
# Si number density = 21.064220 Si / 1000 Ang^3
#
#
#
# Elastic Constant Matrix: (Units=GPa)
#
#
# Indices 1 2 3 4 5 6 
#
# 1 248.8032 69.9037 67.7822 12.4801 12.7197 47.2272
# 2 69.9037 83.8651 56.5428 -0.8828 0.8367 26.8650
# 3 67.7822 56.5428 122.0030 9.7309 10.5685 38.6228
# 4 12.4801 -0.8828 9.7309 45.2925 8.9625 -6.0407
# 5 12.7197 0.8367 10.5685 8.9625 30.5284 4.2473
# 6 47.2272 26.8650 38.6228 -6.0407 4.2473 47.1808
#
#
#
# Elastic Compliance Matrix: (Units=1/GPa)
#
#
# Indices 1 2 3 4 5 6 
#
# 1 0.005993 -0.003655 -0.000115 -0.001985 -0.001222 -0.003967
# 2 -0.003655 0.020527 -0.007251 0.002058 0.003161 -0.002115
# 3 -0.000115 -0.007251 0.014698 -0.003826 -0.002599 -0.008043
# 4 -0.001985 0.002058 -0.003826 0.025837 -0.006582 0.007848
# 5 -0.001222 0.003161 -0.002599 -0.006582 0.036368 -0.002565
# 6 -0.003967 -0.002115 -0.008043 0.007848 -0.002565 0.034190
#
#
# Mechanical properties :
#
#
# Convention : Reuss Voigt Hill
#
# Bulk Modulus (GPa) = 52.15361 93.68098 72.91730
# Shear Modulus (GPa) = 30.11204 41.96316 36.03760
#
# Velocity S-wave (km/s) = 3.78502 4.46820 4.14072
# Velocity P-wave (km/s) = 6.62683 8.43743 7.58634
#
# Compressibility (1/GPa) = 0.01917413
#
# Stress axis : x y z
#
# Youngs Moduli (GPa) = 166.87024 48.71671 68.03788
#
# Poissons Ratio (x) = 0.17807 0.00785
# Poissons Ratio (y) = 0.60995 0.49334
# Poissons Ratio (z) = 0.01925 0.35324
#
# Static dielectric constant tensor:
#      x y z
#    x 1.743310 -0.031110 -0.025730 
#    y -0.031110 1.895360 -0.001400 
#    z -0.025730 -0.001400 1.756330 
# 
# From -- ./inp_files/515711.got.cif
#   From: 2010.05.17/outbox.ucp.g08.bks.cvg/sg2_258_cif.got.tgz:515711.got - 2010.06.11 11:32:03.
