data_PCOD9072950
_publ_section_title
;
Structure prediction by ZEFSAII (Michael W. Deem and Ramdas Pophale) SiO2 
 PCOD9072950
Probable space group: P -1
;
_chemical_formula_sum "Si O2"
_cell_formula_units_Z 14
_cell_length_a 12.000000
_cell_length_b 12.000000
_cell_length_c 12.000000
_cell_angle_alpha 90.000000
_cell_angle_beta 50.000000
_cell_angle_gamma 130.000000
_cell_volume 720.076857
_symmetry_space_group_name_H-M "P -1"
_symmetry_group_IT_number 2
_symmetry_cell_setting 'triclinic'
loop_
_space_group_symop_operation_xyz
x,y,z
-x,-y,-z
loop_
_atom_site_type_symbol
_atom_site_label
_atom_site_fract_x
_atom_site_fract_y
_atom_site_fract_z
Si Si1 0.870794 0.448146 0.963994
Si Si2 0.826847 0.649382 0.510898
Si Si3 0.191292 0.013919 0.887660
Si Si4 0.309402 0.468547 0.800853
Si Si5 0.550716 0.913068 0.911376
Si Si6 0.344537 0.642036 0.562106
Si Si7 0.287704 0.624039 0.282894
O O1 0.119935 0.591366 0.721976
O O2 0.757612 0.498455 0.050154
O O3 0.623097 0.209787 0.089511
O O4 0.000000 0.500000 0.000000
O O5 0.573616 0.566511 0.654487
O O6 0.782786 0.526141 0.444817
O O7 0.782205 0.550268 0.652429
O O8 0.127669 0.892050 0.309179
O O9 0.371723 0.128333 0.660149
O O10 0.439503 0.175450 0.817560
O O11 0.000000 0.000000 0.000000
O O12 0.966340 0.774820 0.049576
O O13 0.375792 0.590823 0.654114
O O14 0.398386 0.729051 0.091131
O O15 0.500000 0.000000 0.000000
O O16 0.000000 0.500000 0.500000
#
# Coordination Sequence:
#
# PCOD9072950 Si02
#       7
#     2   2   2   2   2   2   2
#     4  10  24  43  62  95 130 164 213 262 321 385
#     4  11  22  37  64  94 123 164 217 263 309 374
#     4  11  22  37  66  98 127 165 218 260 319 374
#     4  11  23  39  62  92 134 165 206 272 314 371
#     4  12  22  40  68  89 121 175 210 255 322 376
#     4  10  20  39  63  94 125 166 215 257 308 383
#     4  11  22  37  61 100 124 157 221 269 298 378
#
# _framework density 19.442368999999999
#
# number of rings (size 3 to 8) (size 9 to 14) (size 15 to 20)
#    0.000    1.143    5.714    2.143    4.000    1.143 
#    0.000    3.571    0.000    0.000    0.000    0.000 
#    0.000    0.000    0.000    0.000    0.000    0.000 
#
# Total GULP energy -77978.756160 kJ/mol
# GULP energy per Si atom -5569.911154 kJ/mol
# Density = 1.939812 g / cm^3
# Si number density = 19.442369 Si / 1000 Ang^3
#
#
#
# Elastic Constant Matrix: (Units=GPa)
#
#
# Indices 1 2 3 4 5 6 
#
# 1 84.9610 10.9265 44.6567 -7.8612 -6.9825 16.2176
# 2 10.9265 49.2292 15.8679 -0.8057 -12.5445 27.8484
# 3 44.6567 15.8679 156.3895 -22.5188 -17.9658 12.7217
# 4 -7.8612 -0.8057 -22.5188 38.5664 -0.7464 -12.4150
# 5 -6.9825 -12.5445 -17.9658 -0.7464 45.9808 -17.1795
# 6 16.2176 27.8484 12.7217 -12.4150 -17.1795 12.2502
#
#
#
# Elastic Compliance Matrix: (Units=1/GPa)
#
#
# Indices 1 2 3 4 5 6 
#
# 1 0.012789 -0.007107 -0.002843 0.004270 0.002925 0.010607
# 2 -0.007107 0.000338 0.002415 0.014709 0.016923 0.044772
# 3 -0.002843 0.002415 0.007873 0.001723 0.000596 -0.007322
# 4 0.004270 0.014709 0.001723 0.018091 -0.005872 -0.030780
# 5 0.002925 0.016923 0.000596 -0.005872 0.018216 -0.023368
# 6 0.010607 0.044772 -0.007322 -0.030780 -0.023368 -0.090553
#
#
# Mechanical properties :
#
#
# Convention : Reuss Voigt Hill
#
# Bulk Modulus (GPa) = 168.62887 48.16465 108.39676
# Shear Modulus (GPa) = -308.65346 33.96805 -137.34270
#
# Velocity S-wave (km/s) = -12.61339 4.18438 -8.41393
# Velocity P-wave (km/s) = 11.18969 6.94062 6.20633
#
# Compressibility (1/GPa) = 0.00593018
#
# Stress axis : x y z
#
# Youngs Moduli (GPa) = 78.19154 2958.25357 127.01508
#
# Poissons Ratio (x) = 21.02556 0.36108
# Poissons Ratio (y) = 0.55574 -0.30677
# Poissons Ratio (z) = 0.22229 -7.14487
#
# Static dielectric constant tensor:
#      x y z
#    x 1.779100 0.018560 0.038650 
#    y 0.018560 1.732800 0.049160 
#    z 0.038650 0.049160 1.711860 
# 
# From -- ./inp_files/425329.got.cif
#   From: 2010.05.17/outbox.ucp.g08.bks.cvg/sg2_213_cif.got.tgz:425329.got - 2010.06.11 11:32:03.
