data_PCOD9072524
_publ_section_title
;
Structure prediction by ZEFSAII (Michael W. Deem and Ramdas Pophale) SiO2 
 PCOD9072524
Probable space group: P -1
;
_chemical_formula_sum "Si O2"
_cell_formula_units_Z 16
_cell_length_a 9.000000
_cell_length_b 12.000000
_cell_length_c 15.000000
_cell_angle_alpha 130.000000
_cell_angle_beta 70.000000
_cell_angle_gamma 140.000000
_cell_volume 759.581896
_symmetry_space_group_name_H-M "P -1"
_symmetry_group_IT_number 2
_symmetry_cell_setting 'triclinic'
loop_
_space_group_symop_operation_xyz
x,y,z
-x,-y,-z
loop_
_atom_site_type_symbol
_atom_site_label
_atom_site_fract_x
_atom_site_fract_y
_atom_site_fract_z
Si Si1 0.334616 0.817239 0.561159
Si Si2 0.609290 0.681732 0.668224
Si Si3 0.999145 0.056140 0.631918
Si Si4 0.308734 0.956568 0.074970
Si Si5 0.236886 0.799075 0.211540
Si Si6 0.869046 0.510891 0.400332
Si Si7 0.055346 0.420338 0.164870
Si Si8 0.455568 0.618268 0.327803
O O1 0.220556 0.650055 0.581871
O O2 0.457703 0.779971 0.455385
O O3 0.128251 0.748594 0.507162
O O4 0.531019 0.049172 0.691477
O O5 0.343706 0.523896 0.596571
O O6 0.613660 0.542060 0.658992
O O7 0.628245 0.834528 0.807157
O O8 0.818302 0.853632 0.637625
O O9 0.282420 0.240645 0.692211
O O10 0.912145 0.163094 0.705992
O O11 0.000000 0.000000 0.500000
O O12 0.284982 0.862835 0.129761
O O13 0.086433 0.804447 0.972961
O O14 0.500000 0.000000 0.000000
O O15 0.109412 0.561325 0.141053
O O16 0.916182 0.434154 0.268640
O O17 0.262091 0.497118 0.225318
#
# Coordination Sequence:
#
# PCOD9072524 Si02
#       8
#     2   2   2   2   2   2   2   2
#     4  10  20  39  62  98 132 160 217 265 325 389
#     4  11  23  43  67  97 132 177 217 263 332 389
#     4  11  22  42  64  98 135 174 213 257 329 401
#     4  11  22  44  69  94 118 168 229 272 321 379
#     4  11  22  42  66  97 126 167 219 271 323 387
#     4  10  19  38  63  95 125 166 213 266 314 390
#     4  11  24  42  66  94 128 170 223 273 322 372
#     4  11  25  43  61  98 139 173 212 263 330 400
#
# _framework density 21.064219999999999
#
# number of rings (size 3 to 8) (size 9 to 14) (size 15 to 20)
#    0.000    1.250    5.000    1.125    0.000    5.500 
#   11.250    2.500    0.000    0.000    0.000    0.000 
#    0.000    0.000    0.000    0.000    0.000    0.000 
#
# Total GULP energy -89317.669214 kJ/mol
# GULP energy per Si atom -5582.354326 kJ/mol
# Density = 2.101628 g / cm^3
# Si number density = 21.064220 Si / 1000 Ang^3
#
#
#
# Elastic Constant Matrix: (Units=GPa)
#
#
# Indices 1 2 3 4 5 6 
#
# 1 112.8517 58.3193 25.5100 0.1330 25.5460 0.6930
# 2 58.3193 82.6305 27.7154 -17.8963 -4.5945 12.5152
# 3 25.5100 27.7154 113.2165 -8.9325 22.5390 5.3886
# 4 0.1330 -17.8963 -8.9325 31.4514 0.0286 1.0422
# 5 25.5460 -4.5945 22.5390 0.0286 36.7346 0.6112
# 6 0.6930 12.5152 5.3886 1.0422 0.6112 29.5666
#
#
#
# Elastic Compliance Matrix: (Units=1/GPa)
#
#
# Indices 1 2 3 4 5 6 
#
# 1 0.027556 -0.026945 0.003661 -0.014755 -0.024953 0.011128
# 2 -0.026945 0.042894 -0.007561 0.022929 0.029017 -0.017555
# 3 0.003661 -0.007561 0.011873 -0.000976 -0.010796 0.001208
# 4 -0.014755 0.022929 -0.000976 0.044981 0.013876 -0.011054
# 5 -0.024953 0.029017 -0.010796 0.013876 0.055007 -0.011356
# 6 0.011128 -0.017555 0.001208 -0.011054 -0.011356 0.041396
#
#
# Mechanical properties :
#
#
# Convention : Reuss Voigt Hill
#
# Bulk Modulus (GPa) = 48.46619 59.08756 53.77688
# Shear Modulus (GPa) = 17.10714 32.69410 24.90062
#
# Velocity S-wave (km/s) = 2.85290 3.94396 3.44194
# Velocity P-wave (km/s) = 5.82330 6.98941 6.43283
#
# Compressibility (1/GPa) = 0.02063294
#
# Stress axis : x y z
#
# Youngs Moduli (GPa) = 36.28981 23.31323 84.22148
#
# Poissons Ratio (x) = 0.62818 -0.30834
# Poissons Ratio (y) = 0.97784 0.63681
# Poissons Ratio (z) = -0.13286 0.17627
#
# Static dielectric constant tensor:
#      x y z
#    x 1.758840 0.059070 0.039440 
#    y 0.059070 1.866110 0.078650 
#    z 0.039440 0.078650 1.782170 
# 
# From -- ./inp_files/500832.got.cif
#   From: 2010.05.17/outbox.ucp.g08.bks.cvg/sg2_251_cif.got.tgz:500832.got - 2010.06.11 11:32:03.
