data_PCOD9072263
_publ_section_title
;
Structure prediction by ZEFSAII (Michael W. Deem and Ramdas Pophale) SiO2 
 PCOD9072263
Probable space group: P -1
;
_chemical_formula_sum "Si O2"
_cell_formula_units_Z 16
_cell_length_a 21.000000
_cell_length_b 9.000000
_cell_length_c 27.000000
_cell_angle_alpha 30.000000
_cell_angle_beta 20.000000
_cell_angle_gamma 30.000000
_cell_volume 830.970076
_symmetry_space_group_name_H-M "P -1"
_symmetry_group_IT_number 2
_symmetry_cell_setting 'triclinic'
loop_
_space_group_symop_operation_xyz
x,y,z
-x,-y,-z
loop_
_atom_site_type_symbol
_atom_site_label
_atom_site_fract_x
_atom_site_fract_y
_atom_site_fract_z
Si Si1 0.311877 0.201768 0.549563
Si Si2 0.941718 0.855850 0.158371
Si Si3 0.006738 0.156381 0.278990
Si Si4 0.419244 0.125264 0.967244
Si Si5 0.012555 0.749929 0.488318
Si Si6 0.690916 0.128693 0.166781
Si Si7 0.708429 0.106501 0.675836
Si Si8 0.288388 0.050393 0.497811
O O1 0.137492 0.156691 0.724614
O O2 0.320321 0.557024 0.428742
O O3 0.306270 0.057781 0.541466
O O4 0.500000 0.000000 0.500000
O O5 0.998979 0.493994 0.206520
O O6 0.780112 0.032628 0.184487
O O7 0.130469 0.968545 0.975140
O O8 0.996290 0.932635 0.396503
O O9 0.218262 0.040277 0.132598
O O10 0.818851 0.190416 0.372718
O O11 0.387817 0.496294 0.885641
O O12 0.539738 0.042883 0.851358
O O13 0.500000 0.000000 0.000000
O O14 0.139712 0.888432 0.392789
O O15 0.134653 0.388567 0.498555
O O16 0.804805 0.838918 0.642530
O O17 0.502595 0.012280 0.330319
#
# Coordination Sequence:
#
# PCOD9072263 Si02
#       8
#     2   2   2   2   2   2   2   2
#     4  11  19  37  62  82 110 152 197 231 278 344
#     4  10  21  37  62  83 108 151 197 236 270 342
#     4  11  22  35  57  87 119 148 186 238 294 334
#     4  11  19  35  59  85 113 153 193 234 277 338
#     4  10  19  34  54  81 115 149 188 233 280 336
#     4  10  20  37  57  85 112 145 198 235 274 340
#     4  10  19  33  57  86 106 148 199 236 263 334
#     4  11  22  36  56  87 119 149 183 242 293 334
#
# _framework density 19.254604
#
# number of rings (size 3 to 8) (size 9 to 14) (size 15 to 20)
#    0.000    1.500    6.250    0.375    0.000    0.500 
#    0.000    1.875    0.000    7.500    0.000    0.000 
#    0.000    0.000    0.000    0.000    0.000    0.000 
#
# Total GULP energy -89106.787034 kJ/mol
# GULP energy per Si atom -5569.174190 kJ/mol
# Density = 1.921078 g / cm^3
# Si number density = 19.254604 Si / 1000 Ang^3
#
#
#
# Elastic Constant Matrix: (Units=GPa)
#
#
# Indices 1 2 3 4 5 6 
#
# 1 73.7578 26.6352 57.5312 -0.9281 15.8835 -22.9801
# 2 26.6352 13.4425 12.3810 19.9448 12.6265 -14.0396
# 3 57.5312 12.3810 168.8752 37.6967 20.3321 8.9631
# 4 -0.9281 19.9448 37.6967 19.6626 -2.8941 4.6383
# 5 15.8835 12.6265 20.3321 -2.8941 39.5983 -6.6924
# 6 -22.9801 -14.0396 8.9631 4.6383 -6.6924 25.6749
#
#
#
# Elastic Compliance Matrix: (Units=1/GPa)
#
#
# Indices 1 2 3 4 5 6 
#
# 1 0.026585 0.020372 -0.009050 -0.012154 -0.006896 0.038492
# 2 0.020372 -0.010439 -0.017956 0.044276 0.009872 0.013369
# 3 -0.009050 -0.017956 0.011106 0.001713 0.000044 -0.022094
# 4 -0.012154 0.044276 0.001713 -0.001709 -0.008414 0.010850
# 5 -0.006896 0.009872 0.000044 -0.008414 0.025480 0.007372
# 6 0.038492 0.013369 -0.022094 0.010850 0.007372 0.088386
#
#
# Mechanical properties :
#
#
# Convention : Reuss Voigt Hill
#
# Bulk Modulus (GPa) = 71.51442 49.90783 60.71113
# Shear Modulus (GPa) = 31.77890 27.62236 29.70063
#
# Velocity S-wave (km/s) = 4.06699 3.79170 3.93175
# Velocity P-wave (km/s) = 7.69909 6.71904 7.22570
#
# Compressibility (1/GPa) = 0.01398319
#
# Stress axis : x y z
#
# Youngs Moduli (GPa) = 37.61545 -95.79242 90.04201
#
# Poissons Ratio (x) = 1.95150 0.81488
# Poissons Ratio (y) = -0.76631 1.61683
# Poissons Ratio (z) = 0.34042 -1.72008
#
# Static dielectric constant tensor:
#      x y z
#    x 1.650490 0.007210 0.001420 
#    y 0.007210 1.744510 0.078430 
#    z 0.001420 0.078430 1.768210 
# 
# From -- ./inp_files/241068.got.cif
#   From: 2010.05.17/outbox.ucp.g08.bks.cvg/sg2_121_cif.got.tgz:241068.got - 2010.06.11 11:32:03.
