data_PCOD9072599
_publ_section_title
;
Structure prediction by ZEFSAII (Michael W. Deem and Ramdas Pophale) SiO2 
 PCOD9072599
Probable space group: P -1
;
_chemical_formula_sum "Si O2"
_cell_formula_units_Z 16
_cell_length_a 9.000000
_cell_length_b 24.000000
_cell_length_c 9.000000
_cell_angle_alpha 150.000000
_cell_angle_beta 130.000000
_cell_angle_gamma 60.000000
_cell_volume 736.400153
_symmetry_space_group_name_H-M "P -1"
_symmetry_group_IT_number 2
_symmetry_cell_setting 'triclinic'
loop_
_space_group_symop_operation_xyz
x,y,z
-x,-y,-z
loop_
_atom_site_type_symbol
_atom_site_label
_atom_site_fract_x
_atom_site_fract_y
_atom_site_fract_z
Si Si1 0.821694 0.348955 0.288026
Si Si2 0.807516 0.592561 0.781054
Si Si3 0.932587 0.891378 0.807619
Si Si4 0.855598 0.319068 0.572537
Si Si5 0.494105 0.822471 0.888661
Si Si6 0.716284 0.048117 0.190955
Si Si7 0.927956 0.777005 0.030667
Si Si8 0.443176 0.239421 0.892154
O O1 0.795600 0.460505 0.437723
O O2 0.834386 0.377477 0.536948
O O3 0.625189 0.258424 0.943291
O O4 0.001749 0.287494 0.214240
O O5 0.877486 0.677931 0.890572
O O6 0.609415 0.637715 0.811226
O O7 0.973098 0.619327 0.075069
O O8 0.750035 0.821076 0.446130
O O9 0.085847 0.804179 0.718574
O O10 0.841318 0.945373 0.014704
O O11 0.000000 0.000000 0.000000
O O12 0.651335 0.297711 0.482875
O O13 0.362234 0.899071 0.889983
O O14 0.720509 0.825251 0.988662
O O15 0.516834 0.834607 0.109976
O O16 0.880121 0.139403 0.590429
O O17 0.500000 0.000000 0.000000
#
# Coordination Sequence:
#
# PCOD9072599 Si02
#       8
#     2   2   2   2   2   2   2   2
#     4  11  22  38  62  95 122 160 208 256 305 361
#     4  10  19  41  67  86 124 167 196 253 319 360
#     4  11  20  40  63  90 118 167 205 250 307 365
#     4  10  21  40  63  92 124 155 210 259 293 369
#     4  10  21  42  61  85 128 163 199 253 305 357
#     4  12  25  41  62  87 130 166 199 251 316 360
#     4  11  24  43  61  93 128 161 206 253 301 375
#     4   9  21  38  63  93 123 153 209 260 298 365
#
# _framework density 21.727318
#
# number of rings (size 3 to 8) (size 9 to 14) (size 15 to 20)
#    0.000    1.500    2.500    3.375    1.750    1.000 
#    6.750    0.625    0.000    0.000    0.000    0.000 
#    0.000    0.000    0.000    0.000    0.000    0.000 
#
# Total GULP energy -89108.541293 kJ/mol
# GULP energy per Si atom -5569.283831 kJ/mol
# Density = 2.167787 g / cm^3
# Si number density = 21.727318 Si / 1000 Ang^3
#
#
#
# Elastic Constant Matrix: (Units=GPa)
#
#
# Indices 1 2 3 4 5 6 
#
# 1 116.0951 11.1185 33.2296 6.8495 20.6286 -20.4940
# 2 11.1185 50.2237 17.2066 -8.4432 10.8322 -0.0988
# 3 33.2296 17.2066 39.6090 0.0458 7.0250 -0.5904
# 4 6.8495 -8.4432 0.0458 33.3955 -7.3687 9.0871
# 5 20.6286 10.8322 7.0250 -7.3687 19.2372 0.4451
# 6 -20.4940 -0.0988 -0.5904 9.0871 0.4451 28.8148
#
#
#
# Elastic Compliance Matrix: (Units=1/GPa)
#
#
# Indices 1 2 3 4 5 6 
#
# 1 0.021354 0.003345 -0.014530 -0.014554 -0.025511 0.019886
# 2 0.003345 0.026581 -0.011998 0.002717 -0.013169 0.001571
# 3 -0.014530 -0.011998 0.040760 0.005098 0.009667 -0.011297
# 4 -0.014554 0.002717 0.005098 0.047430 0.030977 -0.025674
# 5 -0.025511 -0.013169 0.009667 0.030977 0.095766 -0.029240
# 6 0.019886 0.001571 -0.011297 -0.025674 -0.029240 0.057170
#
#
# Mechanical properties :
#
#
# Convention : Reuss Voigt Hill
#
# Bulk Modulus (GPa) = 23.62401 36.55969 30.09185
# Shear Modulus (GPa) = 14.30465 25.91438 20.10951
#
# Velocity S-wave (km/s) = 2.56866 3.45731 3.04557
# Velocity P-wave (km/s) = 4.43778 5.72717 5.12320
#
# Compressibility (1/GPa) = 0.04232981
#
# Stress axis : x y z
#
# Youngs Moduli (GPa) = 46.82900 37.62106 24.53386
#
# Poissons Ratio (x) = -0.12585 0.35648
# Poissons Ratio (y) = -0.15666 0.29435
# Poissons Ratio (z) = 0.68044 0.45136
#
# Static dielectric constant tensor:
#      x y z
#    x 1.894270 0.053020 -0.073840 
#    y 0.053020 1.800950 0.032700 
#    z -0.073840 0.032700 1.649190 
# 
# From -- ./inp_files/224267.got.cif
#   From: 2010.05.17/outbox.ucp.g08.bks.cvg/sg2_113_cif.got.tgz:224267.got - 2010.06.11 11:32:03.
