data_PCOD9072883
_publ_section_title
;
Structure prediction by ZEFSAII (Michael W. Deem and Ramdas Pophale) SiO2 
 PCOD9072883
Probable space group: P -1
;
_chemical_formula_sum "Si O2"
_cell_formula_units_Z 14
_cell_length_a 24.000000
_cell_length_b 9.000000
_cell_length_c 9.000000
_cell_angle_alpha 150.000000
_cell_angle_beta 140.000000
_cell_angle_gamma 40.000000
_cell_volume 592.077935
_symmetry_space_group_name_H-M "P -1"
_symmetry_group_IT_number 2
_symmetry_cell_setting 'triclinic'
loop_
_space_group_symop_operation_xyz
x,y,z
-x,-y,-z
loop_
_atom_site_type_symbol
_atom_site_label
_atom_site_fract_x
_atom_site_fract_y
_atom_site_fract_z
Si Si1 0.207062 0.123504 0.995884
Si Si2 0.186151 0.261652 0.409758
Si Si3 0.401154 0.927744 0.577051
Si Si4 0.703044 0.371266 0.443524
Si Si5 0.118641 0.161585 0.565561
Si Si6 0.518237 0.325287 0.155145
Si Si7 0.086200 0.787748 0.860342
O O1 0.118708 0.200855 0.778295
O O2 0.267960 0.765511 0.781123
O O3 0.177560 0.220216 0.183016
O O4 0.272506 0.311119 0.225742
O O5 0.136378 0.613732 0.664004
O O6 0.295066 0.126468 0.541295
O O7 0.131147 0.059997 0.209902
O O8 0.428551 0.609344 0.264449
O O9 0.433598 0.827718 0.724843
O O10 0.470827 0.088696 0.785639
O O11 0.600044 0.395807 0.295232
O O12 0.781472 0.112267 0.477586
O O13 0.115471 0.496161 0.781926
O O14 0.023842 0.098527 0.278015
#
# Coordination Sequence:
#
# PCOD9072883 Si02
#       7
#     2   2   2   2   2   2   2
#     4  10  24  40  63  87 134 160 209 239 314 366
#     4  12  25  43  60  95 128 165 197 263 303 364
#     4  10  22  36  60  90 124 149 207 254 297 373
#     4  10  21  40  64  87 121 168 199 255 297 373
#     4   9  25  41  65  94 123 159 213 255 293 382
#     4  10  20  38  62  90 114 162 200 251 313 349
#     4  11  25  39  68  92 123 162 211 250 314 346
#
# _framework density 23.645536
#
# number of rings (size 3 to 8) (size 9 to 14) (size 15 to 20)
#    0.857    0.857    0.000    3.429    6.000    3.429 
#    0.000    4.286    0.000    0.000    0.000    0.000 
#    0.000    0.000    0.000    0.000    0.000    0.000 
#
# Total GULP energy -78131.939632 kJ/mol
# GULP energy per Si atom -5580.852831 kJ/mol
# Density = 2.359172 g / cm^3
# Si number density = 23.645536 Si / 1000 Ang^3
#
#
#
# Elastic Constant Matrix: (Units=GPa)
#
#
# Indices 1 2 3 4 5 6 
#
# 1 76.1767 35.0803 2.7754 -7.4475 5.0833 -24.3601
# 2 35.0803 14.1413 32.8490 -11.0737 21.2268 -19.1427
# 3 2.7754 32.8490 79.2027 11.8493 3.8372 -1.9272
# 4 -7.4475 -11.0737 11.8493 21.8975 6.5129 -0.1679
# 5 5.0833 21.2268 3.8372 6.5129 32.4182 -5.2052
# 6 -24.3601 -19.1427 -1.9272 -0.1679 -5.2052 34.6391
#
#
#
# Elastic Compliance Matrix: (Units=1/GPa)
#
#
# Indices 1 2 3 4 5 6 
#
# 1 0.016795 0.005466 -0.004114 0.012607 -0.006050 0.013755
# 2 0.005466 -0.024840 0.012500 -0.022698 0.017415 -0.006681
# 3 -0.004114 0.012500 0.007569 0.003413 -0.008614 0.003158
# 4 0.012607 -0.022698 0.003413 0.035119 0.005014 -0.002564
# 5 -0.006050 0.017415 -0.008614 0.005014 0.021718 0.008178
# 6 0.013755 -0.006681 0.003158 -0.002564 0.008178 0.036242
#
#
# Mechanical properties :
#
#
# Convention : Reuss Voigt Hill
#
# Bulk Modulus (GPa) = 36.72568 34.54781 35.63674
# Shear Modulus (GPa) = 67.58905 24.37867 45.98386
#
# Velocity S-wave (km/s) = 5.35223 3.21441 4.41468
# Velocity P-wave (km/s) = 7.33216 5.33095 6.41013
#
# Compressibility (1/GPa) = 0.02722891
#
# Stress axis : x y z
#
# Youngs Moduli (GPa) = 59.54146 -40.25835 132.11272
#
# Poissons Ratio (x) = 0.22005 0.54349
# Poissons Ratio (y) = -0.32545 -1.65141
# Poissons Ratio (z) = 0.24494 0.50323
#
# Static dielectric constant tensor:
#      x y z
#    x 1.893880 0.070500 -0.059720 
#    y 0.070500 1.860950 -0.009590 
#    z -0.059720 -0.009590 1.935200 
# 
# From -- ./inp_files/351941.got.cif
#   From: 2010.05.17/outbox.ucp.g08.bks.cvg/sg2_176_cif.got.tgz:351941.got - 2010.06.11 11:32:03.
