data_PCOD9072166
_publ_section_title
;
Structure prediction by ZEFSAII (Michael W. Deem and Ramdas Pophale) SiO2 
 PCOD9072166
Probable space group: P -1
;
_chemical_formula_sum "Si O2"
_cell_formula_units_Z 16
_cell_length_a 21.000000
_cell_length_b 9.000000
_cell_length_c 9.000000
_cell_angle_alpha 130.000000
_cell_angle_beta 120.000000
_cell_angle_gamma 40.000000
_cell_volume 837.479324
_symmetry_space_group_name_H-M "P -1"
_symmetry_group_IT_number 2
_symmetry_cell_setting 'triclinic'
loop_
_space_group_symop_operation_xyz
x,y,z
-x,-y,-z
loop_
_atom_site_type_symbol
_atom_site_label
_atom_site_fract_x
_atom_site_fract_y
_atom_site_fract_z
Si Si1 0.222043 0.171513 0.255150
Si Si2 0.502875 0.636661 0.948036
Si Si3 0.175229 0.107803 0.831940
Si Si4 0.638615 0.383489 0.420270
Si Si5 0.627665 0.829544 0.696798
Si Si6 0.812327 0.482872 0.915581
Si Si7 0.965523 0.261618 0.697161
Si Si8 0.295234 0.696398 0.213992
O O1 0.323342 0.119857 0.338885
O O2 0.122847 0.478544 0.332783
O O3 0.231184 0.994009 0.277603
O O4 0.214925 0.076218 0.025081
O O5 0.431905 0.659198 0.756423
O O6 0.611621 0.482255 0.906585
O O7 0.500000 0.500000 0.000000
O O8 0.453223 0.919423 0.136315
O O9 0.063186 0.226136 0.791015
O O10 0.252360 0.830508 0.663414
O O11 0.184034 0.301423 0.883195
O O12 0.596240 0.670279 0.510642
O O13 0.656322 0.350652 0.597204
O O14 0.723825 0.633040 0.788195
O O15 0.914275 0.298361 0.819916
O O16 0.777464 0.364853 0.901674
O O17 0.000000 0.000000 0.500000
#
# Coordination Sequence:
#
# PCOD9072166 Si02
#       8
#     2   2   2   2   2   2   2   2
#     4  10  19  39  60  89 124 154 201 255 297 360
#     4  12  22  42  62  86 122 167 210 247 296 361
#     4  10  18  40  64  87 114 164 203 241 301 369
#     4  11  22  39  63  90 122 158 207 252 306 352
#     4   9  19  38  62  82 118 159 207 245 290 357
#     4   9  19  36  57  87 121 154 198 245 303 354
#     4  10  19  36  66  88 115 162 206 241 299 372
#     4  11  23  38  59  90 126 156 196 262 305 350
#
# _framework density 19.104949000000001
#
# number of rings (size 3 to 8) (size 9 to 14) (size 15 to 20)
#    0.000    2.000    3.750    4.125    0.000    2.500 
#    2.250    7.500    0.000    0.000    0.000    0.000 
#    0.000    0.000    0.000    0.000    0.000    0.000 
#
# Total GULP energy -89189.518294 kJ/mol
# GULP energy per Si atom -5574.344893 kJ/mol
# Density = 1.906147 g / cm^3
# Si number density = 19.104949 Si / 1000 Ang^3
#
#
#
# Elastic Constant Matrix: (Units=GPa)
#
#
# Indices 1 2 3 4 5 6 
#
# 1 146.9021 51.7438 31.9745 16.1731 7.3562 2.2858
# 2 51.7438 60.8771 32.1535 18.3714 1.1095 2.7256
# 3 31.9745 32.1535 77.6501 29.6465 3.5405 1.9371
# 4 16.1731 18.3714 29.6465 35.3503 -0.2290 -4.1659
# 5 7.3562 1.1095 3.5405 -0.2290 28.0276 6.1483
# 6 2.2858 2.7256 1.9371 -4.1659 6.1483 41.7087
#
#
#
# Elastic Compliance Matrix: (Units=1/GPa)
#
#
# Indices 1 2 3 4 5 6 
#
# 1 0.009890 -0.008084 -0.000765 0.000349 -0.002262 0.000390
# 2 -0.008084 0.028459 -0.006150 -0.006163 0.002175 -0.002067
# 3 -0.000765 -0.006150 0.021482 -0.014686 -0.002011 -0.001724
# 4 0.000349 -0.006163 -0.014686 0.044281 0.001204 0.005311
# 5 -0.002262 0.002175 -0.002011 0.001204 0.037624 -0.005351
# 6 0.000390 -0.002067 -0.001724 0.005311 -0.005351 0.025489
#
#
# Mechanical properties :
#
#
# Convention : Reuss Voigt Hill
#
# Bulk Modulus (GPa) = 33.52054 57.46366 45.49210
# Shear Modulus (GPa) = 24.13526 32.32117 28.22821
#
# Velocity S-wave (km/s) = 3.55815 4.11757 3.84804
# Velocity P-wave (km/s) = 5.87061 7.26286 6.60353
#
# Compressibility (1/GPa) = 0.02983246
#
# Stress axis : x y z
#
# Youngs Moduli (GPa) = 101.11380 35.13883 46.55167
#
# Poissons Ratio (x) = 0.28405 0.03562
# Poissons Ratio (y) = 0.81737 0.28629
# Poissons Ratio (z) = 0.07736 0.21610
#
# Static dielectric constant tensor:
#      x y z
#    x 1.703460 0.029300 0.021520 
#    y 0.029300 1.695660 0.028180 
#    z 0.021520 0.028180 1.691300 
# 
# From -- ./inp_files/226336.got.cif
#   From: 2010.05.17/outbox.ucp.g08.bks.cvg/sg2_114_cif.got.tgz:226336.got - 2010.06.11 11:32:03.
