data_PCOD9072857
_publ_section_title
;
Structure prediction by ZEFSAII (Michael W. Deem and Ramdas Pophale) SiO2 
 PCOD9072857
Probable space group: P -1
;
_chemical_formula_sum "Si O2"
_cell_formula_units_Z 14
_cell_length_a 12.000000
_cell_length_b 15.000000
_cell_length_c 15.000000
_cell_angle_alpha 20.000000
_cell_angle_beta 60.000000
_cell_angle_gamma 70.000000
_cell_volume 721.429718
_symmetry_space_group_name_H-M "P -1"
_symmetry_group_IT_number 2
_symmetry_cell_setting 'triclinic'
loop_
_space_group_symop_operation_xyz
x,y,z
-x,-y,-z
loop_
_atom_site_type_symbol
_atom_site_label
_atom_site_fract_x
_atom_site_fract_y
_atom_site_fract_z
Si Si1 0.624078 0.508892 0.257294
Si Si2 0.299726 0.296779 0.536247
Si Si3 0.853090 0.653080 0.279196
Si Si4 0.850341 0.358552 0.825212
Si Si5 0.707776 0.126640 0.709023
Si Si6 0.944610 0.730857 0.842464
Si Si7 0.986394 0.096752 0.643075
O O1 0.471014 0.414332 0.360316
O O2 0.627836 0.248718 0.558677
O O3 0.771428 0.606978 0.047182
O O4 0.636769 0.778479 0.062473
O O5 0.226714 0.239295 0.717685
O O6 0.242979 0.526645 0.306273
O O7 0.235441 0.986698 0.802645
O O8 0.742093 0.338541 0.581568
O O9 0.992787 0.613865 0.294097
O O10 0.914010 0.894261 0.949181
O O11 0.891367 0.595673 0.665582
O O12 0.868235 0.182261 0.564364
O O13 0.000000 0.000000 0.500000
O O14 0.014790 0.884666 0.763891
O O15 0.000000 0.500000 0.000000
#
# Coordination Sequence:
#
# PCOD9072857 Si02
#       7
#     2   2   2   2   2   2   2
#     4  11  23  42  58  92 129 155 201 248 317 369
#     4  12  26  37  60  91 129 177 197 241 291 360
#     4  11  22  38  64  89 128 164 215 244 286 350
#     4  11  24  40  60  88 129 168 216 237 283 351
#     4  10  20  38  59  83 125 159 196 252 299 356
#     4  11  23  40  70  92 113 148 203 262 319 364
#     4  10  22  40  65  92 122 154 209 261 295 351
#
# _framework density 19.405909999999999
#
# number of rings (size 3 to 8) (size 9 to 14) (size 15 to 20)
#    0.000    1.143    4.286    3.429    6.000    1.143 
#    0.000    0.000    0.000    5.143    0.000    0.000 
#    0.000    0.000    0.000    0.000    0.000    0.000 
#
# Total GULP energy -78016.786764 kJ/mol
# GULP energy per Si atom -5572.627626 kJ/mol
# Density = 1.936174 g / cm^3
# Si number density = 19.405910 Si / 1000 Ang^3
#
#
#
# Elastic Constant Matrix: (Units=GPa)
#
#
# Indices 1 2 3 4 5 6 
#
# 1 123.0433 19.4082 26.7821 -1.4165 -3.6111 -24.6759
# 2 19.4082 95.0681 32.7776 -22.0381 -7.7988 -14.0486
# 3 26.7821 32.7776 81.6598 -29.0507 5.1409 -9.9871
# 4 -1.4165 -22.0381 -29.0507 41.1195 0.4092 1.2082
# 5 -3.6111 -7.7988 5.1409 0.4092 47.4933 -9.8674
# 6 -24.6759 -14.0486 -9.9871 1.2082 -9.8674 26.1505
#
#
#
# Elastic Compliance Matrix: (Units=1/GPa)
#
#
# Indices 1 2 3 4 5 6 
#
# 1 0.011055 0.000276 -0.003454 -0.002260 0.003499 0.010686
# 2 0.000276 0.014342 -0.003330 0.005061 0.004378 0.008112
# 3 -0.003454 -0.003330 0.019099 0.011599 -0.002845 0.000636
# 4 -0.002260 0.005061 0.011599 0.035053 -0.000209 0.003318
# 5 0.003499 0.004378 -0.002845 -0.000209 0.025283 0.014118
# 6 0.010686 0.008112 0.000636 0.003318 0.014118 0.058098
#
#
# Mechanical properties :
#
#
# Convention : Reuss Voigt Hill
#
# Bulk Modulus (GPa) = 31.76693 50.85632 41.31163
# Shear Modulus (GPa) = 26.81829 37.67289 32.24559
#
# Velocity S-wave (km/s) = 3.72151 4.41081 4.08074
# Velocity P-wave (km/s) = 5.90521 7.22522 6.59831
#
# Compressibility (1/GPa) = 0.03147927
#
# Stress axis : x y z
#
# Youngs Moduli (GPa) = 90.45519 69.72667 52.35939
#
# Poissons Ratio (x) = -0.01926 0.18086
# Poissons Ratio (y) = -0.02499 0.17437
# Poissons Ratio (z) = 0.31245 0.23221
#
# Static dielectric constant tensor:
#      x y z
#    x 1.733250 0.059330 0.004590 
#    y 0.059330 1.702120 0.006510 
#    z 0.004590 0.006510 1.719630 
# 
# From -- ./inp_files/408980.got.cif
#   From: 2010.05.17/outbox.ucp.g08.bks.cvg/sg2_205_cif.got.tgz:408980.got - 2010.06.11 11:32:03.
