data_PCOD9072102
_publ_section_title
;
Structure prediction by ZEFSAII (Michael W. Deem and Ramdas Pophale) SiO2 
 PCOD9072102
Probable space group: P -1
;
_chemical_formula_sum "Si O2"
_cell_formula_units_Z 16
_cell_length_a 6.000000
_cell_length_b 9.000000
_cell_length_c 18.000000
_cell_angle_alpha 120.000000
_cell_angle_beta 110.000000
_cell_angle_gamma 60.000000
_cell_volume 723.492119
_symmetry_space_group_name_H-M "P -1"
_symmetry_group_IT_number 2
_symmetry_cell_setting 'triclinic'
loop_
_space_group_symop_operation_xyz
x,y,z
-x,-y,-z
loop_
_atom_site_type_symbol
_atom_site_label
_atom_site_fract_x
_atom_site_fract_y
_atom_site_fract_z
Si Si1 0.341025 0.466198 0.883244
Si Si2 0.071688 0.450812 0.708833
Si Si3 0.092515 0.051607 0.324928
Si Si4 0.727218 0.875518 0.793385
Si Si5 0.858563 0.205228 0.953250
Si Si6 0.181892 0.154214 0.850081
Si Si7 0.199283 0.828787 0.426292
Si Si8 0.769445 0.485290 0.420378
O O1 0.637601 0.361893 0.916184
O O2 0.201479 0.346123 0.877396
O O3 0.306687 0.423774 0.784002
O O4 0.212446 0.683098 0.949240
O O5 0.855887 0.652182 0.761910
O O6 0.961543 0.290617 0.651278
O O7 0.168888 0.472729 0.644728
O O8 0.249548 0.096847 0.286407
O O9 0.852627 0.254427 0.370715
O O10 0.240172 0.947436 0.390600
O O11 0.015032 0.897927 0.235447
O O12 0.842736 0.005725 0.885427
O O13 0.438693 0.973921 0.814409
O O14 0.126174 0.172739 0.936111
O O15 0.475717 0.656327 0.444733
O O16 0.000000 0.000000 0.500000
O O17 0.000000 0.500000 0.500000
#
# Coordination Sequence:
#
# PCOD9072102 Si02
#       8
#     2   2   2   2   2   2   2   2
#     4  10  20  36  61  94 130 166 217 261 313 384
#     4  11  24  42  67  94 126 171 219 268 321 392
#     4  10  22  41  65  93 130 171 215 267 325 398
#     4   9  21  38  61  91 130 171 209 263 321 377
#     4   9  20  36  59  95 130 173 207 261 319 377
#     4  10  18  36  61  88 127 170 210 259 321 374
#     4  12  27  44  70 100 126 171 227 275 333 404
#     4  11  27  47  66  96 136 171 215 281 342 393
#
# _framework density 22.114961000000001
#
# number of rings (size 3 to 8) (size 9 to 14) (size 15 to 20)
#    0.000    1.750    1.250    1.875    5.250    6.500 
#    0.000    0.625    0.000    0.000    0.000    0.000 
#    0.000    0.000    0.000    0.000    0.000    0.000 
#
# Total GULP energy -89108.822740 kJ/mol
# GULP energy per Si atom -5569.301421 kJ/mol
# Density = 2.206463 g / cm^3
# Si number density = 22.114961 Si / 1000 Ang^3
#
#
#
# Elastic Constant Matrix: (Units=GPa)
#
#
# Indices 1 2 3 4 5 6 
#
# 1 41.9365 12.6823 19.2146 3.6081 -12.3277 -20.1161
# 2 12.6823 110.7163 30.3998 25.6001 -5.7820 -19.9638
# 3 19.2146 30.3998 111.8607 29.8204 4.5052 -18.3020
# 4 3.6081 25.6001 29.8204 51.0851 -12.4862 2.2313
# 5 -12.3277 -5.7820 4.5052 -12.4862 17.1663 11.7357
# 6 -20.1161 -19.9638 -18.3020 2.2313 11.7357 29.4053
#
#
#
# Elastic Compliance Matrix: (Units=1/GPa)
#
#
# Indices 1 2 3 4 5 6 
#
# 1 0.042486 -0.003189 -0.013414 0.018041 0.047216 -0.001663
# 2 -0.003189 0.016166 0.009433 -0.024283 -0.038876 0.032023
# 3 -0.013414 0.009433 0.035943 -0.050502 -0.094396 0.061104
# 4 0.018041 -0.024283 -0.050502 0.107189 0.173111 -0.112800
# 5 0.047216 -0.038876 -0.094396 0.173111 0.377997 -0.216841
# 6 -0.001663 0.032023 0.061104 -0.112800 -0.216841 0.187744
#
#
# Mechanical properties :
#
#
# Convention : Reuss Voigt Hill
#
# Bulk Modulus (GPa) = 12.46030 43.23412 27.84721
# Shear Modulus (GPa) = 6.18340 33.01246 19.59793
#
# Velocity S-wave (km/s) = 1.67395 3.86782 2.98011
# Velocity P-wave (km/s) = 3.06312 6.28800 4.94579
#
# Compressibility (1/GPa) = 0.08025489
#
# Stress axis : x y z
#
# Youngs Moduli (GPa) = 23.53701 61.85746 27.82197
#
# Poissons Ratio (x) = 0.19726 0.37322
# Poissons Ratio (y) = 0.07506 -0.26245
# Poissons Ratio (z) = 0.31574 -0.58352
#
# Static dielectric constant tensor:
#      x y z
#    x 1.886440 -0.009520 0.029180 
#    y -0.009520 1.884670 -0.057350 
#    z 0.029180 -0.057350 1.854390 
# 
# From -- ./inp_files/548341.got.cif
#   From: 2010.05.17/outbox.ucp.g08.bks.cvg/sg2_275_cif.got.tgz:548341.got - 2010.06.11 11:32:03.
