data_PCOD9072507
_publ_section_title
;
Structure prediction by ZEFSAII (Michael W. Deem and Ramdas Pophale) SiO2 
 PCOD9072507
Probable space group: P -1
;
_chemical_formula_sum "Si O2"
_cell_formula_units_Z 16
_cell_length_a 15.000000
_cell_length_b 18.000000
_cell_length_c 15.000000
_cell_angle_alpha 20.000000
_cell_angle_beta 130.000000
_cell_angle_gamma 140.000000
_cell_volume 833.890543
_symmetry_space_group_name_H-M "P -1"
_symmetry_group_IT_number 2
_symmetry_cell_setting 'triclinic'
loop_
_space_group_symop_operation_xyz
x,y,z
-x,-y,-z
loop_
_atom_site_type_symbol
_atom_site_label
_atom_site_fract_x
_atom_site_fract_y
_atom_site_fract_z
Si Si1 0.649727 0.037432 0.730247
Si Si2 0.917750 0.781112 0.459774
Si Si3 0.678167 0.172451 0.272663
Si Si4 0.152629 0.681109 0.951968
Si Si5 0.151481 0.351255 0.774331
Si Si6 0.203009 0.973299 0.337219
Si Si7 0.823395 0.902837 0.095005
Si Si8 0.029400 0.198537 0.213283
O O1 0.727641 0.326418 0.502736
O O2 0.747235 0.106908 0.625803
O O3 0.684170 0.875802 0.000065
O O4 0.480586 0.894294 0.757682
O O5 0.826837 0.527588 0.754697
O O6 0.034891 0.763063 0.502496
O O7 0.017072 0.055736 0.274325
O O8 0.818482 0.795654 0.310101
O O9 0.692332 0.991729 0.555803
O O10 0.719775 0.127397 0.252608
O O11 0.813295 0.495497 0.020127
O O12 0.000000 0.500000 0.000000
O O13 0.110845 0.802827 0.863980
O O14 0.981040 0.214798 0.841561
O O15 0.203284 0.219766 0.023379
O O16 0.150677 0.256085 0.781589
O O17 0.000000 0.000000 0.500000
#
# Coordination Sequence:
#
# PCOD9072507 Si02
#       8
#     2   2   2   2   2   2   2   2
#     4  11  23  40  56  87 124 162 184 235 299 343
#     4  11  20  37  65  89 112 148 202 247 282 336
#     4  11  22  39  58  88 129 146 191 242 290 362
#     4  10  19  38  56  86 116 144 197 244 279 344
#     4   9  20  39  60  79 116 160 202 237 279 330
#     4  10  21  37  55  91 120 149 193 238 282 356
#     4   9  21  38  58  86 112 152 207 241 266 350
#     4  11  20  37  63  90 110 154 193 238 301 334
#
# _framework density 19.187169999999998
#
# number of rings (size 3 to 8) (size 9 to 14) (size 15 to 20)
#    0.000    1.750    5.000    1.500    3.500    1.500 
#    9.000    0.625    0.000    1.500    0.000    0.000 
#    0.000    0.000    0.000    0.000    0.000    0.000 
#
# Total GULP energy -89145.512659 kJ/mol
# GULP energy per Si atom -5571.594541 kJ/mol
# Density = 1.914350 g / cm^3
# Si number density = 19.187170 Si / 1000 Ang^3
#
#
#
# Elastic Constant Matrix: (Units=GPa)
#
#
# Indices 1 2 3 4 5 6 
#
# 1 69.3144 35.4121 10.4868 0.6895 -1.6576 -1.5090
# 2 35.4121 94.5834 21.3056 26.5168 -3.6579 1.7421
# 3 10.4868 21.3056 26.1220 9.4920 -0.6555 -19.0952
# 4 0.6895 26.5168 9.4920 32.4675 -3.9349 -3.3464
# 5 -1.6576 -3.6579 -0.6555 -3.9349 12.3367 9.5666
# 6 -1.5090 1.7421 -19.0952 -3.3464 9.5666 22.8999
#
#
#
# Elastic Compliance Matrix: (Units=1/GPa)
#
#
# Indices 1 2 3 4 5 6 
#
# 1 0.019166 -0.010195 0.003098 0.007327 -0.003491 0.007151
# 2 -0.010195 0.001178 0.065764 -0.019725 -0.064369 0.078085
# 3 0.003098 0.065764 -0.248532 0.017486 0.258464 -0.317459
# 4 0.007327 -0.019725 0.017486 0.043083 -0.011716 0.027754
# 5 -0.003491 -0.064369 0.258464 -0.011716 -0.144842 0.278986
# 6 0.007151 0.078085 -0.317459 0.027754 0.278986 -0.339009
#
#
# Mechanical properties :
#
#
# Convention : Reuss Voigt Hill
#
# Bulk Modulus (GPa) = -9.02103 36.04763 13.51330
# Shear Modulus (GPa) = -6.07355 21.72849 7.82747
#
# Velocity S-wave (km/s) = -1.78109 3.36884 2.02198
# Velocity P-wave (km/s) = 2.99024 5.82754 3.53686
#
# Compressibility (1/GPa) = -0.11085203
#
# Stress axis : x y z
#
# Youngs Moduli (GPa) = 52.17596 848.90955 -4.02363
#
# Poissons Ratio (x) = 8.65429 0.01247
# Poissons Ratio (y) = 0.53191 0.26461
# Poissons Ratio (z) = -0.16165 -55.82799
#
# Static dielectric constant tensor:
#      x y z
#    x 1.705700 -0.021670 0.036530 
#    y -0.021670 1.643080 0.026660 
#    z 0.036530 0.026660 1.737490 
# 
# From -- ./inp_files/534986.got.cif
#   From: 2010.05.17/outbox.ucp.g08.bks.cvg/sg2_268_cif.got.tgz:534986.got - 2010.06.11 11:32:03.
