data_PCOD9072308
_publ_section_title
;
Structure prediction by ZEFSAII (Michael W. Deem and Ramdas Pophale) SiO2 
 PCOD9072308
Probable space group: P -1
;
_chemical_formula_sum "Si O2"
_cell_formula_units_Z 14
_cell_length_a 21.000000
_cell_length_b 9.000000
_cell_length_c 9.000000
_cell_angle_alpha 80.000000
_cell_angle_beta 140.000000
_cell_angle_gamma 130.000000
_cell_volume 638.399559
_symmetry_space_group_name_H-M "P -1"
_symmetry_group_IT_number 2
_symmetry_cell_setting 'triclinic'
loop_
_space_group_symop_operation_xyz
x,y,z
-x,-y,-z
loop_
_atom_site_type_symbol
_atom_site_label
_atom_site_fract_x
_atom_site_fract_y
_atom_site_fract_z
Si Si1 0.785668 0.793547 0.678039
Si Si2 0.171232 0.681053 0.859944
Si Si3 0.949635 0.741372 0.127386
Si Si4 0.548727 0.141017 0.850820
Si Si5 0.486365 0.587293 0.319494
Si Si6 0.739150 0.905762 0.161661
Si Si7 0.432041 0.691402 0.814329
O O1 0.642520 0.734440 0.471523
O O2 0.716132 0.598777 0.456011
O O3 0.822792 0.726852 0.894569
O O4 0.943126 0.085574 0.857405
O O5 0.137686 0.528248 0.964468
O O6 0.000000 0.500000 0.500000
O O7 0.243364 0.938723 0.956359
O O8 0.283519 0.724545 0.937573
O O9 0.087689 0.911502 0.475392
O O10 0.505735 0.228845 0.656377
O O11 0.429229 0.849579 0.696989
O O12 0.564557 0.244747 0.021146
O O13 0.500000 0.500000 0.500000
O O14 0.327553 0.329040 0.989309
O O15 0.600341 0.806899 0.044742
#
# Coordination Sequence:
#
# PCOD9072308 Si02
#       7
#     2   2   2   2   2   2   2
#     4  10  21  36  56  81 113 146 177 222 273 322
#     4   9  19  36  56  79 108 145 181 219 269 325
#     4  10  19  35  56  78 107 147 183 211 265 331
#     4  10  19  34  59  83 108 140 184 230 265 317
#     4  11  22  36  56  85 111 138 183 231 269 314
#     4   9  19  37  60  79 107 147 181 221 272 322
#     4   9  19  36  59  84 105 140 188 226 267 315
#
# _framework density 21.929839999999999
#
# number of rings (size 3 to 8) (size 9 to 14) (size 15 to 20)
#    0.000    2.286    0.000    2.571    0.000    4.571 
#    0.000   20.000    0.000   26.571    0.000    0.000 
#    0.000    0.000    0.000    0.000    0.000    0.000 
#
# Total GULP energy -78030.861015 kJ/mol
# GULP energy per Si atom -5573.632930 kJ/mol
# Density = 2.187993 g / cm^3
# Si number density = 21.929840 Si / 1000 Ang^3
#
#
#
# Elastic Constant Matrix: (Units=GPa)
#
#
# Indices 1 2 3 4 5 6 
#
# 1 16.8593 7.1186 -5.8196 7.7640 -0.2971 -7.4057
# 2 7.1186 151.6365 1.9898 -16.3534 14.7395 3.1110
# 3 -5.8196 1.9898 61.6091 -13.4282 2.8317 0.5858
# 4 7.7640 -16.3534 -13.4282 33.1441 2.2218 3.9605
# 5 -0.2971 14.7395 2.8317 2.2218 15.8237 -5.5813
# 6 -7.4057 3.1110 0.5858 3.9605 -5.5813 29.0174
#
#
#
# Elastic Compliance Matrix: (Units=1/GPa)
#
#
# Indices 1 2 3 4 5 6 
#
# 1 0.097593 -0.012185 0.000124 -0.035339 0.031185 0.037033
# 2 -0.012185 0.009771 0.001475 0.010194 -0.013939 -0.008260
# 3 0.000124 0.001475 0.018520 0.009043 -0.007045 -0.003090
# 4 -0.035339 0.010194 0.009043 0.051644 -0.026977 -0.022532
# 5 0.031185 -0.013939 -0.007045 -0.026977 0.092793 0.031126
# 6 0.037033 -0.008260 -0.003090 -0.022532 0.031126 0.053924
#
#
# Mechanical properties :
#
#
# Convention : Reuss Voigt Hill
#
# Bulk Modulus (GPa) = 9.55006 26.29806 17.92406
# Shear Modulus (GPa) = 13.14678 30.71812 21.93245
#
# Velocity S-wave (km/s) = 2.45111 3.74671 3.16590
# Velocity P-wave (km/s) = 3.51779 5.54392 4.64273
#
# Compressibility (1/GPa) = 0.10471134
#
# Stress axis : x y z
#
# Youngs Moduli (GPa) = 10.24663 102.34133 53.99663
#
# Poissons Ratio (x) = 1.24706 -0.00672
# Poissons Ratio (y) = 0.12486 -0.07962
# Poissons Ratio (z) = -0.00127 -0.15091
#
# Static dielectric constant tensor:
#      x y z
#    x 1.783910 0.068540 0.028790 
#    y 0.068540 1.906780 -0.042610 
#    z 0.028790 -0.042610 1.846490 
# 
# From -- ./inp_files/153879.got.cif
#   From: 2010.05.17/outbox.ucp.g08.bks.cvg/sg2_77_cif.got.tgz:153879.got - 2010.06.11 11:32:03.
