data_PCOD9072537
_publ_section_title
;
Structure prediction by ZEFSAII (Michael W. Deem and Ramdas Pophale) SiO2 
 PCOD9072537
Probable space group: P -1
;
_chemical_formula_sum "Si O2"
_cell_formula_units_Z 16
_cell_length_a 21.000000
_cell_length_b 12.000000
_cell_length_c 9.000000
_cell_angle_alpha 70.000000
_cell_angle_beta 90.000000
_cell_angle_gamma 150.000000
_cell_volume 827.189758
_symmetry_space_group_name_H-M "P -1"
_symmetry_group_IT_number 2
_symmetry_cell_setting 'triclinic'
loop_
_space_group_symop_operation_xyz
x,y,z
-x,-y,-z
loop_
_atom_site_type_symbol
_atom_site_label
_atom_site_fract_x
_atom_site_fract_y
_atom_site_fract_z
Si Si1 0.795497 0.756679 0.417029
Si Si2 0.147072 0.995535 0.956762
Si Si3 0.257235 0.746406 0.405028
Si Si4 0.312162 0.126349 0.160439
Si Si5 0.102253 0.141872 0.107803
Si Si6 0.098801 0.942347 0.422026
Si Si7 0.786985 0.409563 0.181034
Si Si8 0.472884 0.902805 0.210372
O O1 0.655151 0.427215 0.627605
O O2 0.882740 0.985581 0.440537
O O3 0.930920 0.901974 0.275953
O O4 0.742091 0.757745 0.286766
O O5 0.967876 0.662728 0.034307
O O6 0.228276 0.034613 0.046822
O O7 0.102084 0.032134 0.043578
O O8 0.246668 0.702913 0.603371
O O9 0.394731 0.886133 0.294820
O O10 0.085202 0.408100 0.478601
O O11 0.294392 0.950813 0.267597
O O12 0.210027 0.021875 0.335326
O O13 0.500000 0.500000 0.000000
O O14 0.166581 0.178524 0.232631
O O15 0.192635 0.410703 0.914337
O O16 0.637881 0.139179 0.186819
O O17 0.500000 0.000000 0.000000
#
# Coordination Sequence:
#
# PCOD9072537 Si02
#       8
#     2   2   2   2   2   2   2   2
#     4  11  22  40  66 101 134 170 214 270 350 387
#     4  10  22  42  68  97 129 180 223 265 328 407
#     4  12  25  44  68  97 133 178 229 267 329 395
#     4  11  27  46  69  92 130 180 234 275 320 389
#     4  10  19  38  66  98 133 166 218 261 340 398
#     4  11  23  42  69  93 134 177 218 278 325 401
#     4  11  22  39  68  97 134 170 218 273 324 399
#     4  12  27  39  64 105 144 166 209 284 341 393
#
# _framework density 19.342599
#
# number of rings (size 3 to 8) (size 9 to 14) (size 15 to 20)
#    0.000    1.000    3.750    4.125   10.500    0.000 
#    0.000    2.500    0.000    0.000    0.000    0.000 
#    0.000    0.000    0.000    0.000    0.000    0.000 
#
# Total GULP energy -89099.542210 kJ/mol
# GULP energy per Si atom -5568.721388 kJ/mol
# Density = 1.929857 g / cm^3
# Si number density = 19.342599 Si / 1000 Ang^3
#
#
#
# Elastic Constant Matrix: (Units=GPa)
#
#
# Indices 1 2 3 4 5 6 
#
# 1 101.0759 38.4538 35.6912 -4.9191 34.1903 12.8640
# 2 38.4538 132.6840 54.3956 -3.3373 14.8944 19.5816
# 3 35.6912 54.3956 122.3811 9.0086 34.4667 5.9526
# 4 -4.9191 -3.3373 9.0086 39.1792 6.1359 4.7866
# 5 34.1903 14.8944 34.4667 6.1359 43.3851 -6.7598
# 6 12.8640 19.5816 5.9526 4.7866 -6.7598 27.9052
#
#
#
# Elastic Compliance Matrix: (Units=1/GPa)
#
#
# Indices 1 2 3 4 5 6 
#
# 1 0.017809 -0.001435 0.000244 0.006150 -0.016524 -0.012313
# 2 -0.001435 0.010723 -0.003996 0.002585 -0.000777 -0.006643
# 3 0.000244 -0.003996 0.012587 -0.001583 -0.008888 -0.001875
# 4 0.006150 0.002585 -0.001583 0.030008 -0.010594 -0.012025
# 5 -0.016524 -0.000777 -0.008888 -0.010594 0.048581 0.023644
# 6 -0.012313 -0.006643 -0.001875 -0.012025 0.023644 0.054363
#
#
# Mechanical properties :
#
#
# Convention : Reuss Voigt Hill
#
# Bulk Modulus (GPa) = 32.52529 68.13581 50.33055
# Shear Modulus (GPa) = 25.68115 37.26727 31.47421
#
# Velocity S-wave (km/s) = 3.64771 4.39417 4.03823
# Velocity P-wave (km/s) = 5.88158 7.81328 6.91521
#
# Compressibility (1/GPa) = 0.03074531
#
# Stress axis : x y z
#
# Youngs Moduli (GPa) = 56.15108 93.25433 79.44487
#
# Poissons Ratio (x) = 0.13378 -0.01936
# Poissons Ratio (y) = 0.08055 0.31750
# Poissons Ratio (z) = -0.01369 0.37268
#
# Static dielectric constant tensor:
#      x y z
#    x 1.654960 0.011800 -0.001400 
#    y 0.011800 1.762510 0.003570 
#    z -0.001400 0.003570 1.759160 
# 
# From -- ./inp_files/345211.got.cif
#   From: 2010.05.17/outbox.ucp.g08.bks.cvg/sg2_173_cif.got.tgz:345211.got - 2010.06.11 11:32:03.
