data_PCOD9072034
_publ_section_title
;
Structure prediction by ZEFSAII (Michael W. Deem and Ramdas Pophale) SiO2 
 PCOD9072034
Probable space group: P -1
;
_chemical_formula_sum "Si O2"
_cell_formula_units_Z 16
_cell_length_a 16.167692
_cell_length_b 14.957534
_cell_length_c 12.160119
_cell_angle_alpha 150.482714
_cell_angle_beta 36.487007
_cell_angle_gamma 142.800915
_cell_volume 813.042107
_symmetry_space_group_name_H-M "P -1"
_symmetry_group_IT_number 2
_symmetry_cell_setting 'triclinic'
loop_
_space_group_symop_operation_xyz
x,y,z
-x,-y,-z
loop_
_atom_site_type_symbol
_atom_site_label
_atom_site_fract_x
_atom_site_fract_y
_atom_site_fract_z
Si Si1 0.969969 0.005347 0.708246
Si Si2 0.184484 0.267583 0.069040
Si Si3 0.813636 0.582485 0.997326
Si Si4 0.160209 0.543331 0.820578
Si Si5 0.653851 0.620194 0.412936
Si Si6 0.855703 0.061461 0.105377
Si Si7 0.117038 0.546273 0.610183
Si Si8 0.787793 0.054990 0.744277
O O1 0.081995 0.899064 0.436690
O O2 0.078228 0.218708 0.852336
O O3 0.868938 0.030394 0.744209
O O4 0.881323 0.937896 0.842092
O O5 0.255490 0.373976 0.995333
O O6 0.179069 0.415033 0.327120
O O7 0.013943 0.168242 0.106781
O O8 0.235754 0.094960 0.876411
O O9 0.935711 0.481015 0.730090
O O10 0.692425 0.519496 0.154693
O O11 0.226207 0.389718 0.635553
O O12 0.154588 0.543966 0.695888
O O13 0.000000 0.500000 0.000000
O O14 0.256731 0.757275 0.988681
O O15 0.500000 0.500000 0.500000
O O16 0.673560 0.845127 0.614066
O O17 0.817351 0.237740 0.280582
#
# Coordination Sequence:
#
# PCOD9072034 Si02
#       8
#     2   2   2   2   2   2   2   2
#     4   8  14  26  50  77 108 132 163 228 268 308
#     4   9  18  27  49  75 112 144 164 215 283 314
#     4   9  16  35  50  77 115 135 180 223 260 329
#     4  12  21  34  59  87 108 145 181 225 283 326
#     4  11  25  39  55  79 112 150 185 223 277 328
#     4   9  16  28  41  75 113 139 167 209 278 328
#     4  10  18  30  50  84 112 129 176 228 263 326
#     4  10  18  33  51  76 111 140 178 228 267 317
#
# _framework density 19.679176999999999
#
# number of rings (size 3 to 8) (size 9 to 14) (size 15 to 20)
#    0.000    2.500    3.750    3.000    3.500    0.500 
#    0.000    0.000    0.000    0.750    0.000    1.750 
#    0.000    0.000    0.000    0.000    0.000    0.000 
#
# Total GULP energy -89068.996517 kJ/mol
# GULP energy per Si atom -5566.812282 kJ/mol
# Density = 1.963439 g / cm^3
# Si number density = 19.679177 Si / 1000 Ang^3
#
#
#
# Elastic Constant Matrix: (Units=GPa)
#
#
# Indices 1 2 3 4 5 6 
#
# 1 44.4681 24.3114 16.8998 -5.3558 9.2280 -29.8566
# 2 24.3114 74.3429 26.0384 -3.6277 -4.2199 -21.5731
# 3 16.8998 26.0384 57.3219 11.0800 9.6666 -11.6810
# 4 -5.3558 -3.6277 11.0800 24.7031 -3.4291 -1.9918
# 5 9.2280 -4.2199 9.6666 -3.4291 18.1268 -2.9666
# 6 -29.8566 -21.5731 -11.6810 -1.9918 -2.9666 33.5388
#
#
#
# Elastic Compliance Matrix: (Units=1/GPa)
#
#
# Indices 1 2 3 4 5 6 
#
# 1 0.076840 -0.004104 -0.008866 0.022130 -0.020990 0.062134
# 2 -0.004104 0.023656 -0.012967 0.011688 0.018253 0.009356
# 3 -0.008866 -0.012967 0.032033 -0.021781 -0.021055 -0.008233
# 4 0.022130 0.011688 -0.021781 0.061380 0.018763 0.024938
# 5 -0.020990 0.018253 -0.021055 0.018763 0.083940 -0.005738
# 6 0.062134 0.009356 -0.008233 0.024938 -0.005738 0.089253
#
#
# Mechanical properties :
#
#
# Convention : Reuss Voigt Hill
#
# Bulk Modulus (GPa) = 12.39854 34.51467 23.45660
# Shear Modulus (GPa) = 11.21426 22.53261 16.87344
#
# Velocity S-wave (km/s) = 2.38975 3.38745 2.93136
# Velocity P-wave (km/s) = 3.73210 5.73381 4.83762
#
# Compressibility (1/GPa) = 0.08065468
#
# Stress axis : x y z
#
# Youngs Moduli (GPa) = 13.01398 42.27230 31.21825
#
# Poissons Ratio (x) = 0.17348 0.27679
# Poissons Ratio (y) = 0.05341 0.40481
# Poissons Ratio (z) = 0.11539 0.54814
#
# Static dielectric constant tensor:
#      x y z
#    x 1.700360 -0.024520 0.014400 
#    y -0.024520 1.769590 0.018290 
#    z 0.014400 0.018290 1.746470 
# 
# From -- ./inp_files/465671.got.cif
#   From: 2010.05.17/outbox.cif.g08.bks.cpg/sg2_233_cif.got.tgz:465671.got - 2010.06.03 11:33:40.
