data_PCOD9072275
_publ_section_title
;
Structure prediction by ZEFSAII (Michael W. Deem and Ramdas Pophale) SiO2 
 PCOD9072275
Probable space group: P -1
;
_chemical_formula_sum "Si O2"
_cell_formula_units_Z 14
_cell_length_a 9.000000
_cell_length_b 30.000000
_cell_length_c 27.000000
_cell_angle_alpha 10.000000
_cell_angle_beta 30.000000
_cell_angle_gamma 30.000000
_cell_volume 625.638279
_symmetry_space_group_name_H-M "P -1"
_symmetry_group_IT_number 2
_symmetry_cell_setting 'triclinic'
loop_
_space_group_symop_operation_xyz
x,y,z
-x,-y,-z
loop_
_atom_site_type_symbol
_atom_site_label
_atom_site_fract_x
_atom_site_fract_y
_atom_site_fract_z
Si Si1 0.778357 0.040603 0.065541
Si Si2 0.408669 0.627478 0.659228
Si Si3 0.652491 0.644136 0.223922
Si Si4 0.535445 0.193823 0.397749
Si Si5 0.195965 0.122667 0.241109
Si Si6 0.743142 0.135045 0.809606
Si Si7 0.304051 0.701887 0.967121
O O1 0.652478 0.769829 0.405403
O O2 0.526424 0.276814 0.861846
O O3 0.967560 0.057011 0.043491
O O4 0.000000 0.000000 0.000000
O O5 0.542356 0.460534 0.851659
O O6 0.197618 0.894975 0.447778
O O7 0.296759 0.409482 0.894740
O O8 0.797941 0.352081 0.516545
O O9 0.420740 0.734237 0.236831
O O10 0.946868 0.778625 0.992369
O O11 0.378339 0.488970 0.133680
O O12 0.867646 0.199086 0.275429
O O13 0.583529 0.038194 0.606196
O O14 0.410728 0.984993 0.626233
O O15 0.500000 0.000000 0.000000
#
# Coordination Sequence:
#
# PCOD9072275 Si02
#       7
#     2   2   2   2   2   2   2
#     4  10  22  43  59  92 128 167 212 260 319 374
#     4  10  19  36  58  87 123 166 207 259 312 378
#     4  10  22  39  59  89 125 166 208 265 317 378
#     4   9  18  32  57  92 119 160 207 262 314 378
#     4   9  18  33  58  88 123 158 210 260 316 374
#     4  10  22  40  64  86 121 164 218 263 315 375
#     4  10  19  33  60  87 124 161 209 256 315 378
#
# _framework density 22.377147000000001
#
# number of rings (size 3 to 8) (size 9 to 14) (size 15 to 20)
#    0.000    2.286    1.429    0.857    2.000    5.143 
#    5.143    0.000    0.000    5.143    0.000    0.000 
#    0.000    0.000    0.000    0.000    0.000    0.000 
#
# Total GULP energy -77937.333842 kJ/mol
# GULP energy per Si atom -5566.952417 kJ/mol
# Density = 2.232622 g / cm^3
# Si number density = 22.377147 Si / 1000 Ang^3
#
#
#
# Elastic Constant Matrix: (Units=GPa)
#
#
# Indices 1 2 3 4 5 6 
#
# 1 93.9013 -3.0812 47.1330 -11.7239 6.9798 -15.1103
# 2 -3.0812 43.1675 14.2563 -15.5839 -4.9681 10.3264
# 3 47.1330 14.2563 81.1853 -10.6083 -24.2010 8.2157
# 4 -11.7239 -15.5839 -10.6083 15.3958 -7.1670 3.4610
# 5 6.9798 -4.9681 -24.2010 -7.1670 26.5328 -7.0962
# 6 -15.1103 10.3264 8.2157 3.4610 -7.0962 22.9165
#
#
#
# Elastic Compliance Matrix: (Units=1/GPa)
#
#
# Indices 1 2 3 4 5 6 
#
# 1 0.050212 -0.042325 -0.075079 -0.119590 -0.104595 0.064769
# 2 -0.042325 0.135460 0.100853 0.280913 0.173969 -0.113659
# 3 -0.075079 0.100853 0.153719 0.281974 0.221861 -0.123944
# 4 -0.119590 0.280913 0.281974 0.730596 0.465673 -0.272665
# 5 -0.104595 0.173969 0.221861 0.465673 0.377716 -0.180264
# 6 0.064769 -0.113659 -0.123944 -0.272665 -0.180264 0.167353
#
#
# Mechanical properties :
#
#
# Convention : Reuss Voigt Hill
#
# Bulk Modulus (GPa) = 3.26490 37.20781 20.23635
# Shear Modulus (GPa) = 2.85673 23.63210 13.24441
#
# Velocity S-wave (km/s) = 1.13110 3.25327 2.43548
# Velocity P-wave (km/s) = 1.77991 5.54755 4.11967
#
# Compressibility (1/GPa) = 0.30628802
#
# Stress axis : x y z
#
# Youngs Moduli (GPa) = 19.91561 7.38223 6.50538
#
# Poissons Ratio (x) = 0.31246 0.48842
# Poissons Ratio (y) = 0.84294 -0.65609
# Poissons Ratio (z) = 1.49524 -0.74452
#
# Static dielectric constant tensor:
#      x y z
#    x 1.867230 -0.008860 -0.029730 
#    y -0.008860 1.861010 0.052860 
#    z -0.029730 0.052860 1.915910 
# 
# From -- ./inp_files/39998.got.cif
#   From: 2010.05.17/outbox.ucp.g08.bks.cvg/sg2_20_cif.got.tgz:39998.got - 2010.06.11 11:32:03.
