data_PCOD9072375
_publ_section_title
;
Structure prediction by ZEFSAII (Michael W. Deem and Ramdas Pophale) SiO2 
 PCOD9072375
Probable space group: P -1
;
_chemical_formula_sum "Si O2"
_cell_formula_units_Z 14
_cell_length_a 9.000000
_cell_length_b 21.000000
_cell_length_c 12.000000
_cell_angle_alpha 140.000000
_cell_angle_beta 120.000000
_cell_angle_gamma 30.000000
_cell_volume 627.666119
_symmetry_space_group_name_H-M "P -1"
_symmetry_group_IT_number 2
_symmetry_cell_setting 'triclinic'
loop_
_space_group_symop_operation_xyz
x,y,z
-x,-y,-z
loop_
_atom_site_type_symbol
_atom_site_label
_atom_site_fract_x
_atom_site_fract_y
_atom_site_fract_z
Si Si1 0.191483 0.797123 0.430006
Si Si2 0.534234 0.777381 0.215090
Si Si3 0.881661 0.732945 0.487158
Si Si4 0.639873 0.503435 0.828674
Si Si5 0.574052 0.856501 0.097417
Si Si6 0.835245 0.283942 0.896147
Si Si7 0.939584 0.518105 0.372144
O O1 0.158636 0.698063 0.327312
O O2 0.123047 0.832679 0.319482
O O3 0.582590 0.635831 0.379071
O O4 0.883036 0.012880 0.657073
O O5 0.671923 0.783297 0.371951
O O6 0.606467 0.786610 0.133774
O O7 0.688567 0.587584 0.019106
O O8 0.865843 0.662377 0.484914
O O9 0.267217 0.536748 0.318240
O O10 0.768607 0.901383 0.702921
O O11 0.250795 0.680088 0.958811
O O12 0.847269 0.807112 0.126052
O O13 0.728727 0.701466 0.856603
O O14 0.500000 0.500000 0.000000
O O15 0.000000 0.500000 0.500000
#
# Coordination Sequence:
#
# PCOD9072375 Si02
#       7
#     2   2   2   2   2   2   2
#     4  11  23  41  64  99 140 165 214 277 330 389
#     4  12  23  36  70 110 136 162 208 273 351 397
#     4  12  25  39  69 103 134 175 211 267 343 393
#     4  11  22  36  62 100 138 170 205 259 336 399
#     4  12  23  42  69 100 141 166 209 279 335 393
#     4  10  19  35  62  98 135 169 196 267 343 384
#     4  12  29  49  66  90 131 186 231 264 312 393
#
# _framework density 22.304852
#
# number of rings (size 3 to 8) (size 9 to 14) (size 15 to 20)
#    0.000    0.571    7.143    3.429    4.000    1.714 
#    0.000    1.429    0.000    0.000    0.000    0.000 
#    0.000    0.000    0.000    0.000    0.000    0.000 
#
# Total GULP energy -77977.231423 kJ/mol
# GULP energy per Si atom -5569.802244 kJ/mol
# Density = 2.225409 g / cm^3
# Si number density = 22.304852 Si / 1000 Ang^3
#
#
#
# Elastic Constant Matrix: (Units=GPa)
#
#
# Indices 1 2 3 4 5 6 
#
# 1 122.4889 34.5029 46.9986 2.0066 -7.4828 23.8850
# 2 34.5029 20.5554 32.0710 -6.8200 -11.1040 24.7810
# 3 46.9986 32.0710 166.0832 18.5326 -4.7541 26.7152
# 4 2.0066 -6.8200 18.5326 23.4894 10.0049 -8.2379
# 5 -7.4828 -11.1040 -4.7541 10.0049 55.1289 11.8445
# 6 23.8850 24.7810 26.7152 -8.2379 11.8445 25.8871
#
#
#
# Elastic Compliance Matrix: (Units=1/GPa)
#
#
# Indices 1 2 3 4 5 6 
#
# 1 0.012405 -0.003346 0.001237 -0.011575 0.006714 -0.016275
# 2 -0.003346 -0.050761 -0.010666 0.044425 -0.040109 0.095175
# 3 0.001237 -0.010666 0.011637 -0.018171 0.004653 -0.010852
# 4 -0.011575 0.044425 -0.018171 0.083476 -0.013567 0.019677
# 5 0.006714 -0.040109 0.004653 -0.013567 0.009844 0.018578
# 6 -0.016275 0.095175 -0.010852 0.019677 0.018578 -0.028502
#
#
# Mechanical properties :
#
#
# Convention : Reuss Voigt Hill
#
# Bulk Modulus (GPa) = -19.13220 59.58585 20.22682
# Shear Modulus (GPa) = 108.16856 33.93809 71.05333
#
# Velocity S-wave (km/s) = 6.97143 3.90495 5.65019
# Velocity P-wave (km/s) = 7.49699 6.86322 7.18709
#
# Compressibility (1/GPa) = -0.05226789
#
# Stress axis : x y z
#
# Youngs Moduli (GPa) = 80.61239 -19.70008 85.93297
#
# Poissons Ratio (x) = -0.06592 -0.10633
# Poissons Ratio (y) = 0.26973 0.91653
# Poissons Ratio (z) = -0.09974 -0.21011
#
# Static dielectric constant tensor:
#      x y z
#    x 1.806950 0.242890 0.114710 
#    y 0.242890 1.662930 0.072540 
#    z 0.114710 0.072540 2.078190 
# 
# From -- ./inp_files/178465.got.cif
#   From: 2010.05.17/outbox.ucp.g08.bks.cvg/sg2_90_cif.got.tgz:178465.got - 2010.06.11 11:32:03.
