data_PCOD9072652
_publ_section_title
;
Structure prediction by ZEFSAII (Michael W. Deem and Ramdas Pophale) SiO2 
 PCOD9072652
Probable space group: P -1
;
_chemical_formula_sum "Si O2"
_cell_formula_units_Z 16
_cell_length_a 18.851616
_cell_length_b 27.488081
_cell_length_c 9.113310
_cell_angle_alpha 139.942676
_cell_angle_beta 140.361338
_cell_angle_gamma 15.829245
_cell_volume 813.570572
_symmetry_space_group_name_H-M "P -1"
_symmetry_group_IT_number 2
_symmetry_cell_setting 'triclinic'
loop_
_space_group_symop_operation_xyz
x,y,z
-x,-y,-z
loop_
_atom_site_type_symbol
_atom_site_label
_atom_site_fract_x
_atom_site_fract_y
_atom_site_fract_z
Si Si1 0.214798 0.346816 0.270314
Si Si2 0.876187 0.295788 0.726991
Si Si3 0.334875 0.148705 0.797954
Si Si4 0.394555 0.503134 0.532881
Si Si5 0.127445 0.106121 0.409277
Si Si6 0.818602 0.489037 0.588092
Si Si7 0.880610 0.759873 0.759225
Si Si8 0.672300 0.716682 0.362631
O O1 0.280418 0.371913 0.316508
O O2 0.304112 0.316820 0.504961
O O3 0.894114 0.534699 0.205421
O O4 0.341584 0.191501 0.057427
O O5 0.682327 0.361986 0.663655
O O6 0.693792 0.451063 0.673198
O O7 0.071180 0.128297 0.544182
O O8 0.024326 0.261678 0.989324
O O9 0.236472 0.124595 0.614566
O O10 0.107546 0.325326 0.743533
O O11 0.626820 0.963388 0.767429
O O12 0.358879 0.447623 0.434790
O O13 0.167149 0.703518 0.688259
O O14 0.363096 0.908243 0.269426
O O15 0.887011 0.390634 0.335362
O O16 0.779489 0.736877 0.569340
#
# Coordination Sequence:
#
# PCOD9072652 Si02
#       8
#     2   2   2   2   2   2   2   2
#     4  10  19  29  46  71 106 134 153 184 240 301
#     4   9  16  31  52  77  90 122 164 209 237 276
#     4  10  18  31  49  73 100 129 160 188 241 295
#     4   8  18  32  50  74  95 122 162 207 243 271
#     4   8  15  30  52  72  96 120 159 207 234 272
#     4  10  20  33  44  72 105 130 153 198 242 284
#     4  10  19  30  53  75  97 124 162 203 237 276
#     4   9  18  30  46  78 101 123 158 197 238 285
#
# _framework density 19.666395000000001
#
# number of rings (size 3 to 8) (size 9 to 14) (size 15 to 20)
#    0.750    2.000    0.000    2.250    0.000    3.500 
#    0.000    0.000    0.000    3.000    0.000   38.500 
#    0.000    0.000    0.000    0.000    0.000    0.000 
#
# Total GULP energy -89076.321003 kJ/mol
# GULP energy per Si atom -5567.270063 kJ/mol
# Density = 1.962163 g / cm^3
# Si number density = 19.666395 Si / 1000 Ang^3
#
#
#
# Elastic Constant Matrix: (Units=GPa)
#
#
# Indices 1 2 3 4 5 6 
#
# 1 90.9368 4.2501 -2.7937 -4.5839 6.6739 1.7469
# 2 4.2501 43.3060 -0.7590 6.1509 7.3668 -8.0481
# 3 -2.7937 -0.7590 21.2794 5.0130 -4.5984 -3.6015
# 4 -4.5839 6.1509 5.0130 16.2061 -1.0355 -2.5111
# 5 6.6739 7.3668 -4.5984 -1.0355 8.5849 -2.6021
# 6 1.7469 -8.0481 -3.6015 -2.5111 -2.6021 19.7749
#
#
#
# Elastic Compliance Matrix: (Units=1/GPa)
#
#
# Indices 1 2 3 4 5 6 
#
# 1 0.011915 -0.000334 -0.001814 0.003010 -0.010342 -0.002497
# 2 -0.000334 0.030528 -0.000302 -0.012032 -0.025263 0.007547
# 3 -0.001814 -0.000302 0.060446 -0.014592 0.036531 0.014000
# 4 0.003010 -0.012032 -0.014592 0.072678 0.009751 0.002692
# 5 -0.010342 -0.025263 0.036531 0.009751 0.173415 0.021343
# 6 -0.002497 0.007547 0.014000 0.002692 0.021343 0.059561
#
#
# Mechanical properties :
#
#
# Convention : Reuss Voigt Hill
#
# Bulk Modulus (GPa) = 10.20524 17.43523 13.82023
# Shear Modulus (GPa) = 11.20810 19.23483 15.22146
#
# Velocity S-wave (km/s) = 2.38987 3.13078 2.78507
# Velocity P-wave (km/s) = 3.57991 4.68549 4.16951
#
# Compressibility (1/GPa) = 0.09798892
#
# Stress axis : x y z
#
# Youngs Moduli (GPa) = 83.92609 32.75698 16.54365
#
# Poissons Ratio (x) = 0.01093 0.03002
# Poissons Ratio (y) = 0.02799 0.00500
# Poissons Ratio (z) = 0.15228 0.00990
#
# Static dielectric constant tensor:
#      x y z
#    x 1.727190 -0.002560 -0.047010 
#    y -0.002560 1.783090 0.017290 
#    z -0.047010 0.017290 1.701950 
# 
# From -- ./inp_files/335489.got.cif
#   From: 2010.05.17/outbox.cif.g08.bks.cpg/sg2_168_cif.got.tgz:335489.got - 2010.06.03 11:33:40.
