data_PCOD9072923
_publ_section_title
;
Structure prediction by ZEFSAII (Michael W. Deem and Ramdas Pophale) SiO2 
 PCOD9072923
Probable space group: P -1
;
_chemical_formula_sum "Si O2"
_cell_formula_units_Z 12
_cell_length_a 24.000000
_cell_length_b 15.000000
_cell_length_c 30.000000
_cell_angle_alpha 20.000000
_cell_angle_beta 170.000000
_cell_angle_gamma 160.000000
_cell_volume 622.618477
_symmetry_space_group_name_H-M "P -1"
_symmetry_group_IT_number 2
_symmetry_cell_setting 'triclinic'
loop_
_space_group_symop_operation_xyz
x,y,z
-x,-y,-z
loop_
_atom_site_type_symbol
_atom_site_label
_atom_site_fract_x
_atom_site_fract_y
_atom_site_fract_z
Si Si1 0.209976 0.717378 0.203046
Si Si2 0.419687 0.166093 0.903033
Si Si3 0.585256 0.173598 0.851638
Si Si4 0.292485 0.180353 0.177641
Si Si5 0.690439 0.798516 0.629791
Si Si6 0.256010 0.115137 0.526260
O O1 0.468103 0.778045 0.419286
O O2 0.142121 0.393964 0.296770
O O3 0.400452 0.844841 0.248998
O O4 0.892822 0.822361 0.919224
O O5 0.588936 0.489115 0.890788
O O6 0.024769 0.121217 0.605212
O O7 0.500000 0.000000 0.000000
O O8 0.483368 0.005710 0.073315
O O9 0.616894 0.493335 0.735243
O O10 0.321374 0.093065 0.640913
O O11 0.933104 0.142700 0.118938
O O12 0.582644 0.023023 0.470698
O O13 0.000000 0.000000 0.000000
#
# Coordination Sequence:
#
# PCOD9072923 Si02
#       6
#     2   2   2   2   2   2
#     4   9  17  37  64  91 125 172 210 251 321 380
#     4  12  24  42  68  95 128 169 218 263 318 379
#     4  10  22  40  67  96 125 170 218 259 315 385
#     4  10  22  41  66  95 131 174 206 265 332 367
#     4   9  19  39  65  93 129 170 211 259 319 382
#     4  10  20  38  67  92 125 168 217 258 308 388
#
# _framework density 19.273440000000001
#
# number of rings (size 3 to 8) (size 9 to 14) (size 15 to 20)
#    0.000    2.000    3.333    0.000    2.333    1.333 
#    0.000    4.167    0.000    0.000    0.000    0.000 
#    0.000    0.000    0.000    0.000    0.000    0.000 
#
# Total GULP energy -66838.530452 kJ/mol
# GULP energy per Si atom -5569.877538 kJ/mol
# Density = 1.922957 g / cm^3
# Si number density = 19.273440 Si / 1000 Ang^3
#
#
#
# Elastic Constant Matrix: (Units=GPa)
#
#
# Indices 1 2 3 4 5 6 
#
# 1 127.3747 54.3716 33.9838 -16.2904 7.1521 8.1412
# 2 54.3716 139.5700 31.5577 -4.9860 1.0972 -4.6397
# 3 33.9838 31.5577 67.3114 -17.0574 14.8416 1.8874
# 4 -16.2904 -4.9860 -17.0574 36.0489 -13.4110 3.9204
# 5 7.1521 1.0972 14.8416 -13.4110 46.4602 -8.9115
# 6 8.1412 -4.6397 1.8874 3.9204 -8.9115 28.6365
#
#
#
# Elastic Compliance Matrix: (Units=1/GPa)
#
#
# Indices 1 2 3 4 5 6 
#
# 1 0.010841 -0.003629 -0.002681 0.003375 -0.000544 -0.004125
# 2 -0.003629 0.009407 -0.003482 -0.001769 0.001615 0.003530
# 3 -0.002681 -0.003482 0.020714 0.006683 -0.004884 -0.003602
# 4 0.003375 -0.001769 0.006683 0.035151 0.006687 -0.004418
# 5 -0.000544 0.001615 -0.004884 0.006687 0.026614 0.008105
# 6 -0.004125 0.003530 -0.003602 -0.004418 0.008105 0.040029
#
#
# Mechanical properties :
#
#
# Convention : Reuss Voigt Hill
#
# Bulk Modulus (GPa) = 46.77731 63.78692 55.28212
# Shear Modulus (GPa) = 29.50434 36.51864 33.01149
#
# Velocity S-wave (km/s) = 3.91683 4.35761 4.14308
# Velocity P-wave (km/s) = 6.69167 7.64761 7.18555
#
# Compressibility (1/GPa) = 0.02137788
#
# Stress axis : x y z
#
# Youngs Moduli (GPa) = 92.24051 106.29899 48.27761
#
# Poissons Ratio (x) = 0.38580 0.12944
# Poissons Ratio (y) = 0.33478 0.16808
# Poissons Ratio (z) = 0.24731 0.37009
#
# Static dielectric constant tensor:
#      x y z
#    x 1.696980 0.011670 0.029750 
#    y 0.011670 1.690660 0.050970 
#    z 0.029750 0.050970 1.734800 
# 
# From -- ./inp_files/166643.got.cif
#   From: 2010.05.17/outbox.ucp.g08.bks.cvg/sg2_84_cif.got.tgz:166643.got - 2010.06.11 11:32:03.
