data_PCOD9072881
_publ_section_title
;
Structure prediction by ZEFSAII (Michael W. Deem and Ramdas Pophale) SiO2 
 PCOD9072881
Probable space group: P -1
;
_chemical_formula_sum "Si O2"
_cell_formula_units_Z 16
_cell_length_a 17.723848
_cell_length_b 8.168316
_cell_length_c 6.128940
_cell_angle_alpha 62.138835
_cell_angle_beta 100.282693
_cell_angle_gamma 121.201469
_cell_volume 668.608477
_symmetry_space_group_name_H-M "P -1"
_symmetry_group_IT_number 2
_symmetry_cell_setting 'triclinic'
loop_
_space_group_symop_operation_xyz
x,y,z
-x,-y,-z
loop_
_atom_site_type_symbol
_atom_site_label
_atom_site_fract_x
_atom_site_fract_y
_atom_site_fract_z
Si Si1 0.703556 0.696701 0.775885
Si Si2 0.655248 0.368383 0.334803
Si Si3 0.810430 0.564057 0.577955
Si Si4 0.930267 0.557139 0.030065
Si Si5 0.197732 0.873467 0.646235
Si Si6 0.621475 0.056455 0.144610
Si Si7 0.061825 0.995244 0.728818
Si Si8 0.445541 0.657110 0.303989
O O1 0.755861 0.642845 0.652559
O O2 0.602336 0.561018 0.722505
O O3 0.753549 0.952932 0.629868
O O4 0.700709 0.574489 0.070387
O O5 0.734510 0.379486 0.512261
O O6 0.611504 0.150979 0.311566
O O7 0.584174 0.387375 0.434084
O O8 0.876335 0.757997 0.334246
O O9 0.867264 0.526927 0.810234
O O10 0.867866 0.377110 0.282523
O O11 0.000000 0.500000 0.000000
O O12 0.992357 0.806902 0.966384
O O13 0.279201 0.901382 0.821661
O O14 0.131859 0.931451 0.706654
O O15 0.548948 0.811117 0.226428
O O16 0.597846 0.197574 0.884636
O O17 0.000000 0.000000 0.500000
#
# Coordination Sequence:
#
# PCOD9072881 Si02
#       8
#     2   2   2   2   2   2   2   2
#     4   9  19  33  52  75 106 141 175 215 255 310
#     4  10  18  33  54  76 105 141 180 213 255 316
#     4   9  17  33  56  78 101 140 179 212 263 316
#     4   9  16  29  54  79 101 132 171 216 265 312
#     4  10  18  31  51  79 108 135 171 220 267 304
#     4  10  20  34  55  80 108 136 174 225 263 306
#     4   8  16  31  55  78 100 136 174 209 260 320
#     4   9  19  36  55  76 103 145 182 209 260 314
#
# _framework density 23.930296999999999
#
# number of rings (size 3 to 8) (size 9 to 14) (size 15 to 20)
#    0.000    2.750    0.000    2.625    0.000    0.500 
#    0.000    9.375    0.000   49.500    0.000    0.000 
#    0.000    0.000    0.000    0.000    0.000    0.000 
#
# Total GULP energy -89204.031057 kJ/mol
# GULP energy per Si atom -5575.251941 kJ/mol
# Density = 2.387583 g / cm^3
# Si number density = 23.930297 Si / 1000 Ang^3
#
#
#
# Elastic Constant Matrix: (Units=GPa)
#
#
# Indices 1 2 3 4 5 6 
#
# 1 89.0039 8.0253 -3.3482 -6.4058 10.4301 16.0719
# 2 8.0253 80.6201 -0.4895 -17.7847 -7.1779 29.7821
# 3 -3.3482 -0.4895 15.4947 -9.5139 -6.4302 0.9298
# 4 -6.4058 -17.7847 -9.5139 30.3378 5.6729 -9.4937
# 5 10.4301 -7.1779 -6.4302 5.6729 35.1997 -9.1550
# 6 16.0719 29.7821 0.9298 -9.4937 -9.1550 36.3071
#
#
#
# Elastic Compliance Matrix: (Units=1/GPa)
#
#
# Indices 1 2 3 4 5 6 
#
# 1 0.013600 0.001990 0.003303 0.003565 -0.005742 -0.008253
# 2 0.001990 0.019936 0.007848 0.009994 -0.000596 -0.014972
# 3 0.003303 0.007848 0.089890 0.031553 0.012253 0.001139
# 4 0.003565 0.009994 0.031553 0.050358 -0.000747 0.002395
# 5 -0.005742 -0.000596 0.012253 -0.000747 0.035320 0.011427
# 6 -0.008253 -0.014972 0.001139 0.002395 0.011427 0.046956
#
#
# Mechanical properties :
#
#
# Convention : Reuss Voigt Hill
#
# Bulk Modulus (GPa) = 6.67962 21.49931 14.08946
# Shear Modulus (GPa) = 17.87756 32.43100 25.15428
#
# Velocity S-wave (km/s) = 2.73622 3.68534 3.24566
# Velocity P-wave (km/s) = 3.57489 5.20697 4.46612
#
# Compressibility (1/GPa) = 0.14970921
#
# Stress axis : x y z
#
# Youngs Moduli (GPa) = 73.52945 50.16078 11.12465
#
# Poissons Ratio (x) = -0.09983 -0.03675
# Poissons Ratio (y) = -0.14635 -0.08730
# Poissons Ratio (z) = -0.24289 -0.39365
#
# Static dielectric constant tensor:
#      x y z
#    x 1.811670 -0.056310 0.008290 
#    y -0.056310 1.896090 -0.077800 
#    z 0.008290 -0.077800 1.943130 
# 
# From -- ./inp_files/106314.got.cif
#   From: 2010.05.17/outbox.cif.g08.bks.cpg/sg2_54_cif.got.tgz:106314.got - 2010.06.03 11:33:40.
