data_PCOD9072118
_publ_section_title
;
Structure prediction by ZEFSAII (Michael W. Deem and Ramdas Pophale) SiO2 
 PCOD9072118
Probable space group: P -1
;
_chemical_formula_sum "Si O2"
_cell_formula_units_Z 16
_cell_length_a 15.463658
_cell_length_b 27.742312
_cell_length_c 21.636079
_cell_angle_alpha 15.300016
_cell_angle_beta 16.804460
_cell_angle_gamma 18.094831
_cell_volume 661.635003
_symmetry_space_group_name_H-M "P -1"
_symmetry_group_IT_number 2
_symmetry_cell_setting 'triclinic'
loop_
_space_group_symop_operation_xyz
x,y,z
-x,-y,-z
loop_
_atom_site_type_symbol
_atom_site_label
_atom_site_fract_x
_atom_site_fract_y
_atom_site_fract_z
Si Si1 0.178012 0.034029 0.016369
Si Si2 0.588189 0.518701 0.120380
Si Si3 0.694902 0.023306 0.137364
Si Si4 0.164686 0.373615 0.349728
Si Si5 0.596156 0.953739 0.575468
Si Si6 0.766272 0.467157 0.772547
Si Si7 0.531188 0.521091 0.297893
Si Si8 0.706798 0.613060 0.187238
O O1 0.502842 0.846209 0.037118
O O2 0.911538 0.954828 0.324934
O O3 0.199154 0.078443 0.874260
O O4 0.039704 0.256800 0.860539
O O5 0.539651 0.749677 0.861534
O O6 0.956206 0.415572 0.977075
O O7 0.329210 0.486302 0.291587
O O8 0.587997 0.446346 0.281050
O O9 0.413324 0.003374 0.397395
O O10 0.567453 0.248982 0.927995
O O11 0.000000 0.000000 0.000000
O O12 0.160609 0.382892 0.416497
O O13 0.801135 0.492799 0.432637
O O14 0.304607 0.147027 0.513301
O O15 0.429294 0.454362 0.043747
O O16 0.778986 0.494541 0.217493
O O17 0.500000 0.500000 0.500000
#
# Coordination Sequence:
#
# PCOD9072118 Si02
#       8
#     2   2   2   2   2   2   2   2
#     4  10  21  36  58  83 116 153 190 242 292 338
#     4  11  22  36  60  91 116 152 194 238 301 345
#     4  10  18  30  51  90 113 142 183 243 294 335
#     4  10  21  38  57  87 122 151 193 241 291 344
#     4  10  20  34  58  84 118 147 192 241 287 345
#     4  10  23  37  60  87 117 156 195 236 291 356
#     4  10  21  34  58  85 122 148 190 247 293 341
#     4  11  21  37  58  88 116 152 193 245 291 347
#
# _framework density 24.182517000000001
#
# number of rings (size 3 to 8) (size 9 to 14) (size 15 to 20)
#    0.000    1.750    2.500    2.625    3.500    2.000 
#    0.000    0.000    2.750    3.750    0.000    0.000 
#    0.000    0.000    0.000    0.000    0.000    0.000 
#
# Total GULP energy -89169.894373 kJ/mol
# GULP energy per Si atom -5573.118398 kJ/mol
# Density = 2.412748 g / cm^3
# Si number density = 24.182517 Si / 1000 Ang^3
#
#
#
# Elastic Constant Matrix: (Units=GPa)
#
#
# Indices 1 2 3 4 5 6 
#
# 1 102.8390 34.3071 21.4927 7.3476 -2.0087 4.0816
# 2 34.3071 122.5592 21.9239 8.4369 -19.3674 -4.4266
# 3 21.4927 21.9239 71.3484 13.4257 1.3823 1.3218
# 4 7.3476 8.4369 13.4257 33.6290 5.8867 1.7683
# 5 -2.0087 -19.3674 1.3823 5.8867 34.7185 11.8848
# 6 4.0816 -4.4266 1.3218 1.7683 11.8848 30.9405
#
#
#
# Elastic Compliance Matrix: (Units=1/GPa)
#
#
# Indices 1 2 3 4 5 6 
#
# 1 0.011256 -0.002751 -0.002377 -0.000716 -0.000084 -0.001704
# 2 -0.002751 0.010428 -0.002064 -0.002266 0.006235 -0.000322
# 3 -0.002377 -0.002064 0.016388 -0.005323 -0.001047 0.000025
# 4 -0.000716 -0.002266 -0.005323 0.033786 -0.007093 0.000791
# 5 -0.000084 0.006235 -0.001047 -0.007093 0.038062 -0.013267
# 6 -0.001704 -0.000322 0.000025 0.000791 -0.013267 0.037549
#
#
# Mechanical properties :
#
#
# Convention : Reuss Voigt Hill
#
# Bulk Modulus (GPa) = 42.21855 50.24378 46.23116
# Shear Modulus (GPa) = 29.45524 34.45913 31.95719
#
# Velocity S-wave (km/s) = 3.49383 3.77896 3.63919
# Velocity P-wave (km/s) = 5.81137 6.31369 6.06773
#
# Compressibility (1/GPa) = 0.02368627
#
# Stress axis : x y z
#
# Youngs Moduli (GPa) = 88.84440 95.89383 61.02149
#
# Poissons Ratio (x) = 0.26380 0.14507
# Poissons Ratio (y) = 0.24441 0.12596
# Poissons Ratio (z) = 0.21122 0.19794
#
# Static dielectric constant tensor:
#      x y z
#    x 2.292410 0.006390 0.004290 
#    y 0.006390 1.959880 0.069190 
#    z 0.004290 0.069190 1.995420 
# 
# From -- ./inp_files/182379.got.cif
#   From: 2010.05.17/outbox.cif.g08.bks.cpg/sg2_92_cif.got.tgz:182379.got - 2010.06.03 11:33:40.
