data_PCOD9072988
_publ_section_title
;
Structure prediction by ZEFSAII (Michael W. Deem and Ramdas Pophale) SiO2 
 PCOD9072988
Probable space group: P -1
;
_chemical_formula_sum "Si O2"
_cell_formula_units_Z 12
_cell_length_a 9.000000
_cell_length_b 12.000000
_cell_length_c 9.000000
_cell_angle_alpha 50.000000
_cell_angle_beta 60.000000
_cell_angle_gamma 90.000000
_cell_volume 564.115245
_symmetry_space_group_name_H-M "P -1"
_symmetry_group_IT_number 2
_symmetry_cell_setting 'triclinic'
loop_
_space_group_symop_operation_xyz
x,y,z
-x,-y,-z
loop_
_atom_site_type_symbol
_atom_site_label
_atom_site_fract_x
_atom_site_fract_y
_atom_site_fract_z
Si Si1 0.118758 0.134993 0.195091
Si Si2 0.118642 0.932704 0.089416
Si Si3 0.515356 0.022247 0.649844
Si Si4 0.179122 0.364553 0.352260
Si Si5 0.549168 0.704258 0.918740
Si Si6 0.919069 0.310461 0.238052
O O1 0.317198 0.297610 0.011360
O O2 0.976171 0.212840 0.169056
O O3 0.158338 0.033432 0.137322
O O4 0.000000 0.000000 0.500000
O O5 0.967916 0.738503 0.356148
O O6 0.314663 0.975831 0.869909
O O7 0.000000 0.000000 0.000000
O O8 0.685889 0.202521 0.457500
O O9 0.500000 0.000000 0.500000
O O10 0.568310 0.880887 0.789039
O O11 0.331547 0.297865 0.286099
O O12 0.033112 0.321492 0.323482
O O13 0.328297 0.557538 0.142516
O O14 0.000000 0.500000 0.000000
#
# Coordination Sequence:
#
# PCOD9072988 Si02
#       6
#     2   2   2   2   2   2
#     4  11  20  44  67  92 129 175 210 263 328 384
#     4  12  25  41  66  94 132 172 222 267 325 392
#     4  12  24  40  63  94 129 174 222 269 326 384
#     4  10  21  40  64  98 128 175 213 267 323 389
#     4  10  20  39  68  90 130 169 218 257 331 382
#     4  11  22  40  68  97 133 169 220 267 325 385
#
# _framework density 21.272248999999999
#
# number of rings (size 3 to 8) (size 9 to 14) (size 15 to 20)
#    0.000    1.000    5.000    3.000    0.000    6.000 
#    0.000    5.000    0.000    0.000    0.000    0.000 
#    0.000    0.000    0.000    0.000    0.000    0.000 
#
# Total GULP energy -66879.923672 kJ/mol
# GULP energy per Si atom -5573.326973 kJ/mol
# Density = 2.122383 g / cm^3
# Si number density = 21.272249 Si / 1000 Ang^3
#
#
#
# Elastic Constant Matrix: (Units=GPa)
#
#
# Indices 1 2 3 4 5 6 
#
# 1 78.4334 17.0950 67.1252 -0.4158 -25.8737 11.1790
# 2 17.0950 69.5434 60.4706 -2.6520 -12.2217 4.7597
# 3 67.1252 60.4706 162.6812 -8.7691 -42.5968 1.6176
# 4 -0.4158 -2.6520 -8.7691 41.7253 3.4380 -6.0183
# 5 -25.8737 -12.2217 -42.5968 3.4380 39.3869 -10.2882
# 6 11.1790 4.7597 1.6176 -6.0183 -10.2882 41.4255
#
#
#
# Elastic Compliance Matrix: (Units=1/GPa)
#
#
# Indices 1 2 3 4 5 6 
#
# 1 0.022306 0.003910 -0.009630 -0.002687 0.004269 -0.005423
# 2 0.003910 0.022524 -0.010829 -0.001147 -0.003142 -0.004167
# 3 -0.009630 -0.010829 0.016810 0.002809 0.009824 0.006035
# 4 -0.002687 -0.001147 0.002809 0.025097 -0.000135 0.004360
# 5 0.004269 -0.003142 0.009824 -0.000135 0.040148 0.008777
# 6 -0.005423 -0.004167 0.006035 0.004360 0.008777 0.028659
#
#
# Mechanical properties :
#
#
# Convention : Reuss Voigt Hill
#
# Bulk Modulus (GPa) = 35.03731 66.67106 50.85419
# Shear Modulus (GPa) = 25.23257 35.57201 30.40229
#
# Velocity S-wave (km/s) = 3.44782 4.09372 3.78458
# Velocity P-wave (km/s) = 5.68829 7.33175 6.56168
#
# Compressibility (1/GPa) = 0.02854100
#
# Stress axis : x y z
#
# Youngs Moduli (GPa) = 44.83003 44.39778 59.48973
#
# Poissons Ratio (x) = -0.17358 0.57290
# Poissons Ratio (y) = -0.17527 0.64419
# Poissons Ratio (z) = 0.43173 0.48077
#
# Static dielectric constant tensor:
#      x y z
#    x 1.802380 0.030400 0.156980 
#    y 0.030400 1.707810 -0.108740 
#    z 0.156980 -0.108740 1.672220 
# 
# From -- ./inp_files/148914.got.cif
#   From: 2010.05.17/outbox.ucp.g08.bks.cvg/sg2_75_cif.got.tgz:148914.got - 2010.06.11 11:32:03.
