data_PCOD9072596
_publ_section_title
;
Structure prediction by ZEFSAII (Michael W. Deem and Ramdas Pophale) SiO2 
 PCOD9072596
Probable space group: P -1
;
_chemical_formula_sum "Si O2"
_cell_formula_units_Z 14
_cell_length_a 9.000000
_cell_length_b 6.000000
_cell_length_c 21.000000
_cell_angle_alpha 90.000000
_cell_angle_beta 140.000000
_cell_angle_gamma 70.000000
_cell_volume 617.169155
_symmetry_space_group_name_H-M "P -1"
_symmetry_group_IT_number 2
_symmetry_cell_setting 'triclinic'
loop_
_space_group_symop_operation_xyz
x,y,z
-x,-y,-z
loop_
_atom_site_type_symbol
_atom_site_label
_atom_site_fract_x
_atom_site_fract_y
_atom_site_fract_z
Si Si1 0.167603 0.481010 0.147363
Si Si2 0.783739 0.764690 0.273394
Si Si3 0.952561 0.288645 0.260905
Si Si4 0.599493 0.673114 0.913730
Si Si5 0.384840 0.455116 0.670247
Si Si6 0.552273 0.962280 0.664153
Si Si7 0.079204 0.996006 0.436868
O O1 0.250008 0.486982 0.101306
O O2 0.308478 0.606420 0.232942
O O3 0.344080 0.185591 0.233936
O O4 0.845078 0.602135 0.042793
O O5 0.951885 0.551743 0.274397
O O6 0.646291 0.647248 0.271538
O O7 0.564181 0.028460 0.165580
O O8 0.973557 0.806140 0.384005
O O9 0.644336 0.365120 0.145212
O O10 0.170017 0.119740 0.279572
O O11 0.057635 0.124436 0.360857
O O12 0.151560 0.762822 0.595794
O O13 0.362433 0.274550 0.611188
O O14 0.374525 0.882319 0.563899
#
# Coordination Sequence:
#
# PCOD9072596 Si02
#       7
#     2   2   2   2   2   2   2
#     4  11  23  38  65  94 117 158 209 251 297 359
#     4  10  19  41  65  85 122 166 199 247 298 359
#     4  10  23  42  63  90 124 164 197 245 312 360
#     4  10  21  43  63  89 122 157 208 248 299 368
#     4  11  21  40  61  96 121 158 203 251 304 350
#     4  12  25  39  61  96 127 155 202 254 303 354
#     4  10  22  41  63  89 124 164 203 244 299 366
#
# _framework density 22.684218999999999
#
# number of rings (size 3 to 8) (size 9 to 14) (size 15 to 20)
#    0.000    1.429    5.714    0.857    0.000    9.714 
#    0.000    1.429    0.000    0.000    0.000    0.000 
#    0.000    0.000    0.000    0.000    0.000    0.000 
#
# Total GULP energy -78114.397972 kJ/mol
# GULP energy per Si atom -5579.599855 kJ/mol
# Density = 2.263259 g / cm^3
# Si number density = 22.684219 Si / 1000 Ang^3
#
#
#
# Elastic Constant Matrix: (Units=GPa)
#
#
# Indices 1 2 3 4 5 6 
#
# 1 60.6234 20.8027 24.8015 10.5388 27.6429 -4.5259
# 2 20.8027 80.6138 18.3336 5.2092 10.9476 1.8070
# 3 24.8015 18.3336 146.0439 16.2740 31.8479 16.2711
# 4 10.5388 5.2092 16.2740 19.5395 5.4974 5.4978
# 5 27.6429 10.9476 31.8479 5.4974 26.3895 -0.6799
# 6 -4.5259 1.8070 16.2711 5.4978 -0.6799 19.9479
#
#
#
# Elastic Compliance Matrix: (Units=1/GPa)
#
#
# Indices 1 2 3 4 5 6 
#
# 1 0.036682 -0.004435 0.002918 -0.013012 -0.037173 0.008663
# 2 -0.004435 0.013790 -0.000738 -0.000161 -0.000193 -0.001616
# 3 0.002918 -0.000738 0.011163 -0.004107 -0.015568 -0.007775
# 4 -0.013012 -0.000161 -0.004107 0.065264 0.004609 -0.017418
# 5 -0.037173 -0.000193 -0.015568 0.004609 0.094900 0.006246
# 6 0.008663 -0.001616 -0.007775 -0.017418 0.006246 0.063598
#
#
# Mechanical properties :
#
#
# Convention : Reuss Voigt Hill
#
# Bulk Modulus (GPa) = 17.50523 46.12851 31.81687
# Shear Modulus (GPa) = 16.18394 28.06492 22.12443
#
# Velocity S-wave (km/s) = 2.67394 3.52120 3.12640
# Velocity P-wave (km/s) = 4.15535 6.07544 5.20471
#
# Compressibility (1/GPa) = 0.05712579
#
# Stress axis : x y z
#
# Youngs Moduli (GPa) = 27.26148 72.51702 89.58109
#
# Poissons Ratio (x) = 0.32160 -0.26143
# Poissons Ratio (y) = 0.12090 0.06611
# Poissons Ratio (z) = -0.07956 0.05352
#
# Static dielectric constant tensor:
#      x y z
#    x 1.880270 0.040250 -0.009090 
#    y 0.040250 1.932010 0.017130 
#    z -0.009090 0.017130 1.779180 
# 
# From -- ./inp_files/27307.got.cif
#   From: 2010.05.17/outbox.ucp.g08.bks.cvg/sg2_14_cif.got.tgz:27307.got - 2010.06.11 11:32:03.
