data_PCOD9072180
_publ_section_title
;
Structure prediction by ZEFSAII (Michael W. Deem and Ramdas Pophale) SiO2 
 PCOD9072180
Probable space group: P -1
;
_chemical_formula_sum "Si O2"
_cell_formula_units_Z 16
_cell_length_a 5.618976
_cell_length_b 18.985386
_cell_length_c 8.610568
_cell_angle_alpha 42.348483
_cell_angle_beta 93.714079
_cell_angle_gamma 88.646833
_cell_volume 613.976965
_symmetry_space_group_name_H-M "P -1"
_symmetry_group_IT_number 2
_symmetry_cell_setting 'triclinic'
loop_
_space_group_symop_operation_xyz
x,y,z
-x,-y,-z
loop_
_atom_site_type_symbol
_atom_site_label
_atom_site_fract_x
_atom_site_fract_y
_atom_site_fract_z
Si Si1 0.921218 0.153118 0.365918
Si Si2 0.064646 0.369477 0.818187
Si Si3 0.578588 0.825849 0.560240
Si Si4 0.475552 0.944753 0.925411
Si Si5 0.451532 0.631032 0.261762
Si Si6 0.996873 0.425436 0.346567
Si Si7 0.515015 0.331440 0.444047
Si Si8 0.025664 0.079119 0.140323
O O1 0.144912 0.214318 0.325653
O O2 0.936571 0.047514 0.646124
O O3 0.648221 0.196150 0.311684
O O4 0.988218 0.118366 0.250059
O O5 0.801814 0.337311 0.879520
O O6 0.074884 0.452945 0.821779
O O7 0.336716 0.323968 0.894560
O O8 0.035030 0.395958 0.583296
O O9 0.571405 0.953548 0.357134
O O10 0.519413 0.773939 0.478141
O O11 0.228821 0.891628 0.000370
O O12 0.733291 0.885688 0.983202
O O13 0.500000 0.000000 0.000000
O O14 0.500000 0.500000 0.500000
O O15 0.452821 0.677396 0.356545
O O16 0.252549 0.400815 0.311860
O O17 0.768416 0.377113 0.339484
#
# Coordination Sequence:
#
# PCOD9072180 Si02
#       8
#     2   2   2   2   2   2   2   2
#     4   9  17  30  44  60  82 102 137 169 196 243
#     4   9  12  18  28  40  56  82 122 168 172 196
#     4  10  19  28  39  60  85 111 134 168 206 237
#     4  10  19  31  46  64  84 103 134 171 205 243
#     4  10  12  20  29  43  61  91 131 167 170 215
#     4   9  13  20  29  42  61  89 125 165 178 214
#     4  10  16  21  32  47  71  99 131 160 192 226
#     4   9  17  30  49  64  76 105 134 168 204 234
#
# _framework density 26.059608000000001
#
# number of rings (size 3 to 8) (size 9 to 14) (size 15 to 20)
#    0.000    2.500    5.000    1.875    0.000    3.000 
#    0.000    0.000    0.000    0.000    0.000    0.000 
#    0.000    0.000    0.000    0.000    0.000    7.500 
#
# Total GULP energy -89208.520913 kJ/mol
# GULP energy per Si atom -5575.532557 kJ/mol
# Density = 2.600030 g / cm^3
# Si number density = 26.059608 Si / 1000 Ang^3
#
#
#
# Elastic Constant Matrix: (Units=GPa)
#
#
# Indices 1 2 3 4 5 6 
#
# 1 302.2985 44.1553 37.0646 12.1622 -0.6784 8.1846
# 2 44.1553 90.1284 18.3036 9.7856 7.5145 9.1730
# 3 37.0646 18.3036 13.1835 -12.4268 1.0888 -16.7218
# 4 12.1622 9.7856 -12.4268 24.6104 6.2830 -1.1603
# 5 -0.6784 7.5145 1.0888 6.2830 27.1553 17.4382
# 6 8.1846 9.1730 -16.7218 -1.1603 17.4382 30.5998
#
#
#
# Elastic Compliance Matrix: (Units=1/GPa)
#
#
# Indices 1 2 3 4 5 6 
#
# 1 0.002900 -0.002940 0.004769 0.003095 -0.002899 0.004482
# 2 -0.002940 0.010356 0.008381 0.004271 -0.009179 0.007655
# 3 0.004769 0.008381 -0.029743 -0.030452 0.030992 -0.038858
# 4 0.003095 0.004271 -0.030452 0.017791 0.011998 -0.024912
# 5 -0.002899 -0.009179 0.030992 0.011998 0.034448 0.001287
# 6 0.004482 0.007655 -0.038858 -0.024912 0.001287 0.006274
#
#
# Mechanical properties :
#
#
# Convention : Reuss Voigt Hill
#
# Bulk Modulus (GPa) = 254.19742 67.18415 160.69079
# Shear Modulus (GPa) = 218.18366 36.87889 127.53128
#
# Velocity S-wave (km/s) = 9.16005 3.76596 7.00318
# Velocity P-wave (km/s) = 14.47867 6.68931 11.27783
#
# Compressibility (1/GPa) = 0.00393395
#
# Stress axis : x y z
#
# Youngs Moduli (GPa) = 344.79688 96.56206 -33.62108
#
# Poissons Ratio (x) = 0.28389 0.16035
# Poissons Ratio (y) = 1.01368 0.28178
# Poissons Ratio (z) = -1.64448 -0.80929
#
# Static dielectric constant tensor:
#      x y z
#    x 2.077680 0.018390 -0.007890 
#    y 0.018390 2.116120 -0.195020 
#    z -0.007890 -0.195020 2.165140 
# 
# From -- ./inp_files/50412.got.cif
#   From: 2010.05.17/outbox.cif.g08.bks.cpg/sg2_26_cif.got.tgz:50412.got - 2010.06.03 11:33:40.
