data_PCOD9072730
_publ_section_title
;
Structure prediction by ZEFSAII (Michael W. Deem and Ramdas Pophale) SiO2 
 PCOD9072730
Probable space group: P -1
;
_chemical_formula_sum "Si O2"
_cell_formula_units_Z 14
_cell_length_a 12.000000
_cell_length_b 9.000000
_cell_length_c 18.000000
_cell_angle_alpha 100.000000
_cell_angle_beta 50.000000
_cell_angle_gamma 140.000000
_cell_volume 729.599496
_symmetry_space_group_name_H-M "P -1"
_symmetry_group_IT_number 2
_symmetry_cell_setting 'triclinic'
loop_
_space_group_symop_operation_xyz
x,y,z
-x,-y,-z
loop_
_atom_site_type_symbol
_atom_site_label
_atom_site_fract_x
_atom_site_fract_y
_atom_site_fract_z
Si Si1 0.937649 0.657236 0.726832
Si Si2 0.541977 0.572308 0.160043
Si Si3 0.003144 0.907141 0.866395
Si Si4 0.968734 0.533071 0.431138
Si Si5 0.272388 0.377006 0.690503
Si Si6 0.541289 0.318207 0.506518
Si Si7 0.237294 0.104695 0.367597
O O1 0.651825 0.484630 0.806586
O O2 0.987622 0.752155 0.800872
O O3 0.914443 0.470291 0.684965
O O4 0.220728 0.977201 0.588941
O O5 0.330217 0.261997 0.263531
O O6 0.752078 0.687567 0.017603
O O7 0.713575 0.808995 0.176255
O O8 0.009535 0.057438 0.819449
O O9 0.000000 0.500000 0.500000
O O10 0.646007 0.287891 0.518160
O O11 0.115691 0.828540 0.390188
O O12 0.476196 0.418324 0.582667
O O13 0.247422 0.455674 0.633964
O O14 0.466914 0.639649 0.689011
O O15 0.000000 0.000000 0.500000
#
# Coordination Sequence:
#
# PCOD9072730 Si02
#       7
#     2   2   2   2   2   2   2
#     4  11  23  37  61  91 124 162 196 253 309 359
#     4  10  21  41  67  89 119 158 211 252 294 358
#     4   9  21  39  66  89 117 160 209 254 294 356
#     4  12  25  36  57  91 131 163 192 249 317 366
#     4   9  18  34  61  88 114 154 203 257 288 353
#     4  10  20  36  57  89 123 156 199 248 307 355
#     4  11  20  36  60  88 118 158 203 246 300 360
#
# _framework density 19.188610000000001
#
# number of rings (size 3 to 8) (size 9 to 14) (size 15 to 20)
#    0.000    1.714    1.429    3.429    8.000    0.000 
#    0.000    0.714    0.000    2.571    0.000    0.000 
#    0.000    0.000    0.000    0.000    0.000    0.000 
#
# Total GULP energy -77936.601026 kJ/mol
# GULP energy per Si atom -5566.900073 kJ/mol
# Density = 1.914494 g / cm^3
# Si number density = 19.188610 Si / 1000 Ang^3
#
#
#
# Elastic Constant Matrix: (Units=GPa)
#
#
# Indices 1 2 3 4 5 6 
#
# 1 80.5148 21.4946 33.7118 15.4048 4.9426 9.1058
# 2 21.4946 127.4367 36.2581 23.7493 0.7393 -13.7804
# 3 33.7118 36.2581 102.4507 11.3268 28.8826 -7.5843
# 4 15.4048 23.7493 11.3268 28.7236 7.4271 3.5798
# 5 4.9426 0.7393 28.8826 7.4271 30.9038 3.2228
# 6 9.1058 -13.7804 -7.5843 3.5798 3.2228 23.8311
#
#
#
# Elastic Compliance Matrix: (Units=1/GPa)
#
#
# Indices 1 2 3 4 5 6 
#
# 1 0.017605 -0.000714 -0.007397 -0.006481 0.006655 -0.009420
# 2 -0.000714 0.011515 -0.003661 -0.009787 0.004927 0.006570
# 3 -0.007397 -0.003661 0.018867 0.003132 -0.018020 0.008681
# 4 -0.006481 -0.009787 0.003132 0.049417 -0.012710 -0.007891
# 5 0.006655 0.004927 -0.018020 -0.012710 0.052175 -0.010575
# 6 -0.009420 0.006570 0.008681 -0.007891 -0.010575 0.054739
#
#
# Mechanical properties :
#
#
# Convention : Reuss Voigt Hill
#
# Bulk Modulus (GPa) = 40.91250 54.81458 47.86354
# Shear Modulus (GPa) = 21.18555 31.28754 26.23655
#
# Velocity S-wave (km/s) = 3.32636 4.04236 3.70171
# Velocity P-wave (km/s) = 6.01003 7.10041 6.57785
#
# Compressibility (1/GPa) = 0.02444241
#
# Stress axis : x y z
#
# Youngs Moduli (GPa) = 56.80274 86.84427 53.00251
#
# Poissons Ratio (x) = 0.06203 0.39206
# Poissons Ratio (y) = 0.04057 0.19403
# Poissons Ratio (z) = 0.42017 0.31792
#
# Static dielectric constant tensor:
#      x y z
#    x 1.706890 0.040680 -0.013440 
#    y 0.040680 1.769110 -0.032170 
#    z -0.013440 -0.032170 1.693290 
# 
# From -- ./inp_files/253870.got.cif
#   From: 2010.05.17/outbox.ucp.g08.bks.cvg/sg2_127_cif.got.tgz:253870.got - 2010.06.11 11:32:03.
