data_PCOD9072736
_publ_section_title
;
Structure prediction by ZEFSAII (Michael W. Deem and Ramdas Pophale) SiO2 
 PCOD9072736
Probable space group: P -1
;
_chemical_formula_sum "Si O2"
_cell_formula_units_Z 16
_cell_length_a 12.000000
_cell_length_b 9.000000
_cell_length_c 9.000000
_cell_angle_alpha 90.000000
_cell_angle_beta 50.000000
_cell_angle_gamma 80.000000
_cell_volume 725.212580
_symmetry_space_group_name_H-M "P -1"
_symmetry_group_IT_number 2
_symmetry_cell_setting 'triclinic'
loop_
_space_group_symop_operation_xyz
x,y,z
-x,-y,-z
loop_
_atom_site_type_symbol
_atom_site_label
_atom_site_fract_x
_atom_site_fract_y
_atom_site_fract_z
Si Si1 0.589910 0.166191 0.481847
Si Si2 0.245317 0.598732 0.552912
Si Si3 0.272204 0.414666 0.047839
Si Si4 0.547169 0.134169 0.865602
Si Si5 0.852824 0.952328 0.075851
Si Si6 0.201294 0.713026 0.277561
Si Si7 0.050094 0.210179 0.289902
Si Si8 0.734851 0.688225 0.281201
O O1 0.631945 0.329732 0.472275
O O2 0.581479 0.101773 0.658614
O O3 0.425714 0.199898 0.554801
O O4 0.710292 0.069628 0.266982
O O5 0.268013 0.598194 0.357178
O O6 0.229618 0.438889 0.625911
O O7 0.090970 0.724708 0.696973
O O8 0.229869 0.594555 0.118906
O O9 0.142124 0.340085 0.225363
O O10 0.422468 0.295304 0.975379
O O11 0.275209 0.392452 0.868224
O O12 0.696653 0.166408 0.808776
O O13 0.500000 0.000000 0.000000
O O14 0.850278 0.792458 0.157152
O O15 0.853650 0.923116 0.896398
O O16 0.000000 0.000000 0.000000
O O17 0.035120 0.796656 0.479665
#
# Coordination Sequence:
#
# PCOD9072736 Si02
#       8
#     2   2   2   2   2   2   2   2
#     4  10  20  39  59  86 119 154 193 245 295 345
#     4   9  19  37  62  86 117 148 196 242 292 339
#     4  10  20  36  59  86 117 154 192 243 290 343
#     4  10  21  38  60  84 118 156 199 239 287 350
#     4  11  19  36  56  82 118 160 187 230 294 350
#     4   9  19  39  62  84 116 155 194 238 295 343
#     4   9  20  37  63  82 122 150 195 238 296 340
#     4  10  22  35  60  89 120 149 199 245 288 342
#
# _framework density 22.062495999999999
#
# number of rings (size 3 to 8) (size 9 to 14) (size 15 to 20)
#    0.750    1.500    1.250    1.500    0.000    3.000 
#    0.000    5.625    2.750    0.000    0.000    0.000 
#    0.000    0.000    0.000    0.000    0.000    0.000 
#
# Total GULP energy -89187.013630 kJ/mol
# GULP energy per Si atom -5574.188352 kJ/mol
# Density = 2.201228 g / cm^3
# Si number density = 22.062496 Si / 1000 Ang^3
#
#
#
# Elastic Constant Matrix: (Units=GPa)
#
#
# Indices 1 2 3 4 5 6 
#
# 1 17.5751 7.4827 12.5805 -5.4942 -3.6734 5.4898
# 2 7.4827 46.0595 47.8670 1.5118 23.4796 -1.2989
# 3 12.5805 47.8670 128.7251 13.7483 -13.8683 9.2498
# 4 -5.4942 1.5118 13.7483 36.0933 6.8753 7.7536
# 5 -3.6734 23.4796 -13.8683 6.8753 18.9100 -1.5446
# 6 5.4898 -1.2989 9.2498 7.7536 -1.5446 21.4163
#
#
#
# Elastic Compliance Matrix: (Units=1/GPa)
#
#
# Indices 1 2 3 4 5 6 
#
# 1 0.073653 0.008558 -0.013070 0.023790 -0.016393 -0.022511
# 2 0.008558 -0.033909 0.020769 -0.017066 0.065010 -0.002353
# 3 -0.013070 0.020769 -0.002603 0.003649 -0.031386 0.002149
# 4 0.023790 -0.017066 0.003649 0.031838 0.015349 -0.019129
# 5 -0.016393 0.065010 -0.031386 0.015349 -0.058648 0.011914
# 6 -0.022511 -0.002353 0.002149 -0.019129 0.011914 0.059177
#
#
# Mechanical properties :
#
#
# Convention : Reuss Voigt Hill
#
# Bulk Modulus (GPa) = 14.35647 36.46892 25.41269
# Shear Modulus (GPa) = 83.03916 23.57921 53.30919
#
# Velocity S-wave (km/s) = 6.14165 3.27272 4.92090
# Velocity P-wave (km/s) = 7.53754 5.55397 6.62046
#
# Compressibility (1/GPa) = 0.06965500
#
# Stress axis : x y z
#
# Youngs Moduli (GPa) = 13.57718 -29.49042 -384.22422
#
# Poissons Ratio (x) = 0.25239 -5.02187
# Poissons Ratio (y) = -0.11620 7.97982
# Poissons Ratio (z) = 0.17746 0.61248
#
# Static dielectric constant tensor:
#      x y z
#    x 1.857960 0.012360 -0.026970 
#    y 0.012360 1.826400 0.017940 
#    z -0.026970 0.017940 1.839790 
# 
# From -- ./inp_files/243832.got.cif
#   From: 2010.05.17/outbox.ucp.g08.bks.cvg/sg2_122_cif.got.tgz:243832.got - 2010.06.11 11:32:03.
