data_PCOD9072127
_publ_section_title
;
Structure prediction by ZEFSAII (Michael W. Deem and Ramdas Pophale) SiO2 
 PCOD9072127
Probable space group: P -1
;
_chemical_formula_sum "Si O2"
_cell_formula_units_Z 16
_cell_length_a 15.000000
_cell_length_b 27.000000
_cell_length_c 9.000000
_cell_angle_alpha 140.000000
_cell_angle_beta 130.000000
_cell_angle_gamma 20.000000
_cell_volume 750.501489
_symmetry_space_group_name_H-M "P -1"
_symmetry_group_IT_number 2
_symmetry_cell_setting 'triclinic'
loop_
_space_group_symop_operation_xyz
x,y,z
-x,-y,-z
loop_
_atom_site_type_symbol
_atom_site_label
_atom_site_fract_x
_atom_site_fract_y
_atom_site_fract_z
Si Si1 0.358514 0.317276 0.629529
Si Si2 0.849605 0.120559 0.764080
Si Si3 0.422468 0.830914 0.801374
Si Si4 0.830056 0.378590 0.489366
Si Si5 0.991836 0.685451 0.967727
Si Si6 0.051576 0.571980 0.471772
Si Si7 0.581018 0.485358 0.788583
Si Si8 0.463767 0.969294 0.245456
O O1 0.612322 0.199535 0.728821
O O2 0.503115 0.196924 0.356939
O O3 0.158302 0.509422 0.806584
O O4 0.164748 0.367852 0.606901
O O5 0.666661 0.306050 0.962784
O O6 0.000000 0.000000 0.500000
O O7 0.105578 0.992046 0.847746
O O8 0.639362 0.634963 0.622136
O O9 0.519370 0.845074 0.035618
O O10 0.902692 0.422802 0.631162
O O11 0.730739 0.421333 0.647841
O O12 0.586173 0.492024 0.381326
O O13 0.137803 0.159325 0.288554
O O14 0.963910 0.688777 0.769326
O O15 0.183439 0.642677 0.127216
O O16 0.686829 0.868483 0.135536
O O17 0.500000 0.000000 0.500000
#
# Coordination Sequence:
#
# PCOD9072127 Si02
#       8
#     2   2   2   2   2   2   2   2
#     4   9  17  34  61  89 116 152 197 241 297 343
#     4   9  18  33  64  89 106 154 206 238 275 354
#     4  10  18  37  61  85 117 153 200 241 287 354
#     4  11  25  38  60  86 123 159 193 244 302 352
#     4  10  19  37  63  86 116 158 201 241 287 355
#     4  11  21  38  61  92 118 150 197 255 300 331
#     4  10  21  42  59  82 121 164 196 233 301 366
#     4  12  21  37  60  89 113 163 203 230 290 362
#
# _framework density 21.319078000000001
#
# number of rings (size 3 to 8) (size 9 to 14) (size 15 to 20)
#    0.000    1.750    5.000    1.500    0.000    1.000 
#    0.000    7.500    0.000    0.000    0.000    0.000 
#    0.000    0.000    0.000    0.000    0.000    0.000 
#
# Total GULP energy -89164.354496 kJ/mol
# GULP energy per Si atom -5572.772156 kJ/mol
# Density = 2.127056 g / cm^3
# Si number density = 21.319078 Si / 1000 Ang^3
#
#
#
# Elastic Constant Matrix: (Units=GPa)
#
#
# Indices 1 2 3 4 5 6 
#
# 1 76.6055 28.0244 0.5192 1.5679 2.7799 -25.1344
# 2 28.0244 77.6245 6.3781 -3.4463 -4.5571 -40.8578
# 3 0.5192 6.3781 62.6834 -5.1306 -2.2049 -6.2490
# 4 1.5679 -3.4463 -5.1306 39.0106 -20.3911 2.7787
# 5 2.7799 -4.5571 -2.2049 -20.3911 14.2396 0.0249
# 6 -25.1344 -40.8578 -6.2490 2.7787 0.0249 27.7551
#
#
#
# Elastic Compliance Matrix: (Units=1/GPa)
#
#
# Indices 1 2 3 4 5 6 
#
# 1 0.021919 0.005574 0.000114 -0.015132 -0.024198 0.029617
# 2 0.005574 0.090332 0.013344 0.061272 0.117392 0.134788
# 3 0.000114 0.013344 0.020248 0.024341 0.042202 0.021831
# 4 -0.015132 0.061272 0.024341 0.174911 0.276692 0.064215
# 5 -0.024198 0.117392 0.042202 0.276692 0.515046 0.132236
# 6 0.029617 0.134788 0.021831 0.064215 0.132236 0.259636
#
#
# Mechanical properties :
#
#
# Convention : Reuss Voigt Hill
#
# Bulk Modulus (GPa) = 5.86296 31.86188 18.86242
# Shear Modulus (GPa) = 4.54181 28.33384 16.43783
#
# Velocity S-wave (km/s) = 1.46117 3.64955 2.77977
# Velocity P-wave (km/s) = 2.36702 5.72159 4.37832
#
# Compressibility (1/GPa) = 0.17056233
#
# Stress axis : x y z
#
# Youngs Moduli (GPa) = 45.62202 11.07029 49.38866
#
# Poissons Ratio (x) = -0.06170 -0.00564
# Poissons Ratio (y) = -0.25428 -0.65904
# Poissons Ratio (z) = -0.00521 -0.14772
#
# Static dielectric constant tensor:
#      x y z
#    x 1.788660 0.032650 0.039000 
#    y 0.032650 1.803770 0.004910 
#    z 0.039000 0.004910 1.807670 
# 
# From -- ./inp_files/274583.got.cif
#   From: 2010.05.17/outbox.ucp.g08.bks.cvg/sg2_138_cif.got.tgz:274583.got - 2010.06.11 11:32:03.
