data_PCOD9072941
_publ_section_title
;
Structure prediction by ZEFSAII (Michael W. Deem and Ramdas Pophale) SiO2 
 PCOD9072941
Probable space group: P -1
;
_chemical_formula_sum "Si O2"
_cell_formula_units_Z 16
_cell_length_a 12.000000
_cell_length_b 9.000000
_cell_length_c 9.000000
_cell_angle_alpha 110.000000
_cell_angle_beta 70.000000
_cell_angle_gamma 70.000000
_cell_volume 733.231569
_symmetry_space_group_name_H-M "P -1"
_symmetry_group_IT_number 2
_symmetry_cell_setting 'triclinic'
loop_
_space_group_symop_operation_xyz
x,y,z
-x,-y,-z
loop_
_atom_site_type_symbol
_atom_site_label
_atom_site_fract_x
_atom_site_fract_y
_atom_site_fract_z
Si Si1 0.094939 0.148829 0.332411
Si Si2 0.218543 0.629659 0.373573
Si Si3 0.177538 0.184400 0.643329
Si Si4 0.456787 0.365350 0.386728
Si Si5 0.381350 0.948275 0.020556
Si Si6 0.400964 0.815786 0.302026
Si Si7 0.111520 0.757593 0.147245
Si Si8 0.698716 0.592023 0.234577
O O1 0.132261 0.203064 0.494144
O O2 0.927486 0.286028 0.440716
O O3 0.219593 0.119136 0.155433
O O4 0.110491 0.945960 0.247014
O O5 0.341661 0.452358 0.337894
O O6 0.295995 0.746272 0.368466
O O7 0.174595 0.629359 0.222870
O O8 0.197558 0.330920 0.777569
O O9 0.049657 0.178867 0.774744
O O10 0.331208 0.001941 0.496466
O O11 0.500000 0.500000 0.500000
O O12 0.373297 0.343102 0.549684
O O13 0.581516 0.185300 0.186118
O O14 0.392399 0.848927 0.140036
O O15 0.500000 0.000000 0.000000
O O16 0.562644 0.683329 0.222264
O O17 0.208902 0.625993 0.924773
#
# Coordination Sequence:
#
# PCOD9072941 Si02
#       8
#     2   2   2   2   2   2   2   2
#     4  10  20  41  69  89 119 164 215 253 297 373
#     4  11  21  41  68  95 114 165 219 254 296 365
#     4  10  20  39  62  94 120 156 208 261 306 361
#     4  12  25  40  59  93 132 161 203 259 308 358
#     4  11  24  43  64  94 126 163 205 253 312 371
#     4  11  21  41  68  89 122 165 213 247 302 377
#     4  11  20  40  67  92 116 163 216 251 301 372
#     4  12  25  38  60  94 132 162 197 259 318 359
#
# _framework density 21.821210000000001
#
# number of rings (size 3 to 8) (size 9 to 14) (size 15 to 20)
#    0.000    1.000    5.000    4.500    0.000    1.000 
#    0.000   11.875    0.000    0.000    0.000    0.000 
#    0.000    0.000    0.000    0.000    0.000    0.000 
#
# Total GULP energy -89149.613461 kJ/mol
# GULP energy per Si atom -5571.850841 kJ/mol
# Density = 2.177154 g / cm^3
# Si number density = 21.821210 Si / 1000 Ang^3
#
#
#
# Elastic Constant Matrix: (Units=GPa)
#
#
# Indices 1 2 3 4 5 6 
#
# 1 129.5227 0.1200 7.8594 12.6147 -28.3843 20.7999
# 2 0.1200 4.3953 -5.8624 -0.5795 -7.1167 -1.3197
# 3 7.8594 -5.8624 111.2342 14.6746 -17.3511 0.9142
# 4 12.6147 -0.5795 14.6746 29.9923 1.0716 -5.3550
# 5 -28.3843 -7.1167 -17.3511 1.0716 42.7779 3.7838
# 6 20.7999 -1.3197 0.9142 -5.3550 3.7838 25.3105
#
#
#
# Elastic Compliance Matrix: (Units=1/GPa)
#
#
# Indices 1 2 3 4 5 6 
#
# 1 0.015566 0.031855 0.005398 -0.012283 0.019616 -0.016857
# 2 0.031855 0.474070 0.046949 -0.036813 0.122559 -0.029266
# 3 0.005398 0.046949 0.015501 -0.010980 0.018632 -0.007656
# 4 -0.012283 -0.036813 -0.010980 0.047873 -0.021871 0.021969
# 5 0.019616 0.122559 0.018632 -0.021871 0.067103 -0.025061
# 6 -0.016857 -0.029266 -0.007656 0.021969 -0.025061 0.060507
#
#
# Mechanical properties :
#
#
# Convention : Reuss Voigt Hill
#
# Bulk Modulus (GPa) = 1.48469 27.70957 14.59713
# Shear Modulus (GPa) = 6.78676 35.81850 21.30263
#
# Velocity S-wave (km/s) = 1.76548 4.05588 3.12787
# Velocity P-wave (km/s) = 2.19949 5.88724 4.44395
#
# Compressibility (1/GPa) = 0.67354078
#
# Stress axis : x y z
#
# Youngs Moduli (GPa) = 64.24412 2.10939 64.51270
#
# Poissons Ratio (x) = -0.06720 -0.34823
# Poissons Ratio (y) = -2.04652 -3.02882
# Poissons Ratio (z) = -0.34678 -0.09903
#
# Static dielectric constant tensor:
#      x y z
#    x 1.838730 0.052910 -0.015090 
#    y 0.052910 1.964830 0.001190 
#    z -0.015090 0.001190 1.789160 
# 
# From -- ./inp_files/244976.got.cif
#   From: 2010.05.17/outbox.ucp.g08.bks.cvg/sg2_123_cif.got.tgz:244976.got - 2010.06.11 11:32:03.
