data_PCOD9072808
_publ_section_title
;
Structure prediction by ZEFSAII (Michael W. Deem and Ramdas Pophale) SiO2 
 PCOD9072808
Probable space group: P -1
;
_chemical_formula_sum "Si O2"
_cell_formula_units_Z 16
_cell_length_a 11.239812
_cell_length_b 9.809740
_cell_length_c 10.880661
_cell_angle_alpha 120.609141
_cell_angle_beta 69.878586
_cell_angle_gamma 62.724607
_cell_volume 602.053650
_symmetry_space_group_name_H-M "P -1"
_symmetry_group_IT_number 2
_symmetry_cell_setting 'triclinic'
loop_
_space_group_symop_operation_xyz
x,y,z
-x,-y,-z
loop_
_atom_site_type_symbol
_atom_site_label
_atom_site_fract_x
_atom_site_fract_y
_atom_site_fract_z
Si Si1 0.952753 0.057938 0.227187
Si Si2 0.336063 0.214356 0.319564
Si Si3 0.488585 0.740246 0.100172
Si Si4 0.879848 0.609905 0.776206
Si Si5 0.994295 0.842988 0.499524
Si Si6 0.424390 0.564332 0.847061
Si Si7 0.653839 0.535706 0.385974
Si Si8 0.995728 0.349763 0.019726
O O1 0.906617 0.216723 0.431862
O O2 0.196167 0.845231 0.028554
O O3 0.178362 0.747395 0.747974
O O4 0.936761 0.883595 0.170213
O O5 0.282222 0.236063 0.205704
O O6 0.417231 0.293330 0.393429
O O7 0.104962 0.425074 0.553276
O O8 0.492039 0.924210 0.172541
O O9 0.587270 0.558807 0.098780
O O10 0.244709 0.955326 0.303995
O O11 0.536931 0.595345 0.892341
O O12 0.906862 0.402297 0.716562
O O13 0.867042 0.743681 0.953196
O O14 0.000000 0.000000 0.500000
O O15 0.498866 0.414629 0.624071
O O16 0.772752 0.532933 0.244502
O O17 0.000000 0.500000 0.000000
#
# Coordination Sequence:
#
# PCOD9072808 Si02
#       8
#     2   2   2   2   2   2   2   2
#     4  10  19  32  52  78 102 129 174 210 250 297
#     4   9  17  29  48  72  96 126 165 209 248 286
#     4   9  19  31  48  76 101 130 168 201 255 304
#     4   9  17  28  45  70 100 122 162 204 250 292
#     4  10  18  31  51  74 102 131 163 209 253 299
#     4   9  18  31  48  74 103 132 161 212 248 297
#     4  10  19  32  52  77 100 130 173 214 251 290
#     4  10  19  28  44  74 105 130 156 205 263 295
#
# _framework density 26.575703000000001
#
# number of rings (size 3 to 8) (size 9 to 14) (size 15 to 20)
#    0.000    2.500    1.250    2.250    7.000    0.500 
#    0.000    0.000    0.000    0.750   13.000    6.125 
#    0.000    0.000    0.000    0.000    0.000    0.000 
#
# Total GULP energy -89506.253814 kJ/mol
# GULP energy per Si atom -5594.140863 kJ/mol
# Density = 2.651522 g / cm^3
# Si number density = 26.575703 Si / 1000 Ang^3
#
#
#
# Elastic Constant Matrix: (Units=GPa)
#
#
# Indices 1 2 3 4 5 6 
#
# 1 99.7694 17.0031 34.6828 -6.8000 19.5241 -4.4343
# 2 17.0031 92.2582 17.6202 -2.8126 9.3327 -9.8626
# 3 34.6828 17.6202 79.2789 7.2238 19.3146 -30.1484
# 4 -6.8000 -2.8126 7.2238 36.6109 -4.0844 14.3946
# 5 19.5241 9.3327 19.3146 -4.0844 56.5758 -10.8761
# 6 -4.4343 -9.8626 -30.1484 14.3946 -10.8761 45.4081
#
#
#
# Elastic Compliance Matrix: (Units=1/GPa)
#
#
# Indices 1 2 3 4 5 6 
#
# 1 0.013858 -0.001236 -0.008588 0.006790 -0.002576 -0.007387
# 2 -0.001236 0.011553 -0.001469 0.000434 -0.000735 0.001100
# 3 -0.008588 -0.001469 0.026761 -0.015505 -0.003052 0.020794
# 4 0.006790 0.000434 -0.015505 0.040492 0.001573 -0.021996
# 5 -0.002576 -0.000735 -0.003052 0.001573 0.020207 0.001904
# 6 -0.007387 0.001100 0.020794 -0.021996 0.001904 0.042775
#
#
# Mechanical properties :
#
#
# Convention : Reuss Voigt Hill
#
# Bulk Modulus (GPa) = 33.80018 45.54652 39.67335
# Shear Modulus (GPa) = 26.58251 41.18568 33.88409
#
# Velocity S-wave (km/s) = 3.16611 3.94096 3.57459
# Velocity P-wave (km/s) = 5.10997 6.15498 5.65666
#
# Compressibility (1/GPa) = 0.02958564
#
# Stress axis : x y z
#
# Youngs Moduli (GPa) = 72.16159 86.56031 37.36755
#
# Poissons Ratio (x) = 0.10697 0.32091
# Poissons Ratio (y) = 0.08918 0.05490
# Poissons Ratio (z) = 0.61971 0.12718
#
# Static dielectric constant tensor:
#      x y z
#    x 2.153330 0.067730 -0.051430 
#    y 0.067730 2.091760 -0.080260 
#    z -0.051430 -0.080260 2.132620 
# 
# From -- ./inp_files/449382.got.cif
#   From: 2010.05.17/outbox.cif.g08.bks.cpg/sg2_225_cif.got.tgz:449382.got - 2010.06.03 11:33:40.
