data_PCOD9072000
_publ_section_title
;
Structure prediction by ZEFSAII (Michael W. Deem and Ramdas Pophale) SiO2 
 PCOD9072000
Probable space group: P -1
;
_chemical_formula_sum "Si O2"
_cell_formula_units_Z 16
_cell_length_a 12.000000
_cell_length_b 12.000000
_cell_length_c 12.000000
_cell_angle_alpha 130.000000
_cell_angle_beta 60.000000
_cell_angle_gamma 80.000000
_cell_volume 763.164900
_symmetry_space_group_name_H-M "P -1"
_symmetry_group_IT_number 2
_symmetry_cell_setting 'triclinic'
loop_
_space_group_symop_operation_xyz
x,y,z
-x,-y,-z
loop_
_atom_site_type_symbol
_atom_site_label
_atom_site_fract_x
_atom_site_fract_y
_atom_site_fract_z
Si Si1 0.199556 0.231618 0.382524
Si Si2 0.620268 0.285489 0.428387
Si Si3 0.460259 0.749560 0.011068
Si Si4 0.932173 0.065152 0.329094
Si Si5 0.833164 0.906590 0.907805
Si Si6 0.195331 0.566794 0.212638
Si Si7 0.252961 0.622358 0.979267
Si Si8 0.268562 0.491861 0.498317
O O1 0.221900 0.177998 0.203208
O O2 0.282843 0.318378 0.429476
O O3 0.975323 0.394460 0.632409
O O4 0.318199 0.003910 0.234916
O O5 0.772736 0.165601 0.379521
O O6 0.411246 0.442854 0.692026
O O7 0.657041 0.414212 0.434752
O O8 0.683376 0.103290 0.195918
O O9 0.595099 0.650408 0.986142
O O10 0.341951 0.699133 0.032263
O O11 0.610288 0.620580 0.749473
O O12 0.850577 0.237155 0.579149
O O13 0.103759 0.015226 0.155181
O O14 0.043621 0.831335 0.166480
O O15 0.038069 0.698799 0.728850
O O16 0.213694 0.558213 0.065622
#
# Coordination Sequence:
#
# PCOD9072000 Si02
#       8
#     2   2   2   2   2   2   2   2
#     4  11  22  36  57  88 115 146 183 228 283 336
#     4  10  22  37  56  86 117 148 182 229 276 333
#     4  11  20  34  55  85 114 143 182 234 283 324
#     4  10  18  33  54  79 112 147 178 232 282 322
#     4  10  19  37  57  82 119 146 183 227 279 332
#     4  11  21  34  55  82 117 145 184 237 281 320
#     4  11  21  34  54  85 114 146 188 232 278 325
#     4  10  19  37  57  82 119 144 181 230 284 329
#
# _framework density 20.965325
#
# number of rings (size 3 to 8) (size 9 to 14) (size 15 to 20)
#    0.000    1.500    7.500    3.000    0.000    0.500 
#    2.250    0.000    0.000    0.750    0.000    4.375 
#    0.000    0.000    0.000    0.000    0.000    0.000 
#
# Total GULP energy -89379.071238 kJ/mol
# GULP energy per Si atom -5586.191952 kJ/mol
# Density = 2.091761 g / cm^3
# Si number density = 20.965325 Si / 1000 Ang^3
#
#
#
# Elastic Constant Matrix: (Units=GPa)
#
#
# Indices 1 2 3 4 5 6 
#
# 1 70.3109 21.0229 26.4314 5.5652 -5.9073 -1.4361
# 2 21.0229 49.6044 13.6212 -4.9240 -0.0097 -3.7184
# 3 26.4314 13.6212 49.1673 -10.0172 3.1554 -6.4512
# 4 5.5652 -4.9240 -10.0172 28.0581 -11.1266 -4.5590
# 5 -5.9073 -0.0097 3.1554 -11.1266 12.7360 4.1151
# 6 -1.4361 -3.7184 -6.4512 -4.5590 4.1151 22.9582
#
#
#
# Elastic Compliance Matrix: (Units=1/GPa)
#
#
# Indices 1 2 3 4 5 6 
#
# 1 0.022609 -0.007245 -0.013230 -0.008036 0.008892 -0.006666
# 2 -0.007245 0.024497 -0.001076 0.006548 0.001261 0.004286
# 3 -0.013230 -0.001076 0.032460 0.013481 -0.006252 0.011917
# 4 -0.008036 0.006548 0.013481 0.062268 0.044516 0.008732
# 5 0.008892 0.001261 -0.006252 0.044516 0.127960 -0.015092
# 6 -0.006666 0.004286 0.011917 0.008732 -0.015092 0.051623
#
#
# Mechanical properties :
#
#
# Convention : Reuss Voigt Hill
#
# Bulk Modulus (GPa) = 27.42364 32.35929 29.89147
# Shear Modulus (GPa) = 13.27410 19.95095 16.61252
#
# Velocity S-wave (km/s) = 2.51897 3.08817 2.81798
# Velocity P-wave (km/s) = 4.64426 5.30886 4.98764
#
# Compressibility (1/GPa) = 0.03646489
#
# Stress axis : x y z
#
# Youngs Moduli (GPa) = 44.23008 40.82124 30.80678
#
# Poissons Ratio (x) = 0.29574 0.40756
# Poissons Ratio (y) = 0.32044 0.03316
# Poissons Ratio (z) = 0.58515 0.04394
#
# Static dielectric constant tensor:
#      x y z
#    x 1.749610 -0.031240 -0.010720 
#    y -0.031240 1.814130 0.046860 
#    z -0.010720 0.046860 1.747200 
# 
# From -- ./inp_files/424451.got.cif
#   From: 2010.05.17/outbox.ucp.g08.bks.cvg/sg2_213_cif.got.tgz:424451.got - 2010.06.11 11:32:03.
