data_PCOD9072851
_publ_section_title
;
Structure prediction by ZEFSAII (Michael W. Deem and Ramdas Pophale) SiO2 
 PCOD9072851
Probable space group: P -1
;
_chemical_formula_sum "Si O2"
_cell_formula_units_Z 16
_cell_length_a 11.001633
_cell_length_b 12.476548
_cell_length_c 13.312979
_cell_angle_alpha 87.763618
_cell_angle_beta 86.616276
_cell_angle_gamma 155.686173
_cell_volume 731.681121
_symmetry_space_group_name_H-M "P -1"
_symmetry_group_IT_number 2
_symmetry_cell_setting 'triclinic'
loop_
_space_group_symop_operation_xyz
x,y,z
-x,-y,-z
loop_
_atom_site_type_symbol
_atom_site_label
_atom_site_fract_x
_atom_site_fract_y
_atom_site_fract_z
Si Si1 0.339709 0.726952 0.980525
Si Si2 0.369280 0.172130 0.204375
Si Si3 0.773682 0.441229 0.545129
Si Si4 0.183801 0.230304 0.286171
Si Si5 0.410713 0.875262 0.167285
Si Si6 0.624643 0.671645 0.399074
Si Si7 0.069514 0.382396 0.696382
Si Si8 0.782792 0.123807 0.330845
O O1 0.431505 0.701455 0.907313
O O2 0.534308 0.977539 0.910273
O O3 0.000000 0.500000 0.000000
O O4 0.410728 0.776099 0.093830
O O5 0.239495 0.188339 0.197147
O O6 0.600489 0.361252 0.280157
O O7 0.123343 0.881128 0.256957
O O8 0.563360 0.372484 0.581172
O O9 0.527174 0.149191 0.581312
O O10 0.909587 0.574083 0.424254
O O11 0.018411 0.641693 0.614789
O O12 0.503952 0.521731 0.307682
O O13 0.975140 0.985201 0.376149
O O14 0.981765 0.176355 0.292078
O O15 0.095090 0.649493 0.242407
O O16 0.664670 0.073079 0.232786
O O17 0.500000 0.500000 0.500000
#
# Coordination Sequence:
#
# PCOD9072851 Si02
#       8
#     2   2   2   2   2   2   2   2
#     4  10  21  41  64  86 106 140 194 245 297 333
#     4  11  21  36  61  87 115 144 191 247 283 325
#     4  10  21  35  53  85 119 158 191 220 271 340
#     4  10  20  34  52  81 114 150 183 225 280 334
#     4  10  23  40  61  86 112 148 188 241 291 338
#     4  10  18  31  51  76 113 153 193 226 264 318
#     4  11  22  36  59  87 116 151 195 237 277 321
#     4  10  23  38  57  82 122 158 185 222 279 346
#
# _framework density 21.867450000000002
#
# number of rings (size 3 to 8) (size 9 to 14) (size 15 to 20)
#    0.000    1.750    1.250    3.375    1.750    3.000 
#    0.000    0.625    0.000    0.750    0.000    0.000 
#    0.000    0.000    0.000    0.000    0.000    0.000 
#
# Total GULP energy -89202.052278 kJ/mol
# GULP energy per Si atom -5575.128267 kJ/mol
# Density = 2.181768 g / cm^3
# Si number density = 21.867450 Si / 1000 Ang^3
#
#
#
# Elastic Constant Matrix: (Units=GPa)
#
#
# Indices 1 2 3 4 5 6 
#
# 1 54.6446 15.4795 15.5986 -9.3419 -22.5974 0.7812
# 2 15.4795 105.5895 20.1128 2.8094 2.2940 3.3459
# 3 15.5986 20.1128 88.9209 1.9676 -25.5208 8.0461
# 4 -9.3419 2.8094 1.9676 26.2808 12.7595 0.8967
# 5 -22.5974 2.2940 -25.5208 12.7595 26.9762 -3.7133
# 6 0.7812 3.3459 8.0461 0.8967 -3.7133 20.1258
#
#
#
# Elastic Compliance Matrix: (Units=1/GPa)
#
#
# Indices 1 2 3 4 5 6 
#
# 1 0.032922 -0.006842 0.006411 -0.006656 0.038007 0.004606
# 2 -0.006842 0.011745 -0.005224 0.003372 -0.013578 -0.002254
# 3 0.006411 -0.005224 0.021008 -0.014395 0.032337 -0.001172
# 4 -0.006656 0.003372 -0.014395 0.060350 -0.048887 -0.006256
# 5 0.038007 -0.013578 0.032337 -0.048887 0.125595 0.013205
# 6 0.004606 -0.002254 -0.001172 -0.006256 0.013205 0.053067
#
#
# Mechanical properties :
#
#
# Convention : Reuss Voigt Hill
#
# Bulk Modulus (GPa) = 18.39396 39.05964 28.72680
# Shear Modulus (GPa) = 14.96470 27.87419 21.41945
#
# Velocity S-wave (km/s) = 2.61882 3.57415 3.13311
# Velocity P-wave (km/s) = 4.19215 5.91046 5.12385
#
# Compressibility (1/GPa) = 0.05436568
#
# Stress axis : x y z
#
# Youngs Moduli (GPa) = 30.37519 85.13932 47.59985
#
# Poissons Ratio (x) = 0.58253 -0.30517
# Poissons Ratio (y) = 0.20783 0.24866
# Poissons Ratio (z) = -0.19474 0.44477
#
# Static dielectric constant tensor:
#      x y z
#    x 1.868600 -0.011830 -0.059090 
#    y -0.011830 1.797980 0.002030 
#    z -0.059090 0.002030 1.819660 
# 
# From -- ./inp_files/66450.got.cif
#   From: 2010.05.17/outbox.cif.g08.bks.cpg/sg2_34_cif.got.tgz:66450.got - 2010.06.03 11:33:40.
