data_PCOD9072048
_publ_section_title
;
Structure prediction by ZEFSAII (Michael W. Deem and Ramdas Pophale) SiO2 
 PCOD9072048
Probable space group: P -1
;
_chemical_formula_sum "Si O2"
_cell_formula_units_Z 16
_cell_length_a 11.718174
_cell_length_b 20.794948
_cell_length_c 13.981335
_cell_angle_alpha 29.757928
_cell_angle_beta 131.192899
_cell_angle_gamma 150.117110
_cell_volume 779.104846
_symmetry_space_group_name_H-M "P -1"
_symmetry_group_IT_number 2
_symmetry_cell_setting 'triclinic'
loop_
_space_group_symop_operation_xyz
x,y,z
-x,-y,-z
loop_
_atom_site_type_symbol
_atom_site_label
_atom_site_fract_x
_atom_site_fract_y
_atom_site_fract_z
Si Si1 0.248130 0.584910 0.524275
Si Si2 0.797335 0.786153 0.351620
Si Si3 0.511763 0.404266 0.834390
Si Si4 0.386555 0.344691 0.278031
Si Si5 0.645969 0.063185 0.094748
Si Si6 0.537682 0.834771 0.024048
Si Si7 0.997210 0.921420 0.745557
Si Si8 0.078045 0.262592 0.709533
O O1 0.343823 0.538722 0.709721
O O2 0.221599 0.487288 0.535977
O O3 0.000000 0.500000 0.500000
O O4 0.462224 0.834069 0.334018
O O5 0.644677 0.592608 0.590106
O O6 0.620560 0.772875 0.219727
O O7 0.905693 0.765650 0.355822
O O8 0.985905 0.994674 0.252419
O O9 0.595287 0.502857 0.858063
O O10 0.558410 0.294634 0.959643
O O11 0.221236 0.241090 0.869362
O O12 0.266428 0.258639 0.219100
O O13 0.189486 0.132239 0.511076
O O14 0.892212 0.149114 0.097780
O O15 0.649993 0.193269 0.993712
O O16 0.500000 0.000000 0.000000
O O17 0.797690 0.080723 0.826031
#
# Coordination Sequence:
#
# PCOD9072048 Si02
#       8
#     2   2   2   2   2   2   2   2
#     4  10  19  34  52  79 103 132 166 207 263 302
#     4  10  18  30  51  74 103 132 172 212 246 298
#     4   9  18  30  50  75 100 132 172 209 249 299
#     4   8  17  32  54  73 100 134 174 208 244 304
#     4  11  21  31  51  78 108 131 167 215 255 300
#     4  11  19  30  47  76 106 134 162 211 263 295
#     4   9  17  33  51  77  99 135 174 206 250 297
#     4  10  19  30  49  73 105 133 162 210 254 304
#
# _framework density 20.536389
#
# number of rings (size 3 to 8) (size 9 to 14) (size 15 to 20)
#    0.000    2.250    2.500    3.750    1.750    0.000 
#    0.000    0.625    0.000   12.750    0.000    0.000 
#    0.000    0.000    0.000    0.000    0.000    0.000 
#
# Total GULP energy -89183.175261 kJ/mol
# GULP energy per Si atom -5573.948454 kJ/mol
# Density = 2.048965 g / cm^3
# Si number density = 20.536389 Si / 1000 Ang^3
#
#
#
# Elastic Constant Matrix: (Units=GPa)
#
#
# Indices 1 2 3 4 5 6 
#
# 1 131.0403 60.9567 15.5395 -4.6520 32.7443 -18.6776
# 2 60.9567 119.4825 2.8995 -6.0476 14.4988 -21.1431
# 3 15.5395 2.8995 30.3444 -8.6726 6.4174 -2.0958
# 4 -4.6520 -6.0476 -8.6726 18.2113 -2.5147 3.7339
# 5 32.7443 14.4988 6.4174 -2.5147 38.3364 -12.2406
# 6 -18.6776 -21.1431 -2.0958 3.7339 -12.2406 32.4965
#
#
#
# Elastic Compliance Matrix: (Units=1/GPa)
#
#
# Indices 1 2 3 4 5 6 
#
# 1 0.012726 -0.005387 -0.004880 -0.002110 -0.007912 0.000757
# 2 -0.005387 0.011918 0.002496 0.002941 0.001477 0.005038
# 3 -0.004880 0.002496 0.041202 0.019170 -0.003010 -0.001860
# 4 -0.002110 0.002941 0.019170 0.065626 -0.000004 -0.005605
# 5 -0.007912 0.001477 -0.003010 -0.000004 0.035898 0.009742
# 6 0.000757 0.005038 -0.001860 -0.005605 0.009742 0.038679
#
#
# Mechanical properties :
#
#
# Convention : Reuss Voigt Hill
#
# Bulk Modulus (GPa) = 19.87853 48.85094 34.36473
# Shear Modulus (GPa) = 20.97685 31.24027 26.10856
#
# Velocity S-wave (km/s) = 3.19948 3.90451 3.56944
# Velocity P-wave (km/s) = 4.83214 6.64575 5.81015
#
# Compressibility (1/GPa) = 0.05030554
#
# Stress axis : x y z
#
# Youngs Moduli (GPa) = 78.58146 83.90651 24.27058
#
# Poissons Ratio (x) = 0.45197 0.11843
# Poissons Ratio (y) = 0.42329 -0.06058
# Poissons Ratio (z) = 0.38344 -0.20943
#
# Static dielectric constant tensor:
#      x y z
#    x 1.764050 0.000510 -0.069870 
#    y 0.000510 1.723740 -0.029800 
#    z -0.069870 -0.029800 1.674110 
# 
# From -- ./inp_files/252133.got.cif
#   From: 2010.05.17/outbox.cif.g08.bks.cpg/sg2_127_cif.got.tgz:252133.got - 2010.06.03 11:33:40.
