data_PCOD9072240
_publ_section_title
;
Structure prediction by ZEFSAII (Michael W. Deem and Ramdas Pophale) SiO2 
 PCOD9072240
Probable space group: P -1
;
_chemical_formula_sum "Si O2"
_cell_formula_units_Z 16
_cell_length_a 9.000000
_cell_length_b 21.000000
_cell_length_c 15.000000
_cell_angle_alpha 160.000000
_cell_angle_beta 120.000000
_cell_angle_gamma 60.000000
_cell_volume 835.359047
_symmetry_space_group_name_H-M "P -1"
_symmetry_group_IT_number 2
_symmetry_cell_setting 'triclinic'
loop_
_space_group_symop_operation_xyz
x,y,z
-x,-y,-z
loop_
_atom_site_type_symbol
_atom_site_label
_atom_site_fract_x
_atom_site_fract_y
_atom_site_fract_z
Si Si1 0.960914 0.115559 0.277183
Si Si2 0.236624 0.954792 0.281135
Si Si3 0.254844 0.106487 0.200520
Si Si4 0.054200 0.502297 0.861646
Si Si5 0.290522 0.531775 0.792079
Si Si6 0.380641 0.552347 0.117468
Si Si7 0.844566 0.884619 0.335849
Si Si8 0.532188 0.035702 0.336287
O O1 0.103353 0.104312 0.225965
O O2 0.942790 0.332647 0.584046
O O3 0.055539 0.014437 0.256776
O O4 0.800851 0.016476 0.060529
O O5 0.228027 0.030865 0.480205
O O6 0.386904 0.036416 0.373078
O O7 0.255743 0.728394 0.990305
O O8 0.265422 0.327499 0.474232
O O9 0.424677 0.021232 0.193601
O O10 0.166400 0.541965 0.857561
O O11 0.203471 0.465539 0.933034
O O12 0.932394 0.675528 0.088756
O O13 0.494485 0.518231 0.858412
O O14 0.371696 0.776727 0.403716
O O15 0.500000 0.500000 0.000000
O O16 0.687712 0.892589 0.228788
O O17 0.000000 0.000000 0.500000
#
# Coordination Sequence:
#
# PCOD9072240 Si02
#       8
#     2   2   2   2   2   2   2   2
#     4   9  19  35  54  79 110 139 184 227 263 310
#     4  11  21  33  53  85 115 136 176 230 268 312
#     4   8  17  36  58  77 102 147 184 219 265 322
#     4  10  19  33  51  76 109 150 179 209 269 331
#     4   9  17  30  54  81 105 139 179 222 266 321
#     4   9  15  29  50  74 104 140 177 206 264 325
#     4  12  21  34  53  82 115 146 173 216 277 328
#     4  10  20  34  56  81 108 139 182 225 263 318
#
# _framework density 19.153441000000001
#
# number of rings (size 3 to 8) (size 9 to 14) (size 15 to 20)
#    0.000    2.250    2.500    3.375    0.000    2.000 
#    0.000    0.625    0.000    0.750    0.000    0.000 
#    0.000    0.000    0.000    0.000    0.000    0.000 
#
# Total GULP energy -89130.599690 kJ/mol
# GULP energy per Si atom -5570.662481 kJ/mol
# Density = 1.910985 g / cm^3
# Si number density = 19.153441 Si / 1000 Ang^3
#
#
#
# Elastic Constant Matrix: (Units=GPa)
#
#
# Indices 1 2 3 4 5 6 
#
# 1 28.2235 11.9300 11.3434 -2.9355 -0.8373 -12.5176
# 2 11.9300 73.3459 49.6783 2.1085 -0.1592 -15.2071
# 3 11.3434 49.6783 112.4798 -11.3702 8.1670 -15.4484
# 4 -2.9355 2.1085 -11.3702 28.3904 -8.1498 8.4647
# 5 -0.8373 -0.1592 8.1670 -8.1498 10.5999 4.6450
# 6 -12.5176 -15.2071 -15.4484 8.4647 4.6450 29.7597
#
#
#
# Elastic Compliance Matrix: (Units=1/GPa)
#
#
# Indices 1 2 3 4 5 6 
#
# 1 0.044773 -0.003028 -0.000375 -0.002889 -0.006753 0.018966
# 2 -0.003028 0.022281 -0.008994 -0.009292 -0.003931 0.008700
# 3 -0.000375 -0.008994 0.014495 0.001874 -0.011671 0.004059
# 4 -0.002889 -0.009292 0.001874 0.063819 0.061613 -0.032760
# 5 -0.006753 -0.003931 -0.011671 0.061613 0.174508 -0.055670
# 6 0.018966 0.008700 0.004059 -0.032760 -0.055670 0.066140
#
#
# Mechanical properties :
#
#
# Convention : Reuss Voigt Hill
#
# Bulk Modulus (GPa) = 17.61958 39.99472 28.80715
# Shear Modulus (GPa) = 11.63524 23.15649 17.39587
#
# Velocity S-wave (km/s) = 2.46737 3.48084 3.01697
# Velocity P-wave (km/s) = 4.16370 6.08946 5.21622
#
# Compressibility (1/GPa) = 0.05675504
#
# Stress axis : x y z
#
# Youngs Moduli (GPa) = 22.33486 44.88159 68.98860
#
# Poissons Ratio (x) = 0.13590 0.02586
# Poissons Ratio (y) = 0.06763 0.62051
# Poissons Ratio (z) = 0.00837 0.40368
#
# Static dielectric constant tensor:
#      x y z
#    x 1.657180 -0.013510 0.010870 
#    y -0.013510 1.687950 -0.020100 
#    z 0.010870 -0.020100 1.653090 
# 
# From -- ./inp_files/237741.got.cif
#   From: 2010.05.17/outbox.ucp.g08.bks.cvg/sg2_119_cif.got.tgz:237741.got - 2010.06.11 11:32:03.
