data_PCOD9072564
_publ_section_title
;
Structure prediction by ZEFSAII (Michael W. Deem and Ramdas Pophale) SiO2 
 PCOD9072564
Probable space group: P -1
;
_chemical_formula_sum "Si O2"
_cell_formula_units_Z 12
_cell_length_a 9.120921
_cell_length_b 5.233019
_cell_length_c 10.962089
_cell_angle_alpha 64.296025
_cell_angle_beta 78.775546
_cell_angle_gamma 106.788859
_cell_volume 419.161677
_symmetry_space_group_name_H-M "P -1"
_symmetry_group_IT_number 2
_symmetry_cell_setting 'triclinic'
loop_
_space_group_symop_operation_xyz
x,y,z
-x,-y,-z
loop_
_atom_site_type_symbol
_atom_site_label
_atom_site_fract_x
_atom_site_fract_y
_atom_site_fract_z
Si Si1 0.627983 0.253387 0.773232
Si Si2 0.172533 0.179273 0.753525
Si Si3 0.685870 0.105609 0.409254
Si Si4 0.985013 0.533814 0.659905
Si Si5 0.568178 0.426372 0.131310
Si Si6 0.821804 0.327242 0.963675
O O1 0.513211 0.425700 0.787949
O O2 0.809569 0.478308 0.645368
O O3 0.529676 0.953394 0.769733
O O4 0.685250 0.164198 0.913400
O O5 0.268395 0.535510 0.715414
O O6 0.016053 0.219568 0.712082
O O7 0.284760 0.115364 0.648143
O O8 0.139438 0.928223 0.917784
O O9 0.841437 0.186477 0.460732
O O10 0.500000 0.000000 0.500000
O O11 0.963816 0.561831 0.804750
O O12 0.750625 0.489721 0.038248
O O13 0.500000 0.500000 0.000000
#
# Coordination Sequence:
#
# PCOD9072564 Si02
#       6
#     2   2   2   2   2   2
#     4   9  20  30  48  74 111 137 166 193 247 306
#     4  10  21  34  53  78 101 138 160 216 263 300
#     4  10  22  38  52  73 101 135 181 210 251 302
#     4   8  21  31  54  76 109 130 168 204 263 298
#     4  10  18  31  46  72 111 143 162 194 235 316
#     4   9  18  33  49  81 112 131 163 202 259 313
#
# _framework density 28.628571000000001
#
# number of rings (size 3 to 8) (size 9 to 14) (size 15 to 20)
#    2.000    0.667    0.000    3.000    2.333    4.667 
#    0.000    0.000    0.000    0.000    0.000    7.000 
#    0.000    0.000    0.000    0.000    0.000    0.000 
#
# Total GULP energy -67009.051699 kJ/mol
# GULP energy per Si atom -5584.087642 kJ/mol
# Density = 2.856341 g / cm^3
# Si number density = 28.628571 Si / 1000 Ang^3
#
#
#
# Elastic Constant Matrix: (Units=GPa)
#
#
# Indices 1 2 3 4 5 6 
#
# 1 130.7496 50.8971 51.8574 13.1755 -50.9897 -33.6049
# 2 50.8971 218.5883 50.8607 34.0274 -21.6201 -29.2640
# 3 51.8574 50.8607 83.8457 25.9171 -22.1518 0.5326
# 4 13.1755 34.0274 25.9171 45.0146 -9.6264 2.8399
# 5 -50.9897 -21.6201 -22.1518 -9.6264 61.3238 3.1717
# 6 -33.6049 -29.2640 0.5326 2.8399 3.1717 43.4300
#
#
#
# Elastic Compliance Matrix: (Units=1/GPa)
#
#
# Indices 1 2 3 4 5 6 
#
# 1 0.020026 0.000766 -0.009903 0.001027 0.012723 0.015137
# 2 0.000766 0.006430 -0.003090 -0.003417 0.000987 0.005115
# 3 -0.009903 -0.003090 0.021605 -0.007071 -0.002144 -0.009390
# 4 0.001027 -0.003417 -0.007071 0.029184 0.001855 -0.003465
# 5 0.012723 0.000987 -0.002144 0.001855 0.026311 0.008493
# 6 0.015137 0.005115 -0.009390 -0.003465 0.008493 0.037906
#
#
# Mechanical properties :
#
#
# Convention : Reuss Voigt Hill
#
# Bulk Modulus (GPa) = 42.35848 82.26824 62.31336
# Shear Modulus (GPa) = 28.77136 48.59155 38.68146
#
# Velocity S-wave (km/s) = 3.17359 4.12431 3.67979
# Velocity P-wave (km/s) = 5.31572 7.17487 6.31410
#
# Compressibility (1/GPa) = 0.02360803
#
# Stress axis : x y z
#
# Youngs Moduli (GPa) = 49.93426 155.53159 46.28644
#
# Poissons Ratio (x) = -0.11918 0.45837
# Poissons Ratio (y) = -0.03826 0.14300
# Poissons Ratio (z) = 0.49450 0.48052
#
# Static dielectric constant tensor:
#      x y z
#    x 3.166550 0.152850 0.442410 
#    y 0.152850 2.197530 -0.008760 
#    z 0.442410 -0.008760 2.629930 
# 
# From -- ./inp_files/509628.got.cif
#   From: 2010.05.17/outbox.cif.g08.bks.cpg/sg2_255_cif.got.tgz:509628.got - 2010.06.03 11:33:40.
