data_PCOD9072863
_publ_section_title
;
Structure prediction by ZEFSAII (Michael W. Deem and Ramdas Pophale) SiO2 
 PCOD9072863
Probable space group: P -1
;
_chemical_formula_sum "Si O2"
_cell_formula_units_Z 16
_cell_length_a 6.000000
_cell_length_b 9.000000
_cell_length_c 21.000000
_cell_angle_alpha 130.000000
_cell_angle_beta 70.000000
_cell_angle_gamma 120.000000
_cell_volume 751.947714
_symmetry_space_group_name_H-M "P -1"
_symmetry_group_IT_number 2
_symmetry_cell_setting 'triclinic'
loop_
_space_group_symop_operation_xyz
x,y,z
-x,-y,-z
loop_
_atom_site_type_symbol
_atom_site_label
_atom_site_fract_x
_atom_site_fract_y
_atom_site_fract_z
Si Si1 0.274870 0.821834 0.928086
Si Si2 0.085413 0.342389 0.489833
Si Si3 0.239165 0.025118 0.659133
Si Si4 0.440527 0.477938 0.225057
Si Si5 0.474762 0.825305 0.080748
Si Si6 0.417685 0.708957 0.632669
Si Si7 0.307391 0.453823 0.089313
Si Si8 0.757453 0.887476 0.764232
O O1 0.370017 0.641944 0.844966
O O2 0.982639 0.696539 0.947201
O O3 0.275440 0.969826 0.908258
O O4 0.500000 0.000000 0.000000
O O5 0.181160 0.480210 0.583310
O O6 0.337553 0.327212 0.429773
O O7 0.000000 0.500000 0.500000
O O8 0.870699 0.107323 0.432468
O O9 0.406376 0.275361 0.703426
O O10 0.380444 0.892010 0.645046
O O11 0.998854 0.988586 0.721006
O O12 0.296263 0.472251 0.171158
O O13 0.255053 0.318263 0.251814
O O14 0.423123 0.686647 0.111592
O O15 0.266595 0.934194 0.137386
O O16 0.493336 0.653099 0.980994
O O17 0.502377 0.796693 0.719296
#
# Coordination Sequence:
#
# PCOD9072863 Si02
#       8
#     2   2   2   2   2   2   2   2
#     4  11  23  42  60  83 115 156 200 252 302 350
#     4   8  16  33  64  90 117 155 191 235 288 352
#     4  10  20  38  60  87 121 156 193 242 293 351
#     4  11  24  38  57  86 117 158 200 244 297 351
#     4  10  22  40  58  85 113 155 198 250 297 353
#     4   9  17  35  61  90 117 154 197 233 293 351
#     4  11  23  40  59  83 114 153 207 248 300 356
#     4  10  22  38  56  86 121 154 198 245 297 347
#
# _framework density 21.278075000000001
#
# number of rings (size 3 to 8) (size 9 to 14) (size 15 to 20)
#    0.000    2.000    1.250    1.875    0.000    4.500 
#    9.000    0.625    0.000   25.500    0.000    0.000 
#    0.000    0.000    0.000    0.000    0.000    0.000 
#
# Total GULP energy -89091.211019 kJ/mol
# GULP energy per Si atom -5568.200689 kJ/mol
# Density = 2.122965 g / cm^3
# Si number density = 21.278075 Si / 1000 Ang^3
#
#
#
# Elastic Constant Matrix: (Units=GPa)
#
#
# Indices 1 2 3 4 5 6 
#
# 1 57.8765 7.6946 23.6318 14.1336 3.5212 -1.8497
# 2 7.6946 127.1760 16.0876 27.9888 8.1244 -15.6497
# 3 23.6318 16.0876 72.6455 34.7554 -0.0367 -0.8298
# 4 14.1336 27.9888 34.7554 45.4221 -2.5730 -2.5740
# 5 3.5212 8.1244 -0.0367 -2.5730 43.1688 3.4606
# 6 -1.8497 -15.6497 -0.8298 -2.5740 3.4606 24.3912
#
#
#
# Elastic Compliance Matrix: (Units=1/GPa)
#
#
# Indices 1 2 3 4 5 6 
#
# 1 0.020225 0.000293 -0.005552 -0.002248 -0.001970 0.001575
# 2 0.000293 0.010207 0.001064 -0.007002 -0.002864 0.006275
# 3 -0.005552 0.001064 0.023427 -0.016929 -0.000686 -0.000630
# 4 -0.002248 -0.007002 -0.016929 0.040121 0.004004 -0.001573
# 5 -0.001970 -0.002864 -0.000686 0.004004 0.024509 -0.005065
# 6 0.001575 0.006275 -0.000630 -0.001573 -0.005065 0.045675
#
#
# Mechanical properties :
#
#
# Convention : Reuss Voigt Hill
#
# Bulk Modulus (GPa) = 21.99206 39.16953 30.58080
# Shear Modulus (GPa) = 26.63698 36.61536 31.62617
#
# Velocity S-wave (km/s) = 3.54199 4.15276 3.85947
# Velocity P-wave (km/s) = 5.20438 6.43756 5.85354
#
# Compressibility (1/GPa) = 0.04547096
#
# Stress axis : x y z
#
# Youngs Moduli (GPa) = 49.44323 97.97407 42.68525
#
# Poissons Ratio (x) = -0.02871 0.23697
# Poissons Ratio (y) = -0.01449 -0.04543
# Poissons Ratio (z) = 0.27449 -0.10427
#
# Static dielectric constant tensor:
#      x y z
#    x 1.838290 -0.017490 0.049690 
#    y -0.017490 1.763210 -0.013950 
#    z 0.049690 -0.013950 1.815970 
# 
# From -- ./inp_files/582576.got.cif
#   From: 2010.05.17/outbox.ucp.g08.bks.cvg/sg2_292_cif.got.tgz:582576.got - 2010.06.11 11:32:03.
