data_PCOD9072056
_publ_section_title
;
Structure prediction by ZEFSAII (Michael W. Deem and Ramdas Pophale) SiO2 
 PCOD9072056
Probable space group: P -1
;
_chemical_formula_sum "Si O2"
_cell_formula_units_Z 14
_cell_length_a 9.534527
_cell_length_b 12.290353
_cell_length_c 13.151742
_cell_angle_alpha 35.231203
_cell_angle_beta 71.773275
_cell_angle_gamma 47.812749
_cell_volume 549.476523
_symmetry_space_group_name_H-M "P -1"
_symmetry_group_IT_number 2
_symmetry_cell_setting 'triclinic'
loop_
_space_group_symop_operation_xyz
x,y,z
-x,-y,-z
loop_
_atom_site_type_symbol
_atom_site_label
_atom_site_fract_x
_atom_site_fract_y
_atom_site_fract_z
Si Si1 0.602622 0.343681 0.234630
Si Si2 0.322338 0.300267 0.246973
Si Si3 0.442098 0.321637 0.855091
Si Si4 0.811952 0.771761 0.075129
Si Si5 0.087838 0.907596 0.356880
Si Si6 0.355327 0.964578 0.340967
Si Si7 0.840625 0.502125 0.479744
O O1 0.437367 0.392257 0.159545
O O2 0.496610 0.630998 0.091676
O O3 0.654210 0.152600 0.464012
O O4 0.843728 0.151009 0.277303
O O5 0.075454 0.545792 0.166458
O O6 0.500000 0.000000 0.500000
O O7 0.297002 0.225915 0.200394
O O8 0.324744 0.232112 0.968378
O O9 0.256955 0.628310 0.605485
O O10 0.656279 0.092248 0.906771
O O11 0.801710 0.645029 0.273260
O O12 0.194323 0.015290 0.255970
O O13 0.077731 0.788339 0.348639
O O14 0.611213 0.705611 0.440311
O O15 0.000000 0.500000 0.500000
#
# Coordination Sequence:
#
# PCOD9072056 Si02
#       7
#     2   2   2   2   2   2   2
#     4  10  18  32  56  78 100 131 172 217 250 291
#     4  10  18  31  51  77 101 130 171 210 250 295
#     4   9  18  33  54  76 102 133 172 209 249 298
#     4  10  20  34  53  75 105 138 167 206 254 303
#     4  10  19  34  56  78 100 133 173 212 250 296
#     4  10  18  30  51  76 101 128 168 211 250 297
#     4  11  20  32  50  76 108 135 165 208 256 304
#
# _framework density 25.478795000000002
#
# number of rings (size 3 to 8) (size 9 to 14) (size 15 to 20)
#    0.000    2.000    0.000    9.000    0.000    0.571 
#    0.000    0.000    0.000   28.286    0.000    0.000 
#    0.000    0.000    0.000    0.000    0.000    0.000 
#
# Total GULP energy -78337.933275 kJ/mol
# GULP energy per Si atom -5595.566663 kJ/mol
# Density = 2.542080 g / cm^3
# Si number density = 25.478795 Si / 1000 Ang^3
#
#
#
# Elastic Constant Matrix: (Units=GPa)
#
#
# Indices 1 2 3 4 5 6 
#
# 1 262.8157 91.8921 58.4710 -62.7734 -12.8272 20.3172
# 2 91.8921 115.6388 57.4463 -63.4836 5.5121 9.7801
# 3 58.4710 57.4463 101.1153 -32.3514 11.0108 -2.7887
# 4 -62.7734 -63.4836 -32.3514 60.9021 -1.8055 1.8152
# 5 -12.8272 5.5121 11.0108 -1.8055 37.0322 -14.4903
# 6 20.3172 9.7801 -2.7887 1.8152 -14.4903 50.8832
#
#
#
# Elastic Compliance Matrix: (Units=1/GPa)
#
#
# Indices 1 2 3 4 5 6 
#
# 1 0.005871 -0.002301 -0.001425 0.003008 0.002397 -0.001405
# 2 -0.002301 0.026361 -0.006388 0.021779 -0.004303 -0.006500
# 3 -0.001425 -0.006388 0.014572 -0.000533 -0.003239 0.001692
# 4 0.003008 0.021779 -0.000533 0.042082 -0.003034 -0.007782
# 5 0.002397 -0.004303 -0.003239 -0.003034 0.032875 0.009163
# 6 -0.001405 -0.006500 0.001692 -0.007782 0.009163 0.024443
#
#
# Mechanical properties :
#
#
# Convention : Reuss Voigt Hill
#
# Bulk Modulus (GPa) = 37.62923 99.46537 68.54730
# Shear Modulus (GPa) = 28.52437 47.88087 38.20262
#
# Velocity S-wave (km/s) = 3.34957 4.33973 3.87640
# Velocity P-wave (km/s) = 5.45531 8.01463 6.85546
#
# Compressibility (1/GPa) = 0.02657509
#
# Stress axis : x y z
#
# Youngs Moduli (GPa) = 170.33990 37.93466 68.62704
#
# Poissons Ratio (x) = 0.08730 0.09776
# Poissons Ratio (y) = 0.39201 0.43841
# Poissons Ratio (z) = 0.24265 0.24234
#
# Static dielectric constant tensor:
#      x y z
#    x 2.131420 0.065340 -0.074140 
#    y 0.065340 2.078620 0.096920 
#    z -0.074140 0.096920 2.043950 
# 
# From -- ./inp_files/181528.got.cif
#   From: 2010.05.17/outbox.cif.g08.bks.cpg/sg2_91_cif.got.tgz:181528.got - 2010.06.03 11:33:40.
