data_PCOD9072256
_publ_section_title
;
Structure prediction by ZEFSAII (Michael W. Deem and Ramdas Pophale) SiO2 
 PCOD9072256
Probable space group: P -1
;
_chemical_formula_sum "Si O2"
_cell_formula_units_Z 16
_cell_length_a 21.477365
_cell_length_b 8.316001
_cell_length_c 13.485043
_cell_angle_alpha 117.012275
_cell_angle_beta 28.718676
_cell_angle_gamma 93.702076
_cell_volume 645.714732
_symmetry_space_group_name_H-M "P -1"
_symmetry_group_IT_number 2
_symmetry_cell_setting 'triclinic'
loop_
_space_group_symop_operation_xyz
x,y,z
-x,-y,-z
loop_
_atom_site_type_symbol
_atom_site_label
_atom_site_fract_x
_atom_site_fract_y
_atom_site_fract_z
Si Si1 0.722477 0.450736 0.587998
Si Si2 0.887876 0.874846 0.190693
Si Si3 0.180639 0.412849 0.032522
Si Si4 0.202017 0.422662 0.787306
Si Si5 0.157933 0.466172 0.364609
Si Si6 0.755690 0.988384 0.956650
Si Si7 0.537369 0.244433 0.531892
Si Si8 0.516968 0.323033 0.200119
O O1 0.728049 0.541229 0.712938
O O2 0.520842 0.696156 0.866763
O O3 0.764020 0.192739 0.468773
O O4 0.926822 0.298987 0.198400
O O5 0.762079 0.830823 0.331706
O O6 0.001831 0.696232 0.082205
O O7 0.159304 0.523991 0.986739
O O8 0.304092 0.431372 0.924352
O O9 0.325740 0.078672 0.727659
O O10 0.973571 0.546088 0.396993
O O11 0.382478 0.329697 0.453460
O O12 0.282613 0.188946 0.045350
O O13 0.982908 0.760193 0.627029
O O14 0.597735 0.225628 0.328729
O O15 0.713972 0.120337 0.943421
O O16 0.582755 0.369604 0.568498
#
# Coordination Sequence:
#
# PCOD9072256 Si02
#       8
#     2   2   2   2   2   2   2   2
#     4  10  20  35  59  85 117 153 192 243 288 347
#     4   9  19  31  51  89 120 145 185 246 296 333
#     4  10  19  34  58  85 113 154 191 244 279 342
#     4  10  18  30  53  88 116 145 188 244 291 331
#     4  10  22  39  59  84 119 161 191 228 298 348
#     4  10  22  38  57  87 118 158 192 233 288 356
#     4  10  21  36  58  89 118 148 194 244 294 332
#     4  11  22  35  61  90 114 150 197 246 287 341
#
# _framework density 24.778742999999999
#
# number of rings (size 3 to 8) (size 9 to 14) (size 15 to 20)
#    0.000    2.000    2.500    1.125    8.750    0.500 
#    0.000    0.625    0.000    2.250    0.000    0.000 
#    0.000    0.000    0.000    0.000    0.000    0.000 
#
# Total GULP energy -89275.507691 kJ/mol
# GULP energy per Si atom -5579.719231 kJ/mol
# Density = 2.472235 g / cm^3
# Si number density = 24.778743 Si / 1000 Ang^3
#
#
#
# Elastic Constant Matrix: (Units=GPa)
#
#
# Indices 1 2 3 4 5 6 
#
# 1 169.7984 33.1865 19.8570 13.9753 -20.7400 -5.7104
# 2 33.1865 107.7069 12.4321 -7.1445 -6.7625 7.0051
# 3 19.8570 12.4321 30.2449 1.0271 -0.3801 -0.8609
# 4 13.9753 -7.1445 1.0271 16.8126 -2.6576 -10.1922
# 5 -20.7400 -6.7625 -0.3801 -2.6576 20.6612 4.4770
# 6 -5.7104 7.0051 -0.8609 -10.1922 4.4770 37.6110
#
#
#
# Elastic Compliance Matrix: (Units=1/GPa)
#
#
# Indices 1 2 3 4 5 6 
#
# 1 0.008138 -0.001977 -0.004242 -0.006998 0.006804 -0.001199
# 2 -0.001977 0.010930 -0.003405 0.006285 0.002559 -0.001015
# 3 -0.004242 -0.003405 0.037230 -0.000138 -0.005009 0.001401
# 4 -0.006998 0.006285 -0.000138 0.079831 0.001125 0.019263
# 5 0.006804 0.002559 -0.005009 0.001125 0.057440 -0.006091
# 6 -0.001199 -0.001015 0.001401 0.019263 -0.006091 0.032572
#
#
# Mechanical properties :
#
#
# Convention : Reuss Voigt Hill
#
# Bulk Modulus (GPa) = 26.98990 48.74461 37.86726
# Shear Modulus (GPa) = 19.39949 31.16859 25.28404
#
# Velocity S-wave (km/s) = 2.80109 3.55050 3.19782
# Velocity P-wave (km/s) = 4.62358 6.04341 5.38053
#
# Compressibility (1/GPa) = 0.03705090
#
# Stress axis : x y z
#
# Youngs Moduli (GPa) = 122.87343 91.48943 26.86041
#
# Poissons Ratio (x) = 0.18087 0.11393
# Poissons Ratio (y) = 0.24292 0.09146
# Poissons Ratio (z) = 0.52118 0.31153
#
# Static dielectric constant tensor:
#      x y z
#    x 2.084610 -0.029110 -0.036360 
#    y -0.029110 1.922590 0.036110 
#    z -0.036360 0.036110 2.055390 
# 
# From -- ./inp_files/540284.got.cif
#   From: 2010.05.17/outbox.cif.g08.bks.cpg/sg2_271_cif.got.tgz:540284.got - 2010.06.03 11:33:40.
