data_PCOD9072185
_publ_section_title
;
Structure prediction by ZEFSAII (Michael W. Deem and Ramdas Pophale) SiO2 
 PCOD9072185
Probable space group: P -1
;
_chemical_formula_sum "Si O2"
_cell_formula_units_Z 16
_cell_length_a 21.500463
_cell_length_b 9.845435
_cell_length_c 11.753969
_cell_angle_alpha 75.673951
_cell_angle_beta 133.407119
_cell_angle_gamma 142.269046
_cell_volume 825.236438
_symmetry_space_group_name_H-M "P -1"
_symmetry_group_IT_number 2
_symmetry_cell_setting 'triclinic'
loop_
_space_group_symop_operation_xyz
x,y,z
-x,-y,-z
loop_
_atom_site_type_symbol
_atom_site_label
_atom_site_fract_x
_atom_site_fract_y
_atom_site_fract_z
Si Si1 0.202330 0.865782 0.509730
Si Si2 0.306950 0.247117 0.749217
Si Si3 0.502086 0.223506 0.221645
Si Si4 0.533979 0.335777 0.502791
Si Si5 0.577697 0.021888 0.385726
Si Si6 0.199435 0.034801 0.250895
Si Si7 0.881128 0.198951 0.228352
Si Si8 0.038491 0.408445 0.132616
O O1 0.363323 0.001709 0.633220
O O2 0.040357 0.527034 0.410422
O O3 0.270784 0.075856 0.644039
O O4 0.135524 0.856652 0.317544
O O5 0.336577 0.442829 0.690998
O O6 0.153610 0.992102 0.703372
O O7 0.500000 0.500000 0.000000
O O8 0.496592 0.232367 0.349702
O O9 0.526575 0.095939 0.254308
O O10 0.310994 0.998443 0.976484
O O11 0.358788 0.172239 0.361271
O O12 0.704088 0.684973 0.647277
O O13 0.561504 0.252199 0.646216
O O14 0.753273 0.299869 0.630014
O O15 0.038263 0.816882 0.003679
O O16 0.933904 0.248078 0.153853
O O17 0.000000 0.500000 0.000000
#
# Coordination Sequence:
#
# PCOD9072185 Si02
#       8
#     2   2   2   2   2   2   2   2
#     4  10  19  38  57  82 107 145 190 222 271 331
#     4  10  22  37  59  82 106 147 191 229 264 329
#     4  11  20  37  52  85 114 144 182 233 277 316
#     4  10  18  30  52  81 110 144 178 222 270 322
#     4  10  22  33  57  83 115 145 178 231 282 323
#     4  10  18  30  57  83 107 143 185 228 257 325
#     4  10  20  34  61  79 107 149 190 222 265 334
#     4  11  17  35  55  85 110 146 183 221 272 332
#
# _framework density 19.388382
#
# number of rings (size 3 to 8) (size 9 to 14) (size 15 to 20)
#    0.000    1.750    6.250    0.750    0.000    0.000 
#    0.000    6.875    0.000    0.000    0.000    0.000 
#    0.000    0.000    0.000    0.000    0.000    0.000 
#
# Total GULP energy -89236.465814 kJ/mol
# GULP energy per Si atom -5577.279113 kJ/mol
# Density = 1.934425 g / cm^3
# Si number density = 19.388382 Si / 1000 Ang^3
#
#
#
# Elastic Constant Matrix: (Units=GPa)
#
#
# Indices 1 2 3 4 5 6 
#
# 1 37.9693 22.1353 1.4250 -12.0826 -16.0591 5.0485
# 2 22.1353 133.3614 -13.9882 -4.2769 5.8534 14.4190
# 3 1.4250 -13.9882 21.5735 3.3838 -12.7818 -0.1797
# 4 -12.0826 -4.2769 3.3838 25.5310 0.4815 -1.5164
# 5 -16.0591 5.8534 -12.7818 0.4815 22.7481 -2.6469
# 6 5.0485 14.4190 -0.1797 -1.5164 -2.6469 27.1890
#
#
#
# Elastic Compliance Matrix: (Units=1/GPa)
#
#
# Indices 1 2 3 4 5 6 
#
# 1 0.064574 -0.010502 0.020017 0.025084 0.059106 0.000864
# 2 -0.010502 0.010281 0.002502 -0.003680 -0.009108 -0.004577
# 3 0.020017 0.002502 0.082593 -0.002114 0.060083 0.001233
# 4 0.025084 -0.003680 -0.002114 0.050492 0.016598 0.001711
# 5 0.059106 -0.009108 0.060083 0.016598 0.122262 0.007080
# 6 0.000864 -0.004577 0.001233 0.001711 0.007080 0.039839
#
#
# Mechanical properties :
#
#
# Convention : Reuss Voigt Hill
#
# Bulk Modulus (GPa) = 5.51014 23.56094 14.53554
# Shear Modulus (GPa) = 12.30011 27.31575 19.80793
#
# Velocity S-wave (km/s) = 2.52147 3.75757 3.19978
# Velocity P-wave (km/s) = 3.36530 5.56814 4.60052
#
# Compressibility (1/GPa) = 0.18148348
#
# Stress axis : x y z
#
# Youngs Moduli (GPa) = 15.48606 97.27020 12.10750
#
# Poissons Ratio (x) = 1.02150 -0.24235
# Poissons Ratio (y) = 0.16263 -0.03030
# Poissons Ratio (z) = -0.30998 -0.24342
#
# Static dielectric constant tensor:
#      x y z
#    x 1.687790 0.005770 0.001540 
#    y 0.005770 1.733850 0.005770 
#    z 0.001540 0.005770 1.669110 
# 
# From -- ./inp_files/185761.got.cif
#   From: 2010.05.17/outbox.cif.g08.bks.cpg/sg2_93_cif.got.tgz:185761.got - 2010.06.03 11:33:40.
