data_PCOD9072531
_publ_section_title
;
Structure prediction by ZEFSAII (Michael W. Deem and Ramdas Pophale) SiO2 
 PCOD9072531
Probable space group: P -1
;
_chemical_formula_sum "Si O2"
_cell_formula_units_Z 16
_cell_length_a 9.000000
_cell_length_b 15.000000
_cell_length_c 9.000000
_cell_angle_alpha 110.000000
_cell_angle_beta 130.000000
_cell_angle_gamma 100.000000
_cell_volume 732.374747
_symmetry_space_group_name_H-M "P -1"
_symmetry_group_IT_number 2
_symmetry_cell_setting 'triclinic'
loop_
_space_group_symop_operation_xyz
x,y,z
-x,-y,-z
loop_
_atom_site_type_symbol
_atom_site_label
_atom_site_fract_x
_atom_site_fract_y
_atom_site_fract_z
Si Si1 0.728163 0.121370 0.689853
Si Si2 0.728434 0.771568 0.435614
Si Si3 0.575333 0.912375 0.003571
Si Si4 0.406273 0.351284 0.242279
Si Si5 0.089282 0.139101 0.704667
Si Si6 0.785255 0.599781 0.570475
Si Si7 0.714500 0.253327 0.024264
Si Si8 0.451204 0.189838 0.378151
O O1 0.778496 0.178299 0.918365
O O2 0.668923 0.197703 0.596992
O O3 0.882657 0.098163 0.666466
O O4 0.500000 0.000000 0.500000
O O5 0.910245 0.828928 0.449423
O O6 0.741871 0.672184 0.464390
O O7 0.486795 0.740097 0.183142
O O8 0.733093 0.840950 0.625265
O O9 0.796712 0.935123 0.252050
O O10 0.374375 0.804806 0.905523
O O11 0.625895 0.895307 0.857453
O O12 0.500000 0.000000 0.000000
O O13 0.594013 0.468492 0.357432
O O14 0.246337 0.369521 0.262348
O O15 0.511362 0.303715 0.399503
O O16 0.271774 0.258357 0.975850
O O17 0.043205 0.629680 0.736895
#
# Coordination Sequence:
#
# PCOD9072531 Si02
#       8
#     2   2   2   2   2   2   2   2
#     4  11  22  40  62  91 125 165 209 256 314 373
#     4   9  21  39  61  91 128 163 205 255 307 372
#     4  10  21  41  62  90 119 161 212 256 313 375
#     4   9  19  39  62  90 122 164 208 255 308 380
#     4  10  21  41  62  89 129 161 204 264 308 369
#     4  10  19  38  65  91 125 165 209 251 320 367
#     4  10  21  40  60  92 130 159 207 267 305 368
#     4   9  20  40  59  86 126 154 203 260 300 370
#
# _framework density 21.846738999999999
#
# number of rings (size 3 to 8) (size 9 to 14) (size 15 to 20)
#    0.000    2.250    1.250    0.750    1.750    0.500 
#    9.000   13.750    0.000    0.000    0.000    0.000 
#    0.000    0.000    0.000    0.000    0.000    0.000 
#
# Total GULP energy -89208.377032 kJ/mol
# GULP energy per Si atom -5575.523564 kJ/mol
# Density = 2.179701 g / cm^3
# Si number density = 21.846739 Si / 1000 Ang^3
#
#
#
# Elastic Constant Matrix: (Units=GPa)
#
#
# Indices 1 2 3 4 5 6 
#
# 1 135.7602 37.2699 29.3994 4.6328 0.5855 28.3896
# 2 37.2699 71.7195 28.2137 5.2247 -3.5588 24.3723
# 3 29.3994 28.2137 46.3773 2.2867 1.9541 22.8340
# 4 4.6328 5.2247 2.2867 27.2935 15.6760 1.3546
# 5 0.5855 -3.5588 1.9541 15.6760 35.9910 -4.9879
# 6 28.3896 24.3723 22.8340 1.3546 -4.9879 38.0919
#
#
#
# Elastic Compliance Matrix: (Units=1/GPa)
#
#
# Indices 1 2 3 4 5 6 
#
# 1 0.009456 -0.002627 -0.002367 -0.000292 -0.000716 -0.004031
# 2 -0.002627 0.021084 -0.008143 -0.004816 0.003839 -0.005977
# 3 -0.002367 -0.008143 0.035676 0.003345 -0.006289 -0.015355
# 4 -0.000292 -0.004816 0.003345 0.050900 -0.023317 -0.003569
# 5 -0.000716 0.003839 -0.006289 -0.023317 0.039766 0.007884
# 6 -0.004031 -0.005977 -0.015355 -0.003569 0.007884 0.043445
#
#
# Mechanical properties :
#
#
# Convention : Reuss Voigt Hill
#
# Bulk Modulus (GPa) = 25.03552 49.29146 37.16349
# Shear Modulus (GPa) = 20.84091 30.87354 25.85722
#
# Velocity S-wave (km/s) = 3.09197 3.76332 3.44404
# Velocity P-wave (km/s) = 4.92256 6.44164 5.73264
#
# Compressibility (1/GPa) = 0.03994324
#
# Stress axis : x y z
#
# Youngs Moduli (GPa) = 105.75654 47.42870 28.03016
#
# Poissons Ratio (x) = 0.12460 0.06634
# Poissons Ratio (y) = 0.27784 0.22824
# Poissons Ratio (z) = 0.25028 0.38619
#
# Static dielectric constant tensor:
#      x y z
#    x 1.848800 -0.048960 0.003810 
#    y -0.048960 1.791090 0.033540 
#    z 0.003810 0.033540 1.896220 
# 
# From -- ./inp_files/208546.got.cif
#   From: 2010.05.17/outbox.ucp.g08.bks.cvg/sg2_105_cif.got.tgz:208546.got - 2010.06.11 11:32:03.
