data_PCOD9072579
_publ_section_title
;
Structure prediction by ZEFSAII (Michael W. Deem and Ramdas Pophale) SiO2 
 PCOD9072579
Probable space group: P -1
;
_chemical_formula_sum "Si O2"
_cell_formula_units_Z 16
_cell_length_a 21.000000
_cell_length_b 12.000000
_cell_length_c 9.000000
_cell_angle_alpha 130.000000
_cell_angle_beta 30.000000
_cell_angle_gamma 140.000000
_cell_volume 727.418465
_symmetry_space_group_name_H-M "P -1"
_symmetry_group_IT_number 2
_symmetry_cell_setting 'triclinic'
loop_
_space_group_symop_operation_xyz
x,y,z
-x,-y,-z
loop_
_atom_site_type_symbol
_atom_site_label
_atom_site_fract_x
_atom_site_fract_y
_atom_site_fract_z
Si Si1 0.595532 0.201948 0.654651
Si Si2 0.313975 0.853220 0.878174
Si Si3 0.947544 0.106512 0.601590
Si Si4 0.220411 0.915223 0.627666
Si Si5 0.652934 0.692529 0.349958
Si Si6 0.913610 0.874402 0.203744
Si Si7 0.823179 0.357788 0.743077
Si Si8 0.757265 0.547250 0.788206
O O1 0.606456 0.193654 0.448439
O O2 0.708359 0.157290 0.466649
O O3 0.643527 0.392036 0.775247
O O4 0.431074 0.033710 0.879401
O O5 0.196977 0.886971 0.059915
O O6 0.236683 0.696631 0.017026
O O7 0.079778 0.311058 0.489886
O O8 0.895959 0.992322 0.457314
O O9 0.000000 0.000000 0.500000
O O10 0.203594 0.814692 0.424553
O O11 0.330128 0.122075 0.548331
O O12 0.047144 0.849673 0.970112
O O13 0.500000 0.500000 0.500000
O O14 0.758596 0.722976 0.308038
O O15 0.718574 0.677926 0.048117
O O16 0.000000 0.000000 0.000000
O O17 0.756145 0.440404 0.842987
O O18 0.000000 0.500000 0.500000
#
# Coordination Sequence:
#
# PCOD9072579 Si02
#       8
#     2   2   2   2   2   2   2   2
#     4  10  26  45  66  97 138 181 227 281 344 412
#     4  11  24  45  68  93 139 182 226 274 354 395
#     4  12  24  43  69  99 135 180 223 279 344 405
#     4  10  21  42  67  94 134 177 217 279 340 399
#     4  11  24  38  67 102 138 170 229 278 339 401
#     4  10  19  40  64  92 130 172 213 270 330 397
#     4  11  22  40  71 100 130 170 228 282 330 402
#     4  11  24  44  63 104 133 172 232 282 336 405
#
# _framework density 21.995591999999998
#
# number of rings (size 3 to 8) (size 9 to 14) (size 15 to 20)
#    0.000    1.250    3.750    3.000    5.250    1.500 
#    4.500    0.625    0.000    0.000    0.000    0.000 
#    0.000    0.000    0.000    0.000    0.000    0.000 
#
# Total GULP energy -89156.422190 kJ/mol
# GULP energy per Si atom -5572.276387 kJ/mol
# Density = 2.194553 g / cm^3
# Si number density = 21.995592 Si / 1000 Ang^3
#
#
#
# Elastic Constant Matrix: (Units=GPa)
#
#
# Indices 1 2 3 4 5 6 
#
# 1 62.0416 40.4828 11.5895 -5.1023 5.5272 10.6944
# 2 40.4828 151.7716 12.5041 -6.0480 7.1582 19.6127
# 3 11.5895 12.5041 33.2027 -9.4502 12.1544 -0.2503
# 4 -5.1023 -6.0480 -9.4502 32.1528 5.3938 -10.1445
# 5 5.5272 7.1582 12.1544 5.3938 30.7598 2.6919
# 6 10.6944 19.6127 -0.2503 -10.1445 2.6919 39.7543
#
#
#
# Elastic Compliance Matrix: (Units=1/GPa)
#
#
# Indices 1 2 3 4 5 6 
#
# 1 0.020761 -0.004647 -0.005556 -0.000262 -0.000111 -0.003386
# 2 -0.004647 0.008337 -0.001690 -0.000609 -0.000066 -0.003025
# 3 -0.005556 -0.001690 0.045524 0.018377 -0.020580 0.008698
# 4 -0.000262 -0.000609 0.018377 0.042924 -0.015694 0.012503
# 5 -0.000111 -0.000066 -0.020580 -0.015694 0.044047 -0.007054
# 6 -0.003386 -0.003025 0.008698 0.012503 -0.007054 0.031281
#
#
# Mechanical properties :
#
#
# Convention : Reuss Voigt Hill
#
# Bulk Modulus (GPa) = 19.67120 41.79650 30.73385
# Shear Modulus (GPa) = 21.40376 32.69602 27.04989
#
# Velocity S-wave (km/s) = 3.12283 3.85967 3.51064
# Velocity P-wave (km/s) = 4.68673 6.23749 5.51687
#
# Compressibility (1/GPa) = 0.05083575
#
# Stress axis : x y z
#
# Youngs Moduli (GPa) = 48.16809 119.94164 21.96666
#
# Poissons Ratio (x) = 0.55742 0.12204
# Poissons Ratio (y) = 0.22386 0.03712
# Poissons Ratio (z) = 0.26761 0.20266
#
# Static dielectric constant tensor:
#      x y z
#    x 0.066380 -0.135130 -0.060790 
#    y -0.135130 1.818530 -0.049290 
#    z -0.060790 -0.049290 1.975650 
# 
# From -- ./inp_files/208363.got.cif
#   From: 2010.05.17/outbox.ucp.g08.bks.cvg/sg2_105_cif.got.tgz:208363.got - 2010.06.11 11:32:03.
