data_PCOD9072047
_publ_section_title
;
Structure prediction by ZEFSAII (Michael W. Deem and Ramdas Pophale) SiO2 
 PCOD9072047
Probable space group: P -1
;
_chemical_formula_sum "Si O2"
_cell_formula_units_Z 16
_cell_length_a 16.797537
_cell_length_b 17.527859
_cell_length_c 5.545692
_cell_angle_alpha 85.028889
_cell_angle_beta 103.250371
_cell_angle_gamma 150.577737
_cell_volume 758.630910
_symmetry_space_group_name_H-M "P -1"
_symmetry_group_IT_number 2
_symmetry_cell_setting 'triclinic'
loop_
_space_group_symop_operation_xyz
x,y,z
-x,-y,-z
loop_
_atom_site_type_symbol
_atom_site_label
_atom_site_fract_x
_atom_site_fract_y
_atom_site_fract_z
Si Si1 0.391710 0.197363 0.146060
Si Si2 0.924714 0.679095 0.865861
Si Si3 0.309378 0.652170 0.687583
Si Si4 0.482252 0.622198 0.315674
Si Si5 0.052751 0.985645 0.837373
Si Si6 0.141745 0.551422 0.099802
Si Si7 0.128141 0.334501 0.661053
Si Si8 0.258193 0.284870 0.612593
O O1 0.488679 0.196658 0.235895
O O2 0.435008 0.278605 0.403400
O O3 0.466114 0.292151 0.918336
O O4 0.191121 0.039379 0.010066
O O5 0.719637 0.530325 0.754524
O O6 0.942250 0.602027 0.910734
O O7 0.990870 0.761321 0.631259
O O8 0.974826 0.751023 0.140862
O O9 0.241835 0.637035 0.401759
O O10 0.228107 0.498251 0.675526
O O11 0.254598 0.643992 0.906619
O O12 0.555715 0.596890 0.336087
O O13 0.159148 0.129695 0.695854
O O14 0.871182 0.805261 0.671981
O O15 0.000000 0.000000 0.000000
O O16 0.000000 0.500000 0.000000
O O17 0.246178 0.354839 0.729887
#
# Coordination Sequence:
#
# PCOD9072047 Si02
#       8
#     2   2   2   2   2   2   2   2
#     4  11  18  33  51  65  97 136 157 206 248 277
#     4  10  19  33  47  73 104 127 157 198 244 298
#     4  10  18  34  48  75 104 127 155 198 242 294
#     4  11  18  32  49  67  98 133 162 204 240 278
#     4  10  21  36  47  66  96 130 179 218 244 268
#     4  10  18  30  51  74 103 130 152 187 242 307
#     4  10  20  32  49  69 100 131 165 201 240 289
#     4  10  23  33  48  70  94 136 175 211 242 280
#
# _framework density 21.090626
#
# number of rings (size 3 to 8) (size 9 to 14) (size 15 to 20)
#    0.000    1.750    6.250    0.375    1.750    1.000 
#    0.000    0.000    0.000    0.000    0.000    0.000 
#    0.000   24.000    0.000    0.000    0.000    0.000 
#
# Total GULP energy -89130.845959 kJ/mol
# GULP energy per Si atom -5570.677872 kJ/mol
# Density = 2.104262 g / cm^3
# Si number density = 21.090626 Si / 1000 Ang^3
#
#
#
# Elastic Constant Matrix: (Units=GPa)
#
#
# Indices 1 2 3 4 5 6 
#
# 1 144.8095 21.0284 61.9618 -3.6116 25.2690 16.7301
# 2 21.0284 35.0187 29.3288 -6.6603 10.3363 -1.9695
# 3 61.9618 29.3288 173.9593 -23.8655 1.0665 17.0537
# 4 -3.6116 -6.6603 -23.8655 23.6742 10.7102 -1.7670
# 5 25.2690 10.3363 1.0665 10.7102 46.0364 3.5162
# 6 16.7301 -1.9695 17.0537 -1.7670 3.5162 17.1964
#
#
#
# Elastic Compliance Matrix: (Units=1/GPa)
#
#
# Indices 1 2 3 4 5 6 
#
# 1 0.009855 -0.003274 -0.002323 -0.000471 -0.003984 -0.006893
# 2 -0.003274 0.042217 -0.005960 0.011957 -0.011666 0.017544
# 3 -0.002323 -0.005960 0.009076 0.005869 0.001583 -0.007145
# 4 -0.000471 0.011957 0.005869 0.059475 -0.016823 0.005558
# 5 -0.003984 -0.011666 0.001583 -0.016823 0.030947 -0.007086
# 6 -0.006893 0.017544 -0.007145 0.005558 -0.007086 0.075972
#
#
# Mechanical properties :
#
#
# Convention : Reuss Voigt Hill
#
# Bulk Modulus (GPa) = 26.29038 64.26950 45.27994
# Shear Modulus (GPa) = 18.98742 33.47930 26.23336
#
# Velocity S-wave (km/s) = 3.00372 3.98854 3.53064
# Velocity P-wave (km/s) = 4.95200 7.19378 6.17546
#
# Compressibility (1/GPa) = 0.03803672
#
# Stress axis : x y z
#
# Youngs Moduli (GPa) = 101.47495 23.68696 110.17509
#
# Poissons Ratio (x) = 0.07754 0.25590
# Poissons Ratio (y) = 0.33218 0.65661
# Poissons Ratio (z) = 0.23569 0.14117
#
# Static dielectric constant tensor:
#      x y z
#    x 1.784990 -0.060530 0.000200 
#    y -0.060530 1.854050 -0.045030 
#    z 0.000200 -0.045030 1.888290 
# 
# From -- ./inp_files/52013.got.cif
#   From: 2010.05.17/outbox.cif.g08.bks.cpg/sg2_27_cif.got.tgz:52013.got - 2010.06.03 11:33:40.
