data_PCOD9072922
_publ_section_title
;
Structure prediction by ZEFSAII (Michael W. Deem and Ramdas Pophale) SiO2 
 PCOD9072922
Probable space group: P -1
;
_chemical_formula_sum "Si O2"
_cell_formula_units_Z 16
_cell_length_a 13.637200
_cell_length_b 11.004546
_cell_length_c 14.339077
_cell_angle_alpha 98.471572
_cell_angle_beta 50.202201
_cell_angle_gamma 56.342520
_cell_volume 852.386245
_symmetry_space_group_name_H-M "P -1"
_symmetry_group_IT_number 2
_symmetry_cell_setting 'triclinic'
loop_
_space_group_symop_operation_xyz
x,y,z
-x,-y,-z
loop_
_atom_site_type_symbol
_atom_site_label
_atom_site_fract_x
_atom_site_fract_y
_atom_site_fract_z
Si Si1 0.025238 0.055280 0.588504
Si Si2 0.048060 0.086288 0.920422
Si Si3 0.087206 0.158566 0.099876
Si Si4 0.306697 0.603481 0.385339
Si Si5 0.993768 0.688878 0.478565
Si Si6 0.750921 0.235858 0.959135
Si Si7 0.587036 0.859615 0.837770
Si Si8 0.547432 0.592414 0.530682
O O1 0.057326 0.169978 0.555106
O O2 0.816919 0.210496 0.810430
O O3 0.245263 0.794057 0.468819
O O4 0.000000 0.000000 0.500000
O O5 0.689573 0.133106 0.314665
O O6 0.058733 0.173550 0.007336
O O7 0.852289 0.250273 0.975122
O O8 0.000000 0.000000 0.000000
O O9 0.817073 0.421681 0.326721
O O10 0.126080 0.993642 0.108697
O O11 0.335595 0.024197 0.960213
O O12 0.073513 0.708365 0.520890
O O13 0.459134 0.422025 0.355745
O O14 0.463766 0.465798 0.180091
O O15 0.223573 0.409042 0.287900
O O16 0.754283 0.809829 0.665853
O O17 0.500000 0.000000 0.000000
O O18 0.500000 0.500000 0.500000
#
# Coordination Sequence:
#
# PCOD9072922 Si02
#       8
#     2   2   2   2   2   2   2   2
#     4  10  23  35  54  81 115 148 181 227 277 335
#     4  10  18  31  51  83 117 142 171 226 279 338
#     4  11  20  33  54  82 114 142 180 229 277 325
#     4  11  19  33  55  81 116 145 176 226 281 331
#     4  10  23  39  53  78 107 146 194 225 267 323
#     4  11  19  33  54  85 117 143 174 222 292 334
#     4  11  23  38  58  76 108 151 191 230 264 320
#     4  12  17  27  51  82 116 140 172 216 283 335
#
# _framework density 18.770831999999999
#
# number of rings (size 3 to 8) (size 9 to 14) (size 15 to 20)
#    0.000    1.250    7.500    0.750    1.750    4.000 
#    0.000    0.000    0.000    0.750    0.000    7.000 
#    0.000    0.000    0.000    0.000    0.000    0.000 
#
# Total GULP energy -89112.135030 kJ/mol
# GULP energy per Si atom -5569.508439 kJ/mol
# Density = 1.872811 g / cm^3
# Si number density = 18.770832 Si / 1000 Ang^3
#
#
#
# Elastic Constant Matrix: (Units=GPa)
#
#
# Indices 1 2 3 4 5 6 
#
# 1 92.6251 16.6943 43.9051 -15.6852 -6.2647 -8.5411
# 2 16.6943 46.3108 23.6942 -7.0159 -6.2867 15.5763
# 3 43.9051 23.6942 147.2257 -3.0958 -9.5925 7.3553
# 4 -15.6852 -7.0159 -3.0958 23.9277 -6.0976 2.7248
# 5 -6.2647 -6.2867 -9.5925 -6.0976 38.1058 0.8738
# 6 -8.5411 15.5763 7.3553 2.7248 0.8738 19.9662
#
#
#
# Elastic Compliance Matrix: (Units=1/GPa)
#
#
# Indices 1 2 3 4 5 6 
#
# 1 0.016546 -0.006898 -0.004234 0.007144 0.001362 0.012985
# 2 -0.006898 0.040062 -0.001817 0.013071 0.007927 -0.035666
# 3 -0.004234 -0.001817 0.008547 -0.001568 0.000982 -0.003371
# 4 0.007144 0.013071 -0.001568 0.054834 0.012045 -0.014574
# 5 0.001362 0.007927 0.000982 0.012045 0.030154 -0.008927
# 6 0.012985 -0.035666 -0.003371 -0.014574 -0.008927 0.087085
#
#
# Mechanical properties :
#
#
# Convention : Reuss Voigt Hill
#
# Bulk Modulus (GPa) = 25.47387 50.52762 38.00075
# Shear Modulus (GPa) = 18.10207 29.85781 23.97994
#
# Velocity S-wave (km/s) = 3.10880 3.99262 3.57811
# Velocity P-wave (km/s) = 5.14652 6.94488 6.11220
#
# Compressibility (1/GPa) = 0.03925591
#
# Stress axis : x y z
#
# Youngs Moduli (GPa) = 60.43913 24.96126 117.00420
#
# Poissons Ratio (x) = 0.17220 0.49536
# Poissons Ratio (y) = 0.41694 0.21260
# Poissons Ratio (z) = 0.25588 0.04536
#
# Static dielectric constant tensor:
#      x y z
#    x 1.690410 -0.001140 0.012400 
#    y -0.001140 1.700150 0.025510 
#    z 0.012400 0.025510 1.688730 
# 
# From -- ./inp_files/518993.got.cif
#   From: 2010.05.17/outbox.cif.g08.bks.cpg/sg2_260_cif.got.tgz:518993.got - 2010.06.03 11:33:40.
