data_PCOD9072334
_publ_section_title
;
Structure prediction by ZEFSAII (Michael W. Deem and Ramdas Pophale) SiO2 
 PCOD9072334
Probable space group: P -1
;
_chemical_formula_sum "Si O2"
_cell_formula_units_Z 16
_cell_length_a 18.000000
_cell_length_b 9.000000
_cell_length_c 21.000000
_cell_angle_alpha 50.000000
_cell_angle_beta 160.000000
_cell_angle_gamma 120.000000
_cell_volume 818.070593
_symmetry_space_group_name_H-M "P -1"
_symmetry_group_IT_number 2
_symmetry_cell_setting 'triclinic'
loop_
_space_group_symop_operation_xyz
x,y,z
-x,-y,-z
loop_
_atom_site_type_symbol
_atom_site_label
_atom_site_fract_x
_atom_site_fract_y
_atom_site_fract_z
Si Si1 0.401190 0.165853 0.067055
Si Si2 0.787838 0.022361 0.914851
Si Si3 0.681655 0.900502 0.560136
Si Si4 0.716201 0.247660 0.584328
Si Si5 0.880855 0.445370 0.543336
Si Si6 0.330079 0.507663 0.301648
Si Si7 0.885111 0.074759 0.559211
Si Si8 0.556901 0.098836 0.955194
O O1 0.660549 0.145509 0.308725
O O2 0.303629 0.054518 0.073866
O O3 0.165127 0.387286 0.802307
O O4 0.443750 0.033138 0.072720
O O5 0.587573 0.048616 0.693963
O O6 0.808979 0.242938 0.887131
O O7 0.048687 0.853682 0.155021
O O8 0.792375 0.652837 0.735527
O O9 0.673850 0.056979 0.567992
O O10 0.814758 0.952255 0.593503
O O11 0.786137 0.369340 0.550820
O O12 0.495110 0.402223 0.403204
O O13 0.885073 0.288799 0.531957
O O14 0.670224 0.674672 0.296862
O O15 0.500000 0.500000 0.500000
O O16 0.162578 0.932122 0.803587
O O17 0.500000 0.000000 0.000000
#
# Coordination Sequence:
#
# PCOD9072334 Si02
#       8
#     2   2   2   2   2   2   2   2
#     4   9  19  38  60  82 114 150 185 227 274 329
#     4   9  19  36  55  77 108 146 185 226 270 317
#     4   9  19  35  53  78 109 143 186 230 269 317
#     4  10  19  35  56  75 105 146 185 226 271 321
#     4   9  20  38  59  82 109 147 187 226 278 332
#     4  10  20  33  51  80 112 143 185 229 270 315
#     4   9  20  39  58  81 114 148 187 230 273 330
#     4  11  23  38  59  87 114 141 180 230 282 339
#
# _framework density 19.558214
#
# number of rings (size 3 to 8) (size 9 to 14) (size 15 to 20)
#    0.000    2.500    0.000    1.875    0.000    6.000 
#    0.000   16.250    0.000    0.000    0.000    0.000 
#    0.000    0.000    0.000    0.000    0.000    0.000 
#
# Total GULP energy -89151.206962 kJ/mol
# GULP energy per Si atom -5571.950435 kJ/mol
# Density = 1.951370 g / cm^3
# Si number density = 19.558214 Si / 1000 Ang^3
#
#
#
# Elastic Constant Matrix: (Units=GPa)
#
#
# Indices 1 2 3 4 5 6 
#
# 1 32.1640 11.0213 20.6898 4.1210 -1.4582 -1.5861
# 2 11.0213 48.5099 43.5409 0.0365 -0.6407 -3.9064
# 3 20.6898 43.5409 162.6954 -5.3997 3.2227 5.0026
# 4 4.1210 0.0365 -5.3997 43.1525 -5.8554 -2.1818
# 5 -1.4582 -0.6407 3.2227 -5.8554 26.2844 2.7541
# 6 -1.5861 -3.9064 5.0026 -2.1818 2.7541 19.3154
#
#
#
# Elastic Compliance Matrix: (Units=1/GPa)
#
#
# Indices 1 2 3 4 5 6 
#
# 1 0.035574 -0.004777 -0.003458 -0.003541 0.001254 0.002272
# 2 -0.004777 0.028903 -0.007364 -0.000045 0.000570 0.007274
# 3 -0.003458 -0.007364 0.008727 0.001129 -0.000792 -0.003793
# 4 -0.003541 -0.000045 0.001129 0.024398 0.004946 0.001458
# 5 0.001254 0.000570 -0.000792 0.004946 0.039820 -0.004696
# 6 0.002272 0.007274 -0.003793 0.001458 -0.004696 0.055247
#
#
# Mechanical properties :
#
#
# Convention : Reuss Voigt Hill
#
# Bulk Modulus (GPa) = 23.80562 43.76370 33.78466
# Shear Modulus (GPa) = 21.02013 28.95827 24.98920
#
# Velocity S-wave (km/s) = 3.28189 3.85206 3.57835
# Velocity P-wave (km/s) = 5.15356 6.49686 5.86380
#
# Compressibility (1/GPa) = 0.04200688
#
# Stress axis : x y z
#
# Youngs Moduli (GPa) = 28.11017 34.59898 114.59018
#
# Poissons Ratio (x) = 0.16526 0.39624
# Poissons Ratio (y) = 0.13427 0.84384
# Poissons Ratio (z) = 0.09720 0.25479
#
# Static dielectric constant tensor:
#      x y z
#    x 1.668230 0.023600 -0.024360 
#    y 0.023600 1.699220 0.000630 
#    z -0.024360 0.000630 1.736350 
# 
# From -- ./inp_files/52376.got.cif
#   From: 2010.05.17/outbox.ucp.g08.bks.cvg/sg2_27_cif.got.tgz:52376.got - 2010.06.11 11:32:03.
