data_PCOD9072696
_publ_section_title
;
Structure prediction by ZEFSAII (Michael W. Deem and Ramdas Pophale) SiO2 
 PCOD9072696
Probable space group: P -1
;
_chemical_formula_sum "Si O2"
_cell_formula_units_Z 14
_cell_length_a 12.000000
_cell_length_b 6.000000
_cell_length_c 15.000000
_cell_angle_alpha 110.000000
_cell_angle_beta 140.000000
_cell_angle_gamma 70.000000
_cell_volume 646.595115
_symmetry_space_group_name_H-M "P -1"
_symmetry_group_IT_number 2
_symmetry_cell_setting 'triclinic'
loop_
_space_group_symop_operation_xyz
x,y,z
-x,-y,-z
loop_
_atom_site_type_symbol
_atom_site_label
_atom_site_fract_x
_atom_site_fract_y
_atom_site_fract_z
Si Si1 0.237879 0.591339 0.078986
Si Si2 0.151385 0.564755 0.361256
Si Si3 0.811437 0.226412 0.318715
Si Si4 0.199202 0.046594 0.558047
Si Si5 0.392341 0.369608 0.626929
Si Si6 0.845971 0.268912 0.146804
Si Si7 0.974756 0.230999 0.865580
O O1 0.413619 0.573687 0.239844
O O2 0.098939 0.755554 0.078074
O O3 0.259375 0.683386 0.003891
O O4 0.155572 0.344917 0.990070
O O5 0.305727 0.389584 0.479108
O O6 0.149810 0.612682 0.261093
O O7 0.965661 0.479452 0.257412
O O8 0.160748 0.807367 0.453060
O O9 0.713803 0.447320 0.343232
O O10 0.758202 0.232516 0.183343
O O11 0.021105 0.221657 0.452983
O O12 0.777391 0.001276 0.328962
O O13 0.366893 0.120046 0.622057
O O14 0.984174 0.034447 0.181559
#
# Coordination Sequence:
#
# PCOD9072696 Si02
#       7
#     2   2   2   2   2   2   2
#     4  10  25  40  61  84 118 152 196 238 294 339
#     4  10  20  36  64  90 112 152 198 235 286 341
#     4  10  21  33  62  87 116 156 190 230 288 347
#     4  10  20  35  59  91 119 151 190 235 285 344
#     4  11  22  38  56  94 122 147 185 245 291 339
#     4  11  21  39  63  85 113 158 199 232 281 350
#     4  10  21  44  63  82 109 159 200 239 279 347
#
# _framework density 21.651879999999998
#
# number of rings (size 3 to 8) (size 9 to 14) (size 15 to 20)
#    0.000    1.714    2.857    0.857    4.000    3.429 
#    0.000    4.286    0.000    0.000    0.000    0.000 
#    0.000    0.000    0.000    0.000    0.000    0.000 
#
# Total GULP energy -78041.624106 kJ/mol
# GULP energy per Si atom -5574.401722 kJ/mol
# Density = 2.160260 g / cm^3
# Si number density = 21.651880 Si / 1000 Ang^3
#
#
#
# Elastic Constant Matrix: (Units=GPa)
#
#
# Indices 1 2 3 4 5 6 
#
# 1 18.0983 14.6434 -10.2141 14.5151 8.5143 25.4107
# 2 14.6434 39.0780 1.0880 19.8643 -1.7665 1.7909
# 3 -10.2141 1.0880 48.4416 7.4763 17.7220 28.5476
# 4 14.5151 19.8643 7.4763 18.5399 -1.7670 -11.7526
# 5 8.5143 -1.7665 17.7220 -1.7670 17.1439 -14.6779
# 6 25.4107 1.7909 28.5476 -11.7526 -14.6779 -4.9553
#
#
#
# Elastic Compliance Matrix: (Units=1/GPa)
#
#
# Indices 1 2 3 4 5 6 
#
# 1 0.025831 -0.015480 -0.009267 0.011365 0.010226 0.016233
# 2 -0.015480 0.054276 -0.001963 -0.043960 0.011084 0.000356
# 3 -0.009267 -0.001963 0.012965 0.009153 -0.001129 0.008093
# 4 0.011365 -0.043960 0.009153 0.076766 -0.024367 -0.014768
# 5 0.010226 0.011084 -0.001129 -0.024367 0.041087 -0.013972
# 6 0.016233 0.000356 0.008093 -0.014768 -0.013972 0.004603
#
#
# Mechanical properties :
#
#
# Convention : Reuss Voigt Hill
#
# Bulk Modulus (GPa) = 25.22027 12.96139 19.09083
# Shear Modulus (GPa) = 17.72003 12.81905 15.26954
#
# Velocity S-wave (km/s) = 2.86388 2.43585 2.65850
# Velocity P-wave (km/s) = 4.75491 3.72967 4.27315
#
# Compressibility (1/GPa) = 0.03965065
#
# Stress axis : x y z
#
# Youngs Moduli (GPa) = 38.71293 18.42427 77.13309
#
# Poissons Ratio (x) = 0.28521 0.71482
# Poissons Ratio (y) = 0.59929 0.15141
# Poissons Ratio (z) = 0.35877 0.03617
#
# Static dielectric constant tensor:
#      x y z
#    x 1.800720 0.048400 -0.001480 
#    y 0.048400 1.890480 -0.040540 
#    z -0.001480 -0.040540 1.780960 
# 
# From -- ./inp_files/26723.got.cif
#   From: 2010.05.17/outbox.ucp.g08.bks.cvg/sg2_14_cif.got.tgz:26723.got - 2010.06.11 11:32:03.
