data_PCOD9072412
_publ_section_title
;
Structure prediction by ZEFSAII (Michael W. Deem and Ramdas Pophale) SiO2 
 PCOD9072412
Probable space group: P -1
;
_chemical_formula_sum "Si O2"
_cell_formula_units_Z 12
_cell_length_a 8.677985
_cell_length_b 9.441396
_cell_length_c 11.751015
_cell_angle_alpha 106.677756
_cell_angle_beta 37.854611
_cell_angle_gamma 109.371997
_cell_volume 556.850947
_symmetry_space_group_name_H-M "P -1"
_symmetry_group_IT_number 2
_symmetry_cell_setting 'triclinic'
loop_
_space_group_symop_operation_xyz
x,y,z
-x,-y,-z
loop_
_atom_site_type_symbol
_atom_site_label
_atom_site_fract_x
_atom_site_fract_y
_atom_site_fract_z
Si Si1 0.195716 0.241742 0.402951
Si Si2 0.488311 0.826569 0.994260
Si Si3 0.138026 0.579802 0.255559
Si Si4 0.205874 0.084533 0.810129
Si Si5 0.312779 0.336012 0.961902
Si Si6 0.762115 0.994253 0.483700
O O1 0.428399 0.254352 0.183720
O O2 0.103856 0.394597 0.526884
O O3 0.961091 0.134434 0.450359
O O4 0.254124 0.145744 0.454617
O O5 0.671917 0.794956 0.983392
O O6 0.219392 0.736000 0.174006
O O7 0.500000 0.000000 0.000000
O O8 0.128212 0.440987 0.144686
O O9 0.393001 0.577347 0.182117
O O10 0.483616 0.039290 0.655103
O O11 0.150925 0.048035 0.701809
O O12 0.237570 0.258849 0.868652
O O13 0.000000 0.000000 0.000000
#
# Coordination Sequence:
#
# PCOD9072412 Si02
#       6
#     2   2   2   2   2   2
#     4  11  19  35  58  85 115 143 191 242 280 331
#     4  10  18  30  56  87 111 141 187 236 280 326
#     4   9  20  36  56  85 116 147 187 238 284 329
#     4  11  21  38  57  81 117 155 188 230 283 346
#     4   9  19  39  54  83 117 150 189 232 282 340
#     4  10  22  33  55  87 114 146 188 240 287 325
#
# _framework density 21.549752000000002
#
# number of rings (size 3 to 8) (size 9 to 14) (size 15 to 20)
#    1.000    1.000    1.667    4.000    0.000    2.000 
#    0.000    1.667    0.000    2.000    0.000    0.000 
#    0.000    0.000    0.000    0.000    0.000    0.000 
#
# Total GULP energy -66960.620146 kJ/mol
# GULP energy per Si atom -5580.051679 kJ/mol
# Density = 2.150070 g / cm^3
# Si number density = 21.549752 Si / 1000 Ang^3
#
#
#
# Elastic Constant Matrix: (Units=GPa)
#
#
# Indices 1 2 3 4 5 6 
#
# 1 55.2982 19.0177 13.8902 7.4716 24.8341 0.0864
# 2 19.0177 64.3950 28.4915 22.5637 8.4744 -11.4568
# 3 13.8902 28.4915 136.7697 25.4550 30.5374 5.0136
# 4 7.4716 22.5637 25.4550 51.5054 0.3790 5.5322
# 5 24.8341 8.4744 30.5374 0.3790 28.1112 4.9343
# 6 0.0864 -11.4568 5.0136 5.5322 4.9343 26.7509
#
#
#
# Elastic Compliance Matrix: (Units=1/GPa)
#
#
# Indices 1 2 3 4 5 6 
#
# 1 0.036892 -0.005763 0.007364 -0.006682 -0.039592 0.004717
# 2 -0.005763 0.024541 -0.002851 -0.009933 -0.001425 0.013380
# 3 0.007364 -0.002851 0.012574 -0.006023 -0.019440 0.001230
# 4 -0.006682 -0.009933 -0.006023 0.028902 0.017201 -0.012254
# 5 -0.039592 -0.001425 -0.019440 0.017201 0.095011 -0.017922
# 6 0.004717 0.013380 0.001230 -0.012254 -0.017922 0.048707
#
#
# Mechanical properties :
#
#
# Convention : Reuss Voigt Hill
#
# Bulk Modulus (GPa) = 13.98431 42.14020 28.06226
# Shear Modulus (GPa) = 18.31771 34.27773 26.29772
#
# Velocity S-wave (km/s) = 2.91867 3.99260 3.49711
# Velocity P-wave (km/s) = 4.22630 6.39154 5.41818
#
# Compressibility (1/GPa) = 0.07150871
#
# Stress axis : x y z
#
# Youngs Moduli (GPa) = 27.10642 40.74845 79.52995
#
# Poissons Ratio (x) = 0.23481 -0.58569
# Poissons Ratio (y) = 0.15620 0.22671
# Poissons Ratio (z) = -0.19962 0.11616
#
# Static dielectric constant tensor:
#      x y z
#    x 1.787810 0.000550 -0.003270 
#    y 0.000550 1.825130 -0.002730 
#    z -0.003270 -0.002730 1.795780 
# 
# From -- ./inp_files/390865.got.cif
#   From: 2010.05.17/outbox.cif.g08.bks.cpg/sg2_196_cif.got.tgz:390865.got - 2010.06.03 11:33:40.
