data_PCOD9072481
_publ_section_title
;
Structure prediction by ZEFSAII (Michael W. Deem and Ramdas Pophale) SiO2 
 PCOD9072481
Probable space group: P -1
;
_chemical_formula_sum "Si O2"
_cell_formula_units_Z 14
_cell_length_a 18.000000
_cell_length_b 12.000000
_cell_length_c 9.000000
_cell_angle_alpha 70.000000
_cell_angle_beta 30.000000
_cell_angle_gamma 50.000000
_cell_volume 616.684141
_symmetry_space_group_name_H-M "P -1"
_symmetry_group_IT_number 2
_symmetry_cell_setting 'triclinic'
loop_
_space_group_symop_operation_xyz
x,y,z
-x,-y,-z
loop_
_atom_site_type_symbol
_atom_site_label
_atom_site_fract_x
_atom_site_fract_y
_atom_site_fract_z
Si Si1 0.019908 0.269483 0.705318
Si Si2 0.854985 0.250472 0.447668
Si Si3 0.755153 0.096995 0.478051
Si Si4 0.086643 0.289022 0.242832
Si Si5 0.687837 0.702492 0.673328
Si Si6 0.419180 0.315793 0.689095
Si Si7 0.518443 0.647387 0.750676
O O1 0.086255 0.234601 0.432730
O O2 0.186751 0.251692 0.523200
O O3 0.061762 0.112386 0.759092
O O4 0.780335 0.472473 0.034402
O O5 0.869017 0.137075 0.354015
O O6 0.709687 0.436832 0.532811
O O7 0.051154 0.206732 0.215114
O O8 0.693900 0.284093 0.833519
O O9 0.608102 0.208129 0.535598
O O10 0.550202 0.166404 0.899094
O O11 0.861101 0.500034 0.522174
O O12 0.289456 0.265638 0.907736
O O13 0.627510 0.700230 0.612201
O O14 0.534707 0.289076 0.351906
#
# Coordination Sequence:
#
# PCOD9072481 Si02
#       7
#     2   2   2   2   2   2   2
#     4  11  21  35  63  95 127 158 206 258 306 363
#     4   9  21  40  64  90 123 170 204 243 318 380
#     4  11  21  38  64  89 127 166 204 248 311 374
#     4  10  19  37  64  95 121 156 216 250 303 367
#     4   9  17  36  61  88 116 165 206 243 301 369
#     4  11  22  39  68  95 117 162 212 260 300 361
#     4   9  20  38  67  88 123 166 207 249 313 365
#
# _framework density 22.702058999999998
#
# number of rings (size 3 to 8) (size 9 to 14) (size 15 to 20)
#    0.000    2.000    2.857    2.143    0.000    6.286 
#    0.000    1.429   12.571    0.000    0.000    0.000 
#    0.000    0.000    0.000    0.000    0.000    0.000 
#
# Total GULP energy -78169.182103 kJ/mol
# GULP energy per Si atom -5583.513007 kJ/mol
# Density = 2.265039 g / cm^3
# Si number density = 22.702059 Si / 1000 Ang^3
#
#
#
# Elastic Constant Matrix: (Units=GPa)
#
#
# Indices 1 2 3 4 5 6 
#
# 1 162.7229 104.0160 16.3524 6.4093 -7.2591 26.4708
# 2 104.0160 96.1310 40.8206 0.0952 15.7134 14.3354
# 3 16.3524 40.8206 25.4913 -3.6138 -13.8163 -0.5370
# 4 6.4093 0.0952 -3.6138 -4.3782 -12.3308 -6.8788
# 5 -7.2591 15.7134 -13.8163 -12.3308 22.8881 -16.4377
# 6 26.4708 14.3354 -0.5370 -6.8788 -16.4377 40.7887
#
#
#
# Elastic Compliance Matrix: (Units=1/GPa)
#
#
# Indices 1 2 3 4 5 6 
#
# 1 -0.006590 0.021077 -0.028879 0.044184 -0.010356 -0.000234
# 2 0.021077 -0.033823 0.043448 -0.060891 0.021219 -0.002937
# 3 -0.028879 0.043448 -0.019206 0.045609 -0.025577 0.000603
# 4 0.044184 -0.060891 0.045609 -0.128363 -0.008649 -0.031807
# 5 -0.010356 0.021219 -0.025577 -0.008649 0.005519 -0.000308
# 6 -0.000234 -0.002937 0.000603 -0.031807 -0.000308 0.020220
#
#
# Mechanical properties :
#
#
# Convention : Reuss Voigt Hill
#
# Bulk Modulus (GPa) = 85.65428 67.41368 76.53398
# Shear Modulus (GPa) = -21.77285 20.07017 -0.85134
#
# Velocity S-wave (km/s) = -3.10024 2.97655 -0.61304
# Velocity P-wave (km/s) = 4.99963 6.44768 5.76927
#
# Compressibility (1/GPa) = 0.01167484
#
# Stress axis : x y z
#
# Youngs Moduli (GPa) = -151.75418 -29.56571 -52.06749
#
# Poissons Ratio (x) = 0.62315 -1.50364
# Poissons Ratio (y) = 3.19850 2.26225
# Poissons Ratio (z) = -4.38245 1.28458
#
# Static dielectric constant tensor:
#      x y z
#    x 1.838360 0.036220 0.064350 
#    y 0.036220 1.847830 -0.007290 
#    z 0.064350 -0.007290 1.834700 
# 
# From -- ./inp_files/255779.got.cif
#   From: 2010.05.17/outbox.ucp.g08.bks.cvg/sg2_128_cif.got.tgz:255779.got - 2010.06.11 11:32:03.
