data_PCOD9072418
_publ_section_title
;
Structure prediction by ZEFSAII (Michael W. Deem and Ramdas Pophale) SiO2 
 PCOD9072418
Probable space group: P -1
;
_chemical_formula_sum "Si O2"
_cell_formula_units_Z 16
_cell_length_a 7.152551
_cell_length_b 9.325143
_cell_length_c 17.011057
_cell_angle_alpha 141.251324
_cell_angle_beta 109.065901
_cell_angle_gamma 84.506051
_cell_volume 646.499476
_symmetry_space_group_name_H-M "P -1"
_symmetry_group_IT_number 2
_symmetry_cell_setting 'triclinic'
loop_
_space_group_symop_operation_xyz
x,y,z
-x,-y,-z
loop_
_atom_site_type_symbol
_atom_site_label
_atom_site_fract_x
_atom_site_fract_y
_atom_site_fract_z
Si Si1 0.306360 0.632835 0.356212
Si Si2 0.250549 0.842762 0.807811
Si Si3 0.307940 0.164791 0.577629
Si Si4 0.838488 0.876826 0.217836
Si Si5 0.942611 0.535664 0.898448
Si Si6 0.520770 0.409993 0.860865
Si Si7 0.684419 0.159791 0.001723
Si Si8 0.024199 0.656127 0.455309
O O1 0.548277 0.675663 0.400421
O O2 0.186043 0.462879 0.199188
O O3 0.211349 0.585460 0.408573
O O4 0.278039 0.891570 0.439411
O O5 0.154179 0.029219 0.829484
O O6 0.226451 0.848794 0.901540
O O7 0.133257 0.589593 0.646579
O O8 0.496935 0.925635 0.862308
O O9 0.437211 0.221362 0.699057
O O10 0.104144 0.249220 0.589514
O O11 0.905279 0.118178 0.381921
O O12 0.970472 0.697115 0.183028
O O13 0.602296 0.729709 0.141595
O O14 0.141098 0.758846 0.006110
O O15 0.233070 0.511173 0.078015
O O16 0.426725 0.626480 0.917848
#
# Coordination Sequence:
#
# PCOD9072418 Si02
#       8
#     2   2   2   2   2   2   2   2
#     4  10  18  30  56  89 115 146 197 242 279 338
#     4  11  24  41  58  85 123 161 194 234 287 355
#     4  10  18  30  56  89 115 146 197 242 279 338
#     4  11  23  37  60  92 123 148 186 247 306 346
#     4  10  20  38  65  91 113 148 200 250 290 335
#     4  10  20  38  65  91 113 148 200 250 290 335
#     4  10  22  44  64  80 114 160 206 238 276 346
#     4  12  19  36  58  83 121 158 186 229 297 348
#
# _framework density 24.748667000000001
#
# number of rings (size 3 to 8) (size 9 to 14) (size 15 to 20)
#    0.000    1.500    5.000    1.500    0.000    2.000 
#    0.000    8.750    0.000    3.000    0.000    0.000 
#    0.000    0.000    0.000    0.000    0.000    0.000 
#
# Total GULP energy -89413.841255 kJ/mol
# GULP energy per Si atom -5588.365078 kJ/mol
# Density = 2.469234 g / cm^3
# Si number density = 24.748667 Si / 1000 Ang^3
#
#
#
# Elastic Constant Matrix: (Units=GPa)
#
#
# Indices 1 2 3 4 5 6 
#
# 1 143.0408 44.5571 17.4352 11.8276 22.0836 32.6872
# 2 44.5571 118.6289 31.1488 11.3729 10.1836 22.2254
# 3 17.4352 31.1488 123.9249 19.7982 20.4097 11.6863
# 4 11.8276 11.3729 19.7982 38.9914 10.2437 7.7590
# 5 22.0836 10.1836 20.4097 10.2437 29.5138 8.1071
# 6 32.6872 22.2254 11.6863 7.7590 8.1071 21.2563
#
#
#
# Elastic Compliance Matrix: (Units=1/GPa)
#
#
# Indices 1 2 3 4 5 6 
#
# 1 0.011430 -0.001346 0.000816 0.000766 -0.004777 -0.015075
# 2 -0.001346 0.010995 -0.001862 -0.000400 0.001014 -0.008643
# 3 0.000816 -0.001862 0.009940 -0.003023 -0.005345 -0.001631
# 4 0.000766 -0.000400 -0.003023 0.030362 -0.006799 -0.007588
# 5 -0.004777 0.001014 -0.005345 -0.006799 0.044622 -0.005313
# 6 -0.015075 -0.008643 -0.001631 -0.007588 -0.005313 0.084957
#
#
# Mechanical properties :
#
#
# Convention : Reuss Voigt Hill
#
# Bulk Modulus (GPa) = 36.25859 63.54187 49.90023
# Shear Modulus (GPa) = 24.23850 37.44920 30.84385
#
# Velocity S-wave (km/s) = 3.13291 3.89418 3.53410
# Velocity P-wave (km/s) = 5.26966 6.77865 6.07122
#
# Compressibility (1/GPa) = 0.02757967
#
# Stress axis : x y z
#
# Youngs Moduli (GPa) = 87.48813 90.95173 100.60775
#
# Poissons Ratio (x) = 0.12246 -0.08213
# Poissons Ratio (y) = 0.11780 0.18737
# Poissons Ratio (z) = -0.07142 0.16939
#
# Static dielectric constant tensor:
#      x y z
#    x 1.986610 0.086050 -0.017200 
#    y 0.086050 1.969440 -0.008380 
#    z -0.017200 -0.008380 2.012260 
# 
# From -- ./inp_files/557615.got.cif
#   From: 2010.05.17/outbox.cif.g08.bks.cpg/sg2_279_cif.got.tgz:557615.got - 2010.06.03 11:33:40.
