data_PCOD9072693
_publ_section_title
;
Structure prediction by ZEFSAII (Michael W. Deem and Ramdas Pophale) SiO2 
 PCOD9072693
Probable space group: P -1
;
_chemical_formula_sum "Si O2"
_cell_formula_units_Z 14
_cell_length_a 12.000000
_cell_length_b 12.000000
_cell_length_c 18.000000
_cell_angle_alpha 30.000000
_cell_angle_beta 40.000000
_cell_angle_gamma 60.000000
_cell_volume 717.332707
_symmetry_space_group_name_H-M "P -1"
_symmetry_group_IT_number 2
_symmetry_cell_setting 'triclinic'
loop_
_space_group_symop_operation_xyz
x,y,z
-x,-y,-z
loop_
_atom_site_type_symbol
_atom_site_label
_atom_site_fract_x
_atom_site_fract_y
_atom_site_fract_z
Si Si1 0.972581 0.917679 0.184128
Si Si2 0.310159 0.614432 0.288015
Si Si3 0.026534 0.675957 0.145401
Si Si4 0.353284 0.626930 0.088789
Si Si5 0.091499 0.052587 0.542847
Si Si6 0.225245 0.049539 0.114127
Si Si7 0.788148 0.121313 0.550436
O O1 0.813220 0.678237 0.452980
O O2 0.997417 0.797633 0.164876
O O3 0.171861 0.060061 0.050061
O O4 0.919426 0.129212 0.062621
O O5 0.281900 0.645359 0.197461
O O6 0.232210 0.783774 0.273356
O O7 0.547928 0.732271 0.109318
O O8 0.213374 0.640760 0.089294
O O9 0.825894 0.401891 0.390181
O O10 0.297561 0.328440 0.288591
O O11 0.575503 0.866869 0.823755
O O12 0.950651 0.955128 0.743757
O O13 0.946458 0.094542 0.536932
O O14 0.151111 0.874188 0.569125
#
# Coordination Sequence:
#
# PCOD9072693 Si02
#       7
#     2   2   2   2   2   2   2
#     4  11  22  39  56  84 121 150 188 230 286 343
#     4  11  21  33  62  90 113 141 188 243 288 332
#     4  10  24  38  57  82 118 159 184 228 285 342
#     4  11  19  36  61  88 114 143 190 239 284 329
#     4  10  20  35  58  88 114 148 187 236 282 332
#     4  11  21  35  59  89 114 145 188 238 289 330
#     4  10  21  37  57  85 118 148 191 231 279 339
#
# _framework density 19.516746000000001
#
# number of rings (size 3 to 8) (size 9 to 14) (size 15 to 20)
#    0.000    1.429    4.286    2.571    2.000    1.143 
#    0.000    3.571    0.000    1.714    0.000    0.000 
#    0.000    0.000    0.000    0.000    0.000    0.000 
#
# Total GULP energy -78005.970785 kJ/mol
# GULP energy per Si atom -5571.855056 kJ/mol
# Density = 1.947232 g / cm^3
# Si number density = 19.516746 Si / 1000 Ang^3
#
#
#
# Elastic Constant Matrix: (Units=GPa)
#
#
# Indices 1 2 3 4 5 6 
#
# 1 67.1584 -3.1498 26.5936 -8.0143 3.5949 -0.4282
# 2 -3.1498 7.2492 -32.4191 10.6197 11.4947 12.9107
# 3 26.5936 -32.4191 51.2845 11.9278 -5.6069 -11.2841
# 4 -8.0143 10.6197 11.9278 16.8175 7.6466 3.0239
# 5 3.5949 11.4947 -5.6069 7.6466 28.1333 -1.2840
# 6 -0.4282 12.9107 -11.2841 3.0239 -1.2840 13.3089
#
#
#
# Elastic Compliance Matrix: (Units=1/GPa)
#
#
# Indices 1 2 3 4 5 6 
#
# 1 0.028258 0.029804 -0.017836 0.030476 -0.030042 -0.052948
# 2 0.029804 0.005307 -0.048051 0.074338 -0.038750 -0.065558
# 3 -0.017836 -0.048051 0.026692 -0.028874 0.038683 0.078962
# 4 0.030476 0.074338 -0.028874 0.103903 -0.074030 -0.126364
# 5 -0.030042 -0.038750 0.038683 -0.074030 0.087367 0.094670
# 6 -0.052948 -0.065558 0.078962 -0.126364 0.094670 0.241823
#
#
# Mechanical properties :
#
#
# Convention : Reuss Voigt Hill
#
# Bulk Modulus (GPa) = -83.96066 11.97129 -35.99468
# Shear Modulus (GPa) = 8.90399 20.62978 14.76689
#
# Velocity S-wave (km/s) = 2.13826 3.25473 2.75367
# Velocity P-wave (km/s) = 6.08416 4.50239 2.89357
#
# Compressibility (1/GPa) = -0.01191034
#
# Stress axis : x y z
#
# Youngs Moduli (GPa) = 35.38810 188.44649 37.46499
#
# Poissons Ratio (x) = -5.61639 0.66822
# Poissons Ratio (y) = -1.05469 1.80023
# Poissons Ratio (z) = 0.63118 9.05504
#
# Static dielectric constant tensor:
#      x y z
#    x 1.693010 0.022550 -0.002310 
#    y 0.022550 1.770110 -0.025850 
#    z -0.002310 -0.025850 1.681970 
# 
# From -- ./inp_files/177152.got.cif
#   From: 2010.05.17/outbox.ucp.g08.bks.cvg/sg2_89_cif.got.tgz:177152.got - 2010.06.11 11:32:03.
