data_PCOD9072632
_publ_section_title
;
Structure prediction by ZEFSAII (Michael W. Deem and Ramdas Pophale) SiO2 
 PCOD9072632
Probable space group: P -1
;
_chemical_formula_sum "Si O2"
_cell_formula_units_Z 14
_cell_length_a 9.000000
_cell_length_b 9.000000
_cell_length_c 18.000000
_cell_angle_alpha 60.000000
_cell_angle_beta 60.000000
_cell_angle_gamma 30.000000
_cell_volume 623.732165
_symmetry_space_group_name_H-M "P -1"
_symmetry_group_IT_number 2
_symmetry_cell_setting 'triclinic'
loop_
_space_group_symop_operation_xyz
x,y,z
-x,-y,-z
loop_
_atom_site_type_symbol
_atom_site_label
_atom_site_fract_x
_atom_site_fract_y
_atom_site_fract_z
Si Si1 0.483975 0.518698 0.210959
Si Si2 0.388426 0.948861 0.481230
Si Si3 0.941837 0.910570 0.337403
Si Si4 0.146147 0.261211 0.829657
Si Si5 0.059708 0.469116 0.635551
Si Si6 0.296083 0.295147 0.931472
Si Si7 0.449795 0.390028 0.098678
O O1 0.702100 0.202239 0.272925
O O2 0.636999 0.558176 0.126459
O O3 0.342918 0.545516 0.166917
O O4 0.248628 0.751838 0.276984
O O5 0.233270 0.179584 0.395359
O O6 0.500000 0.000000 0.500000
O O7 0.179495 0.997682 0.570907
O O8 0.685747 0.634173 0.447052
O O9 0.980153 0.681805 0.358039
O O10 0.132268 0.366690 0.727786
O O11 0.321336 0.221177 0.857681
O O12 0.816213 0.514408 0.883887
O O13 0.271027 0.964612 0.869429
O O14 0.000000 0.500000 0.000000
O O15 0.500000 0.000000 0.000000
O O16 0.500000 0.500000 0.000000
#
# Coordination Sequence:
#
# PCOD9072632 Si02
#       7
#     2   2   2   2   2   2   2
#     4  12  22  39  63  89 125 158 206 258 300 367
#     4  10  20  32  58  91 131 159 191 250 308 370
#     4  11  20  36  59  94 125 157 203 248 311 356
#     4  12  24  41  64  89 125 160 207 255 304 372
#     4  11  19  36  58  92 127 158 201 247 309 362
#     4  12  27  47  63  88 123 170 211 247 311 379
#     4  12  23  39  62  92 119 156 203 267 313 350
#
# _framework density 22.445532
#
# number of rings (size 3 to 8) (size 9 to 14) (size 15 to 20)
#    0.000    0.571    2.857    9.000    0.000    0.000 
#    0.000    0.000    0.000    5.143    0.000    0.000 
#    0.000    0.000    0.000    0.000    0.000    0.000 
#
# Total GULP energy -78071.733493 kJ/mol
# GULP energy per Si atom -5576.552392 kJ/mol
# Density = 2.239444 g / cm^3
# Si number density = 22.445532 Si / 1000 Ang^3
#
#
#
# Elastic Constant Matrix: (Units=GPa)
#
#
# Indices 1 2 3 4 5 6 
#
# 1 28.5238 5.3769 14.5225 -2.6551 1.4014 2.4521
# 2 5.3769 76.8766 18.4428 -3.4914 -6.5169 -22.8867
# 3 14.5225 18.4428 125.8881 -0.0927 -10.5482 -7.0905
# 4 -2.6551 -3.4914 -0.0927 43.6329 -10.9466 -0.3559
# 5 1.4014 -6.5169 -10.5482 -10.9466 33.1855 6.8332
# 6 2.4521 -22.8867 -7.0905 -0.3559 6.8332 11.4923
#
#
#
# Elastic Compliance Matrix: (Units=1/GPa)
#
#
# Indices 1 2 3 4 5 6 
#
# 1 0.044039 -0.014175 -0.005138 0.001977 0.003149 -0.042608
# 2 -0.014175 0.038773 0.000012 0.000622 -0.009237 0.085758
# 3 -0.005138 0.000012 0.009014 0.000265 0.002045 0.005474
# 4 0.001977 0.000622 0.000265 0.025383 0.009267 -0.003743
# 5 0.003149 -0.009237 0.002045 0.009267 0.040453 -0.041572
# 6 -0.042608 0.085758 0.005474 -0.003743 -0.041572 0.294871
#
#
# Mechanical properties :
#
#
# Convention : Reuss Voigt Hill
#
# Bulk Modulus (GPa) = 18.78918 34.21919 26.50419
# Shear Modulus (GPa) = 9.82553 30.52524 20.17539
#
# Velocity S-wave (km/s) = 2.09452 3.69178 3.00135
# Velocity P-wave (km/s) = 3.77340 5.78367 4.88310
#
# Compressibility (1/GPa) = 0.05322213
#
# Stress axis : x y z
#
# Youngs Moduli (GPa) = 22.70720 25.79146 110.93330
#
# Poissons Ratio (x) = 0.36561 0.56999
# Poissons Ratio (y) = 0.32189 -0.00131
# Poissons Ratio (z) = 0.11667 -0.00030
#
# Static dielectric constant tensor:
#      x y z
#    x 1.876450 -0.120090 0.011800 
#    y -0.120090 2.050830 -0.007610 
#    z 0.011800 -0.007610 1.763850 
# 
# From -- ./inp_files/84939.got.cif
#   From: 2010.05.17/outbox.ucp.g08.bks.cvg/sg2_43_cif.got.tgz:84939.got - 2010.06.11 11:32:03.
