data_PCOD9072188
_publ_section_title
;
Structure prediction by ZEFSAII (Michael W. Deem and Ramdas Pophale) SiO2 
 PCOD9072188
Probable space group: P -1
;
_chemical_formula_sum "Si O2"
_cell_formula_units_Z 14
_cell_length_a 13.421946
_cell_length_b 25.163523
_cell_length_c 5.582096
_cell_angle_alpha 116.335545
_cell_angle_beta 109.307203
_cell_angle_gamma 25.893850
_cell_volume 726.500778
_symmetry_space_group_name_H-M "P -1"
_symmetry_group_IT_number 2
_symmetry_cell_setting 'triclinic'
loop_
_space_group_symop_operation_xyz
x,y,z
-x,-y,-z
loop_
_atom_site_type_symbol
_atom_site_label
_atom_site_fract_x
_atom_site_fract_y
_atom_site_fract_z
Si Si1 0.131796 0.024288 0.175068
Si Si2 0.868198 0.656090 0.685658
Si Si3 0.751258 0.599956 0.772856
Si Si4 0.780404 0.827900 0.132263
Si Si5 0.248724 0.851227 0.629518
Si Si6 0.500028 0.790104 0.330219
Si Si7 0.219592 0.108311 0.240168
O O1 0.374410 0.894926 0.250121
O O2 0.121876 0.091446 0.170529
O O3 0.139361 0.965666 0.882160
O O4 0.923138 0.115873 0.377441
O O5 0.860558 0.605061 0.759169
O O6 0.625610 0.769346 0.578353
O O7 0.076894 0.538999 0.432348
O O8 0.878116 0.713319 0.939016
O O9 0.499966 0.715482 0.681004
O O10 0.690581 0.650509 0.092789
O O11 0.846862 0.821172 0.431682
O O12 0.499998 0.964908 0.179824
O O13 0.846860 0.831960 0.953253
O O14 0.309513 0.841043 0.390432
#
# Coordination Sequence:
#
# PCOD9072188 Si02
#       7
#     2   2   2   2   2   2   2
#     4  10  20  33  53  77 109 140 175 223 271 327
#     4  10  20  33  53  77 109 140 175 223 271 327
#     4   9  19  34  52  79 106 137 177 220 276 321
#     4  10  22  36  54  80 112 145 183 223 272 326
#     4   9  19  34  52  79 106 137 177 220 276 321
#     4  10  18  30  52  82 104 136 172 224 274 332
#     4  10  22  36  54  80 112 145 183 223 272 326
#
# _framework density 19.270451999999999
#
# number of rings (size 3 to 8) (size 9 to 14) (size 15 to 20)
#    0.000    2.286    0.000    3.429   10.000    0.000 
#    0.000    0.000    0.000    1.714    0.000    0.000 
#    0.000    0.000    0.000    0.000    0.000    0.000 
#
# Total GULP energy -78084.458678 kJ/mol
# GULP energy per Si atom -5577.461334 kJ/mol
# Density = 1.922659 g / cm^3
# Si number density = 19.270452 Si / 1000 Ang^3
#
#
#
# Elastic Constant Matrix: (Units=GPa)
#
#
# Indices 1 2 3 4 5 6 
#
# 1 112.7645 19.4709 51.0788 12.4922 -5.8441 5.8751
# 2 19.4709 49.6864 19.6898 2.5687 4.5203 -0.8429
# 3 51.0788 19.6898 108.9371 16.6397 -7.5379 8.8476
# 4 12.4922 2.5687 16.6397 26.9692 1.9736 -0.8083
# 5 -5.8441 4.5203 -7.5379 1.9736 27.3926 2.9182
# 6 5.8751 -0.8429 8.8476 -0.8083 2.9182 17.0633
#
#
#
# Elastic Compliance Matrix: (Units=1/GPa)
#
#
# Indices 1 2 3 4 5 6 
#
# 1 0.011882 -0.003106 -0.004194 -0.002872 0.002379 -0.002613
# 2 -0.003106 0.023501 -0.004039 0.002328 -0.006409 0.005531
# 3 -0.004194 -0.004039 0.013816 -0.006760 0.004813 -0.007062
# 4 -0.002872 0.002328 -0.006760 0.043091 -0.006794 0.007813
# 5 0.002379 -0.006409 0.004813 -0.006794 0.041055 -0.010974
# 6 -0.002613 0.005531 -0.007062 0.007813 -0.010974 0.065687
#
#
# Mechanical properties :
#
#
# Convention : Reuss Voigt Hill
#
# Bulk Modulus (GPa) = 37.70974 50.20744 43.95859
# Shear Modulus (GPa) = 21.68724 26.36157 24.02440
#
# Velocity S-wave (km/s) = 3.35836 3.70263 3.53469
# Velocity P-wave (km/s) = 5.88636 6.66258 6.28646
#
# Compressibility (1/GPa) = 0.02651835
#
# Stress axis : x y z
#
# Youngs Moduli (GPa) = 84.16188 42.55156 72.38194
#
# Poissons Ratio (x) = 0.13218 0.30359
# Poissons Ratio (y) = 0.26144 0.29238
# Poissons Ratio (z) = 0.35299 0.17188
#
# Static dielectric constant tensor:
#      x y z
#    x 1.680980 -0.010280 -0.053060 
#    y -0.010280 1.709630 -0.019130 
#    z -0.053060 -0.019130 1.751810 
# 
# From -- ./inp_files/63350.got.cif
#   From: 2010.05.17/outbox.cif.g08.bks.cpg/sg2_32_cif.got.tgz:63350.got - 2010.06.03 11:33:40.
