data_PCOD9072931
_publ_section_title
;
Structure prediction by ZEFSAII (Michael W. Deem and Ramdas Pophale) SiO2 
 PCOD9072931
Probable space group: P -1
;
_chemical_formula_sum "Si O2"
_cell_formula_units_Z 16
_cell_length_a 21.000000
_cell_length_b 9.000000
_cell_length_c 21.000000
_cell_angle_alpha 130.000000
_cell_angle_beta 20.000000
_cell_angle_gamma 140.000000
_cell_volume 817.212732
_symmetry_space_group_name_H-M "P -1"
_symmetry_group_IT_number 2
_symmetry_cell_setting 'triclinic'
loop_
_space_group_symop_operation_xyz
x,y,z
-x,-y,-z
loop_
_atom_site_type_symbol
_atom_site_label
_atom_site_fract_x
_atom_site_fract_y
_atom_site_fract_z
Si Si1 0.815053 0.830701 0.546787
Si Si2 0.311132 0.578354 0.735846
Si Si3 0.866432 0.166547 0.970243
Si Si4 0.781127 0.144618 0.765068
Si Si5 0.630605 0.711064 0.145225
Si Si6 0.031699 0.706732 0.709483
Si Si7 0.784547 0.835838 0.429051
Si Si8 0.517609 0.987004 0.404622
O O1 0.612703 0.564003 0.695531
O O2 0.745984 0.824099 0.536836
O O3 0.068131 0.884475 0.332580
O O4 0.815835 0.034398 0.639661
O O5 0.544721 0.627772 0.557960
O O6 0.082160 0.303869 0.857798
O O7 0.367810 0.756433 0.670921
O O8 0.233724 0.682918 0.891614
O O9 0.007512 0.187707 0.782444
O O10 0.662012 0.885275 0.105446
O O11 0.907868 0.435144 0.723992
O O12 0.500000 0.000000 0.000000
O O13 0.648372 0.869511 0.231834
O O14 0.842788 0.698985 0.928966
O O15 0.258700 0.801455 0.564899
O O16 0.120799 0.909733 0.625787
O O17 0.500000 0.000000 0.500000
#
# Coordination Sequence:
#
# PCOD9072931 Si02
#       8
#     2   2   2   2   2   2   2   2
#     4  11  24  40  64  93 116 151 203 256 298 362
#     4   9  19  37  56  82 122 167 200 239 295 352
#     4   9  19  36  58  82 121 164 198 238 293 351
#     4  11  23  43  67  87 119 157 199 248 312 360
#     4  10  20  39  57  88 119 157 199 242 296 352
#     4  10  21  42  64  85 123 164 196 245 306 357
#     4  10  22  38  60  88 120 155 198 252 297 349
#     4  10  21  36  60  91 124 162 203 247 289 351
#
# _framework density 19.578745000000001
#
# number of rings (size 3 to 8) (size 9 to 14) (size 15 to 20)
#    0.000    2.000    2.500    0.375    1.750    2.000 
#    6.750    0.625    0.000    0.000    0.000    0.000 
#    0.000    0.000    0.000    0.000    0.000    0.000 
#
# Total GULP energy -89250.398541 kJ/mol
# GULP energy per Si atom -5578.149909 kJ/mol
# Density = 1.953418 g / cm^3
# Si number density = 19.578745 Si / 1000 Ang^3
#
#
#
# Elastic Constant Matrix: (Units=GPa)
#
#
# Indices 1 2 3 4 5 6 
#
# 1 81.6985 20.6334 28.4009 -7.3351 4.3217 9.4414
# 2 20.6334 108.2902 36.0200 -2.1348 4.8223 11.0746
# 3 28.4009 36.0200 108.2021 -2.0223 -4.3560 -2.9376
# 4 -7.3351 -2.1348 -2.0223 40.7248 8.1579 -3.5663
# 5 4.3217 4.8223 -4.3560 8.1579 18.6171 6.3317
# 6 9.4414 11.0746 -2.9376 -3.5663 6.3317 12.9726
#
#
#
# Elastic Compliance Matrix: (Units=1/GPa)
#
#
# Indices 1 2 3 4 5 6 
#
# 1 0.015256 -0.000328 -0.004212 0.001970 -0.001779 -0.010367
# 2 -0.000328 0.011780 -0.004142 -0.000616 0.000049 -0.010950
# 3 -0.004212 -0.004142 0.012034 -0.000067 0.002074 0.008295
# 4 0.001970 -0.000616 -0.000067 0.030200 -0.019252 0.016776
# 5 -0.001779 0.000049 0.002074 -0.019252 0.077038 -0.041171
# 6 -0.010367 -0.010950 0.008295 0.016776 -0.041171 0.120563
#
#
# Mechanical properties :
#
#
# Convention : Reuss Voigt Hill
#
# Bulk Modulus (GPa) = 46.06847 52.03325 49.05086
# Shear Modulus (GPa) = 17.15439 28.67201 22.91320
#
# Velocity S-wave (km/s) = 2.96323 3.83096 3.42469
# Velocity P-wave (km/s) = 5.94042 6.79724 6.38322
#
# Compressibility (1/GPa) = 0.02170682
#
# Stress axis : x y z
#
# Youngs Moduli (GPa) = 65.54785 84.88845 83.09888
#
# Poissons Ratio (x) = 0.02782 0.34998
# Poissons Ratio (y) = 0.02148 0.34422
# Poissons Ratio (z) = 0.27606 0.35164
#
# Static dielectric constant tensor:
#      x y z
#    x 1.640320 0.007080 0.018950 
#    y 0.007080 1.705430 0.027400 
#    z 0.018950 0.027400 1.741500 
# 
# From -- ./inp_files/217417.got.cif
#   From: 2010.05.17/outbox.ucp.g08.bks.cvg/sg2_109_cif.got.tgz:217417.got - 2010.06.11 11:32:03.
