data_PCOD9072116
_publ_section_title
;
Structure prediction by ZEFSAII (Michael W. Deem and Ramdas Pophale) SiO2 
 PCOD9072116
Probable space group: P -1
;
_chemical_formula_sum "Si O2"
_cell_formula_units_Z 14
_cell_length_a 9.000000
_cell_length_b 12.000000
_cell_length_c 18.000000
_cell_angle_alpha 140.000000
_cell_angle_beta 100.000000
_cell_angle_gamma 50.000000
_cell_volume 729.599496
_symmetry_space_group_name_H-M "P -1"
_symmetry_group_IT_number 2
_symmetry_cell_setting 'triclinic'
loop_
_space_group_symop_operation_xyz
x,y,z
-x,-y,-z
loop_
_atom_site_type_symbol
_atom_site_label
_atom_site_fract_x
_atom_site_fract_y
_atom_site_fract_z
Si Si1 0.325307 0.317272 0.352683
Si Si2 0.728301 0.517015 0.854963
Si Si3 0.831216 0.885698 0.850265
Si Si4 0.752862 0.383393 0.362335
Si Si5 0.904188 0.873197 0.172369
Si Si6 0.156772 0.188595 0.017932
Si Si7 0.634532 0.482675 0.674848
O O1 0.228543 0.229063 0.263263
O O2 0.246210 0.456873 0.498879
O O3 0.242526 0.538015 0.396601
O O4 0.634111 0.024312 0.234905
O O5 0.757467 0.691792 0.922588
O O6 0.774115 0.359613 0.703821
O O7 0.914793 0.314917 0.837457
O O8 0.436626 0.767331 0.984792
O O9 0.931244 0.751444 0.873899
O O10 0.040848 0.792470 0.774337
O O11 0.485895 0.584259 0.400727
O O12 0.823162 0.148079 0.295882
O O13 0.008994 0.708048 0.016806
O O14 0.394649 0.835661 0.850344
#
# Coordination Sequence:
#
# PCOD9072116 Si02
#       7
#     2   2   2   2   2   2   2
#     4  10  18  37  55  73 102 140 181 204 236 311
#     4  11  18  33  57  82 103 125 174 218 263 300
#     4  11  19  33  58  78 103 133 170 217 255 301
#     4  10  22  35  50  79 105 140 173 201 255 307
#     4  10  21  33  57  79 103 134 165 221 260 295
#     4   9  17  32  54  79  99 129 176 212 249 300
#     4   9  17  33  56  75 101 135 175 214 244 298
#
# _framework density 19.188610000000001
#
# number of rings (size 3 to 8) (size 9 to 14) (size 15 to 20)
#    0.000    2.286    4.286    3.429    0.000    5.714 
#    0.000    2.857    0.000    0.857    0.000    0.000 
#    0.000    0.000    0.000    0.000    0.000    0.000 
#
# Total GULP energy -78006.894158 kJ/mol
# GULP energy per Si atom -5571.921011 kJ/mol
# Density = 1.914494 g / cm^3
# Si number density = 19.188610 Si / 1000 Ang^3
#
#
#
# Elastic Constant Matrix: (Units=GPa)
#
#
# Indices 1 2 3 4 5 6 
#
# 1 26.5759 11.5478 -6.0508 0.7129 -3.2952 -1.0258
# 2 11.5478 153.3276 17.4683 -29.5506 -2.2288 -17.6907
# 3 -6.0508 17.4683 42.4859 -29.7540 3.6969 -0.5018
# 4 0.7129 -29.5506 -29.7540 32.6358 -4.9405 4.2516
# 5 -3.2952 -2.2288 3.6969 -4.9405 22.7685 -7.7652
# 6 -1.0258 -17.6907 -0.5018 4.2516 -7.7652 19.4392
#
#
#
# Elastic Compliance Matrix: (Units=1/GPa)
#
#
# Indices 1 2 3 4 5 6 
#
# 1 0.042359 -0.002725 0.013451 0.009721 0.005903 0.000335
# 2 -0.002725 0.009607 0.003429 0.011614 0.005333 0.008278
# 3 0.013451 0.003429 0.074046 0.071902 0.002844 -0.008848
# 4 0.009721 0.011614 0.071902 0.109168 0.012534 -0.005931
# 5 0.005903 0.005333 0.002844 0.012534 0.056041 0.024883
# 6 0.000335 0.008278 -0.008848 -0.005931 0.024883 0.070002
#
#
# Mechanical properties :
#
#
# Convention : Reuss Voigt Hill
#
# Bulk Modulus (GPa) = 6.47992 29.81333 18.14663
# Shear Modulus (GPa) = 13.00885 28.26364 20.63624
#
# Velocity S-wave (km/s) = 2.60657 3.84205 3.28295
# Velocity P-wave (km/s) = 3.52749 5.93738 4.88343
#
# Compressibility (1/GPa) = 0.15432284
#
# Stress axis : x y z
#
# Youngs Moduli (GPa) = 23.60790 104.08560 13.50512
#
# Poissons Ratio (x) = 0.28361 -0.18166
# Poissons Ratio (y) = 0.06433 -0.04631
# Poissons Ratio (z) = -0.31755 -0.35691
#
# Static dielectric constant tensor:
#      x y z
#    x 1.689480 -0.009610 0.001470 
#    y -0.009610 1.714610 -0.020980 
#    z 0.001470 -0.020980 1.698740 
# 
# From -- ./inp_files/166197.got.cif
#   From: 2010.05.17/outbox.ucp.g08.bks.cvg/sg2_84_cif.got.tgz:166197.got - 2010.06.11 11:32:03.
