data_PCOD9072021
_publ_section_title
;
Structure prediction by ZEFSAII (Michael W. Deem and Ramdas Pophale) SiO2 
 PCOD9072021
Probable space group: P -1
;
_chemical_formula_sum "Si O2"
_cell_formula_units_Z 16
_cell_length_a 15.000000
_cell_length_b 15.000000
_cell_length_c 12.000000
_cell_angle_alpha 150.000000
_cell_angle_beta 120.000000
_cell_angle_gamma 40.000000
_cell_volume 747.221570
_symmetry_space_group_name_H-M "P -1"
_symmetry_group_IT_number 2
_symmetry_cell_setting 'triclinic'
loop_
_space_group_symop_operation_xyz
x,y,z
-x,-y,-z
loop_
_atom_site_type_symbol
_atom_site_label
_atom_site_fract_x
_atom_site_fract_y
_atom_site_fract_z
Si Si1 0.873237 0.987612 0.263767
Si Si2 0.457136 0.752208 0.688381
Si Si3 0.065819 0.895529 0.098090
Si Si4 0.466981 0.637293 0.952411
Si Si5 0.282006 0.918988 0.363922
Si Si6 0.129074 0.442168 0.955271
Si Si7 0.637104 0.630260 0.865194
Si Si8 0.741422 0.373403 0.281737
O O1 0.974912 0.868511 0.084766
O O2 0.730970 0.027697 0.219522
O O3 0.774899 0.302097 0.561465
O O4 0.019873 0.753773 0.185519
O O5 0.500000 0.500000 0.500000
O O6 0.505108 0.819400 0.890912
O O7 0.584792 0.628799 0.535884
O O8 0.154196 0.932556 0.265829
O O9 0.203757 0.638011 0.820891
O O10 0.908548 0.180726 0.243166
O O11 0.604760 0.306229 0.709157
O O12 0.550567 0.670351 0.964022
O O13 0.314290 0.755581 0.920788
O O14 0.400529 0.788824 0.192778
O O15 0.199168 0.215807 0.661496
O O16 0.271993 0.313734 0.984530
O O17 0.000000 0.500000 0.000000
#
# Coordination Sequence:
#
# PCOD9072021 Si02
#       8
#     2   2   2   2   2   2   2   2
#     4  11  20  38  63  87 119 152 199 236 291 348
#     4  10  18  34  60  92 112 147 199 242 281 345
#     4  10  19  35  62  91 113 150 193 243 291 344
#     4  10  19  39  64  84 111 155 196 241 288 354
#     4  10  23  38  57  87 120 151 195 239 294 342
#     4  12  26  38  55  86 124 155 192 244 293 341
#     4  11  20  37  63  86 113 154 200 235 289 345
#     4  10  18  33  62  92 114 142 198 247 285 340
#
# _framework density 21.412658
#
# number of rings (size 3 to 8) (size 9 to 14) (size 15 to 20)
#    0.000    1.500    5.000    2.625    0.000    0.500 
#    0.000    1.875    0.000   10.500    0.000    0.000 
#    0.000    0.000    0.000    0.000    0.000    0.000 
#
# Total GULP energy -89138.657840 kJ/mol
# GULP energy per Si atom -5571.166115 kJ/mol
# Density = 2.136392 g / cm^3
# Si number density = 21.412658 Si / 1000 Ang^3
#
#
#
# Elastic Constant Matrix: (Units=GPa)
#
#
# Indices 1 2 3 4 5 6 
#
# 1 137.5377 23.8303 35.7976 -14.7577 -42.0894 -13.9517
# 2 23.8303 82.9590 19.1382 -20.4790 3.5522 -32.9835
# 3 35.7976 19.1382 56.0976 -3.4005 -14.1891 -2.6629
# 4 -14.7577 -20.4790 -3.4005 23.8003 0.3045 -2.0650
# 5 -42.0894 3.5522 -14.1891 0.3045 30.3677 4.2066
# 6 -13.9517 -32.9835 -2.6629 -2.0650 4.2066 30.6034
#
#
#
# Elastic Compliance Matrix: (Units=1/GPa)
#
#
# Indices 1 2 3 4 5 6 
#
# 1 0.015705 -0.000478 -0.004279 0.008838 0.019148 0.004236
# 2 -0.000478 0.057707 -0.019682 0.052738 -0.026483 0.067464
# 3 -0.004279 -0.019682 0.028382 -0.017756 0.013093 -0.023691
# 4 0.008838 0.052738 -0.017756 0.096359 -0.012539 0.067549
# 5 0.019148 -0.026483 0.013093 -0.012539 0.072903 -0.029541
# 6 0.004236 0.067464 -0.023691 0.067549 -0.029541 0.113875
#
#
# Mechanical properties :
#
#
# Convention : Reuss Voigt Hill
#
# Bulk Modulus (GPa) = 18.89731 48.23628 33.56680
# Shear Modulus (GPa) = 11.07551 30.14283 20.60917
#
# Velocity S-wave (km/s) = 2.27676 3.75602 3.10575
# Velocity P-wave (km/s) = 3.96938 6.43320 5.34519
#
# Compressibility (1/GPa) = 0.05291757
#
# Stress axis : x y z
#
# Youngs Moduli (GPa) = 63.67372 17.32879 35.23400
#
# Poissons Ratio (x) = 0.00829 0.15075
# Poissons Ratio (y) = 0.03045 0.69346
# Poissons Ratio (z) = 0.27243 0.34106
#
# Static dielectric constant tensor:
#      x y z
#    x 1.824160 0.056500 -0.009230 
#    y 0.056500 1.712500 -0.143510 
#    z -0.009230 -0.143510 1.715900 
# 
# From -- ./inp_files/456044.got.cif
#   From: 2010.05.17/outbox.ucp.g08.bks.cvg/sg2_229_cif.got.tgz:456044.got - 2010.06.11 11:32:03.
