data_PCOD9072086
_publ_section_title
;
Structure prediction by ZEFSAII (Michael W. Deem and Ramdas Pophale) SiO2 
 PCOD9072086
Probable space group: P -1
;
_chemical_formula_sum "Si O2"
_cell_formula_units_Z 16
_cell_length_a 9.000000
_cell_length_b 12.000000
_cell_length_c 15.000000
_cell_angle_alpha 130.000000
_cell_angle_beta 140.000000
_cell_angle_gamma 50.000000
_cell_volume 759.581896
_symmetry_space_group_name_H-M "P -1"
_symmetry_group_IT_number 2
_symmetry_cell_setting 'triclinic'
loop_
_space_group_symop_operation_xyz
x,y,z
-x,-y,-z
loop_
_atom_site_type_symbol
_atom_site_label
_atom_site_fract_x
_atom_site_fract_y
_atom_site_fract_z
Si Si1 0.580094 0.214338 0.086719
Si Si2 0.784576 0.203514 0.514879
Si Si3 0.874779 0.672960 0.374089
Si Si4 0.527518 0.442939 0.792841
Si Si5 0.136653 0.156397 0.355173
Si Si6 0.334928 0.398913 0.489417
Si Si7 0.614760 0.042424 0.186913
Si Si8 0.864040 0.138092 0.723543
O O1 0.450601 0.390389 0.089451
O O2 0.866153 0.195734 0.212011
O O3 0.508509 0.180206 0.138128
O O4 0.535017 0.078803 0.936287
O O5 0.566173 0.358853 0.511157
O O6 0.808640 0.137582 0.592203
O O7 0.033522 0.235353 0.614425
O O8 0.697179 0.108451 0.348905
O O9 0.630243 0.622679 0.242931
O O10 0.878414 0.768111 0.515032
O O11 0.094615 0.516472 0.401626
O O12 0.385767 0.461792 0.641769
O O13 0.768858 0.305477 0.808347
O O14 0.284039 0.239062 0.404954
O O15 0.243231 0.975698 0.327975
O O16 0.850128 0.940786 0.188233
#
# Coordination Sequence:
#
# PCOD9072086 Si02
#       8
#     2   2   2   2   2   2   2   2
#     4  10  18  36  61  77 109 146 192 225 259 325
#     4  11  21  34  53  85 119 141 174 222 289 328
#     4  11  18  32  57  85 113 137 180 231 276 317
#     4  10  19  33  57  84 105 144 183 225 276 312
#     4  10  18  36  57  83 110 139 190 223 273 319
#     4  10  19  32  57  87 108 140 183 237 272 312
#     4  10  21  36  56  82 111 149 183 225 272 319
#     4  10  22  36  54  87 112 144 178 229 278 326
#
# _framework density 21.064219999999999
#
# number of rings (size 3 to 8) (size 9 to 14) (size 15 to 20)
#    0.000    1.750    5.000    1.500    0.000    6.000 
#    0.000    0.625    0.000    0.750    0.000    0.000 
#    0.000    0.000    0.000    0.000    0.000    0.000 
#
# Total GULP energy -89212.205075 kJ/mol
# GULP energy per Si atom -5575.762817 kJ/mol
# Density = 2.101628 g / cm^3
# Si number density = 21.064220 Si / 1000 Ang^3
#
#
#
# Elastic Constant Matrix: (Units=GPa)
#
#
# Indices 1 2 3 4 5 6 
#
# 1 67.6667 16.7177 9.9028 10.6109 9.7131 -0.7183
# 2 16.7177 97.6280 1.4607 12.6152 -1.5631 15.7900
# 3 9.9028 1.4607 33.1453 19.1310 8.9932 15.1093
# 4 10.6109 12.6152 19.1310 24.6689 3.4527 11.9975
# 5 9.7131 -1.5631 8.9932 3.4527 18.0195 4.8392
# 6 -0.7183 15.7900 15.1093 11.9975 4.8392 26.7507
#
#
#
# Elastic Compliance Matrix: (Units=1/GPa)
#
#
# Indices 1 2 3 4 5 6 
#
# 1 0.018866 -0.003997 -0.003034 -0.006923 -0.010236 0.009536
# 2 -0.003997 0.013445 0.008621 -0.007323 0.003161 -0.010200
# 3 -0.003034 0.008621 0.072367 -0.045841 -0.019031 -0.022042
# 4 -0.006923 -0.007323 -0.045841 0.086411 0.012362 -0.010962
# 5 -0.010236 0.003161 -0.019031 0.012362 0.071045 -0.009788
# 6 0.009536 -0.010200 -0.022042 -0.010962 -0.009788 0.062796
#
#
# Mechanical properties :
#
#
# Convention : Reuss Voigt Hill
#
# Bulk Modulus (GPa) = 9.27154 28.28915 18.78035
# Shear Modulus (GPa) = 13.97805 25.24509 19.61157
#
# Velocity S-wave (km/s) = 2.57882 3.46567 3.05460
# Velocity P-wave (km/s) = 3.64393 5.42896 4.62341
#
# Compressibility (1/GPa) = 0.10785690
#
# Stress axis : x y z
#
# Youngs Moduli (GPa) = 53.00527 74.37704 13.81845
#
# Poissons Ratio (x) = 0.29728 0.04193
# Poissons Ratio (y) = 0.21186 -0.11912
# Poissons Ratio (z) = 0.16084 -0.64118
#
# Static dielectric constant tensor:
#      x y z
#    x 1.759020 0.029680 0.051390 
#    y 0.029680 1.854970 -0.017170 
#    z 0.051390 -0.017170 1.763730 
# 
# From -- ./inp_files/382971.got.cif
#   From: 2010.05.17/outbox.ucp.g08.bks.cvg/sg2_192_cif.got.tgz:382971.got - 2010.06.11 11:32:03.
