data_PCOD9072155
_publ_section_title
;
Structure prediction by ZEFSAII (Michael W. Deem and Ramdas Pophale) SiO2 
 PCOD9072155
Probable space group: P -1
;
_chemical_formula_sum "Si O2"
_cell_formula_units_Z 16
_cell_length_a 15.000000
_cell_length_b 9.000000
_cell_length_c 15.000000
_cell_angle_alpha 140.000000
_cell_angle_beta 40.000000
_cell_angle_gamma 140.000000
_cell_volume 753.872439
_symmetry_space_group_name_H-M "P -1"
_symmetry_group_IT_number 2
_symmetry_cell_setting 'triclinic'
loop_
_space_group_symop_operation_xyz
x,y,z
-x,-y,-z
loop_
_atom_site_type_symbol
_atom_site_label
_atom_site_fract_x
_atom_site_fract_y
_atom_site_fract_z
Si Si1 0.193391 0.686544 0.543174
Si Si2 0.392924 0.160563 0.327879
Si Si3 0.930212 0.301198 0.047316
Si Si4 0.771404 0.759680 0.187089
Si Si5 0.154136 0.637507 0.338904
Si Si6 0.297980 0.507505 0.686323
Si Si7 0.429858 0.449360 0.253616
Si Si8 0.677564 0.712589 0.932886
O O1 0.186073 0.717944 0.455764
O O2 0.337676 0.622942 0.424591
O O3 0.025635 0.458922 0.588408
O O4 0.202472 0.946917 0.697918
O O5 0.344694 0.350318 0.507909
O O6 0.558538 0.223177 0.273263
O O7 0.408302 0.250272 0.256685
O O8 0.266677 0.875904 0.305391
O O9 0.839313 0.444278 0.228975
O O10 0.000000 0.500000 0.000000
O O11 0.074406 0.274205 0.969459
O O12 0.790912 0.014939 0.005595
O O13 0.738125 0.650478 0.264924
O O14 0.615405 0.611622 0.181430
O O15 0.211064 0.417199 0.184355
O O16 0.350155 0.300672 0.157663
O O17 0.500000 0.500000 0.000000
#
# Coordination Sequence:
#
# PCOD9072155 Si02
#       8
#     2   2   2   2   2   2   2   2
#     4  10  19  35  58  90 126 160 204 255 310 363
#     4  10  19  38  60  94 125 156 211 259 310 364
#     4  10  21  39  67  92 124 172 211 248 307 383
#     4  10  18  39  60  91 124 160 207 253 311 369
#     4  10  20  35  64  89 120 166 209 255 304 371
#     4   9  19  34  62  91 122 166 204 249 305 376
#     4  10  24  38  64  93 123 161 205 267 317 359
#     4  11  23  44  65  92 125 166 212 255 316 385
#
# _framework density 21.223749999999999
#
# number of rings (size 3 to 8) (size 9 to 14) (size 15 to 20)
#    0.000    2.000    2.500    1.125    0.000    0.500 
#    2.250   11.875    0.000    0.000    0.000    0.000 
#    0.000    0.000    0.000    0.000    0.000    0.000 
#
# Total GULP energy -89186.084184 kJ/mol
# GULP energy per Si atom -5574.130261 kJ/mol
# Density = 2.117544 g / cm^3
# Si number density = 21.223750 Si / 1000 Ang^3
#
#
#
# Elastic Constant Matrix: (Units=GPa)
#
#
# Indices 1 2 3 4 5 6 
#
# 1 84.5510 24.8440 30.7710 -0.4559 -37.3062 19.8853
# 2 24.8440 101.0189 8.9203 8.4451 -11.0134 7.8263
# 3 30.7710 8.9203 47.9610 -5.3768 -33.5091 6.6265
# 4 -0.4559 8.4451 -5.3768 23.5195 5.2476 -4.4368
# 5 -37.3062 -11.0134 -33.5091 5.2476 38.7208 -13.7087
# 6 19.8853 7.8263 6.6265 -4.4368 -13.7087 17.6920
#
#
#
# Elastic Compliance Matrix: (Units=1/GPa)
#
#
# Indices 1 2 3 4 5 6 
#
# 1 0.023551 -0.002357 -0.002152 -0.005326 0.016109 -0.013476
# 2 -0.002357 0.011188 -0.001033 -0.004843 -0.000597 -0.003591
# 3 -0.002152 -0.001033 0.060341 0.006180 0.058676 0.027291
# 4 -0.005326 -0.004843 0.006180 0.049136 -0.001927 0.016642
# 5 0.016109 -0.000597 0.058676 -0.001927 0.107415 0.042928
# 6 -0.013476 -0.003591 0.027291 0.016642 0.042928 0.100473
#
#
# Mechanical properties :
#
#
# Convention : Reuss Voigt Hill
#
# Bulk Modulus (GPa) = 11.90519 40.28906 26.09713
# Shear Modulus (GPa) = 12.78166 27.25283 20.01724
#
# Velocity S-wave (km/s) = 2.45671 3.58728 3.07441
# Velocity P-wave (km/s) = 3.69713 6.01518 4.99255
#
# Compressibility (1/GPa) = 0.08399698
#
# Stress axis : x y z
#
# Youngs Moduli (GPa) = 42.46083 89.38254 16.57247
#
# Poissons Ratio (x) = 0.21063 0.03567
# Poissons Ratio (y) = 0.10006 0.01712
# Poissons Ratio (z) = 0.09138 0.09232
#
# Static dielectric constant tensor:
#      x y z
#    x 1.743940 0.002360 0.003140 
#    y 0.002360 1.825060 -0.038980 
#    z 0.003140 -0.038980 1.808660 
# 
# From -- ./inp_files/177972.got.cif
#   From: 2010.05.17/outbox.ucp.g08.bks.cvg/sg2_89_cif.got.tgz:177972.got - 2010.06.11 11:32:03.
