data_PCOD9072460
_publ_section_title
;
Structure prediction by ZEFSAII (Michael W. Deem and Ramdas Pophale) SiO2 
 PCOD9072460
Probable space group: P -1
;
_chemical_formula_sum "Si O2"
_cell_formula_units_Z 16
_cell_length_a 10.202044
_cell_length_b 8.842885
_cell_length_c 12.177163
_cell_angle_alpha 85.643325
_cell_angle_beta 51.981013
_cell_angle_gamma 118.149363
_cell_volume 648.205043
_symmetry_space_group_name_H-M "P -1"
_symmetry_group_IT_number 2
_symmetry_cell_setting 'triclinic'
loop_
_space_group_symop_operation_xyz
x,y,z
-x,-y,-z
loop_
_atom_site_type_symbol
_atom_site_label
_atom_site_fract_x
_atom_site_fract_y
_atom_site_fract_z
Si Si1 0.445277 0.808021 0.913201
Si Si2 0.596762 0.876619 0.064113
Si Si3 0.787686 0.904428 0.389480
Si Si4 0.277814 0.247232 0.806016
Si Si5 0.745072 0.430212 0.576453
Si Si6 0.246115 0.788566 0.620505
Si Si7 0.056075 0.883010 0.408455
Si Si8 0.698123 0.405331 0.223115
O O1 0.322324 0.641629 0.892387
O O2 0.336713 0.906502 0.989905
O O3 0.516251 0.772221 0.992609
O O4 0.684719 0.980055 0.726996
O O5 0.757197 0.867852 0.056485
O O6 0.371572 0.735092 0.259298
O O7 0.762254 0.875478 0.273808
O O8 0.958261 0.878202 0.341638
O O9 0.548776 0.741655 0.582966
O O10 0.874138 0.127440 0.352757
O O11 0.545093 0.427079 0.655044
O O12 0.189410 0.363249 0.835803
O O13 0.776705 0.345733 0.458326
O O14 0.941204 0.653879 0.503703
O O15 0.183577 0.660139 0.769640
O O16 0.500000 0.000000 0.500000
O O17 0.000000 0.000000 0.500000
#
# Coordination Sequence:
#
# PCOD9072460 Si02
#       8
#     2   2   2   2   2   2   2   2
#     4  11  22  38  56  82 121 154 184 225 290 341
#     4   9  21  40  58  81 107 158 197 230 266 343
#     4  11  18  33  54  82 116 141 186 235 290 321
#     4  10  18  33  58  83 106 143 195 238 269 329
#     4  10  19  36  57  86 109 146 193 233 280 326
#     4  10  18  30  58  87 109 139 193 246 279 314
#     4  12  24  36  53  88 124 151 176 236 293 341
#     4  11  17  31  55  83 112 139 190 240 277 321
#
# _framework density 24.683546
#
# number of rings (size 3 to 8) (size 9 to 14) (size 15 to 20)
#    0.750    0.750    5.000    3.375    0.000    1.000 
#    0.000    0.625    0.000    0.000    0.000    9.625 
#    0.000    0.000    0.000    0.000    0.000    0.000 
#
# Total GULP energy -89325.657923 kJ/mol
# GULP energy per Si atom -5582.853620 kJ/mol
# Density = 2.462737 g / cm^3
# Si number density = 24.683546 Si / 1000 Ang^3
#
#
#
# Elastic Constant Matrix: (Units=GPa)
#
#
# Indices 1 2 3 4 5 6 
#
# 1 34.8533 24.9850 39.5250 -9.3283 13.1134 -12.7292
# 2 24.9850 86.7670 17.2769 16.8951 20.5442 -4.1303
# 3 39.5250 17.2769 32.8428 22.3114 13.4824 15.9992
# 4 -9.3283 16.8951 22.3114 22.1490 13.5449 10.2895
# 5 13.1134 20.5442 13.4824 13.5449 51.3764 1.4529
# 6 -12.7292 -4.1303 15.9992 10.2895 1.4529 45.2126
#
#
#
# Elastic Compliance Matrix: (Units=1/GPa)
#
#
# Indices 1 2 3 4 5 6 
#
# 1 -0.004132 0.000997 0.021330 -0.023191 0.001268 -0.003383
# 2 0.000997 0.014428 -0.007937 -0.002985 -0.003301 0.005193
# 3 0.021330 -0.007937 -0.005161 0.023764 -0.007236 0.001931
# 4 -0.023191 -0.002985 0.023764 0.027010 -0.005646 -0.021177
# 5 0.001268 -0.003301 -0.007236 -0.005646 0.023759 0.003137
# 6 -0.003383 0.005193 0.001931 -0.021177 0.003137 0.025675
#
#
# Mechanical properties :
#
#
# Convention : Reuss Voigt Hill
#
# Bulk Modulus (GPa) = 29.48406 35.33745 32.41075
# Shear Modulus (GPa) = 77.99783 28.59268 53.29525
#
# Velocity S-wave (km/s) = 5.62741 3.40718 4.65170
# Velocity P-wave (km/s) = 7.36168 5.46129 6.48152
#
# Compressibility (1/GPa) = 0.03391664
#
# Stress axis : x y z
#
# Youngs Moduli (GPa) = -242.01981 69.30805 -193.76603
#
# Poissons Ratio (x) = -0.06910 4.13305
# Poissons Ratio (y) = 0.24128 -1.53783
# Poissons Ratio (z) = 5.16231 0.55007
#
# Static dielectric constant tensor:
#      x y z
#    x 2.053700 0.007900 -0.007520 
#    y 0.007900 1.923860 -0.019920 
#    z -0.007520 -0.019920 2.011440 
# 
# From -- ./inp_files/419431.got.cif
#   From: 2010.05.17/outbox.cif.g08.bks.cpg/sg2_210_cif.got.tgz:419431.got - 2010.06.03 11:33:40.
