data_PCOD9072637
_publ_section_title
;
Structure prediction by ZEFSAII (Michael W. Deem and Ramdas Pophale) SiO2 
 PCOD9072637
Probable space group: P -1
;
_chemical_formula_sum "Si O2"
_cell_formula_units_Z 16
_cell_length_a 15.000000
_cell_length_b 12.000000
_cell_length_c 15.000000
_cell_angle_alpha 130.000000
_cell_angle_beta 40.000000
_cell_angle_gamma 150.000000
_cell_volume 865.974363
_symmetry_space_group_name_H-M "P -1"
_symmetry_group_IT_number 2
_symmetry_cell_setting 'triclinic'
loop_
_space_group_symop_operation_xyz
x,y,z
-x,-y,-z
loop_
_atom_site_type_symbol
_atom_site_label
_atom_site_fract_x
_atom_site_fract_y
_atom_site_fract_z
Si Si1 0.548856 0.669684 0.981219
Si Si2 0.241758 0.665860 0.438988
Si Si3 0.005245 0.040898 0.879244
Si Si4 0.643512 0.454703 0.445101
Si Si5 0.312887 0.833248 0.672877
Si Si6 0.827683 0.841663 0.385446
Si Si7 0.906182 0.696046 0.893390
Si Si8 0.256031 0.353647 0.338461
O O1 0.621378 0.663956 0.826824
O O2 0.764229 0.909054 0.980227
O O3 0.500000 0.500000 0.000000
O O4 0.317439 0.559574 0.089758
O O5 0.274534 0.763403 0.561656
O O6 0.256520 0.504421 0.359847
O O7 0.000000 0.500000 0.500000
O O8 0.459640 0.903598 0.348510
O O9 0.122312 0.147436 0.750939
O O10 0.980172 0.852238 0.832257
O O11 0.128931 0.215778 0.954840
O O12 0.693463 0.325181 0.353037
O O13 0.806231 0.677180 0.374535
O O14 0.407878 0.277659 0.492624
O O15 0.646686 0.531326 0.580534
O O16 0.100434 0.756607 0.811942
O O17 0.017569 0.099463 0.403394
#
# Coordination Sequence:
#
# PCOD9072637 Si02
#       8
#     2   2   2   2   2   2   2   2
#     4   9  19  31  49  79 105 133 174 215 264 314
#     4  10  22  33  52  78 110 144 168 215 276 324
#     4   9  20  32  54  78 103 138 179 220 264 311
#     4  10  21  37  54  78 107 144 180 219 265 312
#     4  10  23  34  51  80 112 140 175 215 272 327
#     4  10  20  36  59  77 104 140 186 224 254 316
#     4  10  20  33  53  77 111 137 169 224 270 318
#     4  10  20  34  56  79 106 136 180 225 262 316
#
# _framework density 18.476298
#
# number of rings (size 3 to 8) (size 9 to 14) (size 15 to 20)
#    0.000    2.250    0.000    1.875   15.750    0.000 
#    0.000    0.625    0.000    3.000    0.000    0.000 
#    0.000    0.000    0.000    0.000    0.000    0.000 
#
# Total GULP energy -89138.135488 kJ/mol
# GULP energy per Si atom -5571.133468 kJ/mol
# Density = 1.843424 g / cm^3
# Si number density = 18.476298 Si / 1000 Ang^3
#
#
#
# Elastic Constant Matrix: (Units=GPa)
#
#
# Indices 1 2 3 4 5 6 
#
# 1 87.4497 49.4098 16.0189 -11.6948 -11.5550 -3.3156
# 2 49.4098 127.6803 15.2929 -14.4957 -15.2746 7.3848
# 3 16.0189 15.2929 30.1393 -8.6375 -2.3058 -7.0538
# 4 -11.6948 -14.4957 -8.6375 18.2160 4.8973 -0.7629
# 5 -11.5550 -15.2746 -2.3058 4.8973 30.7284 -7.4960
# 6 -3.3156 7.3848 -7.0538 -0.7629 -7.4960 34.8423
#
#
#
# Elastic Compliance Matrix: (Units=1/GPa)
#
#
# Indices 1 2 3 4 5 6 
#
# 1 0.016057 -0.005077 -0.004090 0.003559 0.003264 0.002556
# 2 -0.005077 0.010890 -0.002254 0.003662 0.002088 -0.002718
# 3 -0.004090 -0.002254 0.043416 0.016492 0.000237 0.009290
# 4 0.003559 0.003662 0.016492 0.069643 -0.005935 0.003149
# 5 0.003264 0.002088 0.000237 -0.005935 0.037698 0.007896
# 6 0.002556 -0.002718 0.009290 0.003149 0.007896 0.033169
#
#
# Mechanical properties :
#
#
# Convention : Reuss Voigt Hill
#
# Bulk Modulus (GPa) = 21.04395 45.19027 33.11711
# Shear Modulus (GPa) = 20.03565 27.72719 23.88142
#
# Velocity S-wave (km/s) = 3.29659 3.87808 3.59910
# Velocity P-wave (km/s) = 5.08964 6.67565 5.93585
#
# Compressibility (1/GPa) = 0.04751961
#
# Stress axis : x y z
#
# Youngs Moduli (GPa) = 62.27745 91.83095 23.03314
#
# Poissons Ratio (x) = 0.46625 0.09421
# Poissons Ratio (y) = 0.31620 0.05191
# Poissons Ratio (z) = 0.25473 0.20697
#
# Static dielectric constant tensor:
#      x y z
#    x 1.636990 0.021650 -0.009630 
#    y 0.021650 1.640600 -0.002690 
#    z -0.009630 -0.002690 1.694630 
# 
# From -- ./inp_files/282497.got.cif
#   From: 2010.05.17/outbox.ucp.g08.bks.cvg/sg2_142_cif.got.tgz:282497.got - 2010.06.11 11:32:03.
