data_PCOD9072311
_publ_section_title
;
Structure prediction by ZEFSAII (Michael W. Deem and Ramdas Pophale) SiO2 
 PCOD9072311
Probable space group: P -1
;
_chemical_formula_sum "Si O2"
_cell_formula_units_Z 16
_cell_length_a 15.000000
_cell_length_b 12.000000
_cell_length_c 9.000000
_cell_angle_alpha 120.000000
_cell_angle_beta 40.000000
_cell_angle_gamma 100.000000
_cell_volume 835.587839
_symmetry_space_group_name_H-M "P -1"
_symmetry_group_IT_number 2
_symmetry_cell_setting 'triclinic'
loop_
_space_group_symop_operation_xyz
x,y,z
-x,-y,-z
loop_
_atom_site_type_symbol
_atom_site_label
_atom_site_fract_x
_atom_site_fract_y
_atom_site_fract_z
Si Si1 0.293192 0.861542 0.875139
Si Si2 0.702297 0.616563 0.550568
Si Si3 0.097191 0.693749 0.945326
Si Si4 0.816102 0.688833 0.150646
Si Si5 0.787563 0.804917 0.792037
Si Si6 0.427109 0.159482 0.656754
Si Si7 0.103877 0.609437 0.226927
Si Si8 0.588495 0.371622 0.186938
O O1 0.164926 0.812755 0.942791
O O2 0.435303 0.801919 0.543768
O O3 0.347385 0.771524 0.896178
O O4 0.249057 0.028420 0.062634
O O5 0.796475 0.454943 0.358334
O O6 0.736243 0.638506 0.350750
O O7 0.753907 0.727319 0.641317
O O8 0.528998 0.638966 0.790000
O O9 0.080116 0.655402 0.113380
O O10 0.941567 0.736421 0.088760
O O11 0.687974 0.809348 0.310588
O O12 0.891767 0.546145 0.865954
O O13 0.960615 0.724281 0.562563
O O14 0.678420 0.773298 0.026961
O O15 0.500000 0.000000 0.500000
O O16 0.268398 0.606179 0.049633
O O17 0.500000 0.500000 0.500000
#
# Coordination Sequence:
#
# PCOD9072311 Si02
#       8
#     2   2   2   2   2   2   2   2
#     4  10  21  39  59  81 120 160 188 231 301 341
#     4  11  19  36  61  93 115 143 198 244 280 340
#     4  10  19  34  63  92 113 147 196 240 285 345
#     4  11  18  37  65  84 112 159 197 224 291 356
#     4  11  23  39  55  87 125 148 188 250 284 338
#     4  10  23  42  57  79 120 165 191 227 292 357
#     4  10  19  34  59  92 120 140 190 244 295 328
#     4  11  18  33  62  90 115 151 191 238 288 347
#
# _framework density 19.148195999999999
#
# number of rings (size 3 to 8) (size 9 to 14) (size 15 to 20)
#    0.000    1.500    7.500    0.750    0.000    3.000 
#    0.000    4.375    0.000    0.000    0.000    0.000 
#    0.000    0.000    0.000    0.000    0.000    0.000 
#
# Total GULP energy -89107.533821 kJ/mol
# GULP energy per Si atom -5569.220864 kJ/mol
# Density = 1.910461 g / cm^3
# Si number density = 19.148196 Si / 1000 Ang^3
#
#
#
# Elastic Constant Matrix: (Units=GPa)
#
#
# Indices 1 2 3 4 5 6 
#
# 1 73.6963 38.2630 22.5282 3.6006 -29.1631 23.9052
# 2 38.2630 49.1845 8.9367 9.3912 0.4480 27.2723
# 3 22.5282 8.9367 78.0863 5.3915 -17.0969 11.5178
# 4 3.6006 9.3912 5.3915 21.5104 5.0992 1.1321
# 5 -29.1631 0.4480 -17.0969 5.0992 26.2526 -6.7153
# 6 23.9052 27.2723 11.5178 1.1321 -6.7153 28.8352
#
#
#
# Elastic Compliance Matrix: (Units=1/GPa)
#
#
# Indices 1 2 3 4 5 6 
#
# 1 0.120069 -0.121817 0.006162 -0.007444 0.153519 0.049257
# 2 -0.121817 0.175666 -0.005656 -0.010239 -0.165883 -0.101125
# 3 0.006162 -0.005656 0.016488 -0.007012 0.018597 -0.001739
# 4 -0.007444 -0.010239 -0.007012 0.058353 -0.021064 0.011460
# 5 0.153519 -0.165883 0.018597 -0.021064 0.248347 0.080856
# 6 0.049257 -0.101125 -0.001739 0.011460 0.080856 0.108563
#
#
# Mechanical properties :
#
#
# Convention : Reuss Voigt Hill
#
# Bulk Modulus (GPa) = 14.36757 37.82478 26.09617
# Shear Modulus (GPa) = 5.03368 24.06891 14.55130
#
# Velocity S-wave (km/s) = 1.62312 3.54924 2.75967
# Velocity P-wave (km/s) = 3.32149 6.04919 4.87981
#
# Compressibility (1/GPa) = 0.06960121
#
# Stress axis : x y z
#
# Youngs Moduli (GPa) = 8.32853 5.69263 60.64930
#
# Poissons Ratio (x) = 0.69346 -0.37374
# Poissons Ratio (y) = 1.01455 0.34306
# Poissons Ratio (z) = -0.05132 0.03220
#
# Static dielectric constant tensor:
#      x y z
#    x 1.699190 -0.018040 0.014490 
#    y -0.018040 1.652370 -0.040010 
#    z 0.014490 -0.040010 1.753970 
# 
# From -- ./inp_files/271277.got.cif
#   From: 2010.05.17/outbox.ucp.g08.bks.cvg/sg2_136_cif.got.tgz:271277.got - 2010.06.11 11:32:03.
