data_PCOD9072797
_publ_section_title
;
Structure prediction by ZEFSAII (Michael W. Deem and Ramdas Pophale) SiO2 
 PCOD9072797
Probable space group: P -1
;
_chemical_formula_sum "Si O2"
_cell_formula_units_Z 14
_cell_length_a 9.000000
_cell_length_b 9.000000
_cell_length_c 15.000000
_cell_angle_alpha 110.000000
_cell_angle_beta 130.000000
_cell_angle_gamma 50.000000
_cell_volume 707.730323
_symmetry_space_group_name_H-M "P -1"
_symmetry_group_IT_number 2
_symmetry_cell_setting 'triclinic'
loop_
_space_group_symop_operation_xyz
x,y,z
-x,-y,-z
loop_
_atom_site_type_symbol
_atom_site_label
_atom_site_fract_x
_atom_site_fract_y
_atom_site_fract_z
Si Si1 0.317825 0.841914 0.656076
Si Si2 0.229387 0.199004 0.226506
Si Si3 0.710289 0.223690 0.167496
Si Si4 0.980428 0.743094 0.469903
Si Si5 0.835323 0.456588 0.983253
Si Si6 0.999279 0.383581 0.349791
Si Si7 0.887648 0.081631 0.877158
O O1 0.589664 0.766557 0.741658
O O2 0.246482 0.872691 0.738468
O O3 0.240788 0.705780 0.562758
O O4 0.186112 0.040370 0.589094
O O5 0.203023 0.257444 0.330504
O O6 0.294065 0.980781 0.209815
O O7 0.980492 0.344088 0.106458
O O8 0.429722 0.347600 0.061066
O O9 0.780855 0.375408 0.233685
O O10 0.899526 0.054389 0.138841
O O11 0.929050 0.716266 0.546141
O O12 0.955586 0.591028 0.377556
O O13 0.804985 0.303022 0.887675
O O14 0.000000 0.500000 0.000000
O O15 0.000000 0.000000 0.000000
#
# Coordination Sequence:
#
# PCOD9072797 Si02
#       7
#     2   2   2   2   2   2   2
#     4  10  20  37  59  85 118 151 190 246 294 344
#     4  10  21  38  56  88 118 148 199 235 289 355
#     4  10  21  40  62  85 124 158 190 241 293 344
#     4   9  20  38  59  84 112 152 196 240 300 343
#     4  11  22  39  59  91 122 153 197 241 283 357
#     4   9  20  38  60  86 111 154 197 237 295 351
#     4   9  22  39  56  86 119 156 199 232 286 350
#
# _framework density 19.781545999999999
#
# number of rings (size 3 to 8) (size 9 to 14) (size 15 to 20)
#    0.000    2.286    1.429    0.000    2.000    8.000 
#    2.571    0.000    0.000    0.000    0.000    0.000 
#    0.000    0.000    0.000    0.000    0.000    0.000 
#
# Total GULP energy -77955.959816 kJ/mol
# GULP energy per Si atom -5568.282844 kJ/mol
# Density = 1.973652 g / cm^3
# Si number density = 19.781546 Si / 1000 Ang^3
#
#
#
# Elastic Constant Matrix: (Units=GPa)
#
#
# Indices 1 2 3 4 5 6 
#
# 1 94.5326 14.4173 7.3146 15.9902 2.8241 10.4984
# 2 14.4173 52.4493 6.4301 9.7286 -3.5738 17.5838
# 3 7.3146 6.4301 27.1449 5.7395 10.2430 -6.0281
# 4 15.9902 9.7286 5.7395 27.4069 -4.4940 -1.1176
# 5 2.8241 -3.5738 10.2430 -4.4940 3.1728 -8.0974
# 6 10.4984 17.5838 -6.0281 -1.1176 -8.0974 28.8601
#
#
#
# Elastic Compliance Matrix: (Units=1/GPa)
#
#
# Indices 1 2 3 4 5 6 
#
# 1 0.011082 0.000009 -0.010188 -0.001206 0.019284 -0.000801
# 2 0.000009 0.028416 -0.009532 -0.008739 0.000900 -0.019394
# 3 -0.010188 -0.009532 0.011927 0.022909 0.088669 0.037770
# 4 -0.001206 -0.008739 0.022909 0.023221 -0.072632 -0.008931
# 5 0.019284 0.000900 0.088669 -0.072632 -0.244138 -0.060353
# 6 -0.000801 -0.019394 0.037770 -0.008931 -0.060353 0.037367
#
#
# Mechanical properties :
#
#
# Convention : Reuss Voigt Hill
#
# Bulk Modulus (GPa) = 83.30851 25.60565 54.45708
# Shear Modulus (GPa) = -56.36981 21.61895 -17.37543
#
# Velocity S-wave (km/s) = -5.34397 3.30947 -2.96694
# Velocity P-wave (km/s) = 2.03183 5.25126 3.98146
#
# Compressibility (1/GPa) = 0.01200358
#
# Stress axis : x y z
#
# Youngs Moduli (GPa) = 90.23507 35.19117 83.84137
#
# Poissons Ratio (x) = -0.00031 0.85416
# Poissons Ratio (y) = -0.00080 0.79918
# Poissons Ratio (z) = 0.91930 0.33544
#
# Static dielectric constant tensor:
#      x y z
#    x 1.724470 0.009160 0.061280 
#    y 0.009160 1.704900 0.029110 
#    z 0.061280 0.029110 1.770660 
# 
# From -- ./inp_files/109953.got.cif
#   From: 2010.05.17/outbox.ucp.g08.bks.cvg/sg2_55_cif.got.tgz:109953.got - 2010.06.11 11:32:03.
