data_PCOD9072488
_publ_section_title
;
Structure prediction by ZEFSAII (Michael W. Deem and Ramdas Pophale) SiO2 
 PCOD9072488
Probable space group: P -1
;
_chemical_formula_sum "Si O2"
_cell_formula_units_Z 16
_cell_length_a 12.984347
_cell_length_b 7.572747
_cell_length_c 16.096368
_cell_angle_alpha 127.881479
_cell_angle_beta 117.854276
_cell_angle_gamma 106.199144
_cell_volume 646.337506
_symmetry_space_group_name_H-M "P -1"
_symmetry_group_IT_number 2
_symmetry_cell_setting 'triclinic'
loop_
_space_group_symop_operation_xyz
x,y,z
-x,-y,-z
loop_
_atom_site_type_symbol
_atom_site_label
_atom_site_fract_x
_atom_site_fract_y
_atom_site_fract_z
Si Si1 0.423209 0.593750 0.948343
Si Si2 0.184606 0.457224 0.219189
Si Si3 0.389899 0.493020 0.734960
Si Si4 0.023363 0.076999 0.400108
Si Si5 0.020159 0.116685 0.225446
Si Si6 0.039447 0.694068 0.181777
Si Si7 0.586360 0.005359 0.811990
Si Si8 0.434467 0.689616 0.242326
O O1 0.515273 0.771220 0.943023
O O2 0.500000 0.500000 0.000000
O O3 0.425249 0.807903 0.071918
O O4 0.190208 0.188602 0.724516
O O5 0.375157 0.643777 0.301843
O O6 0.147417 0.437202 0.296657
O O7 0.159918 0.657312 0.223246
O O8 0.906947 0.029982 0.784414
O O9 0.199892 0.359003 0.612987
O O10 0.401661 0.246588 0.685964
O O11 0.476927 0.645161 0.718032
O O12 0.046797 0.236505 0.365570
O O13 0.030944 0.827132 0.301974
O O14 0.781821 0.729997 0.001460
O O15 0.000000 0.000000 0.000000
O O16 0.810230 0.277494 0.959761
O O17 0.512984 0.004371 0.699920
#
# Coordination Sequence:
#
# PCOD9072488 Si02
#       8
#     2   2   2   2   2   2   2   2
#     4  11  20  40  66  82 114 146 189 238 284 334
#     4  10  18  30  60  91 106 149 201 234 273 326
#     4  12  22  37  60  84 118 149 189 232 281 347
#     4   9  21  40  57  84 118 152 181 232 292 334
#     4   8  17  36  55  80 115 145 193 227 285 321
#     4   8  18  36  56  79 118 150 184 240 274 328
#     4  10  20  37  58  86 113 150 188 233 288 327
#     4  10  20  35  57  85 116 148 193 236 274 329
#
# _framework density 24.754867000000001
#
# number of rings (size 3 to 8) (size 9 to 14) (size 15 to 20)
#    0.750    1.500    2.500    2.250    0.000    5.500 
#    2.250    1.875    0.000    0.000    0.000    0.000 
#    0.000    0.000    0.000    0.000    0.000    0.000 
#
# Total GULP energy -89193.442817 kJ/mol
# GULP energy per Si atom -5574.590176 kJ/mol
# Density = 2.469852 g / cm^3
# Si number density = 24.754867 Si / 1000 Ang^3
#
#
#
# Elastic Constant Matrix: (Units=GPa)
#
#
# Indices 1 2 3 4 5 6 
#
# 1 82.8967 3.1591 9.6864 -2.9849 16.3166 -11.5166
# 2 3.1591 106.3276 17.3668 -25.5172 1.8279 8.8739
# 3 9.6864 17.3668 85.5584 -26.1069 6.2984 -2.6403
# 4 -2.9849 -25.5172 -26.1069 25.5342 -0.1250 -2.7803
# 5 16.3166 1.8279 6.2984 -0.1250 26.0757 -10.9077
# 6 -11.5166 8.8739 -2.6403 -2.7803 -10.9077 35.9636
#
#
#
# Elastic Compliance Matrix: (Units=1/GPa)
#
#
# Indices 1 2 3 4 5 6 
#
# 1 0.013996 -0.000099 -0.000580 0.001148 -0.007674 0.002225
# 2 -0.000099 0.012827 0.001910 0.014461 -0.002337 -0.002647
# 3 -0.000580 0.001910 0.017810 0.020158 -0.003495 0.001149
# 4 0.001148 0.014461 0.020158 0.074602 -0.005212 0.002466
# 5 -0.007674 -0.002337 -0.003495 -0.005212 0.049331 0.012422
# 6 0.002225 -0.002647 0.001149 0.002466 0.012422 0.033214
#
#
# Mechanical properties :
#
#
# Convention : Reuss Voigt Hill
#
# Bulk Modulus (GPa) = 21.23411 37.24524 29.23968
# Shear Modulus (GPa) = 23.25403 33.81939 28.53671
#
# Velocity S-wave (km/s) = 3.06824 3.70019 3.39893
# Velocity P-wave (km/s) = 4.59875 5.77351 5.21929
#
# Compressibility (1/GPa) = 0.04709405
#
# Stress axis : x y z
#
# Youngs Moduli (GPa) = 71.45004 77.95867 56.14941
#
# Poissons Ratio (x) = 0.00774 0.03259
# Poissons Ratio (y) = 0.00709 -0.10726
# Poissons Ratio (z) = 0.04147 -0.14892
#
# Static dielectric constant tensor:
#      x y z
#    x 1.922280 0.067080 -0.042600 
#    y 0.067080 2.018760 0.045260 
#    z -0.042600 0.045260 2.091280 
# 
# From -- ./inp_files/527686.got.cif
#   From: 2010.05.17/outbox.cif.g08.bks.cpg/sg2_264_cif.got.tgz:527686.got - 2010.06.03 11:33:40.
