data_PCOD9072556
_publ_section_title
;
Structure prediction by ZEFSAII (Michael W. Deem and Ramdas Pophale) SiO2 
 PCOD9072556
Probable space group: P -1
;
_chemical_formula_sum "Si O2"
_cell_formula_units_Z 16
_cell_length_a 5.245557
_cell_length_b 20.832025
_cell_length_c 14.056883
_cell_angle_alpha 37.755813
_cell_angle_beta 101.570201
_cell_angle_gamma 109.036297
_cell_volume 884.729795
_symmetry_space_group_name_H-M "P -1"
_symmetry_group_IT_number 2
_symmetry_cell_setting 'triclinic'
loop_
_space_group_symop_operation_xyz
x,y,z
-x,-y,-z
loop_
_atom_site_type_symbol
_atom_site_label
_atom_site_fract_x
_atom_site_fract_y
_atom_site_fract_z
Si Si1 0.782213 0.568630 0.394673
Si Si2 0.641365 0.609074 0.972359
Si Si3 0.137758 0.834078 0.448891
Si Si4 0.037650 0.326887 0.530553
Si Si5 0.240480 0.061341 0.580526
Si Si6 0.867532 0.319320 0.203699
Si Si7 0.019476 0.164427 0.265074
Si Si8 0.397306 0.534817 0.682352
O O1 0.500000 0.500000 0.500000
O O2 0.893013 0.670152 0.355005
O O3 0.717261 0.566921 0.280132
O O4 0.000000 0.500000 0.500000
O O5 0.372919 0.626933 0.886495
O O6 0.856380 0.606368 0.908949
O O7 0.791440 0.726148 0.895941
O O8 0.590323 0.513197 0.156326
O O9 0.096321 0.724298 0.638583
O O10 0.688144 0.605036 0.582586
O O11 0.065769 0.790575 0.388440
O O12 0.938253 0.898288 0.402017
O O13 0.552312 0.098144 0.590851
O O14 0.808620 0.390434 0.424421
O O15 0.193106 0.120758 0.408805
O O16 0.125780 0.933470 0.699049
O O17 0.813195 0.211012 0.258788
#
# Coordination Sequence:
#
# PCOD9072556 Si02
#       8
#     2   2   2   2   2   2   2   2
#     4   8  16  31  50  69  86 110 152 198 229 263
#     4  10  18  31  46  68  94 119 154 196 218 268
#     4  11  19  32  45  68  96 124 153 189 222 276
#     4  10  20  33  49  69  95 121 152 189 229 270
#     4  10  19  29  50  66  90 125 157 189 234 258
#     4   9  18  30  44  63  99 118 151 190 219 259
#     4   8  19  29  49  66  92 118 159 194 230 253
#     4  10  19  33  51  69  91 122 153 189 232 267
#
# _framework density 18.084617999999999
#
# number of rings (size 3 to 8) (size 9 to 14) (size 15 to 20)
#    0.750    1.750    1.250    1.500    1.750    1.500 
#    0.000    3.750    0.000    0.000    0.000    1.750 
#    0.000    0.000    0.000    0.000    0.000    0.000 
#
# Total GULP energy -89118.763457 kJ/mol
# GULP energy per Si atom -5569.922716 kJ/mol
# Density = 1.804346 g / cm^3
# Si number density = 18.084618 Si / 1000 Ang^3
#
#
#
# Elastic Constant Matrix: (Units=GPa)
#
#
# Indices 1 2 3 4 5 6 
#
# 1 117.3348 20.8485 9.4185 -0.4546 1.2245 -18.0618
# 2 20.8485 126.9643 7.2705 7.3556 -9.0723 19.2769
# 3 9.4185 7.2705 44.0125 -23.4099 51.9556 -58.4728
# 4 -0.4546 7.3556 -23.4099 28.1488 -28.9839 34.9093
# 5 1.2245 -9.0723 51.9556 -28.9839 106.3920 -105.9678
# 6 -18.0618 19.2769 -58.4728 34.9093 -105.9678 143.0932
#
#
#
# Elastic Compliance Matrix: (Units=1/GPa)
#
#
# Indices 1 2 3 4 5 6 
#
# 1 0.009703 -0.001610 -0.003075 -0.002336 0.005214 0.004616
# 2 -0.001610 0.009617 -0.009466 -0.005411 -0.000166 -0.004170
# 3 -0.003075 -0.009466 0.083198 0.037273 -0.021182 0.010105
# 4 -0.002336 -0.005411 0.037273 0.068888 -0.003834 -0.003980
# 5 0.005214 -0.000166 -0.021182 -0.003834 0.044256 0.025734
# 6 0.004616 -0.004170 0.010105 -0.003980 0.025734 0.032291
#
#
# Mechanical properties :
#
#
# Convention : Reuss Voigt Hill
#
# Bulk Modulus (GPa) = 13.47450 40.37630 26.92540
# Shear Modulus (GPa) = 16.61159 72.24508 44.42833
#
# Velocity S-wave (km/s) = 3.03404 6.32733 4.96188
# Velocity P-wave (km/s) = 4.44307 8.70373 6.90998
#
# Compressibility (1/GPa) = 0.07421424
#
# Stress axis : x y z
#
# Youngs Moduli (GPa) = 103.06383 103.97731 12.01956
#
# Poissons Ratio (x) = 0.16742 0.03696
# Poissons Ratio (y) = 0.16595 0.11378
# Poissons Ratio (z) = 0.31695 0.98430
#
# Static dielectric constant tensor:
#      x y z
#    x 1.623890 0.013620 -0.008560 
#    y 0.013620 1.678720 -0.006180 
#    z -0.008560 -0.006180 1.581840 
# 
# From -- ./inp_files/368909.got.cif
#   From: 2010.05.17/outbox.cif.g08.bks.cpg/sg2_185_cif.got.tgz:368909.got - 2010.06.03 11:33:40.
