data_PCOD9072439
_publ_section_title
;
Structure prediction by ZEFSAII (Michael W. Deem and Ramdas Pophale) SiO2 
 PCOD9072439
Probable space group: P -1
;
_chemical_formula_sum "Si O2"
_cell_formula_units_Z 16
_cell_length_a 12.000000
_cell_length_b 18.000000
_cell_length_c 21.000000
_cell_angle_alpha 20.000000
_cell_angle_beta 40.000000
_cell_angle_gamma 30.000000
_cell_volume 744.844803
_symmetry_space_group_name_H-M "P -1"
_symmetry_group_IT_number 2
_symmetry_cell_setting 'triclinic'
loop_
_space_group_symop_operation_xyz
x,y,z
-x,-y,-z
loop_
_atom_site_type_symbol
_atom_site_label
_atom_site_fract_x
_atom_site_fract_y
_atom_site_fract_z
Si Si1 0.723193 0.563401 0.271443
Si Si2 0.048200 0.087741 0.298963
Si Si3 0.406373 0.457286 0.790621
Si Si4 0.460642 0.122070 0.767310
Si Si5 0.832093 0.578134 0.795441
Si Si6 0.946808 0.624440 0.564998
Si Si7 0.460318 0.273206 0.400169
Si Si8 0.748697 0.258589 0.175939
O O1 0.578836 0.608981 0.236972
O O2 0.575204 0.753833 0.244622
O O3 0.912053 0.591124 0.150406
O O4 0.885681 0.220011 0.490214
O O5 0.864853 0.289759 0.272724
O O6 0.911771 0.248161 0.164247
O O7 0.295111 0.997454 0.270281
O O8 0.526595 0.572620 0.671084
O O9 0.516627 0.155533 0.018242
O O10 0.221852 0.387209 0.624301
O O11 0.891861 0.548322 0.717962
O O12 0.650626 0.924747 0.607281
O O13 0.721847 0.451666 0.974611
O O14 0.785483 0.634774 0.577402
O O15 0.864185 0.941770 0.353895
O O16 0.541477 0.341146 0.246204
#
# Coordination Sequence:
#
# PCOD9072439 Si02
#       8
#     2   2   2   2   2   2   2   2
#     4  11  21  40  65  96 129 163 207 269 326 374
#     4  11  21  40  65  96 129 163 207 269 326 374
#     4  11  23  40  63  95 128 171 208 260 323 380
#     4  11  23  40  63  95 128 171 208 260 323 380
#     4  10  19  36  66  96 123 162 214 267 318 372
#     4  10  22  40  59  90 130 169 214 259 309 377
#     4  10  22  40  59  90 130 169 214 259 309 377
#     4  10  19  36  66  96 123 162 214 267 318 372
#
# _framework density 21.480985
#
# number of rings (size 3 to 8) (size 9 to 14) (size 15 to 20)
#    0.000    1.500    5.000    3.750    0.000    4.500 
#    0.000    0.000    0.000    0.750    0.000    0.000 
#    0.000    1.000    0.000    0.000    0.000    0.000 
#
# Total GULP energy -89377.793396 kJ/mol
# GULP energy per Si atom -5586.112087 kJ/mol
# Density = 2.143209 g / cm^3
# Si number density = 21.480985 Si / 1000 Ang^3
#
#
#
# Elastic Constant Matrix: (Units=GPa)
#
#
# Indices 1 2 3 4 5 6 
#
# 1 102.5181 14.5686 1.7989 -9.9292 -6.4333 -31.5004
# 2 14.5686 15.6598 -1.2234 -11.1871 -3.5910 -9.2707
# 3 1.7989 -1.2234 85.3071 8.0352 -8.7955 5.2060
# 4 -9.9292 -11.1871 8.0352 33.5220 6.9586 -4.0057
# 5 -6.4333 -3.5910 -8.7955 6.9586 5.8479 4.4686
# 6 -31.5004 -9.2707 5.2060 -4.0057 4.4686 25.3777
#
#
#
# Elastic Compliance Matrix: (Units=1/GPa)
#
#
# Indices 1 2 3 4 5 6 
#
# 1 0.030742 0.041619 -0.024831 0.066012 -0.126122 0.091084
# 2 0.041619 0.233942 -0.067964 0.208203 -0.347880 0.245182
# 3 -0.024831 -0.067964 0.052008 -0.104322 0.227127 -0.122779
# 4 0.066012 0.208203 -0.104322 0.299266 -0.561236 0.325458
# 5 -0.126122 -0.347880 0.227127 -0.561236 1.326604 -0.652406
# 6 0.091084 0.245182 -0.122779 0.325458 -0.652406 0.433467
#
#
# Mechanical properties :
#
#
# Convention : Reuss Voigt Hill
#
# Bulk Modulus (GPa) = 4.66553 25.97479 15.32016
# Shear Modulus (GPa) = 1.96092 25.50557 13.73325
#
# Velocity S-wave (km/s) = 0.95647 3.44954 2.53122
# Velocity P-wave (km/s) = 1.84294 5.28999 3.96109
#
# Compressibility (1/GPa) = 0.21433806
#
# Stress axis : x y z
#
# Youngs Moduli (GPa) = 32.52908 4.27457 19.22778
#
# Poissons Ratio (x) = -0.17790 0.47745
# Poissons Ratio (y) = -1.35382 1.30680
# Poissons Ratio (z) = 0.80774 0.29052
#
# Static dielectric constant tensor:
#      x y z
#    x 1.819260 -0.017200 0.032310 
#    y -0.017200 1.758130 0.034940 
#    z 0.032310 0.034940 1.802220 
# 
# From -- ./inp_files/595933.got.cif
#   From: 2010.05.17/outbox.ucp.g08.bks.cvg/sg2_298_cif.got.tgz:595933.got - 2010.06.11 11:32:03.
