data_PCOD9072473
_publ_section_title
;
Structure prediction by ZEFSAII (Michael W. Deem and Ramdas Pophale) SiO2 
 PCOD9072473
Probable space group: P -1
;
_chemical_formula_sum "Si O2"
_cell_formula_units_Z 16
_cell_length_a 9.000000
_cell_length_b 12.000000
_cell_length_c 12.000000
_cell_angle_alpha 130.000000
_cell_angle_beta 60.000000
_cell_angle_gamma 120.000000
_cell_volume 828.039435
_symmetry_space_group_name_H-M "P -1"
_symmetry_group_IT_number 2
_symmetry_cell_setting 'triclinic'
loop_
_space_group_symop_operation_xyz
x,y,z
-x,-y,-z
loop_
_atom_site_type_symbol
_atom_site_label
_atom_site_fract_x
_atom_site_fract_y
_atom_site_fract_z
Si Si1 0.589956 0.715450 0.172181
Si Si2 0.991524 0.492020 0.235160
Si Si3 0.272642 0.613149 0.403740
Si Si4 0.404645 0.952875 0.626481
Si Si5 0.308854 0.404325 0.467258
Si Si6 0.268978 0.780801 0.955863
Si Si7 0.607103 0.915546 0.756543
Si Si8 0.295049 0.568193 0.008578
O O1 0.450630 0.669034 0.297652
O O2 0.470613 0.650981 0.066692
O O3 0.665701 0.895362 0.236374
O O4 0.718374 0.610182 0.086624
O O5 0.118468 0.525930 0.319610
O O6 0.117290 0.580482 0.146159
O O7 0.834969 0.566078 0.373589
O O8 0.899244 0.318988 0.117901
O O9 0.269606 0.781601 0.559745
O O10 0.282633 0.491834 0.418139
O O11 0.540486 0.944849 0.673965
O O12 0.500000 0.000000 0.500000
O O13 0.500000 0.500000 0.500000
O O14 0.304594 0.226191 0.356469
O O15 0.426075 0.852510 0.855840
O O16 0.308579 0.650732 0.938139
O O17 0.276408 0.926416 0.128434
#
# Coordination Sequence:
#
# PCOD9072473 Si02
#       8
#     2   2   2   2   2   2   2   2
#     4   9  19  35  64  91 121 163 215 249 315 379
#     4  11  24  40  62  95 129 168 205 266 324 372
#     4  10  21  39  65  89 127 165 206 268 314 372
#     4  10  19  37  63  94 129 161 214 267 307 368
#     4  12  22  41  67  92 122 169 224 254 312 386
#     4  11  22  41  63  89 138 160 208 265 316 377
#     4  11  23  39  66  98 120 171 216 261 311 373
#     4  10  20  38  62  92 124 168 205 258 316 377
#
# _framework density 19.322751
#
# number of rings (size 3 to 8) (size 9 to 14) (size 15 to 20)
#    0.000    1.500    3.750    1.500    0.000    0.000 
#    2.250    1.250    0.000    0.000    0.000    0.000 
#    0.000    0.000    0.000    0.000    0.000    0.000 
#
# Total GULP energy -89095.385085 kJ/mol
# GULP energy per Si atom -5568.461568 kJ/mol
# Density = 1.927877 g / cm^3
# Si number density = 19.322751 Si / 1000 Ang^3
#
#
#
# Elastic Constant Matrix: (Units=GPa)
#
#
# Indices 1 2 3 4 5 6 
#
# 1 75.4879 55.5114 45.8836 4.2270 12.5509 -4.7206
# 2 55.5114 122.6830 46.5038 28.9383 10.4483 -26.9923
# 3 45.8836 46.5038 89.2452 22.1938 10.6411 -6.6086
# 4 4.2270 28.9383 22.1938 52.0335 5.0235 4.7012
# 5 12.5509 10.4483 10.6411 5.0235 37.4466 2.9919
# 6 -4.7206 -26.9923 -6.6086 4.7012 2.9919 43.6805
#
#
#
# Elastic Compliance Matrix: (Units=1/GPa)
#
#
# Indices 1 2 3 4 5 6 
#
# 1 0.028660 -0.012525 -0.010832 0.010273 -0.003842 -0.007124
# 2 -0.012525 0.018800 0.000172 -0.010489 -0.000605 0.011460
# 3 -0.010832 0.000172 0.018838 -0.007395 -0.000990 0.002650
# 4 0.010273 -0.010489 -0.007395 0.028366 -0.001466 -0.009443
# 5 -0.003842 -0.000605 -0.000990 -0.001466 0.028860 -0.002758
# 6 -0.007124 0.011460 0.002650 -0.009443 -0.002758 0.030812
#
#
# Mechanical properties :
#
#
# Convention : Reuss Voigt Hill
#
# Bulk Modulus (GPa) = 50.18220 64.80153 57.49187
# Shear Modulus (GPa) = 24.11400 35.93329 30.02364
#
# Velocity S-wave (km/s) = 3.53648 4.31703 3.94610
# Velocity P-wave (km/s) = 6.53471 7.64579 7.11198
#
# Compressibility (1/GPa) = 0.01992739
#
# Stress axis : x y z
#
# Youngs Moduli (GPa) = 34.89160 53.19074 53.08503
#
# Poissons Ratio (x) = 0.66623 0.57504
# Poissons Ratio (y) = 0.43703 -0.00915
# Poissons Ratio (z) = 0.37796 -0.00917
#
# Static dielectric constant tensor:
#      x y z
#    x 1.690340 0.004070 -0.005140 
#    y 0.004070 1.650070 0.018850 
#    z -0.005140 0.018850 1.793690 
# 
# From -- ./inp_files/391297.got.cif
#   From: 2010.05.17/outbox.ucp.g08.bks.cvg/sg2_196_cif.got.tgz:391297.got - 2010.06.11 11:32:03.
