data_PCOD9072870
_publ_section_title
;
Structure prediction by ZEFSAII (Michael W. Deem and Ramdas Pophale) SiO2 
 PCOD9072870
Probable space group: P -1
;
_chemical_formula_sum "Si O2"
_cell_formula_units_Z 16
_cell_length_a 15.000000
_cell_length_b 9.000000
_cell_length_c 12.000000
_cell_angle_alpha 110.000000
_cell_angle_beta 130.000000
_cell_angle_gamma 110.000000
_cell_volume 728.972637
_symmetry_space_group_name_H-M "P -1"
_symmetry_group_IT_number 2
_symmetry_cell_setting 'triclinic'
loop_
_space_group_symop_operation_xyz
x,y,z
-x,-y,-z
loop_
_atom_site_type_symbol
_atom_site_label
_atom_site_fract_x
_atom_site_fract_y
_atom_site_fract_z
Si Si1 0.251283 0.453998 0.591208
Si Si2 0.972703 0.923730 0.268416
Si Si3 0.889709 0.482282 0.137597
Si Si4 0.189588 0.554651 0.334495
Si Si5 0.643971 0.807216 0.944389
Si Si6 0.385017 0.057694 0.284870
Si Si7 0.904853 0.041129 0.862229
Si Si8 0.216285 0.723569 0.757628
O O1 0.177768 0.430627 0.404169
O O2 0.435163 0.548387 0.743617
O O3 0.305534 0.680656 0.745809
O O4 0.106281 0.207713 0.490506
O O5 0.926878 0.707312 0.227836
O O6 0.082639 0.998314 0.263572
O O7 0.779671 0.804896 0.057820
O O8 0.786885 0.331634 0.131410
O O9 0.089960 0.609920 0.310037
O O10 0.743098 0.234655 0.875449
O O11 0.398960 0.765929 0.508238
O O12 0.050980 0.336846 0.076110
O O13 0.650531 0.890372 0.848215
O O14 0.710063 0.021626 0.130585
O O15 0.297910 0.101506 0.306918
O O16 0.000000 0.000000 0.000000
O O17 0.000000 0.500000 0.500000
#
# Coordination Sequence:
#
# PCOD9072870 Si02
#       8
#     2   2   2   2   2   2   2   2
#     4  11  21  37  62  86 112 148 193 235 279 335
#     4  12  23  38  56  86 123 148 181 239 291 329
#     4  10  23  39  57  85 120 148 184 237 285 335
#     4  10  20  38  61  85 111 152 197 231 271 334
#     4  10  21  37  59  88 113 146 191 236 278 336
#     4   9  20  38  60  83 113 152 196 230 270 335
#     4  11  20  36  59  86 115 150 192 231 278 332
#     4  11  19  40  65  82 108 151 195 230 278 341
#
# _framework density 21.948698
#
# number of rings (size 3 to 8) (size 9 to 14) (size 15 to 20)
#    0.000    1.500    5.000    1.125    0.000    5.000 
#    0.000    1.875    0.000    0.000    0.000    0.000 
#    0.000    0.000    0.000    0.000    0.000    0.000 
#
# Total GULP energy -89107.889551 kJ/mol
# GULP energy per Si atom -5569.243097 kJ/mol
# Density = 2.189874 g / cm^3
# Si number density = 21.948698 Si / 1000 Ang^3
#
#
#
# Elastic Constant Matrix: (Units=GPa)
#
#
# Indices 1 2 3 4 5 6 
#
# 1 111.7403 8.7081 36.0325 1.4602 22.4669 -14.0067
# 2 8.7081 73.4220 21.9237 18.2248 14.9329 -20.0916
# 3 36.0325 21.9237 57.9716 10.5397 24.7609 -17.7160
# 4 1.4602 18.2248 10.5397 8.5506 3.2061 -1.3678
# 5 22.4669 14.9329 24.7609 3.2061 41.5145 -0.7312
# 6 -14.0067 -20.0916 -17.7160 -1.3678 -0.7312 20.1336
#
#
#
# Elastic Compliance Matrix: (Units=1/GPa)
#
#
# Indices 1 2 3 4 5 6 
#
# 1 0.011979 0.001376 -0.005506 0.004078 -0.003921 0.004996
# 2 0.001376 0.408694 0.349046 -1.103202 -0.259616 0.631556
# 3 -0.005506 0.349046 0.348309 -0.988966 -0.243817 0.574931
# 4 0.004078 -1.103202 -0.988966 3.143402 0.711268 -1.728896
# 5 -0.003921 -0.259616 -0.243817 0.711268 0.202678 -0.420661
# 6 0.004996 0.631556 0.574931 -1.728896 -0.420661 1.056546
#
#
# Mechanical properties :
#
#
# Convention : Reuss Voigt Hill
#
# Bulk Modulus (GPa) = 0.68549 41.82917 21.25733
# Shear Modulus (GPa) = 1.00643 25.80438 13.40541
#
# Velocity S-wave (km/s) = 0.67789 3.43252 2.47404
# Velocity P-wave (km/s) = 0.96214 5.89989 4.22696
#
# Compressibility (1/GPa) = 1.45881251
#
# Stress axis : x y z
#
# Youngs Moduli (GPa) = 83.48071 2.44682 2.87102
#
# Poissons Ratio (x) = -0.00337 0.01581
# Poissons Ratio (y) = -0.11484 -1.00212
# Poissons Ratio (z) = 0.45962 -0.85405
#
# Static dielectric constant tensor:
#      x y z
#    x 1.819000 -0.022820 -0.101310 
#    y -0.022820 1.818620 0.022760 
#    z -0.101310 0.022760 1.926370 
# 
# From -- ./inp_files/256041.got.cif
#   From: 2010.05.17/outbox.ucp.g08.bks.cvg/sg2_129_cif.got.tgz:256041.got - 2010.06.11 11:32:03.
