data_PCOD9072704
_publ_section_title
;
Structure prediction by ZEFSAII (Michael W. Deem and Ramdas Pophale) SiO2 
 PCOD9072704
Probable space group: P -1
;
_chemical_formula_sum "Si O2"
_cell_formula_units_Z 16
_cell_length_a 12.000000
_cell_length_b 9.000000
_cell_length_c 15.000000
_cell_angle_alpha 70.000000
_cell_angle_beta 50.000000
_cell_angle_gamma 110.000000
_cell_volume 728.972637
_symmetry_space_group_name_H-M "P -1"
_symmetry_group_IT_number 2
_symmetry_cell_setting 'triclinic'
loop_
_space_group_symop_operation_xyz
x,y,z
-x,-y,-z
loop_
_atom_site_type_symbol
_atom_site_label
_atom_site_fract_x
_atom_site_fract_y
_atom_site_fract_z
Si Si1 0.358407 0.273990 0.314448
Si Si2 0.270728 0.934002 0.052602
Si Si3 0.877582 0.234685 0.149041
Si Si4 0.749371 0.230817 0.714657
Si Si5 0.826691 0.819801 0.967388
Si Si6 0.424888 0.969595 0.346331
Si Si7 0.146611 0.185584 0.259048
Si Si8 0.011775 0.415529 0.243193
O O1 0.319805 0.264659 0.229052
O O2 0.441343 0.168677 0.321943
O O3 0.564156 0.557967 0.183622
O O4 0.108595 0.092686 0.523831
O O5 0.223035 0.860237 0.196554
O O6 0.189451 0.709481 0.087537
O O7 0.132392 0.963297 0.077052
O O8 0.551271 0.189671 0.852603
O O9 0.007007 0.176408 0.081595
O O10 0.891480 0.264803 0.243223
O O11 0.633842 0.043109 0.262439
O O12 0.000000 0.500000 0.000000
O O13 0.632814 0.064356 0.720488
O O14 0.000000 0.500000 0.500000
O O15 0.820907 0.814060 0.862731
O O16 0.193265 0.703811 0.563204
O O17 0.131760 0.363977 0.235629
#
# Coordination Sequence:
#
# PCOD9072704 Si02
#       8
#     2   2   2   2   2   2   2   2
#     4  10  20  35  61  93 122 159 213 269 311 376
#     4  11  25  40  65 101 132 167 210 256 332 385
#     4  11  22  42  67  89 124 171 229 264 312 373
#     4  11  24  42  67  96 136 170 204 257 324 397
#     4  11  23  39  61  90 130 164 212 269 314 369
#     4  11  21  41  67  94 122 172 219 266 314 375
#     4   9  21  36  61  90 125 162 212 261 324 369
#     4  10  22  41  65  96 126 168 215 265 314 392
#
# _framework density 21.948698
#
# number of rings (size 3 to 8) (size 9 to 14) (size 15 to 20)
#    0.000    1.500    2.500    2.250    5.250    2.000 
#    0.000    3.125    0.000    0.000    0.000    0.000 
#    0.000    0.000    0.000    0.000    0.000    0.000 
#
# Total GULP energy -89221.290879 kJ/mol
# GULP energy per Si atom -5576.330680 kJ/mol
# Density = 2.189874 g / cm^3
# Si number density = 21.948698 Si / 1000 Ang^3
#
#
#
# Elastic Constant Matrix: (Units=GPa)
#
#
# Indices 1 2 3 4 5 6 
#
# 1 123.7141 27.3430 -4.5292 -10.3864 -21.9434 -31.9389
# 2 27.3430 33.5206 46.6038 -12.6706 -11.6206 2.4547
# 3 -4.5292 46.6038 28.8419 -12.7359 -9.4883 -39.9778
# 4 -10.3864 -12.6706 -12.7359 10.0749 8.1700 2.3955
# 5 -21.9434 -11.6206 -9.4883 8.1700 22.7133 6.0414
# 6 -31.9389 2.4547 -39.9778 2.3955 6.0414 26.0167
#
#
#
# Elastic Compliance Matrix: (Units=1/GPa)
#
#
# Indices 1 2 3 4 5 6 
#
# 1 0.007842 0.004795 -0.005793 0.000927 0.007702 -0.001601
# 2 0.004795 0.022296 0.013884 0.045689 -0.000167 0.020949
# 3 -0.005793 0.013884 -0.002818 0.011243 -0.000051 -0.013775
# 4 0.000927 0.045689 0.011243 0.209320 -0.047909 0.005955
# 5 0.007702 -0.000167 -0.000051 -0.047909 0.069196 -0.002264
# 6 -0.001601 0.020949 -0.013775 0.005955 -0.002264 0.013305
#
#
# Mechanical properties :
#
#
# Convention : Reuss Voigt Hill
#
# Bulk Modulus (GPa) = 18.83512 36.10131 27.46821
# Shear Modulus (GPa) = 16.07372 19.53825 17.80598
#
# Velocity S-wave (km/s) = 2.70910 2.98682 2.85134
# Velocity P-wave (km/s) = 4.28785 5.32715 4.83551
#
# Compressibility (1/GPa) = 0.05309232
#
# Stress axis : x y z
#
# Youngs Moduli (GPa) = 127.52220 44.85057 -354.89454
#
# Poissons Ratio (x) = -0.21506 -2.05594
# Poissons Ratio (y) = -0.61148 4.92737
# Poissons Ratio (z) = 0.73875 -0.62271
#
# Static dielectric constant tensor:
#      x y z
#    x 1.780800 0.002990 -0.004830 
#    y 0.002990 1.944980 -0.001000 
#    z -0.004830 -0.001000 1.891590 
# 
# From -- ./inp_files/398580.got.cif
#   From: 2010.05.17/outbox.ucp.g08.bks.cvg/sg2_200_cif.got.tgz:398580.got - 2010.06.11 11:32:03.
