data_PCOD9072235
_publ_section_title
;
Structure prediction by ZEFSAII (Michael W. Deem and Ramdas Pophale) SiO2 
 PCOD9072235
Probable space group: P -1
;
_chemical_formula_sum "Si O2"
_cell_formula_units_Z 16
_cell_length_a 12.877297
_cell_length_b 26.565575
_cell_length_c 20.116188
_cell_angle_alpha 166.506830
_cell_angle_beta 154.908699
_cell_angle_gamma 25.384334
_cell_volume 662.556814
_symmetry_space_group_name_H-M "P -1"
_symmetry_group_IT_number 2
_symmetry_cell_setting 'triclinic'
loop_
_space_group_symop_operation_xyz
x,y,z
-x,-y,-z
loop_
_atom_site_type_symbol
_atom_site_label
_atom_site_fract_x
_atom_site_fract_y
_atom_site_fract_z
Si Si1 0.471682 0.553618 0.657664
Si Si2 0.174720 0.600887 0.016142
Si Si3 0.129515 0.840793 0.927838
Si Si4 0.734325 0.445723 0.136271
Si Si5 0.551796 0.004417 0.456989
Si Si6 0.002878 0.712131 0.381554
Si Si7 0.367628 0.165779 0.004760
Si Si8 0.146823 0.151086 0.090313
O O1 0.385973 0.366894 0.323926
O O2 0.510185 0.754329 0.889077
O O3 0.745411 0.435904 0.691135
O O4 0.292244 0.633166 0.716886
O O5 0.466757 0.610721 0.213944
O O6 0.101076 0.432378 0.809656
O O7 0.933338 0.812657 0.149813
O O8 0.172084 0.494341 0.804018
O O9 0.940557 0.797347 0.818485
O O10 0.316212 0.963997 0.231030
O O11 0.000000 0.000000 0.000000
O O12 0.635256 0.227623 0.778807
O O13 0.963607 0.344732 0.189488
O O14 0.788094 0.804168 0.322716
O O15 0.500000 0.000000 0.500000
O O16 0.069351 0.926755 0.731152
O O17 0.547622 0.937378 0.843482
#
# Coordination Sequence:
#
# PCOD9072235 Si02
#       8
#     2   2   2   2   2   2   2   2
#     4   9  19  30  51  84 107 135 178 224 270 316
#     4  10  18  30  53  82 103 140 189 216 259 322
#     4  12  21  29  53  89 107 134 177 231 269 321
#     4  10  20  32  53  81 105 142 185 221 256 326
#     4  11  19  35  56  78 109 140 176 228 269 311
#     4   9  17  35  57  75 105 141 177 222 265 314
#     4   9  18  33  52  74 115 143 170 223 275 316
#     4  10  18  35  54  81 108 138 178 226 268 311
#
# _framework density 24.148872000000001
#
# number of rings (size 3 to 8) (size 9 to 14) (size 15 to 20)
#    0.000    2.000    5.000    0.750    1.750    1.000 
#    0.000    0.000    0.000    3.750    3.250    0.000 
#    0.000    0.000    0.000    0.000    0.000    0.000 
#
# Total GULP energy -89336.211005 kJ/mol
# GULP energy per Si atom -5583.513188 kJ/mol
# Density = 2.409391 g / cm^3
# Si number density = 24.148872 Si / 1000 Ang^3
#
#
#
# Elastic Constant Matrix: (Units=GPa)
#
#
# Indices 1 2 3 4 5 6 
#
# 1 68.5262 45.4052 23.2000 12.0610 -17.6244 -13.3923
# 2 45.4052 232.1213 28.7228 23.3834 -5.7340 -10.1845
# 3 23.2000 28.7228 53.7770 -0.9990 -9.0884 -5.6471
# 4 12.0610 23.3834 -0.9990 26.1603 -7.9238 -9.8924
# 5 -17.6244 -5.7340 -9.0884 -7.9238 25.4042 1.1030
# 6 -13.3923 -10.1845 -5.6471 -9.8924 1.1030 38.7374
#
#
#
# Elastic Compliance Matrix: (Units=1/GPa)
#
#
# Indices 1 2 3 4 5 6 
#
# 1 0.023234 -0.003042 -0.005783 -0.002415 0.012374 0.005420
# 2 -0.003042 0.005589 -0.002440 -0.005110 -0.003266 -0.001150
# 3 -0.005783 -0.002440 0.023994 0.008895 0.006668 0.002939
# 4 -0.002415 -0.005110 0.008895 0.053993 0.016654 0.012432
# 5 0.012374 -0.003266 0.006668 0.016654 0.054483 0.007093
# 6 0.005420 -0.001150 0.002939 0.012432 0.007093 0.030788
#
#
# Mechanical properties :
#
#
# Convention : Reuss Voigt Hill
#
# Bulk Modulus (GPa) = 33.01858 61.00896 47.01377
# Shear Modulus (GPa) = 22.25128 35.20013 28.72570
#
# Velocity S-wave (km/s) = 3.03878 3.82203 3.45269
# Velocity P-wave (km/s) = 5.10048 6.69297 5.95024
#
# Compressibility (1/GPa) = 0.03028598
#
# Stress axis : x y z
#
# Youngs Moduli (GPa) = 43.04106 178.92839 41.67681
#
# Poissons Ratio (x) = 0.54437 0.24100
# Poissons Ratio (y) = 0.13095 0.10170
# Poissons Ratio (z) = 0.24889 0.43663
#
# Static dielectric constant tensor:
#      x y z
#    x 1.985230 0.006180 -0.007810 
#    y 0.006180 2.119220 0.031210 
#    z -0.007810 0.031210 1.894790 
# 
# From -- ./inp_files/598654.got.cif
#   From: 2010.05.17/outbox.cif.g08.bks.cpg/sg2_300_cif.got.tgz:598654.got - 2010.06.03 11:33:40.
