data_PCOD9072206
_publ_section_title
;
Structure prediction by ZEFSAII (Michael W. Deem and Ramdas Pophale) SiO2 
 PCOD9072206
Probable space group: P -1
;
_chemical_formula_sum "Si O2"
_cell_formula_units_Z 16
_cell_length_a 9.000000
_cell_length_b 6.000000
_cell_length_c 18.000000
_cell_angle_alpha 130.000000
_cell_angle_beta 100.000000
_cell_angle_gamma 90.000000
_cell_volume 725.212580
_symmetry_space_group_name_H-M "P -1"
_symmetry_group_IT_number 2
_symmetry_cell_setting 'triclinic'
loop_
_space_group_symop_operation_xyz
x,y,z
-x,-y,-z
loop_
_atom_site_type_symbol
_atom_site_label
_atom_site_fract_x
_atom_site_fract_y
_atom_site_fract_z
Si Si1 0.286079 0.111707 0.987582
Si Si2 0.698002 0.898278 0.553682
Si Si3 0.062333 0.515158 0.117588
Si Si4 0.029736 0.619834 0.313567
Si Si5 0.290458 0.508527 0.786146
Si Si6 0.794712 0.839752 0.716958
Si Si7 0.497221 0.583456 0.345629
Si Si8 0.701046 0.433177 0.038508
O O1 0.147542 0.247725 0.042300
O O2 0.646366 0.083248 0.981347
O O3 0.353004 0.391818 0.999951
O O4 0.251252 0.839226 0.868556
O O5 0.748475 0.811531 0.620606
O O6 0.621645 0.646625 0.436845
O O7 0.850402 0.112732 0.586532
O O8 0.571683 0.112549 0.602082
O O9 0.062724 0.547480 0.214255
O O10 0.888888 0.471943 0.062082
O O11 0.158823 0.834252 0.175595
O O12 0.061089 0.330992 0.297269
O O13 0.856681 0.673172 0.304616
O O14 0.427778 0.496951 0.740930
O O15 0.325811 0.408584 0.851105
O O16 0.646568 0.663479 0.705069
#
# Coordination Sequence:
#
# PCOD9072206 Si02
#       8
#     2   2   2   2   2   2   2   2
#     4  10  20  33  54  87 119 156 192 239 288 341
#     4   9  20  37  59  80 108 147 198 236 292 346
#     4  10  19  31  55  81 112 156 191 239 278 341
#     4   9  19  35  53  86 112 146 187 249 285 347
#     4   9  21  34  56  83 121 151 192 237 300 341
#     4  10  20  34  58  80 114 144 200 234 288 341
#     4  10  20  39  57  81 110 153 189 241 288 361
#     4   9  20  33  54  84 121 154 195 236 287 341
#
# _framework density 22.062495999999999
#
# number of rings (size 3 to 8) (size 9 to 14) (size 15 to 20)
#    0.750    1.750    0.000    1.875    1.750    1.500 
#    0.000    1.250    0.000    7.500    0.000    0.000 
#    0.000    0.000    0.000    0.000    0.000    0.000 
#
# Total GULP energy -89163.139311 kJ/mol
# GULP energy per Si atom -5572.696207 kJ/mol
# Density = 2.201228 g / cm^3
# Si number density = 22.062496 Si / 1000 Ang^3
#
#
#
# Elastic Constant Matrix: (Units=GPa)
#
#
# Indices 1 2 3 4 5 6 
#
# 1 41.3600 23.2354 18.0307 -2.9807 4.8537 10.9092
# 2 23.2354 114.5513 10.7701 -8.7269 1.8031 -1.8135
# 3 18.0307 10.7701 51.0943 2.7589 6.2890 6.6250
# 4 -2.9807 -8.7269 2.7589 27.1321 -3.4170 7.6498
# 5 4.8537 1.8031 6.2890 -3.4170 27.2801 -13.9126
# 6 10.9092 -1.8135 6.6250 7.6498 -13.9126 23.0976
#
#
#
# Elastic Compliance Matrix: (Units=1/GPa)
#
#
# Indices 1 2 3 4 5 6 
#
# 1 0.045325 -0.007931 -0.007027 0.010851 -0.023962 -0.038042
# 2 -0.007931 0.010567 -0.001060 0.001152 0.004901 0.007450
# 3 -0.007027 -0.001060 0.024595 -0.002366 -0.008940 -0.008420
# 4 0.010851 0.001152 -0.002366 0.044389 -0.008113 -0.023944
# 5 -0.023962 0.004901 -0.008940 -0.008113 0.072584 0.060674
# 6 -0.038042 0.007450 -0.008420 -0.023944 0.060674 0.108739
#
#
# Mechanical properties :
#
#
# Convention : Reuss Voigt Hill
#
# Bulk Modulus (GPa) = 20.63981 34.56421 27.60201
# Shear Modulus (GPa) = 14.10898 25.83326 19.97112
#
# Velocity S-wave (km/s) = 2.53158 3.42557 3.01193
# Velocity P-wave (km/s) = 4.23328 5.59880 4.96323
#
# Compressibility (1/GPa) = 0.04845005
#
# Stress axis : x y z
#
# Youngs Moduli (GPa) = 22.06292 94.63700 40.65912
#
# Poissons Ratio (x) = 0.75060 0.28571
# Poissons Ratio (y) = 0.17499 0.04309
# Poissons Ratio (z) = 0.15503 0.10030
#
# Static dielectric constant tensor:
#      x y z
#    x 1.864740 0.046350 0.017280 
#    y 0.046350 1.896210 -0.006390 
#    z 0.017280 -0.006390 1.756750 
# 
# From -- ./inp_files/553963.got.cif
#   From: 2010.05.17/outbox.ucp.g08.bks.cvg/sg2_277_cif.got.tgz:553963.got - 2010.06.11 11:32:03.
