data_PCOD9072658
_publ_section_title
;
Structure prediction by ZEFSAII (Michael W. Deem and Ramdas Pophale) SiO2 
 PCOD9072658
Probable space group: P -1
;
_chemical_formula_sum "Si O2"
_cell_formula_units_Z 14
_cell_length_a 15.802680
_cell_length_b 10.720940
_cell_length_c 9.401117
_cell_angle_alpha 128.303181
_cell_angle_beta 133.509145
_cell_angle_gamma 28.670917
_cell_volume 553.648045
_symmetry_space_group_name_H-M "P -1"
_symmetry_group_IT_number 2
_symmetry_cell_setting 'triclinic'
loop_
_space_group_symop_operation_xyz
x,y,z
-x,-y,-z
loop_
_atom_site_type_symbol
_atom_site_label
_atom_site_fract_x
_atom_site_fract_y
_atom_site_fract_z
Si Si1 0.651702 0.418967 0.281493
Si Si2 0.539308 0.799219 0.627682
Si Si3 0.431155 0.245725 0.783615
Si Si4 0.149471 0.308789 0.410391
Si Si5 0.044357 0.007855 0.285802
Si Si6 0.876887 0.367004 0.070617
Si Si7 0.596221 0.260203 0.345024
O O1 0.666434 0.529925 0.507927
O O2 0.521823 0.645868 0.171203
O O3 0.578050 0.340147 0.219450
O O4 0.852738 0.172896 0.265059
O O5 0.490231 0.807614 0.738916
O O6 0.583497 0.938611 0.756242
O O7 0.330753 0.007202 0.455761
O O8 0.264580 0.349243 0.558979
O O9 0.317521 0.376472 0.892804
O O10 0.000000 0.500000 0.500000
O O11 0.013713 0.365477 0.182767
O O12 0.181493 0.964295 0.512740
O O13 0.140246 0.743517 0.150430
O O14 0.989241 0.161768 0.187315
O O15 0.500000 0.500000 0.500000
#
# Coordination Sequence:
#
# PCOD9072658 Si02
#       7
#     2   2   2   2   2   2   2
#     4  10  19  30  48  77 100 124 160 207 244 284
#     4   9  17  30  51  73  97 124 169 198 239 281
#     4   8  16  29  52  74  95 124 167 202 239 273
#     4   8  14  27  49  75  92 124 161 201 235 280
#     4  10  18  31  49  74 103 128 159 200 252 285
#     4   9  16  29  52  75  99 126 163 202 242 293
#     4  10  20  33  51  70  99 134 164 197 239 296
#
# _framework density 25.286822999999998
#
# number of rings (size 3 to 8) (size 9 to 14) (size 15 to 20)
#    0.857    2.000    1.429    0.857    0.000    0.000 
#    0.000    0.714    3.143    6.857    0.000    0.000 
#    0.000    0.000    0.000    0.000    0.000    0.000 
#
# Total GULP energy -78042.699962 kJ/mol
# GULP energy per Si atom -5574.478569 kJ/mol
# Density = 2.522927 g / cm^3
# Si number density = 25.286823 Si / 1000 Ang^3
#
#
#
# Elastic Constant Matrix: (Units=GPa)
#
#
# Indices 1 2 3 4 5 6 
#
# 1 129.2810 10.4950 31.3364 -6.1837 -17.5405 19.5461
# 2 10.4950 57.2717 22.2802 17.8574 -9.9930 -4.7216
# 3 31.3364 22.2802 91.9733 -3.2332 -12.4045 6.0664
# 4 -6.1837 17.8574 -3.2332 35.6924 -0.9737 -6.8713
# 5 -17.5405 -9.9930 -12.4045 -0.9737 40.4605 0.6545
# 6 19.5461 -4.7216 6.0664 -6.8713 0.6545 33.8458
#
#
#
# Elastic Compliance Matrix: (Units=1/GPa)
#
#
# Indices 1 2 3 4 5 6 
#
# 1 0.009644 -0.001110 -0.002185 0.001124 0.003348 -0.005169
# 2 -0.001110 0.024575 -0.005705 -0.012427 0.003500 0.002501
# 3 -0.002185 -0.005705 0.013459 0.003501 0.001875 -0.001272
# 4 0.001124 -0.012427 0.003501 0.035539 -0.000721 0.004218
# 5 0.003348 0.003500 0.001875 -0.000721 0.027628 -0.002462
# 6 -0.005169 0.002501 -0.001272 0.004218 -0.002462 0.034012
#
#
# Mechanical properties :
#
#
# Convention : Reuss Voigt Hill
#
# Bulk Modulus (GPa) = 33.69416 45.19433 39.44424
# Shear Modulus (GPa) = 28.94348 36.29405 32.61876
#
# Velocity S-wave (km/s) = 3.38687 3.79264 3.59549
# Velocity P-wave (km/s) = 5.35241 6.09018 5.73317
#
# Compressibility (1/GPa) = 0.02967874
#
# Stress axis : x y z
#
# Youngs Moduli (GPa) = 103.68743 40.69165 74.29969
#
# Poissons Ratio (x) = 0.04516 0.16235
# Poissons Ratio (y) = 0.11508 0.42387
# Poissons Ratio (z) = 0.22657 0.23214
#
# Static dielectric constant tensor:
#      x y z
#    x 2.054130 0.089370 0.037060 
#    y 0.089370 2.029380 0.000860 
#    z 0.037060 0.000860 2.074510 
# 
# From -- ./inp_files/331285.got.cif
#   From: 2010.05.17/outbox.cif.g08.bks.cpg/sg2_166_cif.got.tgz:331285.got - 2010.06.03 11:33:40.
