data_PCOD9072541
_publ_section_title
;
Structure prediction by ZEFSAII (Michael W. Deem and Ramdas Pophale) SiO2 
 PCOD9072541
Probable space group: P -1
;
_chemical_formula_sum "Si O2"
_cell_formula_units_Z 14
_cell_length_a 16.085886
_cell_length_b 9.643874
_cell_length_c 11.647931
_cell_angle_alpha 103.892688
_cell_angle_beta 39.042040
_cell_angle_gamma 130.725753
_cell_volume 715.458352
_symmetry_space_group_name_H-M "P -1"
_symmetry_group_IT_number 2
_symmetry_cell_setting 'triclinic'
loop_
_space_group_symop_operation_xyz
x,y,z
-x,-y,-z
loop_
_atom_site_type_symbol
_atom_site_label
_atom_site_fract_x
_atom_site_fract_y
_atom_site_fract_z
Si Si1 0.954012 0.650052 0.679316
Si Si2 0.111199 0.520836 0.027696
Si Si3 0.349167 0.797049 0.211878
Si Si4 0.019103 0.952840 0.813603
Si Si5 0.273955 0.370543 0.736143
Si Si6 0.708528 0.042250 0.336178
Si Si7 0.592189 0.996998 0.218727
O O1 0.772453 0.439890 0.754206
O O2 0.168971 0.760780 0.430165
O O3 0.973831 0.835990 0.719725
O O4 0.905330 0.545167 0.836160
O O5 0.252446 0.521796 0.810027
O O6 0.198439 0.750655 0.986210
O O7 0.886649 0.307410 0.176526
O O8 0.476059 0.857293 0.200851
O O9 0.500000 0.000000 0.000000
O O10 0.189500 0.994826 0.703490
O O11 0.121635 0.191949 0.762527
O O12 0.825571 0.777874 0.070378
O O13 0.500000 0.500000 0.500000
O O14 0.544399 0.991236 0.575284
O O15 0.629861 0.926417 0.273454
#
# Coordination Sequence:
#
# PCOD9072541 Si02
#       7
#     2   2   2   2   2   2   2
#     4   9  19  30  43  64  97 122 152 194 230 264
#     4  10  18  31  45  70  98 119 152 195 233 273
#     4  11  19  29  46  66  92 130 159 188 221 273
#     4   9  17  32  44  67  97 120 148 195 234 268
#     4   9  17  26  48  68  89 119 154 190 237 274
#     4   9  19  30  44  65  99 127 148 186 230 280
#     4  11  18  29  47  67  95 129 155 179 228 284
#
# _framework density 19.567875000000001
#
# number of rings (size 3 to 8) (size 9 to 14) (size 15 to 20)
#    0.000    2.571    4.286    1.286    0.000    0.000 
#    0.000    0.000    0.000    0.000    0.000   16.000 
#    0.000   42.286    0.000    0.000    0.000    0.000 
#
# Total GULP energy -77965.565893 kJ/mol
# GULP energy per Si atom -5568.968992 kJ/mol
# Density = 1.952334 g / cm^3
# Si number density = 19.567875 Si / 1000 Ang^3
#
#
#
# Elastic Constant Matrix: (Units=GPa)
#
#
# Indices 1 2 3 4 5 6 
#
# 1 51.3098 21.2239 -4.5864 -0.6030 1.8286 25.2127
# 2 21.2239 144.1015 25.6820 -1.0527 3.4060 33.8243
# 3 -4.5864 25.6820 70.5377 0.8433 -5.7120 -1.4190
# 4 -0.6030 -1.0527 0.8433 25.7960 4.8651 -3.1141
# 5 1.8286 3.4060 -5.7120 4.8651 13.2361 6.3128
# 6 25.2127 33.8243 -1.4190 -3.1141 6.3128 36.3673
#
#
#
# Elastic Compliance Matrix: (Units=1/GPa)
#
#
# Indices 1 2 3 4 5 6 
#
# 1 0.030692 0.000347 0.002193 -0.003915 0.009242 -0.023455
# 2 0.000347 0.009793 -0.003667 -0.000786 0.000761 -0.009691
# 3 0.002193 -0.003667 0.016344 -0.002019 0.007973 0.000971
# 4 -0.003915 -0.000786 -0.002019 0.044079 -0.021517 0.010876
# 5 0.009242 0.000761 0.007973 -0.021517 0.097635 -0.025594
# 6 -0.023455 -0.009691 0.000971 0.010876 -0.025594 0.058184
#
#
# Mechanical properties :
#
#
# Convention : Reuss Voigt Hill
#
# Bulk Modulus (GPa) = 18.32366 38.95420 28.63893
# Shear Modulus (GPa) = 18.03933 29.98851 24.01392
#
# Velocity S-wave (km/s) = 3.03955 3.91901 3.50696
# Velocity P-wave (km/s) = 4.65864 6.35835 5.57367
#
# Compressibility (1/GPa) = 0.05457424
#
# Stress axis : x y z
#
# Youngs Moduli (GPa) = 32.58207 102.11337 61.18542
#
# Poissons Ratio (x) = -0.03546 -0.13415
# Poissons Ratio (y) = -0.01131 0.22436
# Poissons Ratio (z) = -0.07144 0.37444
#
# Static dielectric constant tensor:
#      x y z
#    x 1.723820 -0.018650 0.014220 
#    y -0.018650 1.785390 -0.027740 
#    z 0.014220 -0.027740 1.725830 
# 
# From -- ./inp_files/431573.got.cif
#   From: 2010.05.17/outbox.cif.g08.bks.cpg/sg2_216_cif.got.tgz:431573.got - 2010.06.03 11:33:40.
