data_PCOD9072096
_publ_section_title
;
Structure prediction by ZEFSAII (Michael W. Deem and Ramdas Pophale) SiO2 
 PCOD9072096
Probable space group: P -1
;
_chemical_formula_sum "Si O2"
_cell_formula_units_Z 14
_cell_length_a 15.000000
_cell_length_b 12.000000
_cell_length_c 12.000000
_cell_angle_alpha 110.000000
_cell_angle_beta 30.000000
_cell_angle_gamma 130.000000
_cell_volume 685.204602
_symmetry_space_group_name_H-M "P -1"
_symmetry_group_IT_number 2
_symmetry_cell_setting 'triclinic'
loop_
_space_group_symop_operation_xyz
x,y,z
-x,-y,-z
loop_
_atom_site_type_symbol
_atom_site_label
_atom_site_fract_x
_atom_site_fract_y
_atom_site_fract_z
Si Si1 0.238546 0.903225 0.937085
Si Si2 0.761425 0.870176 0.122071
Si Si3 0.027605 0.132823 0.347535
Si Si4 0.609656 0.748531 0.794706
Si Si5 0.612901 0.131870 0.821703
Si Si6 0.321514 0.676367 0.707578
Si Si7 0.604596 0.634080 0.537069
O O1 0.918178 0.757256 0.246957
O O2 0.817380 0.931955 0.558242
O O3 0.334459 0.823433 0.762599
O O4 0.300089 0.030059 0.821670
O O5 0.487952 0.706563 0.430270
O O6 0.859953 0.850180 0.893093
O O7 0.000000 0.000000 0.000000
O O8 0.245427 0.236655 0.247833
O O9 0.878342 0.187842 0.520752
O O10 0.519953 0.605573 0.750716
O O11 0.399391 0.017292 0.913407
O O12 0.396197 0.737424 0.074632
O O13 0.500000 0.000000 0.000000
O O14 0.484251 0.697954 0.640758
O O15 0.000000 0.500000 0.000000
O O16 0.500000 0.500000 0.500000
#
# Coordination Sequence:
#
# PCOD9072096 Si02
#       7
#     2   2   2   2   2   2   2
#     4  12  22  40  65  99 129 170 224 275 327 384
#     4  12  22  40  67  98 135 170 226 284 327 383
#     4  10  19  35  59  95 127 163 211 279 328 380
#     4  10  18  36  59  92 129 164 215 270 328 388
#     4  10  19  32  61  98 130 161 211 279 328 385
#     4  12  26  42  62  96 136 179 218 271 342 401
#     4  12  23  41  64  93 132 178 219 265 330 404
#
# _framework density 20.431853
#
# number of rings (size 3 to 8) (size 9 to 14) (size 15 to 20)
#    0.000    0.857    5.714    4.714    0.000    0.000 
#    0.000    0.000    0.000    1.714    0.000    0.000 
#    0.000    0.000    0.000    0.000    0.000    0.000 
#
# Total GULP energy -77941.191457 kJ/mol
# GULP energy per Si atom -5567.227961 kJ/mol
# Density = 2.038535 g / cm^3
# Si number density = 20.431853 Si / 1000 Ang^3
#
#
#
# Elastic Constant Matrix: (Units=GPa)
#
#
# Indices 1 2 3 4 5 6 
#
# 1 180.2892 42.1167 46.5490 19.7549 -10.3619 19.1067
# 2 42.1167 84.0767 33.1723 40.9595 -1.4103 18.7229
# 3 46.5490 33.1723 139.5204 41.1549 -0.6751 8.9860
# 4 19.7549 40.9595 41.1549 44.0544 -1.9274 4.6356
# 5 -10.3619 -1.4103 -0.6751 -1.9274 44.0180 16.6233
# 6 19.1067 18.7229 8.9860 4.6356 16.6233 39.0811
#
#
#
# Elastic Compliance Matrix: (Units=1/GPa)
#
#
# Indices 1 2 3 4 5 6 
#
# 1 0.007010 -0.002942 -0.001991 0.001880 0.002717 -0.002939
# 2 -0.002942 0.026760 0.002608 -0.024779 0.003020 -0.010327
# 3 -0.001991 0.002608 0.010640 -0.011347 -0.000237 -0.001275
# 4 0.001880 -0.024779 -0.011347 0.054665 -0.000958 0.007484
# 5 0.002717 0.003020 -0.000237 -0.000958 0.029062 -0.014969
# 6 -0.002939 -0.010327 -0.001275 0.007484 -0.014969 0.037744
#
#
# Mechanical properties :
#
#
# Convention : Reuss Voigt Hill
#
# Bulk Modulus (GPa) = 25.15141 71.95137 48.55139
# Shear Modulus (GPa) = 27.20571 44.23391 35.71981
#
# Velocity S-wave (km/s) = 3.65298 4.65795 4.18573
# Velocity P-wave (km/s) = 5.48899 8.01376 6.86838
#
# Compressibility (1/GPa) = 0.03975920
#
# Stress axis : x y z
#
# Youngs Moduli (GPa) = 142.66167 37.36878 93.98504
#
# Poissons Ratio (x) = 0.10992 0.18717
# Poissons Ratio (y) = 0.41965 -0.24508
# Poissons Ratio (z) = 0.28410 -0.09745
#
# Static dielectric constant tensor:
#      x y z
#    x 1.647760 -0.065110 0.069720 
#    y -0.065110 1.789680 0.017510 
#    z 0.069720 0.017510 1.739460 
# 
# From -- ./inp_files/450380.got.cif
#   From: 2010.05.17/outbox.ucp.g08.bks.cvg/sg2_226_cif.got.tgz:450380.got - 2010.06.11 11:32:03.
