data_PCOD9072167
_publ_section_title
;
Structure prediction by ZEFSAII (Michael W. Deem and Ramdas Pophale) SiO2 
 PCOD9072167
Probable space group: P -1
;
_chemical_formula_sum "Si O2"
_cell_formula_units_Z 14
_cell_length_a 5.567304
_cell_length_b 16.559726
_cell_length_c 8.828107
_cell_angle_alpha 131.647326
_cell_angle_beta 62.672753
_cell_angle_gamma 123.382063
_cell_volume 502.116543
_symmetry_space_group_name_H-M "P -1"
_symmetry_group_IT_number 2
_symmetry_cell_setting 'triclinic'
loop_
_space_group_symop_operation_xyz
x,y,z
-x,-y,-z
loop_
_atom_site_type_symbol
_atom_site_label
_atom_site_fract_x
_atom_site_fract_y
_atom_site_fract_z
Si Si1 0.216570 0.174564 0.233322
Si Si2 0.186187 0.742615 0.713810
Si Si3 0.143209 0.957639 0.180679
Si Si4 0.455677 0.731559 0.049565
Si Si5 0.439905 0.096301 0.541574
Si Si6 0.067944 0.503694 0.808029
Si Si7 0.326590 0.463130 0.257024
O O1 0.485866 0.251635 0.357091
O O2 0.106094 0.046571 0.177944
O O3 0.955312 0.221620 0.348734
O O4 0.341325 0.186567 0.038158
O O5 0.949152 0.613790 0.657254
O O6 0.210154 0.851967 0.956080
O O7 0.395443 0.046423 0.323975
O O8 0.872389 0.904977 0.308037
O O9 0.354511 0.787177 0.288634
O O10 0.605097 0.646125 0.967645
O O11 0.196716 0.643384 0.915569
O O12 0.500000 0.000000 0.500000
O O13 0.360738 0.473974 0.671642
O O14 0.000000 0.500000 0.000000
O O15 0.778398 0.463766 0.741755
#
# Coordination Sequence:
#
# PCOD9072167 Si02
#       7
#     2   2   2   2   2   2   2
#     4  11  21  33  55  74 101 139 182 220 255 297
#     4  11  19  35  53  76 103 139 175 221 259 299
#     4  11  23  32  50  75 103 144 186 211 251 306
#     4   9  20  34  53  75 109 138 173 219 262 300
#     4  11  23  36  49  74 109 149 181 214 253 307
#     4  10  18  30  52  78 104 131 166 212 272 319
#     4   9  17  31  50  75 106 132 164 213 268 305
#
# _framework density 27.881972000000001
#
# number of rings (size 3 to 8) (size 9 to 14) (size 15 to 20)
#    0.857    0.857    4.286    2.143    2.000    0.000 
#    0.000    0.000    0.000    0.000    0.000    1.000 
#    0.000    6.000    0.000    0.000    0.000    0.000 
#
# Total GULP energy -78071.542079 kJ/mol
# GULP energy per Si atom -5576.538720 kJ/mol
# Density = 2.781851 g / cm^3
# Si number density = 27.881972 Si / 1000 Ang^3
#
#
#
# Elastic Constant Matrix: (Units=GPa)
#
#
# Indices 1 2 3 4 5 6 
#
# 1 231.4126 26.3508 31.2815 6.3472 22.6559 -15.1584
# 2 26.3508 86.9584 13.5319 -12.0492 -3.3510 -9.2846
# 3 31.2815 13.5319 117.4598 6.6955 9.7290 -14.2629
# 4 6.3472 -12.0492 6.6955 36.0196 -5.2333 -0.0240
# 5 22.6559 -3.3510 9.7290 -5.2333 35.6449 1.6314
# 6 -15.1584 -9.2846 -14.2629 -0.0240 1.6314 60.5591
#
#
#
# Elastic Compliance Matrix: (Units=1/GPa)
#
#
# Indices 1 2 3 4 5 6 
#
# 1 0.005062 -0.001728 -0.000636 -0.001863 -0.003523 0.000947
# 2 -0.001728 0.013291 -0.001540 0.005551 0.003530 0.001150
# 3 -0.000636 -0.001540 0.009470 -0.002567 -0.002789 0.001909
# 4 -0.001863 0.005551 -0.002567 0.031448 0.007042 -0.000397
# 5 -0.003523 0.003530 -0.002789 0.007042 0.032506 -0.001870
# 6 0.000947 0.001150 0.001909 -0.000397 -0.001870 0.017426
#
#
# Mechanical properties :
#
#
# Convention : Reuss Voigt Hill
#
# Bulk Modulus (GPa) = 49.96453 64.23993 57.10223
# Shear Modulus (GPa) = 40.42612 50.75582 45.59097
#
# Velocity S-wave (km/s) = 3.81189 4.27122 4.04808
# Velocity P-wave (km/s) = 6.11007 6.88581 6.50951
#
# Compressibility (1/GPa) = 0.02001420
#
# Stress axis : x y z
#
# Youngs Moduli (GPa) = 197.54905 75.23953 105.60095
#
# Poissons Ratio (x) = 0.13000 0.06717
# Poissons Ratio (y) = 0.34132 0.16265
# Poissons Ratio (z) = 0.12566 0.11589
#
# Static dielectric constant tensor:
#      x y z
#    x 2.309490 0.136240 0.054510 
#    y 0.136240 2.366130 -0.027120 
#    z 0.054510 -0.027120 2.142650 
# 
# From -- ./inp_files/368401.got.cif
#   From: 2010.05.17/outbox.cif.g08.bks.cpg/sg2_185_cif.got.tgz:368401.got - 2010.06.03 11:33:40.
