data_PCOD9072769
_publ_section_title
;
Structure prediction by ZEFSAII (Michael W. Deem and Ramdas Pophale) SiO2 
 PCOD9072769
Probable space group: P -1
;
_chemical_formula_sum "Si O2"
_cell_formula_units_Z 16
_cell_length_a 19.431109
_cell_length_b 7.762334
_cell_length_c 4.995423
_cell_angle_alpha 86.660072
_cell_angle_beta 68.253179
_cell_angle_gamma 110.192373
_cell_volume 641.677116
_symmetry_space_group_name_H-M "P -1"
_symmetry_group_IT_number 2
_symmetry_cell_setting 'triclinic'
loop_
_space_group_symop_operation_xyz
x,y,z
-x,-y,-z
loop_
_atom_site_type_symbol
_atom_site_label
_atom_site_fract_x
_atom_site_fract_y
_atom_site_fract_z
Si Si1 0.025946 0.317127 0.894534
Si Si2 0.783558 0.156681 0.611396
Si Si3 0.072115 0.024308 0.608793
Si Si4 0.591244 0.112214 0.445209
Si Si5 0.226397 0.308623 0.108951
Si Si6 0.711725 0.928737 0.246747
Si Si7 0.895450 0.482276 0.747257
Si Si8 0.669182 0.353712 0.786621
O O1 0.068118 0.494057 0.012178
O O2 0.963604 0.613341 0.431247
O O3 0.076970 0.184162 0.803318
O O4 0.950858 0.165850 0.172749
O O5 0.858009 0.281887 0.679797
O O6 0.744340 0.306685 0.581400
O O7 0.779629 0.054181 0.346449
O O8 0.723625 0.010339 0.920607
O O9 0.156432 0.111956 0.325496
O O10 0.000000 0.000000 0.500000
O O11 0.602095 0.248171 0.672449
O O12 0.500000 0.000000 0.500000
O O13 0.632839 0.962393 0.453082
O O14 0.638333 0.249312 0.122897
O O15 0.174118 0.435086 0.128426
O O16 0.293923 0.426926 0.215495
O O17 0.274122 0.261070 0.804103
#
# Coordination Sequence:
#
# PCOD9072769 Si02
#       8
#     2   2   2   2   2   2   2   2
#     4  10  18  31  50  79 101 139 194 231 278 325
#     4   9  19  36  54  78 109 150 185 222 272 341
#     4  10  19  34  49  82 113 145 186 234 287 318
#     4  10  20  40  63  84 113 149 182 216 268 348
#     4  10  21  36  57  86 114 143 186 245 268 322
#     4  10  21  36  55  85 114 145 182 222 288 324
#     4  10  19  33  57  78 102 144 193 240 268 323
#     4   9  20  36  59  90 107 146 192 216 271 329
#
# _framework density 24.934659
#
# number of rings (size 3 to 8) (size 9 to 14) (size 15 to 20)
#    0.000    2.250    2.500    1.125    0.000    9.000 
#    0.000    1.250    0.000    4.500    0.000    0.000 
#    0.000    0.000    0.000    0.000    0.000    0.000 
#
# Total GULP energy -89344.898300 kJ/mol
# GULP energy per Si atom -5584.056144 kJ/mol
# Density = 2.487791 g / cm^3
# Si number density = 24.934659 Si / 1000 Ang^3
#
#
#
# Elastic Constant Matrix: (Units=GPa)
#
#
# Indices 1 2 3 4 5 6 
#
# 1 110.2056 43.9604 32.2221 10.4383 7.0783 21.5135
# 2 43.9604 125.9113 47.2622 35.9523 8.3434 15.5502
# 3 32.2221 47.2622 96.7084 30.0446 23.6572 -4.6318
# 4 10.4383 35.9523 30.0446 59.9516 -1.7390 10.0941
# 5 7.0783 8.3434 23.6572 -1.7390 46.7701 4.6565
# 6 21.5135 15.5502 -4.6318 10.0941 4.6565 39.1900
#
#
#
# Elastic Compliance Matrix: (Units=1/GPa)
#
#
# Indices 1 2 3 4 5 6 
#
# 1 0.012527 -0.002742 -0.004547 0.003023 0.001734 -0.007311
# 2 -0.002742 0.011821 -0.003713 -0.004314 0.000277 -0.002546
# 3 -0.004547 -0.003713 0.019085 -0.008429 -0.009566 0.009533
# 4 0.003023 -0.004314 -0.008429 0.024494 0.006283 -0.007999
# 5 0.001734 0.000277 -0.009566 0.006283 0.026838 -0.006999
# 6 -0.007311 -0.002546 0.009533 -0.007999 -0.006999 0.034559
#
#
# Mechanical properties :
#
#
# Convention : Reuss Voigt Hill
#
# Bulk Modulus (GPa) = 46.66696 64.41276 55.53986
# Shear Modulus (GPa) = 31.55158 43.14103 37.34630
#
# Velocity S-wave (km/s) = 3.56106 4.16404 3.87430
# Velocity P-wave (km/s) = 5.97198 7.00054 6.50662
#
# Compressibility (1/GPa) = 0.02142844
#
# Stress axis : x y z
#
# Youngs Moduli (GPa) = 79.82978 84.59537 52.39704
#
# Poissons Ratio (x) = 0.23196 0.23826
# Poissons Ratio (y) = 0.21889 0.19455
# Poissons Ratio (z) = 0.36300 0.31410
#
# Static dielectric constant tensor:
#      x y z
#    x 2.169180 -0.130690 -0.054980 
#    y -0.130690 2.050530 0.018430 
#    z -0.054980 0.018430 1.981890 
# 
# From -- ./inp_files/116327.got.cif
#   From: 2010.05.17/outbox.cif.g08.bks.cpg/sg2_59_cif.got.tgz:116327.got - 2010.06.03 11:33:40.
