data_PCOD9072689
_publ_section_title
;
Structure prediction by ZEFSAII (Michael W. Deem and Ramdas Pophale) SiO2 
 PCOD9072689
Probable space group: P -1
;
_chemical_formula_sum "Si O2"
_cell_formula_units_Z 16
_cell_length_a 19.544500
_cell_length_b 8.214053
_cell_length_c 21.631857
_cell_angle_alpha 37.838421
_cell_angle_beta 18.745845
_cell_angle_gamma 35.404648
_cell_volume 643.583294
_symmetry_space_group_name_H-M "P -1"
_symmetry_group_IT_number 2
_symmetry_cell_setting 'triclinic'
loop_
_space_group_symop_operation_xyz
x,y,z
-x,-y,-z
loop_
_atom_site_type_symbol
_atom_site_label
_atom_site_fract_x
_atom_site_fract_y
_atom_site_fract_z
Si Si1 0.777669 0.305576 0.245147
Si Si2 0.294467 0.631577 0.331350
Si Si3 0.716012 0.705587 0.285991
Si Si4 0.049465 0.784866 0.370949
Si Si5 0.155882 0.627427 0.608655
Si Si6 0.045321 0.735297 0.252527
Si Si7 0.621428 0.307719 0.241875
Si Si8 0.730653 0.813009 0.828240
O O1 0.780587 0.581560 0.198908
O O2 0.541832 0.277574 0.482044
O O3 0.760604 0.337812 0.175251
O O4 0.961193 0.005761 0.198607
O O5 0.238092 0.720242 0.281757
O O6 0.541464 0.493031 0.192237
O O7 0.152004 0.415162 0.527778
O O8 0.220557 0.950103 0.327841
O O9 0.869573 0.476750 0.270556
O O10 0.724467 0.999837 0.216215
O O11 0.103375 0.831916 0.240415
O O12 0.000000 0.500000 0.500000
O O13 0.831363 0.060748 0.489243
O O14 0.370616 0.398257 0.461809
O O15 0.931147 0.686017 0.744130
O O16 0.260757 0.469009 0.129090
O O17 0.500000 0.000000 0.000000
#
# Coordination Sequence:
#
# PCOD9072689 Si02
#       8
#     2   2   2   2   2   2   2   2
#     4  10  19  29  54  89 114 145 183 230 288 344
#     4  10  21  35  54  83 117 145 181 232 292 333
#     4  10  18  31  49  85 119 143 185 229 287 338
#     4   9  20  29  52  81 111 148 180 232 282 332
#     4  10  18  34  53  76 115 151 185 228 286 334
#     4  11  18  37  57  84 115 142 188 238 283 332
#     4  11  20  31  54  87 119 148 177 238 291 331
#     4  11  23  37  56  81 109 154 198 228 280 344
#
# _framework density 24.860807000000001
#
# number of rings (size 3 to 8) (size 9 to 14) (size 15 to 20)
#    0.000    1.750    3.750    2.625    3.500    0.000 
#    0.000    2.500    0.000    3.000    0.000    1.750 
#    0.000    0.000    0.000    0.000    0.000    0.000 
#
# Total GULP energy -89085.352367 kJ/mol
# GULP energy per Si atom -5567.834523 kJ/mol
# Density = 2.480422 g / cm^3
# Si number density = 24.860807 Si / 1000 Ang^3
#
#
#
# Elastic Constant Matrix: (Units=GPa)
#
#
# Indices 1 2 3 4 5 6 
#
# 1 196.2343 111.0303 -3.5406 14.9986 -8.6092 7.6274
# 2 111.0303 136.2418 69.9954 53.1157 14.4628 -21.9317
# 3 -3.5406 69.9954 34.0095 1.4040 1.0555 20.8452
# 4 14.9986 53.1157 1.4040 25.7507 0.4878 13.2570
# 5 -8.6092 14.4628 1.0555 0.4878 14.5923 16.6425
# 6 7.6274 -21.9317 20.8452 13.2570 16.6425 35.2781
#
#
#
# Elastic Compliance Matrix: (Units=1/GPa)
#
#
# Indices 1 2 3 4 5 6 
#
# 1 0.004944 0.000561 -0.002804 -0.005920 -0.001826 0.004023
# 2 0.000561 0.000122 0.005126 0.003817 0.010508 -0.009466
# 3 -0.002804 0.005126 0.013157 -0.014851 -0.019514 0.010805
# 4 -0.005920 0.003817 -0.014851 0.030802 -0.017760 0.009232
# 5 -0.001826 0.010508 -0.019514 -0.017760 0.065761 -0.005891
# 6 0.004023 -0.009466 0.010805 0.009232 -0.005891 0.014517
#
#
# Mechanical properties :
#
#
# Convention : Reuss Voigt Hill
#
# Bulk Modulus (GPa) = 41.68574 80.16175 60.92374
# Shear Modulus (GPa) = 38.01300 27.72424 32.86862
#
# Velocity S-wave (km/s) = 3.91453 3.34305 3.64002
# Velocity P-wave (km/s) = 6.10208 6.87136 6.49811
#
# Compressibility (1/GPa) = 0.02398902
#
# Stress axis : x y z
#
# Youngs Moduli (GPa) = 202.26373 8216.08779 76.00386
#
# Poissons Ratio (x) = -4.60780 0.21312
# Poissons Ratio (y) = -0.11343 -0.38961
# Poissons Ratio (z) = 0.56716 -42.11769
#
# Static dielectric constant tensor:
#      x y z
#    x 2.080690 0.073480 0.050620 
#    y 0.073480 2.062550 -0.058820 
#    z 0.050620 -0.058820 2.102330 
# 
# From -- ./inp_files/620917.got.cif
#   From: 2010.05.17/outbox.cif.g08.bks.cpg/sg2_311_cif.got.tgz:620917.got - 2010.06.03 11:33:40.
