data_PCOD9072798
_publ_section_title
;
Structure prediction by ZEFSAII (Michael W. Deem and Ramdas Pophale) SiO2 
 PCOD9072798
Probable space group: P -1
;
_chemical_formula_sum "Si O2"
_cell_formula_units_Z 14
_cell_length_a 24.622561
_cell_length_b 18.512729
_cell_length_c 8.383263
_cell_angle_alpha 148.486095
_cell_angle_beta 134.624013
_cell_angle_gamma 22.458144
_cell_volume 689.719361
_symmetry_space_group_name_H-M "P -1"
_symmetry_group_IT_number 2
_symmetry_cell_setting 'triclinic'
loop_
_space_group_symop_operation_xyz
x,y,z
-x,-y,-z
loop_
_atom_site_type_symbol
_atom_site_label
_atom_site_fract_x
_atom_site_fract_y
_atom_site_fract_z
Si Si1 0.366073 0.858226 0.491460
Si Si2 0.726321 0.673371 0.791975
Si Si3 0.046512 0.271162 0.720017
Si Si4 0.873696 0.784996 0.877868
Si Si5 0.571201 0.113071 0.877505
Si Si6 0.408231 0.679535 0.890113
Si Si7 0.434257 0.107564 0.805649
O O1 0.505116 0.598017 0.409797
O O2 0.322303 0.087394 0.846226
O O3 0.222377 0.983014 0.474504
O O4 0.405544 0.763298 0.211235
O O5 0.680159 0.687342 0.895812
O O6 0.607137 0.799189 0.654764
O O7 0.911245 0.382325 0.590764
O O8 0.049214 0.263569 0.903593
O O9 0.000000 0.500000 0.000000
O O10 0.000000 0.500000 0.500000
O O11 0.740360 0.893119 0.881284
O O12 0.766410 0.046869 0.030539
O O13 0.615777 0.939887 0.497857
O O14 0.460980 0.198876 0.923663
O O15 0.501592 0.363854 0.131104
#
# Coordination Sequence:
#
# PCOD9072798 Si02
#       7
#     2   2   2   2   2   2   2
#     4  10  18  35  51  76 107 131 168 213 263 306
#     4  10  19  32  51  80  98 135 166 211 252 300
#     4  10  19  30  51  77 107 129 166 216 259 298
#     4  10  18  32  52  80 106 124 167 217 259 298
#     4   9  18  32  48  79  98 133 167 209 250 299
#     4   9  20  32  52  77 105 134 164 212 264 301
#     4  10  18  31  51  72 104 132 172 206 238 307
#
# _framework density 20.298110999999999
#
# number of rings (size 3 to 8) (size 9 to 14) (size 15 to 20)
#    0.857    1.429    1.429    4.286    0.000    0.571 
#    0.000    0.000    0.000    1.714   14.857    0.000 
#    0.000    0.000    0.000    0.000    0.000    0.000 
#
# Total GULP energy -78026.975512 kJ/mol
# GULP energy per Si atom -5573.355394 kJ/mol
# Density = 2.025191 g / cm^3
# Si number density = 20.298111 Si / 1000 Ang^3
#
#
#
# Elastic Constant Matrix: (Units=GPa)
#
#
# Indices 1 2 3 4 5 6 
#
# 1 98.0262 9.4125 4.4089 15.0208 -10.2972 14.1432
# 2 9.4125 82.8412 -2.5981 4.1165 -0.7746 4.8872
# 3 4.4089 -2.5981 27.0848 1.5017 1.2995 4.6167
# 4 15.0208 4.1165 1.5017 28.6298 0.4771 0.7982
# 5 -10.2972 -0.7746 1.2995 0.4771 13.8309 -0.4400
# 6 14.1432 4.8872 4.6167 0.7982 -0.4400 36.0871
#
#
#
# Elastic Compliance Matrix: (Units=1/GPa)
#
#
# Indices 1 2 3 4 5 6 
#
# 1 0.013075 -0.000840 -0.001539 -0.006697 0.009918 -0.004545
# 2 -0.000840 0.012377 0.001666 -0.001382 -0.000090 -0.001531
# 3 -0.001539 0.001666 0.038407 -0.001240 -0.004764 -0.004567
# 4 -0.006697 -0.001382 -0.001240 0.038753 -0.006219 0.002037
# 5 0.009918 -0.000090 -0.004764 -0.006219 0.080275 -0.002149
# 6 -0.004545 -0.001531 -0.004567 0.002037 -0.002149 0.030212
#
#
# Mechanical properties :
#
#
# Convention : Reuss Voigt Hill
#
# Bulk Modulus (GPa) = 16.01726 25.59988 20.80857
# Shear Modulus (GPa) = 21.24618 28.82482 25.03550
#
# Velocity S-wave (km/s) = 3.23880 3.77247 3.51578
# Velocity P-wave (km/s) = 4.67916 5.62270 5.17249
#
# Compressibility (1/GPa) = 0.06243265
#
# Stress axis : x y z
#
# Youngs Moduli (GPa) = 76.48177 80.79419 26.03685
#
# Poissons Ratio (x) = 0.06789 0.04007
# Poissons Ratio (y) = 0.06426 -0.04337
# Poissons Ratio (z) = 0.11770 -0.13459
#
# Static dielectric constant tensor:
#      x y z
#    x 1.755310 -0.003250 -0.027880 
#    y -0.003250 1.754350 0.003410 
#    z -0.027880 0.003410 1.735980 
# 
# From -- ./inp_files/320425.got.cif
#   From: 2010.05.17/outbox.cif.g08.bks.cpg/sg2_161_cif.got.tgz:320425.got - 2010.06.03 11:33:40.
