data_PCOD9072687
_publ_section_title
;
Structure prediction by ZEFSAII (Michael W. Deem and Ramdas Pophale) SiO2 
 PCOD9072687
Probable space group: P -1
;
_chemical_formula_sum "Si O2"
_cell_formula_units_Z 16
_cell_length_a 12.856196
_cell_length_b 7.552525
_cell_length_c 17.258583
_cell_angle_alpha 111.117255
_cell_angle_beta 147.580518
_cell_angle_gamma 47.609277
_cell_volume 563.735126
_symmetry_space_group_name_H-M "P -1"
_symmetry_group_IT_number 2
_symmetry_cell_setting 'triclinic'
loop_
_space_group_symop_operation_xyz
x,y,z
-x,-y,-z
loop_
_atom_site_type_symbol
_atom_site_label
_atom_site_fract_x
_atom_site_fract_y
_atom_site_fract_z
Si Si1 0.810681 0.139797 0.566908
Si Si2 0.411762 0.587600 0.824643
Si Si3 0.158239 0.222532 0.362460
Si Si4 0.953382 0.655723 0.417973
Si Si5 0.352350 0.015057 0.119197
Si Si6 0.767995 0.925257 0.772351
Si Si7 0.524400 0.492381 0.717841
Si Si8 0.265836 0.036924 0.898502
O O1 0.528487 0.363125 0.373062
O O2 0.796724 0.024919 0.617287
O O3 0.062741 0.849785 0.631740
O O4 0.955519 0.236980 0.692974
O O5 0.536279 0.285809 0.858102
O O6 0.562463 0.557571 0.836526
O O7 0.402746 0.727561 0.916686
O O8 0.459112 0.094909 0.563865
O O9 0.937885 0.508834 0.317196
O O10 0.047363 0.292719 0.215643
O O11 0.626615 0.955871 0.271410
O O12 0.000000 0.500000 0.500000
O O13 0.215222 0.604707 0.552950
O O14 0.222346 0.144938 0.143291
O O15 0.195608 0.138964 0.958437
O O16 0.765406 0.155719 0.807256
O O17 0.500000 0.000000 0.000000
#
# Coordination Sequence:
#
# PCOD9072687 Si02
#       8
#     2   2   2   2   2   2   2   2
#     4  10  20  31  51  74 109 139 170 217 266 310
#     4   9  19  30  49  76 102 134 169 216 256 307
#     4  10  18  35  50  82 107 134 176 210 267 312
#     4  11  16  30  56  80 105 130 170 219 260 315
#     4  11  18  34  53  77 107 135 175 216 262 309
#     4   9  21  32  55  78 108 135 174 217 258 317
#     4  10  18  31  49  81 106 135 170 215 273 307
#     4  10  22  33  48  79 108 138 174 220 268 306
#
# _framework density 28.382123
#
# number of rings (size 3 to 8) (size 9 to 14) (size 15 to 20)
#    0.750    1.250    5.000    1.500    0.000    1.500 
#    0.000    0.625    0.000    0.000    0.000   12.250 
#    0.000    0.000    0.000    0.000    0.000    0.000 
#
# Total GULP energy -89333.076575 kJ/mol
# GULP energy per Si atom -5583.317286 kJ/mol
# Density = 2.831752 g / cm^3
# Si number density = 28.382123 Si / 1000 Ang^3
#
#
#
# Elastic Constant Matrix: (Units=GPa)
#
#
# Indices 1 2 3 4 5 6 
#
# 1 77.7931 36.3466 52.7841 13.2289 -27.0791 -16.8339
# 2 36.3466 58.1301 22.0022 20.0846 -15.0534 1.3101
# 3 52.7841 22.0022 151.5061 29.6817 -42.1288 -11.1321
# 4 13.2289 20.0846 29.6817 37.8310 -16.0762 -11.5651
# 5 -27.0791 -15.0534 -42.1288 -16.0762 64.1113 14.5331
# 6 -16.8339 1.3101 -11.1321 -11.5651 14.5331 50.0319
#
#
#
# Elastic Compliance Matrix: (Units=1/GPa)
#
#
# Indices 1 2 3 4 5 6 
#
# 1 0.027144 -0.016853 -0.007336 0.009276 0.002919 0.009238
# 2 -0.016853 0.032661 0.004096 -0.017194 0.001182 -0.009932
# 3 -0.007336 0.004096 0.010856 -0.007418 0.003813 -0.002982
# 4 0.009276 -0.017194 -0.007418 0.042860 0.003289 0.010873
# 5 0.002919 0.001182 0.003813 0.003289 0.021258 -0.003615
# 6 0.009238 -0.009932 -0.002982 0.010873 -0.003615 0.026255
#
#
# Mechanical properties :
#
#
# Convention : Reuss Voigt Hill
#
# Bulk Modulus (GPa) = 32.81488 56.63281 44.72384
# Shear Modulus (GPa) = 23.65433 42.14793 32.90113
#
# Velocity S-wave (km/s) = 2.89004 3.85777 3.40843
# Velocity P-wave (km/s) = 4.76690 6.31191 5.59301
#
# Compressibility (1/GPa) = 0.03047398
#
# Stress axis : x y z
#
# Youngs Moduli (GPa) = 36.84041 30.61796 92.11669
#
# Poissons Ratio (x) = 0.51599 0.67579
# Poissons Ratio (y) = 0.62086 -0.37728
# Poissons Ratio (z) = 0.27027 -0.12540
#
# Static dielectric constant tensor:
#      x y z
#    x 2.378340 -0.097200 0.069770 
#    y -0.097200 2.304710 -0.025260 
#    z 0.069770 -0.025260 2.323090 
# 
# From -- ./inp_files/527695.got.cif
#   From: 2010.05.17/outbox.cif.g08.bks.cpg/sg2_264_cif.got.tgz:527695.got - 2010.06.03 11:33:40.
