data_PCOD9072168
_publ_section_title
;
Structure prediction by ZEFSAII (Michael W. Deem and Ramdas Pophale) SiO2 
 PCOD9072168
Probable space group: P -1
;
_chemical_formula_sum "Si O2"
_cell_formula_units_Z 16
_cell_length_a 12.000000
_cell_length_b 9.000000
_cell_length_c 18.000000
_cell_angle_alpha 70.000000
_cell_angle_beta 40.000000
_cell_angle_gamma 100.000000
_cell_volume 813.354092
_symmetry_space_group_name_H-M "P -1"
_symmetry_group_IT_number 2
_symmetry_cell_setting 'triclinic'
loop_
_space_group_symop_operation_xyz
x,y,z
-x,-y,-z
loop_
_atom_site_type_symbol
_atom_site_label
_atom_site_fract_x
_atom_site_fract_y
_atom_site_fract_z
Si Si1 0.312275 0.479709 0.046780
Si Si2 0.335369 0.464199 0.703669
Si Si3 0.353423 0.990960 0.255224
Si Si4 0.152888 0.268968 0.995908
Si Si5 0.183245 0.919407 0.038089
Si Si6 0.425065 0.195315 0.614558
Si Si7 0.794711 0.188795 0.795101
Si Si8 0.893968 0.299508 0.416366
O O1 0.068387 0.347081 0.249607
O O2 0.500000 0.500000 0.000000
O O3 0.240501 0.366724 0.019738
O O4 0.474846 0.741527 0.894815
O O5 0.294840 0.441879 0.820038
O O6 0.410899 0.339051 0.653490
O O7 0.508995 0.695361 0.522520
O O8 0.050530 0.303862 0.849247
O O9 0.177083 0.863085 0.293191
O O10 0.210259 0.873707 0.428630
O O11 0.558857 0.987572 0.137891
O O12 0.204776 0.118902 0.981516
O O13 0.845311 0.070735 0.191371
O O14 0.110324 0.842683 0.175346
O O15 0.650381 0.227444 0.518811
O O16 0.923688 0.444852 0.686942
O O17 0.500000 0.000000 0.000000
#
# Coordination Sequence:
#
# PCOD9072168 Si02
#       8
#     2   2   2   2   2   2   2   2
#     4  12  28  48  62  90 137 176 208 267 321 385
#     4  10  19  38  62  98 134 160 211 264 325 370
#     4  11  23  41  70  96 123 171 222 262 318 382
#     4  11  24  39  67  95 133 174 209 254 325 384
#     4  10  18  40  68  95 129 163 212 270 315 373
#     4  10  21  39  66 101 128 165 209 276 314 372
#     4  10  19  37  67  96 124 166 208 270 319 364
#     4  12  23  43  67  95 132 164 222 268 317 378
#
# _framework density 19.671628999999999
#
# number of rings (size 3 to 8) (size 9 to 14) (size 15 to 20)
#    0.000    1.250    3.750    4.125    1.750    2.000 
#    2.250    4.375    0.000    0.000    0.000    0.000 
#    0.000    0.000    0.000    0.000    0.000    0.000 
#
# Total GULP energy -89072.501109 kJ/mol
# GULP energy per Si atom -5567.031319 kJ/mol
# Density = 1.962686 g / cm^3
# Si number density = 19.671629 Si / 1000 Ang^3
#
#
#
# Elastic Constant Matrix: (Units=GPa)
#
#
# Indices 1 2 3 4 5 6 
#
# 1 116.0433 20.4119 51.0945 12.5960 24.6152 14.1831
# 2 20.4119 37.8920 34.4057 2.5469 1.7524 14.0997
# 3 51.0945 34.4057 148.2035 15.7618 33.1321 2.3570
# 4 12.5960 2.5469 15.7618 35.0027 4.2245 9.0917
# 5 24.6152 1.7524 33.1321 4.2245 58.5011 7.2925
# 6 14.1831 14.0997 2.3570 9.0917 7.2925 35.1672
#
#
#
# Elastic Compliance Matrix: (Units=1/GPa)
#
#
# Indices 1 2 3 4 5 6 
#
# 1 0.011229 -0.002905 -0.002307 -0.001888 -0.002931 -0.002113
# 2 -0.002905 0.045198 -0.011848 0.007202 0.008525 -0.019785
# 3 -0.002307 -0.011848 0.012057 -0.004928 -0.006070 0.007406
# 4 -0.001888 0.007202 -0.004928 0.033505 0.002313 -0.010938
# 5 -0.002931 0.008525 -0.006070 0.002313 0.022219 -0.007035
# 6 -0.002113 -0.019785 0.007406 -0.010938 -0.007035 0.041011
#
#
# Mechanical properties :
#
#
# Convention : Reuss Voigt Hill
#
# Bulk Modulus (GPa) = 29.10155 57.10699 43.10427
# Shear Modulus (GPa) = 23.71969 38.81598 31.26783
#
# Velocity S-wave (km/s) = 3.47620 4.44689 3.99116
# Velocity P-wave (km/s) = 5.56217 7.44712 6.57257
#
# Compressibility (1/GPa) = 0.03436243
#
# Stress axis : x y z
#
# Youngs Moduli (GPa) = 89.05151 22.12495 82.94062
#
# Poissons Ratio (x) = 0.06428 0.19136
# Poissons Ratio (y) = 0.25872 0.98271
# Poissons Ratio (z) = 0.20546 0.26214
#
# Static dielectric constant tensor:
#      x y z
#    x 1.775670 0.006510 -0.005320 
#    y 0.006510 1.725790 -0.009130 
#    z -0.005320 -0.009130 1.704030 
# 
# From -- ./inp_files/466441.got.cif
#   From: 2010.05.17/outbox.ucp.g08.bks.cvg/sg2_234_cif.got.tgz:466441.got - 2010.06.11 11:32:03.
