data_PCOD9072309
_publ_section_title
;
Structure prediction by ZEFSAII (Michael W. Deem and Ramdas Pophale) SiO2 
 PCOD9072309
Probable space group: P -1
;
_chemical_formula_sum "Si O2"
_cell_formula_units_Z 14
_cell_length_a 15.000000
_cell_length_b 12.000000
_cell_length_c 12.000000
_cell_angle_alpha 140.000000
_cell_angle_beta 70.000000
_cell_angle_gamma 140.000000
_cell_volume 718.943798
_symmetry_space_group_name_H-M "P -1"
_symmetry_group_IT_number 2
_symmetry_cell_setting 'triclinic'
loop_
_space_group_symop_operation_xyz
x,y,z
-x,-y,-z
loop_
_atom_site_type_symbol
_atom_site_label
_atom_site_fract_x
_atom_site_fract_y
_atom_site_fract_z
Si Si1 0.363202 0.650444 0.742343
Si Si2 0.338016 0.336895 0.705286
Si Si3 0.798935 0.439757 0.586054
Si Si4 0.608016 0.471974 0.601665
Si Si5 0.032052 0.345458 0.564716
Si Si6 0.890585 0.138886 0.079021
Si Si7 0.604711 0.804735 0.121669
O O1 0.320805 0.431753 0.678159
O O2 0.427963 0.660855 0.607079
O O3 0.183851 0.472673 0.657560
O O4 0.500000 0.000000 0.000000
O O5 0.450850 0.340843 0.621886
O O6 0.460557 0.637600 0.964982
O O7 0.158229 0.008508 0.589153
O O8 0.671118 0.405424 0.597585
O O9 0.917795 0.600663 0.546599
O O10 0.930905 0.669333 0.806768
O O11 0.688015 0.092403 0.372666
O O12 0.776373 0.856155 0.824127
O O13 0.060130 0.590715 0.769115
O O14 0.760736 0.960594 0.103320
O O15 0.500000 0.500000 0.000000
#
# Coordination Sequence:
#
# PCOD9072309 Si02
#       7
#     2   2   2   2   2   2   2
#     4  11  22  41  62  80 108 150 193 233 280 337
#     4  11  21  37  58  86 117 146 185 237 280 326
#     4  10  19  36  59  84 116 154 187 224 276 336
#     4  10  22  37  56  84 113 149 187 230 285 333
#     4  10  21  37  59  86 111 149 192 228 275 336
#     4  10  19  36  57  82 117 151 185 233 280 327
#     4  10  19  34  59  86 113 151 191 227 273 333
#
# _framework density 19.473009999999999
#
# number of rings (size 3 to 8) (size 9 to 14) (size 15 to 20)
#    0.000    1.714    0.000    8.143    0.000    0.000 
#    0.000   16.429    0.000    0.000    0.000    0.000 
#    0.000    0.000    0.000    0.000    0.000    0.000 
#
# Total GULP energy -78152.870457 kJ/mol
# GULP energy per Si atom -5582.347890 kJ/mol
# Density = 1.942869 g / cm^3
# Si number density = 19.473010 Si / 1000 Ang^3
#
#
#
# Elastic Constant Matrix: (Units=GPa)
#
#
# Indices 1 2 3 4 5 6 
#
# 1 92.2777 33.4725 23.3112 9.9239 5.0536 -1.3468
# 2 33.4725 73.1245 29.2454 29.5527 3.5745 4.2697
# 3 23.3112 29.2454 120.3393 16.1328 6.4166 14.1996
# 4 9.9239 29.5527 16.1328 35.4840 0.5448 0.1371
# 5 5.0536 3.5745 6.4166 0.5448 35.0455 4.0126
# 6 -1.3468 4.2697 14.1996 0.1371 4.0126 22.4085
#
#
#
# Elastic Compliance Matrix: (Units=1/GPa)
#
#
# Indices 1 2 3 4 5 6 
#
# 1 0.013535 -0.006691 -0.001662 0.002551 -0.001391 0.003375
# 2 -0.006691 0.025064 -0.001892 -0.018120 -0.000532 -0.003773
# 3 -0.001662 -0.001892 0.010186 -0.002556 -0.000700 -0.006053
# 4 0.002551 -0.018120 -0.002556 0.043692 0.000716 0.004830
# 5 -0.001391 -0.000532 -0.000700 0.000716 0.029458 -0.004818
# 6 0.003375 -0.003773 -0.006053 0.004830 -0.004818 0.050216
#
#
# Mechanical properties :
#
#
# Convention : Reuss Voigt Hill
#
# Bulk Modulus (GPa) = 35.34240 50.86664 43.10452
# Shear Modulus (GPa) = 24.74350 31.90175 28.32263
#
# Velocity S-wave (km/s) = 3.56849 4.05193 3.81787
# Velocity P-wave (km/s) = 5.93024 6.93319 6.45123
#
# Compressibility (1/GPa) = 0.02829463
#
# Stress axis : x y z
#
# Youngs Moduli (GPa) = 73.88359 39.89732 98.17545
#
# Poissons Ratio (x) = 0.26695 0.16315
# Poissons Ratio (y) = 0.49435 0.18579
# Poissons Ratio (z) = 0.12278 0.07550
#
# Static dielectric constant tensor:
#      x y z
#    x 1.735940 -0.042110 0.027070 
#    y -0.042110 1.670380 -0.035000 
#    z 0.027070 -0.035000 1.691990 
# 
# From -- ./inp_files/182013.got.cif
#   From: 2010.05.17/outbox.ucp.g08.bks.cvg/sg2_92_cif.got.tgz:182013.got - 2010.06.11 11:32:03.
