data_PCOD9072265
_publ_section_title
;
Structure prediction by ZEFSAII (Michael W. Deem and Ramdas Pophale) SiO2 
 PCOD9072265
Probable space group: P -1
;
_chemical_formula_sum "Si O2"
_cell_formula_units_Z 16
_cell_length_a 12.000000
_cell_length_b 15.000000
_cell_length_c 18.000000
_cell_angle_alpha 30.000000
_cell_angle_beta 150.000000
_cell_angle_gamma 130.000000
_cell_volume 731.734496
_symmetry_space_group_name_H-M "P -1"
_symmetry_group_IT_number 2
_symmetry_cell_setting 'triclinic'
loop_
_space_group_symop_operation_xyz
x,y,z
-x,-y,-z
loop_
_atom_site_type_symbol
_atom_site_label
_atom_site_fract_x
_atom_site_fract_y
_atom_site_fract_z
Si Si1 0.890978 0.958103 0.304511
Si Si2 0.041736 0.753848 0.130172
Si Si3 0.637637 0.050586 0.766277
Si Si4 0.239947 0.714376 0.109901
Si Si5 0.240686 0.354237 0.604426
Si Si6 0.422808 0.205702 0.961708
Si Si7 0.875014 0.620414 0.767741
Si Si8 0.826389 0.221811 0.269864
O O1 0.827190 0.828860 0.302486
O O2 0.117558 0.806296 0.591447
O O3 0.928446 0.131471 0.160256
O O4 0.652020 0.058165 0.148684
O O5 0.225843 0.806849 0.249891
O O6 0.134946 0.763842 0.095066
O O7 0.060774 0.545340 0.319168
O O8 0.767829 0.911729 0.873273
O O9 0.347172 0.165970 0.503464
O O10 0.687553 0.920505 0.964714
O O11 0.505910 0.707075 0.251534
O O12 0.255503 0.500784 0.258889
O O13 0.273190 0.378758 0.692859
O O14 0.550526 0.281410 0.043375
O O15 0.071941 0.640284 0.812439
O O16 0.000000 0.500000 0.000000
O O17 0.000000 0.000000 0.500000
#
# Coordination Sequence:
#
# PCOD9072265 Si02
#       8
#     2   2   2   2   2   2   2   2
#     4  10  19  34  60  89 116 150 202 262 295 346
#     4  11  24  38  58  92 128 162 190 252 309 367
#     4  11  23  40  59  87 131 158 196 245 316 358
#     4  11  22  36  62  91 120 156 206 254 299 352
#     4  11  20  35  62  89 117 154 213 248 300 348
#     4  10  20  36  59  89 116 158 197 257 297 355
#     4  12  22  37  65  93 117 159 207 253 297 365
#     4  10  19  33  57  88 115 147 200 253 297 340
#
# _framework density 21.865853999999999
#
# number of rings (size 3 to 8) (size 9 to 14) (size 15 to 20)
#    0.000    1.250    3.750    6.375    0.000    0.500 
#    0.000    0.625    0.000    1.500    0.000    0.000 
#    0.000    0.000    0.000    0.000    0.000    0.000 
#
# Total GULP energy -89209.221631 kJ/mol
# GULP energy per Si atom -5575.576352 kJ/mol
# Density = 2.181609 g / cm^3
# Si number density = 21.865854 Si / 1000 Ang^3
#
#
#
# Elastic Constant Matrix: (Units=GPa)
#
#
# Indices 1 2 3 4 5 6 
#
# 1 46.1333 13.3898 48.3116 -10.1581 -5.0324 -6.9636
# 2 13.3898 48.1044 21.6525 -6.5925 -1.6390 13.7885
# 3 48.3116 21.6525 31.7401 -4.3922 -10.6128 -4.6976
# 4 -10.1581 -6.5925 -4.3922 18.5735 2.8791 -11.7716
# 5 -5.0324 -1.6390 -10.6128 2.8791 24.9669 -4.3715
# 6 -6.9636 13.7885 -4.6976 -11.7716 -4.3715 25.3807
#
#
#
# Elastic Compliance Matrix: (Units=1/GPa)
#
#
# Indices 1 2 3 4 5 6 
#
# 1 -0.013409 -0.022686 0.047065 0.008309 0.019147 0.024509
# 2 -0.022686 0.032473 0.002896 -0.020914 -0.004724 -0.033843
# 3 0.047065 0.002896 -0.037802 0.029595 -0.006847 0.016890
# 4 0.008309 -0.020914 0.029595 0.098391 0.013274 0.067039
# 5 0.019147 -0.004724 -0.006847 0.013274 0.042673 0.020059
# 6 0.024509 -0.033843 0.016890 0.067039 0.020059 0.102184
#
#
# Mechanical properties :
#
#
# Convention : Reuss Voigt Hill
#
# Bulk Modulus (GPa) = 27.92379 32.52062 30.22220
# Shear Modulus (GPa) = 27.48789 16.62582 22.05686
#
# Velocity S-wave (km/s) = 3.54943 2.76045 3.17950
# Velocity P-wave (km/s) = 5.44023 5.00651 5.22787
#
# Compressibility (1/GPa) = 0.03581176
#
# Stress axis : x y z
#
# Youngs Moduli (GPa) = -74.57878 30.79484 -26.45387
#
# Poissons Ratio (x) = 0.69862 1.24505
# Poissons Ratio (y) = -1.69192 0.07661
# Poissons Ratio (z) = 3.51005 -0.08918
#
# Static dielectric constant tensor:
#      x y z
#    x 1.789460 -0.067850 -0.032830 
#    y -0.067850 1.869350 0.050830 
#    z -0.032830 0.050830 1.887030 
# 
# From -- ./inp_files/174981.got.cif
#   From: 2010.05.17/outbox.ucp.g08.bks.cvg/sg2_88_cif.got.tgz:174981.got - 2010.06.11 11:32:03.
