data_PCOD9072417
_publ_section_title
;
Structure prediction by ZEFSAII (Michael W. Deem and Ramdas Pophale) SiO2 
 PCOD9072417
Probable space group: P -1
;
_chemical_formula_sum "Si O2"
_cell_formula_units_Z 16
_cell_length_a 15.000000
_cell_length_b 12.000000
_cell_length_c 12.000000
_cell_angle_alpha 100.000000
_cell_angle_beta 150.000000
_cell_angle_gamma 60.000000
_cell_volume 748.962810
_symmetry_space_group_name_H-M "P -1"
_symmetry_group_IT_number 2
_symmetry_cell_setting 'triclinic'
loop_
_space_group_symop_operation_xyz
x,y,z
-x,-y,-z
loop_
_atom_site_type_symbol
_atom_site_label
_atom_site_fract_x
_atom_site_fract_y
_atom_site_fract_z
Si Si1 0.623061 0.627260 0.703196
Si Si2 0.853840 0.783863 0.304978
Si Si3 0.669819 0.341606 0.078307
Si Si4 0.470002 0.072294 0.625134
Si Si5 0.077669 0.302891 0.882819
Si Si6 0.464504 0.855621 0.057531
Si Si7 0.510721 0.533842 0.348011
Si Si8 0.749584 0.041689 0.708968
O O1 0.530564 0.620438 0.481321
O O2 0.633236 0.511760 0.770145
O O3 0.395202 0.817451 0.515323
O O4 0.863164 0.602180 0.978676
O O5 0.934705 0.682901 0.262268
O O6 0.670817 0.781732 0.172392
O O7 0.054347 0.736691 0.604528
O O8 0.730387 0.955695 0.152916
O O9 0.500000 0.500000 0.000000
O O10 0.640410 0.224136 0.063949
O O11 0.594719 0.384285 0.873489
O O12 0.428893 0.163070 0.707146
O O13 0.569383 0.100759 0.632834
O O14 0.236354 0.094014 0.344904
O O15 0.702694 0.881607 0.871780
O O16 0.808670 0.370871 0.633789
O O17 0.000000 0.000000 0.000000
#
# Coordination Sequence:
#
# PCOD9072417 Si02
#       8
#     2   2   2   2   2   2   2   2
#     4  10  23  38  60  87 119 163 203 250 310 373
#     4  10  23  43  66  93 122 168 215 257 320 371
#     4  12  25  41  64  95 129 165 210 264 317 375
#     4   9  20  36  59  91 118 158 210 257 312 369
#     4  10  20  39  62  84 121 161 204 255 308 370
#     4  10  23  42  64  91 128 165 213 263 310 379
#     4  11  23  40  58  89 124 160 205 250 311 379
#     4  10  19  36  61  88 122 157 204 263 313 366
#
# _framework density 21.362876
#
# number of rings (size 3 to 8) (size 9 to 14) (size 15 to 20)
#    0.000    1.750    1.250    2.250    1.750    3.500 
#    0.000    3.750    0.000    0.000    0.000    0.000 
#    0.000    0.000    0.000    0.000    0.000    0.000 
#
# Total GULP energy -89231.902549 kJ/mol
# GULP energy per Si atom -5576.993909 kJ/mol
# Density = 2.131425 g / cm^3
# Si number density = 21.362876 Si / 1000 Ang^3
#
#
#
# Elastic Constant Matrix: (Units=GPa)
#
#
# Indices 1 2 3 4 5 6 
#
# 1 76.9262 34.5448 11.4286 8.2238 -23.7649 7.5856
# 2 34.5448 64.1532 -0.2574 24.1296 -3.2880 6.1605
# 3 11.4286 -0.2574 72.4359 26.5473 -8.2028 11.3554
# 4 8.2238 24.1296 26.5473 29.3832 -2.6047 -3.3759
# 5 -23.7649 -3.2880 -8.2028 -2.6047 26.4835 2.3256
# 6 7.5856 6.1605 11.3554 -3.3759 2.3256 34.2824
#
#
#
# Elastic Compliance Matrix: (Units=1/GPa)
#
#
# Indices 1 2 3 4 5 6 
#
# 1 0.029583 -0.024223 -0.011548 0.024298 0.022131 0.002524
# 2 -0.024223 0.060064 0.035499 -0.078193 -0.008842 -0.024292
# 3 -0.011548 0.035499 0.045996 -0.070162 0.003693 -0.026219
# 4 0.024298 -0.078193 -0.070162 0.160477 0.001969 0.047584
# 5 0.022131 -0.008842 0.003693 0.001969 0.058588 -0.008312
# 6 0.002524 -0.024292 -0.026219 0.047584 -0.008312 0.046910
#
#
# Mechanical properties :
#
#
# Convention : Reuss Voigt Hill
#
# Bulk Modulus (GPa) = 7.40197 33.88303 20.64250
# Shear Modulus (GPa) = 11.18082 29.21645 20.19863
#
# Velocity S-wave (km/s) = 2.29022 3.70216 3.07824
# Velocity P-wave (km/s) = 3.23510 5.84549 4.72417
#
# Compressibility (1/GPa) = 0.13509921
#
# Stress axis : x y z
#
# Youngs Moduli (GPa) = 33.80281 16.64900 21.74117
#
# Poissons Ratio (x) = 0.40329 0.25107
# Poissons Ratio (y) = 0.81881 -0.77180
# Poissons Ratio (z) = 0.39035 -0.59103
#
# Static dielectric constant tensor:
#      x y z
#    x 1.777590 -0.046650 0.017840 
#    y -0.046650 1.801040 -0.040550 
#    z 0.017840 -0.040550 1.813080 
# 
# From -- ./inp_files/274514.got.cif
#   From: 2010.05.17/outbox.ucp.g08.bks.cvg/sg2_138_cif.got.tgz:274514.got - 2010.06.11 11:32:03.
