data_PCOD9072010
_publ_section_title
;
Structure prediction by ZEFSAII (Michael W. Deem and Ramdas Pophale) SiO2 
 PCOD9072010
Probable space group: P -1
;
_chemical_formula_sum "Si O2"
_cell_formula_units_Z 14
_cell_length_a 8.842752
_cell_length_b 17.112258
_cell_length_c 7.036260
_cell_angle_alpha 35.485584
_cell_angle_beta 114.804309
_cell_angle_gamma 117.568757
_cell_volume 546.004787
_symmetry_space_group_name_H-M "P -1"
_symmetry_group_IT_number 2
_symmetry_cell_setting 'triclinic'
loop_
_space_group_symop_operation_xyz
x,y,z
-x,-y,-z
loop_
_atom_site_type_symbol
_atom_site_label
_atom_site_fract_x
_atom_site_fract_y
_atom_site_fract_z
Si Si1 0.174486 0.864656 0.763951
Si Si2 0.132866 0.775441 0.348564
Si Si3 0.322347 0.044671 0.802397
Si Si4 0.384757 0.664225 0.183398
Si Si5 0.332474 0.566447 0.779922
Si Si6 0.183390 0.279880 0.210580
Si Si7 0.244695 0.352707 0.653428
O O1 0.991766 0.835927 0.625690
O O2 0.256025 0.010784 0.615106
O O3 0.129706 0.780740 0.104742
O O4 0.299484 0.793623 0.850485
O O5 0.274388 0.685228 0.638374
O O6 0.935172 0.711713 0.416675
O O7 0.202418 0.939275 0.094672
O O8 0.325874 0.204007 0.515597
O O9 0.500000 0.000000 0.000000
O O10 0.341230 0.620219 0.464112
O O11 0.305467 0.518821 0.323519
O O12 0.588374 0.702897 0.197210
O O13 0.500000 0.500000 0.000000
O O14 0.182644 0.428044 0.003438
O O15 0.220566 0.318857 0.932230
#
# Coordination Sequence:
#
# PCOD9072010 Si02
#       7
#     2   2   2   2   2   2   2
#     4   8  17  30  50  71  94 126 166 203 237 280
#     4   8  17  30  49  69  98 124 164 198 245 280
#     4  10  19  31  50  74 102 128 160 209 250 285
#     4   9  17  31  49  74 103 125 160 204 250 284
#     4  10  18  30  50  77  98 128 165 204 243 293
#     4  10  18  30  53  75  96 126 171 202 240 293
#     4   9  17  30  51  74  98 129 161 205 243 290
#
# _framework density 25.640799000000001
#
# number of rings (size 3 to 8) (size 9 to 14) (size 15 to 20)
#    0.857    2.000    0.000    2.143    0.000    3.429 
#    0.000    1.429    0.000    2.571    0.000    0.000 
#    0.000    0.000    0.000    0.000    0.000    0.000 
#
# Total GULP energy -78008.309220 kJ/mol
# GULP energy per Si atom -5572.022087 kJ/mol
# Density = 2.558244 g / cm^3
# Si number density = 25.640799 Si / 1000 Ang^3
#
#
#
# Elastic Constant Matrix: (Units=GPa)
#
#
# Indices 1 2 3 4 5 6 
#
# 1 72.8894 3.1674 9.9198 -11.4808 3.9601 10.8498
# 2 3.1674 57.9886 5.4492 -12.6494 -9.6789 0.9132
# 3 9.9198 5.4492 97.0388 -14.0746 7.9384 -8.3997
# 4 -11.4808 -12.6494 -14.0746 29.2881 -6.6644 -2.4191
# 5 3.9601 -9.6789 7.9384 -6.6644 34.1886 -0.5043
# 6 10.8498 0.9132 -8.3997 -2.4191 -0.5043 33.0582
#
#
#
# Elastic Compliance Matrix: (Units=1/GPa)
#
#
# Indices 1 2 3 4 5 6 
#
# 1 0.015452 0.000387 -0.001260 0.005096 -0.000469 -0.005036
# 2 0.000387 0.020984 -0.000282 0.010933 0.008094 0.000145
# 3 -0.001260 -0.000282 0.011614 0.004903 -0.001620 0.003706
# 4 0.005096 0.010933 0.004903 0.045801 0.010335 0.002780
# 5 -0.000469 0.008094 -0.001620 0.010335 0.033998 0.000794
# 6 -0.005036 0.000145 0.003706 0.002780 0.000794 0.033056
#
#
# Mechanical properties :
#
#
# Convention : Reuss Voigt Hill
#
# Bulk Modulus (GPa) = 21.86215 29.44330 25.65273
# Shear Modulus (GPa) = 28.01739 33.26567 30.64153
#
# Velocity S-wave (km/s) = 3.30917 3.60581 3.46067
# Velocity P-wave (km/s) = 4.81099 5.37064 5.09850
#
# Compressibility (1/GPa) = 0.04574115
#
# Stress axis : x y z
#
# Youngs Moduli (GPa) = 64.71697 47.65593 86.10073
#
# Poissons Ratio (x) = -0.01845 0.10847
# Poissons Ratio (y) = -0.02506 0.02426
# Poissons Ratio (z) = 0.08153 0.01343
#
# Static dielectric constant tensor:
#      x y z
#    x 2.071830 0.062430 0.013860 
#    y 0.062430 2.164850 0.020370 
#    z 0.013860 0.020370 2.005780 
# 
# From -- ./inp_files/199567.got.cif
#   From: 2010.05.17/outbox.cif.g08.bks.cpg/sg2_100_cif.got.tgz:199567.got - 2010.06.03 11:33:40.
