data_PCOD9072746
_publ_section_title
;
Structure prediction by ZEFSAII (Michael W. Deem and Ramdas Pophale) SiO2 
 PCOD9072746
Probable space group: P -1
;
_chemical_formula_sum "Si O2"
_cell_formula_units_Z 16
_cell_length_a 15.000000
_cell_length_b 12.000000
_cell_length_c 9.000000
_cell_angle_alpha 110.000000
_cell_angle_beta 40.000000
_cell_angle_gamma 90.000000
_cell_volume 881.670222
_symmetry_space_group_name_H-M "P -1"
_symmetry_group_IT_number 2
_symmetry_cell_setting 'triclinic'
loop_
_space_group_symop_operation_xyz
x,y,z
-x,-y,-z
loop_
_atom_site_type_symbol
_atom_site_label
_atom_site_fract_x
_atom_site_fract_y
_atom_site_fract_z
Si Si1 0.676583 0.326567 0.335231
Si Si2 0.998466 0.679004 0.707867
Si Si3 0.648961 0.592497 0.336466
Si Si4 0.136732 0.842690 0.446576
Si Si5 0.432105 0.657618 0.182553
Si Si6 0.093461 0.345169 0.851059
Si Si7 0.991823 0.153815 0.720924
Si Si8 0.751022 0.592895 0.869499
O O1 0.679439 0.462594 0.335554
O O2 0.532652 0.326635 0.425960
O O3 0.649826 0.322211 0.542896
O O4 0.836122 0.206009 0.038974
O O5 0.032462 0.800509 0.670170
O O6 0.144018 0.542825 0.411527
O O7 0.853902 0.671836 0.803414
O O8 0.969844 0.677799 0.919723
O O9 0.734317 0.670081 0.342797
O O10 0.716216 0.556692 0.065218
O O11 0.311061 0.748615 0.249993
O O12 0.078493 0.819107 0.345805
O O13 0.096148 0.998754 0.555251
O O14 0.500000 0.500000 0.000000
O O15 0.590745 0.671885 0.021463
O O16 0.072165 0.248322 0.712838
O O17 0.000000 0.500000 0.000000
#
# Coordination Sequence:
#
# PCOD9072746 Si02
#       8
#     2   2   2   2   2   2   2   2
#     4  10  20  36  60  88 118 160 193 244 306 355
#     4  10  20  36  60  88 118 160 193 244 306 355
#     4   9  19  34  57  91 122 147 192 251 299 350
#     4  11  25  43  60  84 124 168 206 247 300 366
#     4  11  22  35  59  94 122 152 203 254 301 354
#     4  11  22  35  59  94 122 152 203 254 301 354
#     4  11  25  43  60  84 124 168 206 247 300 366
#     4   9  19  34  57  91 122 147 192 251 299 350
#
# _framework density 18.147375
#
# number of rings (size 3 to 8) (size 9 to 14) (size 15 to 20)
#    0.000    1.750    2.500    1.500    7.000    2.000 
#    0.000    1.250    0.000    7.500    0.000    0.000 
#    0.000    0.000    0.000    0.000    0.000    0.000 
#
# Total GULP energy -89200.121607 kJ/mol
# GULP energy per Si atom -5575.007600 kJ/mol
# Density = 1.810607 g / cm^3
# Si number density = 18.147375 Si / 1000 Ang^3
#
#
#
# Elastic Constant Matrix: (Units=GPa)
#
#
# Indices 1 2 3 4 5 6 
#
# 1 164.0214 60.3531 43.2581 9.4612 -16.0000 2.3862
# 2 60.3531 97.6394 18.9266 7.3333 -7.4128 -0.9375
# 3 43.2581 18.9266 57.4940 1.9502 -13.2480 1.4865
# 4 9.4612 7.3333 1.9502 29.6560 0.1537 -3.7203
# 5 -16.0000 -7.4128 -13.2480 0.1537 35.2439 0.0208
# 6 2.3862 -0.9375 1.4865 -3.7203 0.0208 40.6377
#
#
#
# Elastic Compliance Matrix: (Units=1/GPa)
#
#
# Indices 1 2 3 4 5 6 
#
# 1 0.009377 -0.004577 -0.005165 -0.001604 0.001360 -0.000615
# 2 -0.004577 0.013398 -0.000818 -0.001745 0.000440 0.000448
# 3 -0.005165 -0.000818 0.022963 0.000241 0.006114 -0.000537
# 4 -0.001604 -0.001745 0.000241 0.035062 -0.001160 0.003256
# 5 0.001360 0.000440 0.006114 -0.001160 0.031387 -0.000416
# 6 -0.000615 0.000448 -0.000537 0.003256 -0.000416 0.024972
#
#
# Mechanical properties :
#
#
# Convention : Reuss Voigt Hill
#
# Bulk Modulus (GPa) = 40.61934 62.69226 51.65580
# Shear Modulus (GPa) = 30.03254 34.21532 32.12393
#
# Velocity S-wave (km/s) = 4.07249 4.34685 4.21190
# Velocity P-wave (km/s) = 6.67422 7.73399 7.22357
#
# Compressibility (1/GPa) = 0.02461882
#
# Stress axis : x y z
#
# Youngs Moduli (GPa) = 106.63976 74.63581 43.54857
#
# Poissons Ratio (x) = 0.34163 0.22492
# Poissons Ratio (y) = 0.48812 0.03561
# Poissons Ratio (z) = 0.55078 0.06103
#
# Static dielectric constant tensor:
#      x y z
#    x 1.680950 0.027820 -0.008720 
#    y 0.027820 1.614390 -0.022260 
#    z -0.008720 -0.022260 1.661940 
# 
# From -- ./inp_files/307875.got.cif
#   From: 2010.05.17/outbox.ucp.g08.bks.cvg/sg2_154_cif.got.tgz:307875.got - 2010.06.11 11:32:03.
