data_PCOD9072499
_publ_section_title
;
Structure prediction by ZEFSAII (Michael W. Deem and Ramdas Pophale) SiO2 
 PCOD9072499
Probable space group: P -1
;
_chemical_formula_sum "Si O2"
_cell_formula_units_Z 16
_cell_length_a 12.000000
_cell_length_b 9.000000
_cell_length_c 21.000000
_cell_angle_alpha 110.000000
_cell_angle_beta 140.000000
_cell_angle_gamma 40.000000
_cell_volume 754.890988
_symmetry_space_group_name_H-M "P -1"
_symmetry_group_IT_number 2
_symmetry_cell_setting 'triclinic'
loop_
_space_group_symop_operation_xyz
x,y,z
-x,-y,-z
loop_
_atom_site_type_symbol
_atom_site_label
_atom_site_fract_x
_atom_site_fract_y
_atom_site_fract_z
Si Si1 0.306590 0.832164 0.862681
Si Si2 0.036979 0.785243 0.989152
Si Si3 0.698768 0.334017 0.440692
Si Si4 0.418447 0.171478 0.392045
Si Si5 0.568759 0.891580 0.759407
Si Si6 0.041070 0.203018 0.678387
Si Si7 0.714215 0.052727 0.632758
Si Si8 0.912526 0.331462 0.855375
O O1 0.660851 0.499707 0.962300
O O2 0.232740 0.974337 0.784420
O O3 0.040708 0.897449 0.760957
O O4 0.212156 0.024574 0.906602
O O5 0.088457 0.705515 0.075314
O O6 0.717565 0.949053 0.846313
O O7 0.000000 0.000000 0.000000
O O8 0.582295 0.608757 0.426214
O O9 0.398579 0.489495 0.294803
O O10 0.789489 0.272897 0.546606
O O11 0.000000 0.000000 0.500000
O O12 0.519565 0.075954 0.348441
O O13 0.666312 0.036226 0.535496
O O14 0.145462 0.510039 0.329503
O O15 0.295033 0.096117 0.350481
O O16 0.865475 0.553802 0.858641
O O17 0.277867 0.076715 0.706816
#
# Coordination Sequence:
#
# PCOD9072499 Si02
#       8
#     2   2   2   2   2   2   2   2
#     4  11  24  44  72  97 133 176 222 276 335 394
#     4  12  30  47  64  96 134 179 232 284 330 391
#     4  10  19  37  69 102 139 167 212 265 333 403
#     4  10  23  45  65 102 138 178 212 275 339 400
#     4  12  25  43  70  94 133 175 230 273 332 390
#     4  11  23  40  71 106 132 175 213 277 334 404
#     4   9  23  41  68 101 143 172 221 267 338 411
#     4  11  24  44  70  99 131 174 227 276 327 402
#
# _framework density 21.195112999999999
#
# number of rings (size 3 to 8) (size 9 to 14) (size 15 to 20)
#    0.000    1.250    3.750    0.375    7.000    4.500 
#    0.000    5.625    0.000    0.000    0.000    0.000 
#    0.000    0.000    0.000    0.000    0.000    0.000 
#
# Total GULP energy -89279.236118 kJ/mol
# GULP energy per Si atom -5579.952257 kJ/mol
# Density = 2.114687 g / cm^3
# Si number density = 21.195113 Si / 1000 Ang^3
#
#
#
# Elastic Constant Matrix: (Units=GPa)
#
#
# Indices 1 2 3 4 5 6 
#
# 1 85.1727 18.8489 -1.4114 11.8602 -2.7565 -15.8072
# 2 18.8489 85.5788 2.7725 10.9782 3.3839 -20.6706
# 3 -1.4114 2.7725 34.9420 5.7512 3.7738 -11.8707
# 4 11.8602 10.9782 5.7512 36.3255 -1.8530 4.9942
# 5 -2.7565 3.3839 3.7738 -1.8530 29.2771 -2.7824
# 6 -15.8072 -20.6706 -11.8707 4.9942 -2.7824 46.0995
#
#
#
# Elastic Compliance Matrix: (Units=1/GPa)
#
#
# Indices 1 2 3 4 5 6 
#
# 1 0.013927 -0.001116 0.003400 -0.005486 0.001208 0.005818
# 2 -0.001116 0.014338 0.002313 -0.005402 -0.001725 0.007123
# 3 0.003400 0.002313 0.034508 -0.009097 -0.003846 0.011842
# 4 -0.005486 -0.005402 -0.009097 0.033917 0.002460 -0.010172
# 5 0.001208 -0.001725 -0.003846 0.002460 0.035169 0.000506
# 6 0.005818 0.007123 0.011842 -0.010172 0.000506 0.031063
#
#
# Mechanical properties :
#
#
# Convention : Reuss Voigt Hill
#
# Bulk Modulus (GPa) = 13.89552 27.34596 20.62074
# Shear Modulus (GPa) = 28.13450 34.70600 31.42025
#
# Velocity S-wave (km/s) = 3.64731 4.05094 3.85441
# Velocity P-wave (km/s) = 4.93025 5.90001 5.43680
#
# Compressibility (1/GPa) = 0.07196562
#
# Stress axis : x y z
#
# Youngs Moduli (GPa) = 71.80300 69.74614 28.97848
#
# Poissons Ratio (x) = 0.07786 -0.09853
# Poissons Ratio (y) = 0.08016 -0.06701
# Poissons Ratio (z) = -0.24414 -0.16129
#
# Static dielectric constant tensor:
#      x y z
#    x 1.777680 0.021630 0.024260 
#    y 0.021630 1.797270 0.016740 
#    z 0.024260 0.016740 1.762780 
# 
# From -- ./inp_files/498946.got.cif
#   From: 2010.05.17/outbox.ucp.g08.bks.cvg/sg2_250_cif.got.tgz:498946.got - 2010.06.11 11:32:03.
