data_PCOD9072690
_publ_section_title
;
Structure prediction by ZEFSAII (Michael W. Deem and Ramdas Pophale) SiO2 
 PCOD9072690
Probable space group: P -1
;
_chemical_formula_sum "Si O2"
_cell_formula_units_Z 14
_cell_length_a 9.000000
_cell_length_b 15.000000
_cell_length_c 15.000000
_cell_angle_alpha 140.000000
_cell_angle_beta 90.000000
_cell_angle_gamma 120.000000
_cell_volume 817.999524
_symmetry_space_group_name_H-M "P -1"
_symmetry_group_IT_number 2
_symmetry_cell_setting 'triclinic'
loop_
_space_group_symop_operation_xyz
x,y,z
-x,-y,-z
loop_
_atom_site_type_symbol
_atom_site_label
_atom_site_fract_x
_atom_site_fract_y
_atom_site_fract_z
Si Si1 0.111642 0.682492 0.460068
Si Si2 0.621913 0.002724 0.613278
Si Si3 0.029683 0.219258 0.914756
Si Si4 0.183460 0.801232 0.928436
Si Si5 0.416884 0.719061 0.227268
Si Si6 0.289836 0.901817 0.804044
Si Si7 0.240550 0.068398 0.773808
O O1 0.924369 0.432005 0.240934
O O2 0.362469 0.829972 0.526158
O O3 0.141631 0.700032 0.580654
O O4 0.073723 0.819628 0.547577
O O5 0.694877 0.211345 0.743008
O O6 0.804554 0.078472 0.742915
O O7 0.593313 0.886027 0.436745
O O8 0.119735 0.127430 0.834963
O O9 0.230537 0.471811 0.073264
O O10 0.952781 0.203054 0.003166
O O11 0.175051 0.840464 0.854274
O O12 0.458748 0.988598 0.096723
O O13 0.554985 0.771416 0.178317
O O14 0.324953 0.064190 0.865727
#
# Coordination Sequence:
#
# PCOD9072690 Si02
#       7
#     2   2   2   2   2   2   2
#     4   9  18  39  52  80 108 142 178 227 260 318
#     4  10  20  35  58  82 108 137 194 221 256 324
#     4  12  21  35  57  86 107 147 175 227 272 322
#     4  11  19  35  66  77 103 147 190 215 271 311
#     4  10  20  38  55  78 111 147 179 225 264 319
#     4   9  21  38  56  84 107 140 186 227 257 330
#     4   9  22  39  51  80 124 133 178 226 276 318
#
# _framework density 17.114923999999998
#
# number of rings (size 3 to 8) (size 9 to 14) (size 15 to 20)
#    0.857    1.143    2.857    1.286    0.000    1.143 
#    2.571    0.000    0.000    2.571    0.000    0.000 
#    0.000    0.000    0.000    0.000    0.000    0.000 
#
# Total GULP energy -77939.900550 kJ/mol
# GULP energy per Si atom -5567.135754 kJ/mol
# Density = 1.707597 g / cm^3
# Si number density = 17.114924 Si / 1000 Ang^3
#
#
#
# Elastic Constant Matrix: (Units=GPa)
#
#
# Indices 1 2 3 4 5 6 
#
# 1 72.7504 39.2338 22.7661 -6.2158 -23.1003 11.1480
# 2 39.2338 130.8503 12.7496 -11.0473 -15.6104 17.4406
# 3 22.7661 12.7496 36.9440 -3.1296 -14.0052 5.9482
# 4 -6.2158 -11.0473 -3.1296 26.6327 -1.7966 0.4078
# 5 -23.1003 -15.6104 -14.0052 -1.7966 15.5414 -3.7848
# 6 11.1480 17.4406 5.9482 0.4078 -3.7848 21.2379
#
#
#
# Elastic Compliance Matrix: (Units=1/GPa)
#
#
# Indices 1 2 3 4 5 6 
#
# 1 0.030042 -0.002419 -0.000122 0.008897 0.041556 -0.006514
# 2 -0.002419 0.010341 0.002343 0.004630 0.007839 -0.006571
# 3 -0.000122 0.002343 0.043726 0.008948 0.040909 -0.006988
# 4 0.008897 0.004630 0.008948 0.044687 0.029502 -0.006579
# 5 0.041556 0.007839 0.040909 0.029502 0.171913 -0.009638
# 6 -0.006514 -0.006571 -0.006988 -0.006579 -0.009638 0.056267
#
#
# Mechanical properties :
#
#
# Convention : Reuss Voigt Hill
#
# Bulk Modulus (GPa) = 11.94547 43.33819 27.64183
# Shear Modulus (GPa) = 12.97776 23.73541 18.35658
#
# Velocity S-wave (km/s) = 2.75666 3.72805 3.27853
# Velocity P-wave (km/s) = 4.13847 6.62631 5.52426
#
# Compressibility (1/GPa) = 0.08371378
#
# Stress axis : x y z
#
# Youngs Moduli (GPa) = 33.28709 96.70223 22.86978
#
# Poissons Ratio (x) = 0.23390 0.00279
# Poissons Ratio (y) = 0.08051 -0.05359
# Poissons Ratio (z) = 0.00406 -0.22662
#
# Static dielectric constant tensor:
#      x y z
#    x 1.552760 -0.000330 -0.004380 
#    y -0.000330 1.598130 -0.006280 
#    z -0.004380 -0.006280 1.591340 
# 
# From -- ./inp_files/42479.got.cif
#   From: 2010.05.17/outbox.ucp.g08.bks.cvg/sg2_22_cif.got.tgz:42479.got - 2010.06.11 11:32:03.
