data_PCOD9072958
_publ_section_title
;
Structure prediction by ZEFSAII (Michael W. Deem and Ramdas Pophale) SiO2 
 PCOD9072958
Probable space group: P -1
;
_chemical_formula_sum "Si O2"
_cell_formula_units_Z 16
_cell_length_a 12.000000
_cell_length_b 9.000000
_cell_length_c 27.000000
_cell_angle_alpha 150.000000
_cell_angle_beta 150.000000
_cell_angle_gamma 40.000000
_cell_volume 727.497153
_symmetry_space_group_name_H-M "P -1"
_symmetry_group_IT_number 2
_symmetry_cell_setting 'triclinic'
loop_
_space_group_symop_operation_xyz
x,y,z
-x,-y,-z
loop_
_atom_site_type_symbol
_atom_site_label
_atom_site_fract_x
_atom_site_fract_y
_atom_site_fract_z
Si Si1 0.479290 0.208413 0.798897
Si Si2 0.278684 0.306561 0.648300
Si Si3 0.922362 0.580168 0.096078
Si Si4 0.244384 0.624360 0.422887
Si Si5 0.471969 0.508227 0.386877
Si Si6 0.670006 0.758689 0.144072
Si Si7 0.411337 0.396019 0.218371
Si Si8 0.078419 0.236087 0.329107
O O1 0.367053 0.358599 0.751860
O O2 0.307860 0.224043 0.783515
O O3 0.509801 0.850782 0.698508
O O4 0.707244 0.385610 0.944896
O O5 0.484199 0.371391 0.710909
O O6 0.079431 0.554320 0.635285
O O7 0.205817 0.970013 0.521704
O O8 0.871740 0.667648 0.159035
O O9 0.144447 0.380241 0.109187
O O10 0.981877 0.909577 0.192940
O O11 0.500000 0.500000 0.500000
O O12 0.255709 0.616623 0.366117
O O13 0.093588 0.403617 0.330309
O O14 0.450536 0.518984 0.323483
O O15 0.674481 0.711717 0.538963
O O16 0.542654 0.073372 0.169788
O O17 0.500000 0.500000 0.000000
#
# Coordination Sequence:
#
# PCOD9072958 Si02
#       8
#     2   2   2   2   2   2   2   2
#     4  10  23  42  69  95 133 174 216 269 331 395
#     4  12  23  41  67  98 136 172 219 274 328 390
#     4  11  24  44  69  97 136 173 219 274 328 384
#     4  10  20  39  64  92 132 169 218 269 324 391
#     4  10  23  44  66  95 131 171 223 271 326 396
#     4   9  21  45  65  93 134 170 217 271 317 398
#     4  11  24  43  68  98 133 172 221 275 327 385
#     4  11  23  41  66  99 133 173 218 277 329 383
#
# _framework density 21.993213000000001
#
# number of rings (size 3 to 8) (size 9 to 14) (size 15 to 20)
#    0.000    1.500    3.750    1.875    0.000    9.000 
#    2.250    0.000    0.000    0.000    0.000    0.000 
#    0.000    0.000    0.000    0.000    0.000    0.000 
#
# Total GULP energy -89154.834654 kJ/mol
# GULP energy per Si atom -5572.177166 kJ/mol
# Density = 2.194316 g / cm^3
# Si number density = 21.993213 Si / 1000 Ang^3
#
#
#
# Elastic Constant Matrix: (Units=GPa)
#
#
# Indices 1 2 3 4 5 6 
#
# 1 124.3465 18.0518 29.1527 -4.8367 26.2401 -1.5235
# 2 18.0518 40.6923 25.5784 6.2820 4.7343 7.4017
# 3 29.1527 25.5784 75.0430 14.3260 10.9361 8.0555
# 4 -4.8367 6.2820 14.3260 26.2817 -0.1878 5.6096
# 5 26.2401 4.7343 10.9361 -0.1878 37.7123 9.7099
# 6 -1.5235 7.4017 8.0555 5.6096 9.7099 26.5094
#
#
#
# Elastic Compliance Matrix: (Units=1/GPa)
#
#
# Indices 1 2 3 4 5 6 
#
# 1 0.011066 -0.003392 -0.003223 0.003579 -0.007493 0.004549
# 2 -0.003392 0.033190 -0.009242 -0.001955 0.002728 -0.007239
# 3 -0.003223 -0.009242 0.019867 -0.009028 -0.002162 -0.000939
# 4 0.003579 -0.001955 -0.009028 0.045617 0.002413 -0.007042
# 5 -0.007493 0.002728 -0.002162 0.002413 0.035659 -0.014107
# 6 0.004549 -0.007239 -0.000939 -0.007042 -0.014107 0.046948
#
#
# Mechanical properties :
#
#
# Convention : Reuss Voigt Hill
#
# Bulk Modulus (GPa) = 30.85470 42.84971 36.85221
# Shear Modulus (GPa) = 21.28892 29.25395 25.27144
#
# Velocity S-wave (km/s) = 3.11461 3.65106 3.39345
# Velocity P-wave (km/s) = 5.19558 6.10730 5.66979
#
# Compressibility (1/GPa) = 0.03240997
#
# Stress axis : x y z
#
# Youngs Moduli (GPa) = 90.36598 30.12951 50.33383
#
# Poissons Ratio (x) = 0.10219 0.16220
# Poissons Ratio (y) = 0.30650 0.46521
# Poissons Ratio (z) = 0.29121 0.27847
#
# Static dielectric constant tensor:
#      x y z
#    x 1.890110 0.016520 -0.057200 
#    y 0.016520 1.886320 -0.065020 
#    z -0.057200 -0.065020 1.805820 
# 
# From -- ./inp_files/618249.got.cif
#   From: 2010.05.17/outbox.ucp.g08.bks.cvg/sg2_310_cif.got.tgz:618249.got - 2010.06.11 11:32:03.
