data_PCOD9072009
_publ_section_title
;
Structure prediction by ZEFSAII (Michael W. Deem and Ramdas Pophale) SiO2 
 PCOD9072009
Probable space group: P -1
;
_chemical_formula_sum "Si O2"
_cell_formula_units_Z 16
_cell_length_a 6.000000
_cell_length_b 18.000000
_cell_length_c 27.000000
_cell_angle_alpha 160.000000
_cell_angle_beta 50.000000
_cell_angle_gamma 130.000000
_cell_volume 755.591058
_symmetry_space_group_name_H-M "P -1"
_symmetry_group_IT_number 2
_symmetry_cell_setting 'triclinic'
loop_
_space_group_symop_operation_xyz
x,y,z
-x,-y,-z
loop_
_atom_site_type_symbol
_atom_site_label
_atom_site_fract_x
_atom_site_fract_y
_atom_site_fract_z
Si Si1 0.876136 0.326130 0.208011
Si Si2 0.317496 0.710941 0.050373
Si Si3 0.511899 0.919829 0.256338
Si Si4 0.197887 0.020149 0.907931
Si Si5 0.082303 0.272266 0.403688
Si Si6 0.227503 0.301751 0.293946
Si Si7 0.950350 0.805168 0.531659
Si Si8 0.699065 0.750197 0.211383
O O1 0.540385 0.320787 0.234955
O O2 0.009662 0.572297 0.358277
O O3 0.846190 0.162337 0.156918
O O4 0.064242 0.225793 0.077443
O O5 0.466445 0.784152 0.127627
O O6 0.474779 0.884040 0.096954
O O7 0.978683 0.715700 0.115045
O O8 0.354321 0.459126 0.876982
O O9 0.453539 0.762351 0.213172
O O10 0.287801 0.094056 0.402585
O O11 0.827086 0.069286 0.304368
O O12 0.995709 0.909650 0.823146
O O13 0.281162 0.303870 0.346718
O O14 0.204155 0.237329 0.418655
O O15 0.928865 0.489559 0.564721
O O16 0.215445 0.007073 0.625778
#
# Coordination Sequence:
#
# PCOD9072009 Si02
#       8
#     2   2   2   2   2   2   2   2
#     4  11  24  38  55  81 118 156 191 224 269 343
#     4  10  20  38  58  82 118 146 189 232 282 337
#     4  10  18  33  56  86 112 143 174 238 290 330
#     4  11  24  39  56  79 115 161 190 223 273 337
#     4  10  20  30  55  86 109 142 179 231 291 331
#     4  11  21  35  54  82 113 144 191 230 277 339
#     4  10  20  36  56  85 117 144 183 235 287 333
#     4   9  21  35  59  90 110 143 186 239 290 331
#
# _framework density 21.175476
#
# number of rings (size 3 to 8) (size 9 to 14) (size 15 to 20)
#    0.000    1.750    3.750    0.750    5.250    0.500 
#    0.000    0.625    0.000    0.750    0.000    0.000 
#    0.000    0.000    0.000    0.000    0.000    0.000 
#
# Total GULP energy -89202.947529 kJ/mol
# GULP energy per Si atom -5575.184221 kJ/mol
# Density = 2.112728 g / cm^3
# Si number density = 21.175476 Si / 1000 Ang^3
#
#
#
# Elastic Constant Matrix: (Units=GPa)
#
#
# Indices 1 2 3 4 5 6 
#
# 1 34.1133 3.5133 28.1165 -0.7624 -7.5734 -10.0694
# 2 3.5133 22.4126 36.9355 12.2361 1.8421 -3.7570
# 3 28.1165 36.9355 120.5930 29.8131 -7.7453 3.3921
# 4 -0.7624 12.2361 29.8131 29.4529 3.6580 -10.9672
# 5 -7.5734 1.8421 -7.7453 3.6580 13.2732 4.4527
# 6 -10.0694 -3.7570 3.3921 -10.9672 4.4527 11.6318
#
#
#
# Elastic Compliance Matrix: (Units=1/GPa)
#
#
# Indices 1 2 3 4 5 6 
#
# 1 0.011322 -0.026567 0.018087 -0.032579 0.047436 -0.052931
# 2 -0.026567 0.059657 0.004645 -0.056106 0.016277 -0.064215
# 3 0.018087 0.004645 -0.007627 0.029644 -0.021596 0.055599
# 4 -0.032579 -0.056106 0.029644 -0.003609 0.031061 -0.070263
# 5 0.047436 0.016277 -0.021596 0.031061 0.059098 0.059283
# 6 -0.052931 -0.064215 0.055599 -0.070263 0.059283 -0.085748
#
#
# Mechanical properties :
#
#
# Convention : Reuss Voigt Hill
#
# Bulk Modulus (GPa) = 17.95934 34.91659 26.43797
# Shear Modulus (GPa) = 84.28396 18.10849 51.19623
#
# Velocity S-wave (km/s) = 6.31578 2.92749 4.92236
# Velocity P-wave (km/s) = 7.85398 5.28696 6.69466
#
# Compressibility (1/GPa) = 0.05568133
#
# Stress axis : x y z
#
# Youngs Moduli (GPa) = 88.32695 16.76248 -131.11722
#
# Poissons Ratio (x) = 0.44533 2.37154
# Poissons Ratio (y) = 2.34658 0.60898
# Poissons Ratio (z) = -1.59759 -0.07785
#
# Static dielectric constant tensor:
#      x y z
#    x 1.859530 -0.026480 -0.037100 
#    y -0.026480 1.733720 0.030780 
#    z -0.037100 0.030780 1.791640 
# 
# From -- ./inp_files/78490.got.cif
#   From: 2010.05.17/outbox.ucp.g08.bks.cvg/sg2_40_cif.got.tgz:78490.got - 2010.06.11 11:32:03.
