data_PCOD9072899
_publ_section_title
;
Structure prediction by ZEFSAII (Michael W. Deem and Ramdas Pophale) SiO2 
 PCOD9072899
Probable space group: P -1
;
_chemical_formula_sum "Si O2"
_cell_formula_units_Z 16
_cell_length_a 9.000000
_cell_length_b 21.000000
_cell_length_c 12.000000
_cell_angle_alpha 30.000000
_cell_angle_beta 40.000000
_cell_angle_gamma 50.000000
_cell_volume 727.418465
_symmetry_space_group_name_H-M "P -1"
_symmetry_group_IT_number 2
_symmetry_cell_setting 'triclinic'
loop_
_space_group_symop_operation_xyz
x,y,z
-x,-y,-z
loop_
_atom_site_type_symbol
_atom_site_label
_atom_site_fract_x
_atom_site_fract_y
_atom_site_fract_z
Si Si1 0.664670 0.248346 0.825717
Si Si2 0.731138 0.150300 0.582560
Si Si3 0.811531 0.748058 0.469952
Si Si4 0.429065 0.338967 0.613481
Si Si5 0.757891 0.514517 0.684270
Si Si6 0.533203 0.148573 0.296391
Si Si7 0.720813 0.001802 0.019522
Si Si8 0.895322 0.257346 0.091383
O O1 0.520733 0.335408 0.693438
O O2 0.933178 0.296820 0.585346
O O3 0.582163 0.229251 0.030581
O O4 0.669046 0.107807 0.979909
O O5 0.596070 0.252325 0.577533
O O6 0.530163 0.057244 0.784967
O O7 0.871204 0.210464 0.305019
O O8 0.846155 0.068738 0.738126
O O9 0.724243 0.636541 0.600467
O O10 0.663952 0.790010 0.601328
O O11 0.842623 0.882096 0.181383
O O12 0.412869 0.464730 0.354400
O O13 0.163335 0.279043 0.867547
O O14 0.000000 0.500000 0.500000
O O15 0.762532 0.388461 0.949477
O O16 0.757028 0.162444 0.228508
O O17 0.500000 0.000000 0.500000
#
# Coordination Sequence:
#
# PCOD9072899 Si02
#       8
#     2   2   2   2   2   2   2   2
#     4  11  24  40  63  97 138 179 212 270 341 397
#     4  10  20  38  63  98 129 164 220 275 335 384
#     4  12  23  44  67  99 136 178 219 274 333 397
#     4  10  22  41  65  97 131 172 224 276 326 390
#     4  10  22  44  73  96 129 175 232 280 322 389
#     4  12  25  41  66 102 133 174 221 265 333 404
#     4  10  20  38  63  96 133 170 213 268 334 396
#     4  11  23  43  70  98 127 175 226 275 330 387
#
# _framework density 21.995591999999998
#
# number of rings (size 3 to 8) (size 9 to 14) (size 15 to 20)
#    0.000    1.250    3.750    1.875    0.000    4.000 
#    0.000   11.875    0.000    6.750    0.000    0.000 
#    0.000    0.000    0.000    0.000    0.000    0.000 
#
# Total GULP energy -89291.260868 kJ/mol
# GULP energy per Si atom -5580.703804 kJ/mol
# Density = 2.194553 g / cm^3
# Si number density = 21.995592 Si / 1000 Ang^3
#
#
#
# Elastic Constant Matrix: (Units=GPa)
#
#
# Indices 1 2 3 4 5 6 
#
# 1 113.9421 28.4120 26.1705 14.3700 27.2032 -1.9873
# 2 28.4120 99.9898 28.3442 6.9574 14.7638 16.8318
# 3 26.1705 28.3442 65.0702 9.0348 25.0946 11.8053
# 4 14.3700 6.9574 9.0348 43.7267 1.7460 10.9179
# 5 27.2032 14.7638 25.0946 1.7460 37.0817 13.5134
# 6 -1.9873 16.8318 11.8053 10.9179 13.5134 37.4149
#
#
#
# Elastic Compliance Matrix: (Units=1/GPa)
#
#
# Indices 1 2 3 4 5 6 
#
# 1 0.012861 -0.002851 -0.000565 -0.005083 -0.010364 0.007370
# 2 -0.002851 0.012574 -0.004215 0.001100 0.001883 -0.005479
# 3 -0.000565 -0.004215 0.023038 -0.003488 -0.013514 0.000496
# 4 -0.005083 0.001100 -0.003488 0.027413 0.008237 -0.010639
# 5 -0.010364 0.001883 -0.013514 0.008237 0.048838 -0.017176
# 6 0.007370 -0.005479 0.000496 -0.010639 -0.017176 0.038735
#
#
# Mechanical properties :
#
#
# Convention : Reuss Voigt Hill
#
# Bulk Modulus (GPa) = 30.11215 49.42838 39.77027
# Shear Modulus (GPa) = 26.34481 36.71636 31.53058
#
# Velocity S-wave (km/s) = 3.46458 4.09009 3.79026
# Velocity P-wave (km/s) = 5.45199 6.69521 6.10533
#
# Compressibility (1/GPa) = 0.03320918
#
# Stress axis : x y z
#
# Youngs Moduli (GPa) = 77.75451 79.53047 43.40745
#
# Poissons Ratio (x) = 0.22674 0.02454
# Poissons Ratio (y) = 0.22168 0.18298
# Poissons Ratio (z) = 0.04395 0.33524
#
# Static dielectric constant tensor:
#      x y z
#    x 1.878040 -0.009970 -0.006810 
#    y -0.009970 1.790740 -0.029530 
#    z -0.006810 -0.029530 1.888300 
# 
# From -- ./inp_files/405232.got.cif
#   From: 2010.05.17/outbox.ucp.g08.bks.cvg/sg2_203_cif.got.tgz:405232.got - 2010.06.11 11:32:03.
