data_PCOD9072082
_publ_section_title
;
Structure prediction by ZEFSAII (Michael W. Deem and Ramdas Pophale) SiO2 
 PCOD9072082
Probable space group: P -1
;
_chemical_formula_sum "Si O2"
_cell_formula_units_Z 14
_cell_length_a 12.000000
_cell_length_b 18.000000
_cell_length_c 9.000000
_cell_angle_alpha 140.000000
_cell_angle_beta 130.000000
_cell_angle_gamma 30.000000
_cell_volume 623.501542
_symmetry_space_group_name_H-M "P -1"
_symmetry_group_IT_number 2
_symmetry_cell_setting 'triclinic'
loop_
_space_group_symop_operation_xyz
x,y,z
-x,-y,-z
loop_
_atom_site_type_symbol
_atom_site_label
_atom_site_fract_x
_atom_site_fract_y
_atom_site_fract_z
Si Si1 0.075069 0.533433 0.809860
Si Si2 0.264531 0.191701 0.548674
Si Si3 0.552143 0.598502 0.250325
Si Si4 0.160890 0.942978 0.253868
Si Si5 0.927137 0.330878 0.691668
Si Si6 0.637520 0.649980 0.707859
Si Si7 0.221665 0.988865 0.047632
O O1 0.244184 0.325571 0.661844
O O2 0.187901 0.525340 0.752392
O O3 0.832304 0.618411 0.758630
O O4 0.109763 0.607661 0.079954
O O5 0.133462 0.280173 0.725606
O O6 0.500000 0.000000 0.500000
O O7 0.166051 0.153141 0.297760
O O8 0.367032 0.790323 0.303009
O O9 0.530876 0.639179 0.467876
O O10 0.500000 0.500000 0.000000
O O11 0.246140 0.908191 0.103849
O O12 0.014325 0.147087 0.473085
O O13 0.986537 0.943357 0.108196
O O14 0.735209 0.496410 0.673038
O O15 0.445812 0.838978 0.915393
#
# Coordination Sequence:
#
# PCOD9072082 Si02
#       7
#     2   2   2   2   2   2   2
#     4  11  23  44  69  99 134 176 224 276 332 393
#     4  10  18  35  66 100 129 163 219 279 326 380
#     4  12  29  45  65  95 141 182 219 272 339 400
#     4  10  24  44  67 100 136 177 220 273 333 396
#     4  10  21  40  72  99 128 169 226 273 325 395
#     4  11  24  43  68 104 132 174 221 280 336 390
#     4  10  22  41  73  99 132 173 229 274 328 396
#
# _framework density 22.453834000000001
#
# number of rings (size 3 to 8) (size 9 to 14) (size 15 to 20)
#    0.000    1.429    0.000    6.429   10.000    1.143 
#    0.000    1.429    0.000    0.000    0.000    0.000 
#    0.000    0.000    0.000    0.000    0.000    0.000 
#
# Total GULP energy -78151.631382 kJ/mol
# GULP energy per Si atom -5582.259384 kJ/mol
# Density = 2.240273 g / cm^3
# Si number density = 22.453834 Si / 1000 Ang^3
#
#
#
# Elastic Constant Matrix: (Units=GPa)
#
#
# Indices 1 2 3 4 5 6 
#
# 1 40.6979 11.0576 32.8552 13.3207 -8.3992 -20.4056
# 2 11.0576 72.7118 16.7856 -3.3266 -18.7689 -13.4592
# 3 32.8552 16.7856 112.9919 -3.9210 -10.9933 -3.9412
# 4 13.3207 -3.3266 -3.9210 29.5122 2.9369 0.8930
# 5 -8.3992 -18.7689 -10.9933 2.9369 36.5362 -4.2046
# 6 -20.4056 -13.4592 -3.9412 0.8930 -4.2046 21.5525
#
#
#
# Elastic Compliance Matrix: (Units=1/GPa)
#
#
# Indices 1 2 3 4 5 6 
#
# 1 1.882419 0.383612 -0.486339 -1.016243 0.810647 2.133130
# 2 0.383612 0.097789 -0.100414 -0.206611 0.176476 0.448894
# 3 -0.486339 -0.100414 0.134984 0.263388 -0.207218 -0.549822
# 4 -1.016243 -0.206611 0.263388 0.582963 -0.440061 -1.153032
# 5 0.810647 0.176476 -0.207218 -0.440061 0.384794 0.933126
# 6 2.133130 0.448894 -0.549822 -1.153032 0.933126 2.475619
#
#
# Mechanical properties :
#
#
# Convention : Reuss Voigt Hill
#
# Bulk Modulus (GPa) = 0.58517 38.64426 19.61471
# Shear Modulus (GPa) = 0.76517 28.56705 14.66611
#
# Velocity S-wave (km/s) = 0.58439 3.57074 2.55849
# Velocity P-wave (km/s) = 0.84648 5.85219 4.18119
#
# Compressibility (1/GPa) = 1.70891026
#
# Stress axis : x y z
#
# Youngs Moduli (GPa) = 0.53123 10.22609 7.40830
#
# Poissons Ratio (x) = -3.92285 3.60295
# Poissons Ratio (y) = -0.20379 0.74390
# Poissons Ratio (z) = 0.25836 1.02685
#
# Static dielectric constant tensor:
#      x y z
#    x 1.822790 -0.116490 -0.065260 
#    y -0.116490 1.673200 -0.189830 
#    z -0.065260 -0.189830 1.702510 
# 
# From -- ./inp_files/280156.got.cif
#   From: 2010.05.17/outbox.ucp.g08.bks.cvg/sg2_141_cif.got.tgz:280156.got - 2010.06.11 11:32:03.
