data_PCOD9072969
_publ_section_title
;
Structure prediction by ZEFSAII (Michael W. Deem and Ramdas Pophale) SiO2 
 PCOD9072969
Probable space group: P -1
;
_chemical_formula_sum "Si O2"
_cell_formula_units_Z 16
_cell_length_a 11.852875
_cell_length_b 23.256466
_cell_length_c 10.113851
_cell_angle_alpha 60.857202
_cell_angle_beta 72.425866
_cell_angle_gamma 21.015463
_cell_volume 762.511902
_symmetry_space_group_name_H-M "P -1"
_symmetry_group_IT_number 2
_symmetry_cell_setting 'triclinic'
loop_
_space_group_symop_operation_xyz
x,y,z
-x,-y,-z
loop_
_atom_site_type_symbol
_atom_site_label
_atom_site_fract_x
_atom_site_fract_y
_atom_site_fract_z
Si Si1 0.498123 0.851562 0.371086
Si Si2 0.728311 0.458480 0.931913
Si Si3 0.145046 0.215653 0.809893
Si Si4 0.175407 0.382192 0.234851
Si Si5 0.815476 0.884394 0.352397
Si Si6 0.305567 0.253447 0.073659
Si Si7 0.830416 0.131906 0.291810
Si Si8 0.098502 0.174410 0.318930
O O1 0.736908 0.772756 0.284359
O O2 0.745943 0.679521 0.574822
O O3 0.274851 0.017726 0.362969
O O4 0.194270 0.967062 0.277244
O O5 0.391211 0.684700 0.803395
O O6 0.820426 0.384409 0.837508
O O7 0.062467 0.332262 0.986294
O O8 0.790109 0.368884 0.119313
O O9 0.048817 0.226894 0.697555
O O10 0.500000 0.000000 0.000000
O O11 0.178523 0.321634 0.196214
O O12 0.517557 0.248123 0.218696
O O13 0.809962 0.614917 0.086894
O O14 0.009565 0.780653 0.541228
O O15 0.708559 0.014317 0.200954
O O16 0.430814 0.051329 0.332720
O O17 0.000000 0.000000 0.500000
#
# Coordination Sequence:
#
# PCOD9072969 Si02
#       8
#     2   2   2   2   2   2   2   2
#     4  10  18  31  52  76 108 137 171 211 263 308
#     4  10  19  33  54  81 107 133 169 219 265 309
#     4  11  19  32  51  83 111 132 162 216 279 309
#     4   9  17  29  48  77 100 135 179 218 245 291
#     4   9  16  27  48  75 110 128 163 219 265 301
#     4   9  15  27  50  73 103 127 174 215 256 284
#     4   9  20  36  51  76 105 141 179 215 247 307
#     4   9  16  27  48  79 101 132 173 210 258 306
#
# _framework density 20.983280000000001
#
# number of rings (size 3 to 8) (size 9 to 14) (size 15 to 20)
#    0.000    2.500    5.000    0.000    1.750    0.500 
#    0.000    5.625    0.000    1.500    6.500    0.000 
#    0.000    0.000    0.000    0.000    0.000    0.000 
#
# Total GULP energy -89083.648022 kJ/mol
# GULP energy per Si atom -5567.728001 kJ/mol
# Density = 2.093552 g / cm^3
# Si number density = 20.983280 Si / 1000 Ang^3
#
#
#
# Elastic Constant Matrix: (Units=GPa)
#
#
# Indices 1 2 3 4 5 6 
#
# 1 37.8970 20.3405 25.3247 3.9710 -1.1540 -2.6185
# 2 20.3405 50.2645 46.6770 9.0962 6.2821 2.3815
# 3 25.3247 46.6770 131.4979 -10.6247 6.0671 -7.2804
# 4 3.9710 9.0962 -10.6247 29.0992 5.0083 -4.2172
# 5 -1.1540 6.2821 6.0671 5.0083 24.6970 3.1964
# 6 -2.6185 2.3815 -7.2804 -4.2172 3.1964 16.9922
#
#
#
# Elastic Compliance Matrix: (Units=1/GPa)
#
#
# Indices 1 2 3 4 5 6 
#
# 1 0.035503 -0.012471 -0.002574 -0.002134 0.005302 0.004589
# 2 -0.012471 0.045065 -0.016372 -0.021110 -0.001118 -0.020281
# 3 -0.002574 -0.016372 0.015961 0.013939 -0.004389 0.013022
# 4 -0.002134 -0.021110 0.013939 0.051791 -0.011719 0.023660
# 5 0.005302 -0.001118 -0.004389 -0.011719 0.046094 -0.012486
# 6 0.004589 -0.020281 0.013022 0.023660 -0.012486 0.076200
#
#
# Mechanical properties :
#
#
# Convention : Reuss Voigt Hill
#
# Bulk Modulus (GPa) = 29.67612 44.92706 37.30159
# Shear Modulus (GPa) = 14.50624 22.64550 18.57587
#
# Velocity S-wave (km/s) = 2.63216 3.28871 2.97858
# Velocity P-wave (km/s) = 4.83850 5.98984 5.44469
#
# Compressibility (1/GPa) = 0.03369713
#
# Stress axis : x y z
#
# Youngs Moduli (GPa) = 28.16684 22.18993 62.65108
#
# Poissons Ratio (x) = 0.27673 0.16124
# Poissons Ratio (y) = 0.35127 1.02571
# Poissons Ratio (z) = 0.07249 0.36329
#
# Static dielectric constant tensor:
#      x y z
#    x 1.866180 0.021630 -0.000090 
#    y 0.021630 1.748200 -0.015460 
#    z -0.000090 -0.015460 1.802930 
# 
# From -- ./inp_files/320492.got.cif
#   From: 2010.05.17/outbox.cif.g08.bks.cpg/sg2_161_cif.got.tgz:320492.got - 2010.06.03 11:33:40.
