data_PCOD9072822
_publ_section_title
;
Structure prediction by ZEFSAII (Michael W. Deem and Ramdas Pophale) SiO2 
 PCOD9072822
Probable space group: P -1
;
_chemical_formula_sum "Si O2"
_cell_formula_units_Z 16
_cell_length_a 9.000000
_cell_length_b 18.000000
_cell_length_c 9.000000
_cell_angle_alpha 120.000000
_cell_angle_beta 100.000000
_cell_angle_gamma 40.000000
_cell_volume 752.029055
_symmetry_space_group_name_H-M "P -1"
_symmetry_group_IT_number 2
_symmetry_cell_setting 'triclinic'
loop_
_space_group_symop_operation_xyz
x,y,z
-x,-y,-z
loop_
_atom_site_type_symbol
_atom_site_label
_atom_site_fract_x
_atom_site_fract_y
_atom_site_fract_z
Si Si1 0.806443 0.094127 0.422661
Si Si2 0.132652 0.075142 0.272294
Si Si3 0.006632 0.125917 0.961724
Si Si4 0.369106 0.388448 0.796598
Si Si5 0.525829 0.227207 0.964431
Si Si6 0.344961 0.560292 0.777227
Si Si7 0.140144 0.626524 0.475387
Si Si8 0.924592 0.531406 0.689944
O O1 0.545150 0.245965 0.588323
O O2 0.913786 0.116327 0.348886
O O3 0.000000 0.000000 0.500000
O O4 0.809644 0.000269 0.250758
O O5 0.047040 0.210769 0.428663
O O6 0.386995 0.909568 0.196302
O O7 0.129345 0.077520 0.095178
O O8 0.784120 0.158026 0.973172
O O9 0.858238 0.278541 0.041164
O O10 0.405273 0.336414 0.916931
O O11 0.430793 0.456283 0.817556
O O12 0.090691 0.510779 0.809270
O O13 0.355358 0.313358 0.166112
O O14 0.215440 0.586122 0.624756
O O15 0.601277 0.482171 0.678013
O O16 0.028233 0.587166 0.372535
O O17 0.000000 0.500000 0.500000
#
# Coordination Sequence:
#
# PCOD9072822 Si02
#       8
#     2   2   2   2   2   2   2   2
#     4  11  20  37  60  97 123 157 199 254 310 363
#     4  10  21  37  66  88 126 153 207 259 305 352
#     4  10  21  36  63  93 124 152 208 254 309 345
#     4  12  24  40  64  91 131 161 201 250 314 372
#     4  11  23  42  58  93 127 166 196 251 314 369
#     4  10  20  37  63  94 123 156 206 262 298 355
#     4  10  20  39  62  95 118 157 214 256 300 350
#     4  12  26  42  64  88 124 170 210 244 305 373
#
# _framework density 21.275773999999998
#
# number of rings (size 3 to 8) (size 9 to 14) (size 15 to 20)
#    0.000    1.250    6.250    1.875    3.500    0.500 
#    2.250    2.500    0.000    0.000    0.000    0.000 
#    0.000    0.000    0.000    0.000    0.000    0.000 
#
# Total GULP energy -89193.203144 kJ/mol
# GULP energy per Si atom -5574.575197 kJ/mol
# Density = 2.122735 g / cm^3
# Si number density = 21.275774 Si / 1000 Ang^3
#
#
#
# Elastic Constant Matrix: (Units=GPa)
#
#
# Indices 1 2 3 4 5 6 
#
# 1 33.2892 5.8610 13.7802 3.5223 0.1399 10.7727
# 2 5.8610 82.7473 10.9122 9.4843 -4.9836 31.9262
# 3 13.7802 10.9122 94.0877 20.6111 -7.4679 21.1264
# 4 3.5223 9.4843 20.6111 34.3037 5.8287 5.2146
# 5 0.1399 -4.9836 -7.4679 5.8287 20.1786 0.9765
# 6 10.7727 31.9262 21.1264 5.2146 0.9765 26.2931
#
#
#
# Elastic Compliance Matrix: (Units=1/GPa)
#
#
# Indices 1 2 3 4 5 6 
#
# 1 0.036455 0.006470 -0.000337 -0.002475 0.003007 -0.022143
# 2 0.006470 0.029834 0.009165 -0.010306 0.015860 -0.044786
# 3 -0.000337 0.009165 0.018928 -0.012581 0.014078 -0.024227
# 4 -0.002475 -0.010306 -0.012581 0.040688 -0.019726 0.016300
# 5 0.003007 0.015860 0.014078 -0.019726 0.065830 -0.030333
# 6 -0.022143 -0.044786 -0.024227 0.016300 -0.030333 0.118845
#
#
# Mechanical properties :
#
#
# Convention : Reuss Voigt Hill
#
# Bulk Modulus (GPa) = 8.63454 30.13676 19.38565
# Shear Modulus (GPa) = 15.69425 28.12646 21.91035
#
# Velocity S-wave (km/s) = 2.71893 3.63987 3.21257
# Velocity P-wave (km/s) = 3.73149 5.64451 4.78458
#
# Compressibility (1/GPa) = 0.11581397
#
# Stress axis : x y z
#
# Youngs Moduli (GPa) = 27.43114 33.51872 52.83159
#
# Poissons Ratio (x) = -0.21688 0.01780
# Poissons Ratio (y) = -0.17749 -0.48420
# Poissons Ratio (z) = 0.00924 -0.30720
#
# Static dielectric constant tensor:
#      x y z
#    x 1.845280 0.000700 0.048580 
#    y 0.000700 1.752970 0.003680 
#    z 0.048580 0.003680 1.808940 
# 
# From -- ./inp_files/218336.got.cif
#   From: 2010.05.17/outbox.ucp.g08.bks.cvg/sg2_110_cif.got.tgz:218336.got - 2010.06.11 11:32:03.
