data_PCOD9072391
_publ_section_title
;
Structure prediction by ZEFSAII (Michael W. Deem and Ramdas Pophale) SiO2 
 PCOD9072391
Probable space group: P -1
;
_chemical_formula_sum "Si O2"
_cell_formula_units_Z 12
_cell_length_a 8.976739
_cell_length_b 12.332284
_cell_length_c 9.339291
_cell_angle_alpha 65.757394
_cell_angle_beta 115.835613
_cell_angle_gamma 147.142897
_cell_volume 502.765082
_symmetry_space_group_name_H-M "P -1"
_symmetry_group_IT_number 2
_symmetry_cell_setting 'triclinic'
loop_
_space_group_symop_operation_xyz
x,y,z
-x,-y,-z
loop_
_atom_site_type_symbol
_atom_site_label
_atom_site_fract_x
_atom_site_fract_y
_atom_site_fract_z
Si Si1 0.851370 0.162060 0.149794
Si Si2 0.693200 0.294039 0.871206
Si Si3 0.436250 0.100719 0.381920
Si Si4 0.645994 0.397057 0.530406
Si Si5 0.126123 0.224438 0.516701
Si Si6 0.244487 0.058113 0.018910
O O1 0.029399 0.222112 0.325008
O O2 0.530679 0.933133 0.167681
O O3 0.874067 0.313552 0.038198
O O4 0.910004 0.127417 0.045703
O O5 0.813136 0.430018 0.711017
O O6 0.485586 0.249226 0.911284
O O7 0.638514 0.308791 0.437540
O O8 0.406404 0.100699 0.200775
O O9 0.500000 0.000000 0.500000
O O10 0.138045 0.964056 0.399193
O O11 0.341447 0.244796 0.558808
O O12 0.744010 0.588397 0.445071
O O13 0.000000 0.000000 0.000000
#
# Coordination Sequence:
#
# PCOD9072391 Si02
#       6
#     2   2   2   2   2   2
#     4   9  18  36  57  81 108 150 197 227 284 341
#     4   9  18  36  57  81 108 150 197 227 284 341
#     4  12  22  38  62  84 122 152 186 246 296 342
#     4  11  23  39  61  87 116 156 200 236 282 348
#     4  11  23  39  61  87 116 156 200 236 282 348
#     4  10  18  30  56  84 108 144 186 234 288 334
#
# _framework density 23.868006000000001
#
# number of rings (size 3 to 8) (size 9 to 14) (size 15 to 20)
#    1.000    0.667    1.667    4.500    0.000    1.333 
#    0.000    1.667    0.000    6.000    0.000    0.000 
#    0.000    0.000    0.000    0.000    0.000    0.000 
#
# Total GULP energy -67017.754681 kJ/mol
# GULP energy per Si atom -5584.812890 kJ/mol
# Density = 2.381368 g / cm^3
# Si number density = 23.868006 Si / 1000 Ang^3
#
#
#
# Elastic Constant Matrix: (Units=GPa)
#
#
# Indices 1 2 3 4 5 6 
#
# 1 78.3541 11.3084 17.1206 9.8928 -13.8703 -16.5287
# 2 11.3084 45.3594 9.3780 9.2968 -17.4878 -19.1494
# 3 17.1206 9.3780 140.7933 21.2649 -4.3540 -10.8491
# 4 9.8928 9.2968 21.2649 32.2241 -5.2650 -3.5344
# 5 -13.8703 -17.4878 -4.3540 -5.2650 38.2462 7.5093
# 6 -16.5287 -19.1494 -10.8491 -3.5344 7.5093 41.4683
#
#
#
# Elastic Compliance Matrix: (Units=1/GPa)
#
#
# Indices 1 2 3 4 5 6 
#
# 1 0.015065 0.000892 -0.000906 -0.003011 0.004345 0.005136
# 2 0.000892 0.033305 0.000031 -0.006499 0.012109 0.012997
# 3 -0.000906 0.000031 0.008056 -0.004951 -0.000355 0.001403
# 4 -0.003011 -0.006499 -0.004951 0.036979 0.000958 -0.002518
# 5 0.004345 0.012109 -0.000355 0.000958 0.033091 0.001320
# 6 0.005136 0.012997 0.001403 -0.002518 0.001320 0.032077
#
#
# Mechanical properties :
#
#
# Convention : Reuss Voigt Hill
#
# Bulk Modulus (GPa) = 17.71232 37.79120 27.75176
# Shear Modulus (GPa) = 28.19152 37.50105 32.84629
#
# Velocity S-wave (km/s) = 3.44050 3.96812 3.71369
# Velocity P-wave (km/s) = 4.81869 6.07144 5.48098
#
# Compressibility (1/GPa) = 0.05645788
#
# Stress axis : x y z
#
# Youngs Moduli (GPa) = 66.38072 30.02590 124.13678
#
# Poissons Ratio (x) = -0.02679 0.11252
# Poissons Ratio (y) = -0.05923 -0.00380
# Poissons Ratio (z) = 0.06017 -0.00092
#
# Static dielectric constant tensor:
#      x y z
#    x 1.912700 0.012050 0.043330 
#    y 0.012050 2.020690 0.021830 
#    z 0.043330 0.021830 1.882750 
# 
# From -- ./inp_files/163454.got.cif
#   From: 2010.05.17/outbox.cif.g08.bks.cpg/sg2_82_cif.got.tgz:163454.got - 2010.06.03 11:33:40.
