data_PCOD9072208
_publ_section_title
;
Structure prediction by ZEFSAII (Michael W. Deem and Ramdas Pophale) SiO2 
 PCOD9072208
Probable space group: P -1
;
_chemical_formula_sum "Si O2"
_cell_formula_units_Z 14
_cell_length_a 12.634279
_cell_length_b 8.066613
_cell_length_c 14.177338
_cell_angle_alpha 37.293093
_cell_angle_beta 144.687505
_cell_angle_gamma 134.112263
_cell_volume 501.485791
_symmetry_space_group_name_H-M "P -1"
_symmetry_group_IT_number 2
_symmetry_cell_setting 'triclinic'
loop_
_space_group_symop_operation_xyz
x,y,z
-x,-y,-z
loop_
_atom_site_type_symbol
_atom_site_label
_atom_site_fract_x
_atom_site_fract_y
_atom_site_fract_z
Si Si1 0.036808 0.454760 0.345522
Si Si2 0.637077 0.118471 0.772430
Si Si3 0.360063 0.441442 0.065899
Si Si4 0.702750 0.806032 0.186199
Si Si5 0.033057 0.106351 0.334912
Si Si6 0.996042 0.955566 0.186082
Si Si7 0.500007 0.498157 0.341403
O O1 0.111345 0.753765 0.307418
O O2 0.120141 0.328858 0.369690
O O3 0.967152 0.193650 0.481846
O O4 0.841621 0.533132 0.127201
O O5 0.558549 0.282474 0.555693
O O6 0.572869 0.263134 0.755689
O O7 0.570735 0.800715 0.837192
O O8 0.858942 0.115667 0.952904
O O9 0.502773 0.723462 0.035009
O O10 0.372682 0.372973 0.217771
O O11 0.848292 0.748051 0.237818
O O12 0.675018 0.639170 0.339983
O O13 0.810019 0.102463 0.159981
O O14 0.104666 0.128070 0.271246
#
# Coordination Sequence:
#
# PCOD9072208 Si02
#       7
#     2   2   2   2   2   2   2
#     4  10  18  30  53  70  98 130 165 183 254 277
#     4  10  18  30  53  70  98 130 165 183 254 277
#     4   9  19  32  48  75  96 126 158 207 225 296
#     4   8  20  32  48  70 110 113 160 205 250 253
#     4   9  19  33  46  76  98 129 153 210 227 296
#     4   9  19  32  48  75  96 126 158 207 225 296
#     4   9  19  33  46  76  98 129 153 210 227 296
#
# _framework density 27.917043
#
# number of rings (size 3 to 8) (size 9 to 14) (size 15 to 20)
#    1.714    1.143    0.000    1.714    0.000    5.714 
#    0.000    0.000    0.000    3.429    0.000    4.000 
#    0.000    0.000    0.000    0.000    0.000    0.000 
#
# Total GULP energy -78080.284413 kJ/mol
# GULP energy per Si atom -5577.163172 kJ/mol
# Density = 2.785350 g / cm^3
# Si number density = 27.917043 Si / 1000 Ang^3
#
#
#
# Elastic Constant Matrix: (Units=GPa)
#
#
# Indices 1 2 3 4 5 6 
#
# 1 102.1024 16.2976 34.7447 -3.5583 -16.2930 -27.7325
# 2 16.2976 96.8517 38.4266 0.5195 -18.0093 -40.7081
# 3 34.7447 38.4266 138.1200 -7.8866 -33.8650 -34.6899
# 4 -3.5583 0.5195 -7.8866 39.9764 -18.9566 -1.4146
# 5 -16.2930 -18.0093 -33.8650 -18.9566 44.9738 10.6084
# 6 -27.7325 -40.7081 -34.6899 -1.4146 10.6084 55.6364
#
#
#
# Elastic Compliance Matrix: (Units=1/GPa)
#
#
# Indices 1 2 3 4 5 6 
#
# 1 0.012258 0.001580 -0.000718 0.003269 0.004484 0.006046
# 2 0.001580 0.015898 -0.000699 0.002482 0.004834 0.011125
# 3 -0.000718 -0.000699 0.011717 0.007283 0.010251 0.004666
# 4 0.003269 0.002482 0.007283 0.037477 0.022356 0.004677
# 5 0.004484 0.004834 0.010251 0.022356 0.041815 0.004759
# 6 0.006046 0.011125 0.004666 0.004677 0.004759 0.031249
#
#
# Mechanical properties :
#
#
# Convention : Reuss Voigt Hill
#
# Bulk Modulus (GPa) = 24.87704 57.33466 41.10585
# Shear Modulus (GPa) = 30.58317 44.62432 37.60375
#
# Velocity S-wave (km/s) = 3.31343 4.00241 3.67411
# Velocity P-wave (km/s) = 4.85477 6.47620 5.72320
#
# Compressibility (1/GPa) = 0.04019771
#
# Stress axis : x y z
#
# Youngs Moduli (GPa) = 81.57817 62.89933 85.34869
#
# Poissons Ratio (x) = -0.09938 0.06131
# Poissons Ratio (y) = -0.12889 0.05969
# Poissons Ratio (z) = 0.05860 0.04399
#
# Static dielectric constant tensor:
#      x y z
#    x 2.255360 -0.033240 0.004230 
#    y -0.033240 2.149220 0.118820 
#    z 0.004230 0.118820 2.394190 
# 
# From -- ./inp_files/417704.got.cif
#   From: 2010.05.17/outbox.cif.g08.bks.cpg/sg2_209_cif.got.tgz:417704.got - 2010.06.03 11:33:40.
