data_PCOD9072714
_publ_section_title
;
Structure prediction by ZEFSAII (Michael W. Deem and Ramdas Pophale) SiO2 
 PCOD9072714
Probable space group: P -1
;
_chemical_formula_sum "Si O2"
_cell_formula_units_Z 16
_cell_length_a 15.000000
_cell_length_b 9.000000
_cell_length_c 12.000000
_cell_angle_alpha 70.000000
_cell_angle_beta 130.000000
_cell_angle_gamma 140.000000
_cell_volume 759.581896
_symmetry_space_group_name_H-M "P -1"
_symmetry_group_IT_number 2
_symmetry_cell_setting 'triclinic'
loop_
_space_group_symop_operation_xyz
x,y,z
-x,-y,-z
loop_
_atom_site_type_symbol
_atom_site_label
_atom_site_fract_x
_atom_site_fract_y
_atom_site_fract_z
Si Si1 0.841705 0.677525 0.733834
Si Si2 0.494863 0.385291 0.842920
Si Si3 0.542881 0.161208 0.093040
Si Si4 0.150719 0.048302 0.048844
Si Si5 0.074507 0.414475 0.630638
Si Si6 0.172734 0.285323 0.547758
Si Si7 0.468469 0.815934 0.285955
Si Si8 0.755905 0.949022 0.640859
O O1 0.830182 0.658279 0.596136
O O2 0.728358 0.423790 0.766455
O O3 0.744177 0.745915 0.667685
O O4 0.040616 0.876686 0.895881
O O5 0.682538 0.671322 0.923574
O O6 0.343296 0.356166 0.699569
O O7 0.495645 0.263274 0.770636
O O8 0.469189 0.255965 0.968990
O O9 0.755914 0.389789 0.205759
O O10 0.490066 0.015875 0.202577
O O11 0.500000 0.000000 0.000000
O O12 0.215811 0.001224 0.215454
O O13 0.000000 0.000000 0.000000
O O14 0.148183 0.397052 0.588305
O O15 0.000000 0.500000 0.500000
O O16 0.926556 0.171909 0.645955
O O17 0.000000 0.000000 0.500000
O O18 0.599131 0.889947 0.471787
#
# Coordination Sequence:
#
# PCOD9072714 Si02
#       8
#     2   2   2   2   2   2   2   2
#     4  11  21  38  65  99 137 171 232 277 338 397
#     4  11  21  40  65 101 138 173 230 282 333 402
#     4  10  24  39  64 101 135 179 222 275 343 407
#     4  10  20  35  65 102 134 171 224 288 333 395
#     4  12  25  46  68  99 137 185 230 279 347 417
#     4  12  26  43  70 102 137 181 230 289 341 398
#     4  11  19  37  65  99 133 179 222 271 336 414
#     4  11  19  36  67  97 129 175 228 278 326 400
#
# _framework density 21.064219999999999
#
# number of rings (size 3 to 8) (size 9 to 14) (size 15 to 20)
#    0.000    1.000    6.250    2.625    3.500    0.500 
#    0.000    0.625    0.000    1.500    0.000    0.000 
#    0.000    0.000    0.000    0.000    0.000    0.000 
#
# Total GULP energy -89364.422898 kJ/mol
# GULP energy per Si atom -5585.276431 kJ/mol
# Density = 2.101628 g / cm^3
# Si number density = 21.064220 Si / 1000 Ang^3
#
#
#
# Elastic Constant Matrix: (Units=GPa)
#
#
# Indices 1 2 3 4 5 6 
#
# 1 55.2582 28.0399 31.4015 2.3302 2.1738 -0.6445
# 2 28.0399 122.0894 60.1821 -16.9731 6.1982 23.1093
# 3 31.4015 60.1821 183.6329 -10.8830 -0.9951 -2.2935
# 4 2.3302 -16.9731 -10.8830 52.2215 6.7728 -3.9211
# 5 2.1738 6.1982 -0.9951 6.7728 15.8376 2.7834
# 6 -0.6445 23.1093 -2.2935 -3.9211 2.7834 13.0186
#
#
#
# Elastic Compliance Matrix: (Units=1/GPa)
#
#
# Indices 1 2 3 4 5 6 
#
# 1 0.023027 -0.007378 -0.001508 -0.002502 -0.001684 0.013577
# 2 -0.007378 0.019771 -0.005472 0.003295 -0.002339 -0.034933
# 3 -0.001508 -0.005472 0.007676 0.000638 0.000615 0.011051
# 4 -0.002502 0.003295 0.000638 0.022116 -0.010915 0.003134
# 5 -0.001684 -0.002339 0.000615 -0.010915 0.071525 -0.014403
# 6 0.013577 -0.034933 0.011051 0.003134 -0.014403 0.145464
#
#
# Mechanical properties :
#
#
# Convention : Reuss Voigt Hill
#
# Bulk Modulus (GPa) = 45.95474 66.69195 56.32335
# Shear Modulus (GPa) = 15.35876 32.30602 23.83239
#
# Velocity S-wave (km/s) = 2.70319 3.92049 3.36730
# Velocity P-wave (km/s) = 5.62199 7.22659 6.47420
#
# Compressibility (1/GPa) = 0.02176054
#
# Stress axis : x y z
#
# Youngs Moduli (GPa) = 43.42651 50.57838 130.27774
#
# Poissons Ratio (x) = 0.37315 0.19642
# Poissons Ratio (y) = 0.32039 0.71284
# Poissons Ratio (z) = 0.06547 0.27675
#
# Static dielectric constant tensor:
#      x y z
#    x 1.712390 0.004680 -0.015200 
#    y 0.004680 1.766790 0.022070 
#    z -0.015200 0.022070 1.820160 
# 
# From -- ./inp_files/318194.got.cif
#   From: 2010.05.17/outbox.ucp.g08.bks.cvg/sg2_160_cif.got.tgz:318194.got - 2010.06.11 11:32:03.
