data_PCOD9072462
_publ_section_title
;
Structure prediction by ZEFSAII (Michael W. Deem and Ramdas Pophale) SiO2 
 PCOD9072462
Probable space group: P -1
;
_chemical_formula_sum "Si O2"
_cell_formula_units_Z 16
_cell_length_a 9.000000
_cell_length_b 15.000000
_cell_length_c 15.000000
_cell_angle_alpha 30.000000
_cell_angle_beta 110.000000
_cell_angle_gamma 90.000000
_cell_volume 738.562284
_symmetry_space_group_name_H-M "P -1"
_symmetry_group_IT_number 2
_symmetry_cell_setting 'triclinic'
loop_
_space_group_symop_operation_xyz
x,y,z
-x,-y,-z
loop_
_atom_site_type_symbol
_atom_site_label
_atom_site_fract_x
_atom_site_fract_y
_atom_site_fract_z
Si Si1 0.975082 0.143836 0.597507
Si Si2 0.453801 0.940180 0.162356
Si Si3 0.607442 0.741376 0.718458
Si Si4 0.329265 0.827894 0.729568
Si Si5 0.853321 0.727155 0.330627
Si Si6 0.590504 0.251562 0.500682
Si Si7 0.446275 0.743138 0.019147
Si Si8 0.059840 0.694270 0.748645
O O1 0.008498 0.262227 0.580821
O O2 0.811657 0.110485 0.620618
O O3 0.920255 0.281097 0.374316
O O4 0.202409 0.907390 0.837277
O O5 0.676192 0.747547 0.331069
O O6 0.412268 0.852747 0.317022
O O7 0.278181 0.053692 0.953200
O O8 0.469063 0.137940 0.022429
O O9 0.459701 0.711034 0.769349
O O10 0.571397 0.718715 0.627792
O O11 0.500000 0.000000 0.500000
O O12 0.825190 0.557811 0.969613
O O13 0.176251 0.771715 0.756280
O O14 0.472625 0.739794 0.920884
O O15 0.179170 0.106867 0.453312
O O16 0.000000 0.500000 0.500000
O O17 0.535525 0.498404 0.287369
#
# Coordination Sequence:
#
# PCOD9072462 Si02
#       8
#     2   2   2   2   2   2   2   2
#     4  10  22  39  66  93 121 165 216 253 309 374
#     4  10  24  43  65  95 124 158 210 259 317 378
#     4  12  24  35  55  92 130 164 206 252 306 367
#     4  10  19  37  61  82 120 166 209 240 296 364
#     4  10  22  45  68  89 123 164 204 261 322 376
#     4  12  23  39  64  95 128 163 207 261 311 369
#     4  10  21  41  64  91 129 170 207 255 308 367
#     4  10  20  38  61  84 119 168 203 248 296 361
#
# _framework density 21.663710999999999
#
# number of rings (size 3 to 8) (size 9 to 14) (size 15 to 20)
#    0.000    1.500    2.500    2.625    0.000    3.000 
#    0.000   11.250    0.000    0.000    0.000    0.000 
#    0.000    0.000    0.000    0.000    0.000    0.000 
#
# Total GULP energy -89381.661626 kJ/mol
# GULP energy per Si atom -5586.353852 kJ/mol
# Density = 2.161440 g / cm^3
# Si number density = 21.663711 Si / 1000 Ang^3
#
#
#
# Elastic Constant Matrix: (Units=GPa)
#
#
# Indices 1 2 3 4 5 6 
#
# 1 73.6604 17.4715 44.3676 11.6465 4.8568 -15.8989
# 2 17.4715 114.2823 29.8658 22.3157 -1.1833 -3.9625
# 3 44.3676 29.8658 125.0550 1.5638 -9.8707 -10.7031
# 4 11.6465 22.3157 1.5638 39.7335 -6.6600 -5.7937
# 5 4.8568 -1.1833 -9.8707 -6.6600 31.1398 0.4460
# 6 -15.8989 -3.9625 -10.7031 -5.7937 0.4460 37.0852
#
#
#
# Elastic Compliance Matrix: (Units=1/GPa)
#
#
# Indices 1 2 3 4 5 6 
#
# 1 0.020656 0.000080 -0.007315 -0.006116 -0.006929 0.005881
# 2 0.000080 0.010623 -0.002676 -0.006266 -0.001789 -0.000560
# 3 -0.007315 -0.002676 0.011668 0.004210 0.005630 0.000536
# 4 -0.006116 -0.006266 0.004210 0.032221 0.008901 0.002850
# 5 -0.006929 -0.001789 0.005630 0.008901 0.036823 -0.000589
# 6 0.005881 -0.000560 0.000536 0.002850 -0.000589 0.030033
#
#
# Mechanical properties :
#
#
# Convention : Reuss Voigt Hill
#
# Bulk Modulus (GPa) = 43.24230 55.15639 49.19934
# Shear Modulus (GPa) = 29.48905 36.34456 32.91680
#
# Velocity S-wave (km/s) = 3.69347 4.10038 3.90223
# Velocity P-wave (km/s) = 6.18005 6.92337 6.56224
#
# Compressibility (1/GPa) = 0.02312550
#
# Stress axis : x y z
#
# Youngs Moduli (GPa) = 48.41273 94.13524 85.70193
#
# Poissons Ratio (x) = -0.00753 0.62687
# Poissons Ratio (y) = -0.00387 0.22936
# Poissons Ratio (z) = 0.35412 0.25193
#
# Static dielectric constant tensor:
#      x y z
#    x 1.837070 -0.028450 -0.004070 
#    y -0.028450 1.798610 -0.036650 
#    z -0.004070 -0.036650 1.857250 
# 
# From -- ./inp_files/505088.got.cif
#   From: 2010.05.17/outbox.ucp.g08.bks.cvg/sg2_253_cif.got.tgz:505088.got - 2010.06.11 11:32:03.
