data_PCOD9072740
_publ_section_title
;
Structure prediction by ZEFSAII (Michael W. Deem and Ramdas Pophale) SiO2 
 PCOD9072740
Probable space group: P -1
;
_chemical_formula_sum "Si O2"
_cell_formula_units_Z 14
_cell_length_a 12.000000
_cell_length_b 15.000000
_cell_length_c 15.000000
_cell_angle_alpha 160.000000
_cell_angle_beta 50.000000
_cell_angle_gamma 130.000000
_cell_volume 699.621350
_symmetry_space_group_name_H-M "P -1"
_symmetry_group_IT_number 2
_symmetry_cell_setting 'triclinic'
loop_
_space_group_symop_operation_xyz
x,y,z
-x,-y,-z
loop_
_atom_site_type_symbol
_atom_site_label
_atom_site_fract_x
_atom_site_fract_y
_atom_site_fract_z
Si Si1 0.883701 0.637348 0.403638
Si Si2 0.371817 0.317688 0.950897
Si Si3 0.954832 0.825102 0.083874
Si Si4 0.207526 0.774754 0.789352
Si Si5 0.397636 0.753718 0.494420
Si Si6 0.522670 0.849603 0.937139
Si Si7 0.623946 0.726284 0.493379
O O1 0.784115 0.468853 0.374175
O O2 0.782574 0.703755 0.434911
O O3 0.976938 0.901813 0.646040
O O4 0.990875 0.421657 0.124048
O O5 0.219527 0.229834 0.892714
O O6 0.411014 0.041739 0.711672
O O7 0.500000 0.500000 0.000000
O O8 0.345472 0.515931 0.230616
O O9 0.039966 0.819573 0.938494
O O10 0.276628 0.732652 0.617638
O O11 0.311494 0.040305 0.016986
O O12 0.558273 0.713559 0.414437
O O13 0.474099 0.539118 0.666453
O O14 0.500000 0.000000 0.000000
O O15 0.419247 0.992591 0.190286
#
# Coordination Sequence:
#
# PCOD9072740 Si02
#       7
#     2   2   2   2   2   2   2
#     4  10  20  36  59  98 136 168 181 236 314 388
#     4  12  27  50  67  81 114 167 228 270 302 353
#     4  10  23  39  63  91 122 172 202 244 308 377
#     4   9  22  33  59  97 135 156 193 237 315 375
#     4  11  25  39  67  97 120 163 206 261 310 355
#     4  11  18  27  50  83 134 182 185 211 278 380
#     4  11  21  34  57  93 139 158 198 236 297 388
#
# _framework density 20.010824
#
# number of rings (size 3 to 8) (size 9 to 14) (size 15 to 20)
#    0.857    0.571    1.429    5.143    8.000    1.143 
#    0.000    0.000    0.000    5.143    0.000    0.000 
#    0.000    0.000    0.000    0.000    0.000    0.000 
#
# Total GULP energy -77963.775787 kJ/mol
# GULP energy per Si atom -5568.841128 kJ/mol
# Density = 1.996528 g / cm^3
# Si number density = 20.010824 Si / 1000 Ang^3
#
#
#
# Elastic Constant Matrix: (Units=GPa)
#
#
# Indices 1 2 3 4 5 6 
#
# 1 133.9218 47.2224 36.5683 23.7007 -5.2932 24.0060
# 2 47.2224 54.5849 13.5702 18.4617 -7.5657 15.1647
# 3 36.5683 13.5702 101.2145 33.5719 3.8198 6.0013
# 4 23.7007 18.4617 33.5719 28.6939 -4.4166 -1.2564
# 5 -5.2932 -7.5657 3.8198 -4.4166 39.3689 11.1712
# 6 24.0060 15.1647 6.0013 -1.2564 11.1712 23.0397
#
#
#
# Elastic Compliance Matrix: (Units=1/GPa)
#
#
# Indices 1 2 3 4 5 6 
#
# 1 0.012940 -0.005249 -0.001645 -0.005342 0.003592 -0.011632
# 2 -0.005249 0.042296 0.008355 -0.032195 0.012133 -0.032185
# 3 -0.001645 0.008355 0.018737 -0.026464 -0.000619 -0.009808
# 4 -0.005342 -0.032195 -0.026464 0.091863 -0.005800 0.041472
# 5 0.003592 0.012133 -0.000619 -0.005800 0.035942 -0.029310
# 6 -0.011632 -0.032185 -0.009808 0.041472 -0.029310 0.095735
#
#
# Mechanical properties :
#
#
# Convention : Reuss Voigt Hill
#
# Bulk Modulus (GPa) = 13.00490 53.82700 33.41595
# Shear Modulus (GPa) = 15.61412 31.04451 23.32931
#
# Velocity S-wave (km/s) = 2.79639 3.94304 3.41814
# Velocity P-wave (km/s) = 4.11575 6.90561 5.68449
#
# Compressibility (1/GPa) = 0.07689407
#
# Stress axis : x y z
#
# Youngs Moduli (GPa) = 77.28212 23.64276 53.37054
#
# Poissons Ratio (x) = 0.12410 0.08780
# Poissons Ratio (y) = 0.40566 -0.44590
# Poissons Ratio (z) = 0.12714 -0.19753
#
# Static dielectric constant tensor:
#      x y z
#    x 1.759730 -0.016200 -0.000120 
#    y -0.016200 1.719270 -0.065250 
#    z -0.000120 -0.065250 1.770910 
# 
# From -- ./inp_files/522018.got.cif
#   From: 2010.05.17/outbox.ucp.g08.bks.cvg/sg2_262_cif.got.tgz:522018.got - 2010.06.11 11:32:03.
