data_PCOD9072221
_publ_section_title
;
Structure prediction by ZEFSAII (Michael W. Deem and Ramdas Pophale) SiO2 
 PCOD9072221
Probable space group: P -1
;
_chemical_formula_sum "Si O2"
_cell_formula_units_Z 16
_cell_length_a 8.639812
_cell_length_b 14.748587
_cell_length_c 11.476314
_cell_angle_alpha 84.780483
_cell_angle_beta 128.977190
_cell_angle_gamma 130.769263
_cell_volume 722.912814
_symmetry_space_group_name_H-M "P -1"
_symmetry_group_IT_number 2
_symmetry_cell_setting 'triclinic'
loop_
_space_group_symop_operation_xyz
x,y,z
-x,-y,-z
loop_
_atom_site_type_symbol
_atom_site_label
_atom_site_fract_x
_atom_site_fract_y
_atom_site_fract_z
Si Si1 0.085920 0.179672 0.490362
Si Si2 0.279914 0.613534 0.874097
Si Si3 0.786722 0.582497 0.543535
Si Si4 0.622230 0.387027 0.326151
Si Si5 0.298603 0.669719 0.124598
Si Si6 0.911201 0.299503 0.779333
Si Si7 0.139335 0.900091 0.343346
Si Si8 0.271267 0.137274 0.370065
O O1 0.023143 0.259632 0.409593
O O2 0.448700 0.291625 0.680490
O O3 0.051009 0.101130 0.371968
O O4 0.930144 0.111113 0.550210
O O5 0.475506 0.672789 0.842265
O O6 0.992872 0.578052 0.704148
O O7 0.155457 0.467486 0.856683
O O8 0.418371 0.708224 0.044178
O O9 0.500000 0.500000 0.500000
O O10 0.636053 0.495897 0.360529
O O11 0.397239 0.255224 0.324004
O O12 0.000000 0.500000 0.500000
O O13 0.197266 0.728039 0.133054
O O14 0.000000 0.500000 0.000000
O O15 0.017150 0.240908 0.780548
O O16 0.598801 0.219288 0.571971
O O17 0.500000 0.000000 0.500000
O O18 0.115253 0.991063 0.263488
#
# Coordination Sequence:
#
# PCOD9072221 Si02
#       8
#     2   2   2   2   2   2   2   2
#     4  11  21  35  56  86 116 137 185 235 270 325
#     4  10  19  32  55  80 114 147 172 213 290 335
#     4  11  18  30  53  85 114 136 171 227 284 319
#     4  10  18  30  53  78 116 141 176 226 282 324
#     4   9  19  36  56  79 115 151 177 216 281 339
#     4   9  16  34  52  79 110 142 184 228 264 325
#     4  10  22  33  56  83 107 146 191 235 272 310
#     4  10  18  34  52  82 109 145 183 229 275 323
#
# _framework density 22.132683
#
# number of rings (size 3 to 8) (size 9 to 14) (size 15 to 20)
#    0.000    2.000    3.750    2.625    5.250    0.000 
#    0.000    6.875    0.000    1.500    0.000    0.000 
#    0.000    0.000    0.000    0.000    0.000    0.000 
#
# Total GULP energy -89130.504318 kJ/mol
# GULP energy per Si atom -5570.656520 kJ/mol
# Density = 2.208231 g / cm^3
# Si number density = 22.132683 Si / 1000 Ang^3
#
#
#
# Elastic Constant Matrix: (Units=GPa)
#
#
# Indices 1 2 3 4 5 6 
#
# 1 137.0211 41.1710 13.6643 -5.2120 -37.5132 -13.2472
# 2 41.1710 80.2207 3.9188 0.5497 -6.3880 -24.0671
# 3 13.6643 3.9188 44.6294 -3.6565 -13.4972 -3.0398
# 4 -5.2120 0.5497 -3.6565 13.5568 6.9821 1.0991
# 5 -37.5132 -6.3880 -13.4972 6.9821 35.7498 6.9394
# 6 -13.2472 -24.0671 -3.0398 1.0991 6.9394 38.1082
#
#
#
# Elastic Compliance Matrix: (Units=1/GPa)
#
#
# Indices 1 2 3 4 5 6 
#
# 1 0.012204 -0.005758 0.000324 -0.001274 0.012458 -0.001601
# 2 -0.005758 0.018188 -0.000696 -0.001523 -0.004765 0.010341
# 3 0.000324 -0.000696 0.025381 0.002169 0.009389 -0.000074
# 4 -0.001274 -0.001523 0.002169 0.082629 -0.016821 -0.000552
# 5 0.012458 -0.004765 0.009389 -0.016821 0.048232 -0.006227
# 6 -0.001601 0.010341 -0.000074 -0.000552 -0.006227 0.033360
#
#
# Mechanical properties :
#
#
# Convention : Reuss Voigt Hill
#
# Bulk Modulus (GPa) = 22.98204 42.15327 32.56765
# Shear Modulus (GPa) = 20.26272 31.02407 25.64340
#
# Velocity S-wave (km/s) = 3.02902 3.74803 3.40755
# Velocity P-wave (km/s) = 4.75811 6.14958 5.49804
#
# Compressibility (1/GPa) = 0.04351224
#
# Stress axis : x y z
#
# Youngs Moduli (GPa) = 81.94194 54.98003 39.39992
#
# Poissons Ratio (x) = 0.31660 -0.01275
# Poissons Ratio (y) = 0.47186 0.02740
# Poissons Ratio (z) = -0.02651 0.03824
#
# Static dielectric constant tensor:
#      x y z
#    x 1.727830 0.050340 -0.128740 
#    y 0.050340 1.867340 0.048980 
#    z -0.128740 0.048980 1.834330 
# 
# From -- ./inp_files/269653.got.cif
#   From: 2010.05.17/outbox.cif.g08.bks.cpg/sg2_135_cif.got.tgz:269653.got - 2010.06.03 11:33:40.
