data_PCOD9072583
_publ_section_title
;
Structure prediction by ZEFSAII (Michael W. Deem and Ramdas Pophale) SiO2 
 PCOD9072583
Probable space group: P -1
;
_chemical_formula_sum "Si O2"
_cell_formula_units_Z 16
_cell_length_a 15.000000
_cell_length_b 15.000000
_cell_length_c 15.000000
_cell_angle_alpha 30.000000
_cell_angle_beta 130.000000
_cell_angle_gamma 150.000000
_cell_volume 762.223433
_symmetry_space_group_name_H-M "P -1"
_symmetry_group_IT_number 2
_symmetry_cell_setting 'triclinic'
loop_
_space_group_symop_operation_xyz
x,y,z
-x,-y,-z
loop_
_atom_site_type_symbol
_atom_site_label
_atom_site_fract_x
_atom_site_fract_y
_atom_site_fract_z
Si Si1 0.618516 0.417459 0.181395
Si Si2 0.799926 0.158438 0.406338
Si Si3 0.208154 0.765962 0.859005
Si Si4 0.424048 0.610385 0.352246
Si Si5 0.410557 0.672712 0.088448
Si Si6 0.779895 0.357747 0.689934
Si Si7 0.360390 0.370499 0.154202
Si Si8 0.377579 0.827267 0.452396
O O1 0.546579 0.501395 0.115926
O O2 0.715113 0.407766 0.325057
O O3 0.425447 0.077115 0.310776
O O4 0.727429 0.609585 0.995086
O O5 0.794706 0.120593 0.329924
O O6 0.015476 0.486107 0.289991
O O7 0.788526 0.965975 0.623030
O O8 0.599972 0.021535 0.414262
O O9 0.375751 0.036366 0.800249
O O10 0.262310 0.631237 0.985145
O O11 0.000000 0.500000 0.000000
O O12 0.500000 0.500000 0.500000
O O13 0.352307 0.553904 0.254222
O O14 0.265487 0.504710 0.410796
O O15 0.424227 0.534259 0.146024
O O16 0.617453 0.029029 0.914102
O O17 0.730384 0.306215 0.596558
#
# Coordination Sequence:
#
# PCOD9072583 Si02
#       8
#     2   2   2   2   2   2   2   2
#     4   9  19  37  65  85 117 160 199 253 306 354
#     4  11  21  37  64  90 123 155 204 247 297 359
#     4  11  21  38  59  87 123 163 205 242 288 360
#     4  11  23  38  58  90 126 157 197 248 300 352
#     4  11  21  38  63  85 124 163 200 243 301 360
#     4  11  22  40  61  92 121 160 202 242 297 364
#     4  10  20  36  62  91 118 157 201 251 310 349
#     4  10  19  40  66  86 118 163 202 245 306 356
#
# _framework density 20.991219999999998
#
# number of rings (size 3 to 8) (size 9 to 14) (size 15 to 20)
#    0.000    1.500    3.750    3.750    1.750    1.000 
#    0.000   10.000    0.000    0.000    0.000    0.000 
#    0.000    0.000    0.000    0.000    0.000    0.000 
#
# Total GULP energy -89085.114735 kJ/mol
# GULP energy per Si atom -5567.819671 kJ/mol
# Density = 2.094344 g / cm^3
# Si number density = 20.991220 Si / 1000 Ang^3
#
#
#
# Elastic Constant Matrix: (Units=GPa)
#
#
# Indices 1 2 3 4 5 6 
#
# 1 68.5547 29.2321 11.4836 -1.3529 1.1100 -32.8796
# 2 29.2321 56.3713 -15.3029 4.6254 -18.9836 -9.1087
# 3 11.4836 -15.3029 42.0697 17.3300 -14.3844 -4.6523
# 4 -1.3529 4.6254 17.3300 28.2030 -11.1802 -16.3751
# 5 1.1100 -18.9836 -14.3844 -11.1802 28.1276 4.1212
# 6 -32.8796 -9.1087 -4.6523 -16.3751 4.1212 40.7713
#
#
#
# Elastic Compliance Matrix: (Units=1/GPa)
#
#
# Indices 1 2 3 4 5 6 
#
# 1 -0.032485 0.048403 0.058304 -0.043173 0.051184 -0.031243
# 2 0.048403 -0.029424 -0.053182 0.056920 -0.034062 0.052696
# 3 0.058304 -0.053182 -0.042770 0.051108 -0.047902 0.055625
# 4 -0.043173 0.056920 0.051108 0.010345 0.073227 -0.019515
# 5 0.051184 -0.034062 -0.047902 0.073227 0.006813 0.056922
# 6 -0.031243 0.052696 0.055625 -0.019515 0.056922 0.003860
#
#
# Mechanical properties :
#
#
# Convention : Reuss Voigt Hill
#
# Bulk Modulus (GPa) = 421.38051 24.20234 222.79143
# Shear Modulus (GPa) = -26.32652 28.85926 1.26637
#
# Velocity S-wave (km/s) = -3.54527 3.71189 0.77756
# Velocity P-wave (km/s) = 13.58008 5.47043 10.35239
#
# Compressibility (1/GPa) = 0.00237315
#
# Stress axis : x y z
#
# Youngs Moduli (GPa) = -30.78387 -33.98587 -23.38081
#
# Poissons Ratio (x) = 1.64503 1.36320
# Poissons Ratio (y) = 1.49005 -1.24343
# Poissons Ratio (z) = 1.79483 -1.80743
#
# Static dielectric constant tensor:
#      x y z
#    x 1.942330 0.034040 -0.006900 
#    y 0.034040 1.731880 -0.020770 
#    z -0.006900 -0.020770 1.878460 
# 
# From -- ./inp_files/203302.got.cif
#   From: 2010.05.17/outbox.ucp.g08.bks.cvg/sg2_102_cif.got.tgz:203302.got - 2010.06.11 11:32:03.
