data_PCOD9072251
_publ_section_title
;
Structure prediction by ZEFSAII (Michael W. Deem and Ramdas Pophale) SiO2 
 PCOD9072251
Probable space group: P -1
;
_chemical_formula_sum "Si O2"
_cell_formula_units_Z 16
_cell_length_a 11.457972
_cell_length_b 6.902525
_cell_length_c 8.129183
_cell_angle_alpha 77.434326
_cell_angle_beta 66.530290
_cell_angle_gamma 81.771436
_cell_volume 574.467203
_symmetry_space_group_name_H-M "P -1"
_symmetry_group_IT_number 2
_symmetry_cell_setting 'triclinic'
loop_
_space_group_symop_operation_xyz
x,y,z
-x,-y,-z
loop_
_atom_site_type_symbol
_atom_site_label
_atom_site_fract_x
_atom_site_fract_y
_atom_site_fract_z
Si Si1 0.568630 0.665424 0.702497
Si Si2 0.598994 0.650163 0.068961
Si Si3 0.066703 0.784261 0.047386
Si Si4 0.225759 0.789910 0.653975
Si Si5 0.795931 0.929531 0.878615
Si Si6 0.830811 0.724100 0.389174
Si Si7 0.404111 0.920515 0.296438
Si Si8 0.002832 0.233255 0.408748
O O1 0.445774 0.538819 0.774454
O O2 0.687621 0.653364 0.511597
O O3 0.523928 0.896841 0.706557
O O4 0.618999 0.603478 0.872775
O O5 0.474943 0.799549 0.135560
O O6 0.705719 0.788025 0.055769
O O7 0.165719 0.702615 0.868410
O O8 0.944658 0.674343 0.201083
O O9 0.160682 0.860192 0.122668
O O10 0.000000 0.000000 0.000000
O O11 0.363835 0.785514 0.494081
O O12 0.139723 0.703825 0.571662
O O13 0.195652 0.031683 0.649288
O O14 0.917276 0.781327 0.800735
O O15 0.719643 0.976764 0.743910
O O16 0.911630 0.675233 0.519329
O O17 0.000000 0.000000 0.500000
#
# Coordination Sequence:
#
# PCOD9072251 Si02
#       8
#     2   2   2   2   2   2   2   2
#     4   9  17  31  49  76 105 129 166 210 247 295
#     4  10  20  30  50  80 102 135 169 201 251 301
#     4  10  17  25  46  79 101 126 175 208 248 305
#     4   9  16  26  45  75 100 128 169 209 243 303
#     4  11  16  27  47  75 104 129 164 214 251 293
#     4   9  14  25  46  71  98 128 158 211 254 286
#     4  10  18  33  53  75 104 136 164 206 252 294
#     4  10  12  24  44  73  96 127 166 207 257 293
#
# _framework density 27.851894000000001
#
# number of rings (size 3 to 8) (size 9 to 14) (size 15 to 20)
#    0.000    2.250    8.750    1.500    0.000    0.000 
#    0.000    0.625    0.000   10.500    0.000   10.500 
#    0.000    0.000    0.000    0.000    0.000    0.000 
#
# Total GULP energy -89268.834765 kJ/mol
# GULP energy per Si atom -5579.302173 kJ/mol
# Density = 2.778850 g / cm^3
# Si number density = 27.851894 Si / 1000 Ang^3
#
#
#
# Elastic Constant Matrix: (Units=GPa)
#
#
# Indices 1 2 3 4 5 6 
#
# 1 30.3175 15.5681 22.7020 -8.3168 -17.2834 5.3411
# 2 15.5681 114.5566 47.3459 -27.5301 -16.7063 15.7534
# 3 22.7020 47.3459 162.3220 -35.2594 -35.8514 20.2515
# 4 -8.3168 -27.5301 -35.2594 39.5228 12.8698 -15.3338
# 5 -17.2834 -16.7063 -35.8514 12.8698 50.1883 -2.9863
# 6 5.3411 15.7534 20.2515 -15.3338 -2.9863 24.5040
#
#
#
# Elastic Compliance Matrix: (Units=1/GPa)
#
#
# Indices 1 2 3 4 5 6 
#
# 1 0.043797 -0.002719 -0.002061 -0.000491 0.012541 -0.004874
# 2 -0.002719 0.011263 -0.001462 0.004964 0.000360 -0.002291
# 3 -0.002061 -0.001462 0.009036 0.004136 0.004019 -0.003001
# 4 -0.000491 0.004964 0.004136 0.041232 -0.005023 0.018687
# 5 0.012541 0.000360 0.004019 -0.005023 0.028166 -0.005997
# 6 -0.004874 -0.002291 -0.003001 0.018687 -0.005997 0.056787
#
#
# Mechanical properties :
#
#
# Convention : Reuss Voigt Hill
#
# Bulk Modulus (GPa) = 19.37501 53.15870 36.26685
# Shear Modulus (GPa) = 22.73056 37.61501 30.17278
#
# Velocity S-wave (km/s) = 2.85988 3.67895 3.29497
# Velocity P-wave (km/s) = 4.22810 6.09704 5.24646
#
# Compressibility (1/GPa) = 0.05161288
#
# Stress axis : x y z
#
# Youngs Moduli (GPa) = 22.83253 88.78495 110.67259
#
# Poissons Ratio (x) = 0.24141 0.22809
# Poissons Ratio (y) = 0.06208 0.16175
# Poissons Ratio (z) = 0.04706 0.12976
#
# Static dielectric constant tensor:
#      x y z
#    x 2.302790 0.017100 0.021390 
#    y 0.017100 2.298710 -0.035550 
#    z 0.021390 -0.035550 2.245980 
# 
# From -- ./inp_files/295748.got.cif
#   From: 2010.05.17/outbox.cif.g08.bks.cpg/sg2_148_cif.got.tgz:295748.got - 2010.06.03 11:33:40.
