data_PCOD9072267
_publ_section_title
;
Structure prediction by ZEFSAII (Michael W. Deem and Ramdas Pophale) SiO2 
 PCOD9072267
Probable space group: P -1
;
_chemical_formula_sum "Si O2"
_cell_formula_units_Z 14
_cell_length_a 8.375760
_cell_length_b 7.035792
_cell_length_c 13.746791
_cell_angle_alpha 59.794431
_cell_angle_beta 124.023577
_cell_angle_gamma 99.629247
_cell_volume 572.829151
_symmetry_space_group_name_H-M "P -1"
_symmetry_group_IT_number 2
_symmetry_cell_setting 'triclinic'
loop_
_space_group_symop_operation_xyz
x,y,z
-x,-y,-z
loop_
_atom_site_type_symbol
_atom_site_label
_atom_site_fract_x
_atom_site_fract_y
_atom_site_fract_z
Si Si1 0.415924 0.641774 0.670580
Si Si2 0.194079 0.031588 0.990527
Si Si3 0.085613 0.599090 0.269057
Si Si4 0.577522 0.242021 0.566766
Si Si5 0.799329 0.443474 0.906597
Si Si6 0.022018 0.285435 0.492120
Si Si7 0.411965 0.124249 0.731181
O O1 0.457882 0.773189 0.554097
O O2 0.599061 0.609413 0.813851
O O3 0.196936 0.750809 0.593703
O O4 0.410845 0.380710 0.703337
O O5 0.216956 0.802704 0.997365
O O6 0.407070 0.018450 0.114580
O O7 0.000000 0.000000 0.000000
O O8 0.129921 0.264815 0.855547
O O9 0.196378 0.769404 0.324021
O O10 0.179509 0.560373 0.203904
O O11 0.096189 0.376265 0.392371
O O12 0.500000 0.500000 0.500000
O O13 0.480805 0.106052 0.647280
O O14 0.000000 0.500000 0.000000
O O15 0.000000 0.500000 0.500000
O O16 0.182643 0.109255 0.648129
#
# Coordination Sequence:
#
# PCOD9072267 Si02
#       7
#     2   2   2   2   2   2   2
#     4   9  16  27  44  72  96 118 164 199 229 274
#     4   9  17  28  47  75 100 119 154 205 245 271
#     4  11  17  29  50  78  98 119 156 208 243 272
#     4  10  12  24  47  70  91 118 158 205 233 263
#     4  10  19  33  50  69  98 134 161 188 233 296
#     4  10  17  26  47  76  98 121 159 201 243 279
#     4   9  14  25  42  70  95 120 151 196 243 278
#
# _framework density 24.440097000000002
#
# number of rings (size 3 to 8) (size 9 to 14) (size 15 to 20)
#    0.000    2.286   10.000    0.000    0.000    0.000 
#    0.000    7.143    0.000    0.857    0.000    5.000 
#    0.000    0.000    0.000    0.000    0.000    0.000 
#
# Total GULP energy -78003.828899 kJ/mol
# GULP energy per Si atom -5571.702064 kJ/mol
# Density = 2.438447 g / cm^3
# Si number density = 24.440097 Si / 1000 Ang^3
#
#
#
# Elastic Constant Matrix: (Units=GPa)
#
#
# Indices 1 2 3 4 5 6 
#
# 1 57.6449 -2.3298 36.3438 3.2034 43.5660 9.1450
# 2 -2.3298 64.6116 16.1640 5.8442 11.1864 -4.1131
# 3 36.3438 16.1640 177.3773 -0.4394 77.5845 6.4822
# 4 3.2034 5.8442 -0.4394 23.0153 2.4131 0.8849
# 5 43.5660 11.1864 77.5845 2.4131 63.2273 7.3912
# 6 9.1450 -4.1131 6.4822 0.8849 7.3912 10.9623
#
#
#
# Elastic Compliance Matrix: (Units=1/GPa)
#
#
# Indices 1 2 3 4 5 6 
#
# 1 0.045956 0.006173 0.008869 -0.002898 -0.042048 -0.012682
# 2 0.006173 0.018000 0.000797 -0.004752 -0.009131 0.007673
# 3 0.008869 0.000797 0.014058 0.001291 -0.023598 0.000394
# 4 -0.002898 -0.004752 0.001291 0.045232 -0.000033 -0.003757
# 5 -0.042048 -0.009131 -0.023598 -0.000033 0.076022 -0.005650
# 6 -0.012682 0.007673 0.000394 -0.003757 -0.005650 0.108559
#
#
# Mechanical properties :
#
#
# Convention : Reuss Voigt Hill
#
# Bulk Modulus (GPa) = 9.11642 44.44332 26.77987
# Shear Modulus (GPa) = 15.98903 36.07138 26.03021
#
# Velocity S-wave (km/s) = 2.56053 3.84593 3.26707
# Velocity P-wave (km/s) = 3.53270 6.16000 5.02123
#
# Compressibility (1/GPa) = 0.10969214
#
# Stress axis : x y z
#
# Youngs Moduli (GPa) = 21.75974 55.55684 71.13164
#
# Poissons Ratio (x) = -0.34296 -0.63087
# Poissons Ratio (y) = -0.13432 -0.05667
# Poissons Ratio (z) = -0.19299 -0.04426
#
# Static dielectric constant tensor:
#      x y z
#    x 2.059880 0.011480 0.070610 
#    y 0.011480 2.053450 0.014340 
#    z 0.070610 0.014340 2.016040 
# 
# From -- ./inp_files/206391.got.cif
#   From: 2010.05.17/outbox.cif.g08.bks.cpg/sg2_104_cif.got.tgz:206391.got - 2010.06.03 11:33:40.
