data_PCOD9072820
_publ_section_title
;
Structure prediction by ZEFSAII (Michael W. Deem and Ramdas Pophale) SiO2 
 PCOD9072820
Probable space group: P -1
;
_chemical_formula_sum "Si O2"
_cell_formula_units_Z 16
_cell_length_a 27.000000
_cell_length_b 9.000000
_cell_length_c 27.000000
_cell_angle_alpha 140.000000
_cell_angle_beta 10.000000
_cell_angle_gamma 140.000000
_cell_volume 728.340053
_symmetry_space_group_name_H-M "P -1"
_symmetry_group_IT_number 2
_symmetry_cell_setting 'triclinic'
loop_
_space_group_symop_operation_xyz
x,y,z
-x,-y,-z
loop_
_atom_site_type_symbol
_atom_site_label
_atom_site_fract_x
_atom_site_fract_y
_atom_site_fract_z
Si Si1 0.381786 0.274716 0.526359
Si Si2 0.559738 0.139332 0.128957
Si Si3 0.164151 0.972785 0.947430
Si Si4 0.751548 0.337235 0.311865
Si Si5 0.976162 0.874293 0.414887
Si Si6 0.690243 0.636860 0.167390
Si Si7 0.476398 0.379399 0.938144
Si Si8 0.981915 0.629509 0.445132
O O1 0.500000 0.500000 0.500000
O O2 0.633852 0.113101 0.230688
O O3 0.282053 0.403686 0.609402
O O4 0.148550 0.116650 0.747806
O O5 0.295765 0.154557 0.357898
O O6 0.593704 0.367675 0.186118
O O7 0.543897 0.895381 0.109504
O O8 0.792598 0.130878 0.855595
O O9 0.221104 0.826246 0.804208
O O10 0.245058 0.232895 0.915225
O O11 0.520696 0.255331 0.559585
O O12 0.030425 0.345180 0.071014
O O13 0.977866 0.677665 0.403812
O O14 0.996556 0.119900 0.485539
O O15 0.725783 0.476173 0.682162
O O16 0.500000 0.500000 0.000000
O O17 0.226775 0.484425 0.183377
#
# Coordination Sequence:
#
# PCOD9072820 Si02
#       8
#     2   2   2   2   2   2   2   2
#     4  10  20  37  63  93 117 149 198 259 301 340
#     4  12  25  41  60  86 129 160 197 248 305 359
#     4  11  21  39  64  91 118 158 208 248 294 356
#     4  11  21  40  63  88 120 156 206 253 289 355
#     4  11  22  41  62  89 120 154 197 254 296 355
#     4  12  25  40  58  90 123 166 197 244 310 354
#     4  12  21  39  63  94 117 155 196 247 298 357
#     4  11  22  38  66  94 113 151 206 248 297 351
#
# _framework density 21.967760999999999
#
# number of rings (size 3 to 8) (size 9 to 14) (size 15 to 20)
#    0.000    0.750    2.500    7.875    0.000    2.000 
#    0.000    7.500    0.000    0.000    0.000    0.000 
#    0.000    0.000    0.000    0.000    0.000    0.000 
#
# Total GULP energy -89111.323732 kJ/mol
# GULP energy per Si atom -5569.457733 kJ/mol
# Density = 2.191776 g / cm^3
# Si number density = 21.967761 Si / 1000 Ang^3
#
#
#
# Elastic Constant Matrix: (Units=GPa)
#
#
# Indices 1 2 3 4 5 6 
#
# 1 14.9378 27.7422 90.5069 11.4091 19.8590 -42.8920
# 2 27.7422 125.9156 51.4426 2.4574 8.3809 -29.2225
# 3 90.5069 51.4426 90.6387 -39.1834 -53.4541 -0.5078
# 4 11.4091 2.4574 -39.1834 17.0139 -23.9017 8.7613
# 5 19.8590 8.3809 -53.4541 -23.9017 9.9819 16.4807
# 6 -42.8920 -29.2225 -0.5078 8.7613 16.4807 30.3133
#
#
#
# Elastic Compliance Matrix: (Units=1/GPa)
#
#
# Indices 1 2 3 4 5 6 
#
# 1 0.025726 -0.007721 0.004365 0.025011 0.025119 0.008145
# 2 -0.007721 0.010333 -0.000566 -0.001928 -0.002685 0.001044
# 3 0.004365 -0.000566 0.004249 -0.001904 -0.003338 0.008067
# 4 0.025011 -0.001928 -0.001904 0.039855 0.007880 0.017695
# 5 0.025119 -0.002685 -0.003338 0.007880 0.028366 0.015198
# 6 0.008145 0.001044 0.008067 0.017695 0.015198 0.032279
#
#
# Mechanical properties :
#
#
# Convention : Reuss Voigt Hill
#
# Bulk Modulus (GPa) = 30.80339 63.43060 47.11700
# Shear Modulus (GPa) = 31.35365 15.58186 23.46775
#
# Velocity S-wave (km/s) = 3.78200 2.66617 3.27200
# Velocity P-wave (km/s) = 5.75534 6.19799 5.98076
#
# Compressibility (1/GPa) = 0.03246395
#
# Stress axis : x y z
#
# Youngs Moduli (GPa) = 38.87151 96.77937 235.37259
#
# Poissons Ratio (x) = 0.74724 -1.02751
# Poissons Ratio (y) = 0.30013 0.13321
# Poissons Ratio (z) = -0.16969 0.05477
#
# Static dielectric constant tensor:
#      x y z
#    x 1.887070 0.247110 -0.060480 
#    y 0.247110 2.209630 -0.075880 
#    z -0.060480 -0.075880 1.851370 
# 
# From -- ./inp_files/227998.got.cif
#   From: 2010.05.17/outbox.ucp.g08.bks.cvg/sg2_114_cif.got.tgz:227998.got - 2010.06.11 11:32:03.
