data_PCOD9072281
_publ_section_title
;
Structure prediction by ZEFSAII (Michael W. Deem and Ramdas Pophale) SiO2 
 PCOD9072281
Probable space group: P -1
;
_chemical_formula_sum "Si O2"
_cell_formula_units_Z 16
_cell_length_a 13.603700
_cell_length_b 7.966544
_cell_length_c 11.499424
_cell_angle_alpha 78.828101
_cell_angle_beta 137.865403
_cell_angle_gamma 82.576221
_cell_volume 746.403858
_symmetry_space_group_name_H-M "P -1"
_symmetry_group_IT_number 2
_symmetry_cell_setting 'triclinic'
loop_
_space_group_symop_operation_xyz
x,y,z
-x,-y,-z
loop_
_atom_site_type_symbol
_atom_site_label
_atom_site_fract_x
_atom_site_fract_y
_atom_site_fract_z
Si Si1 0.173222 0.999940 0.931274
Si Si2 0.151353 0.776747 0.730723
Si Si3 0.958033 0.672133 0.071018
Si Si4 0.502433 0.974055 0.735226
Si Si5 0.263876 0.006848 0.345713
Si Si6 0.747795 0.306450 0.779620
Si Si7 0.700883 0.536641 0.915684
Si Si8 0.808615 0.991939 0.457509
O O1 0.151968 0.944534 0.791392
O O2 0.069670 0.212008 0.849325
O O3 0.359521 0.961349 0.120847
O O4 0.142224 0.862556 0.014158
O O5 0.198815 0.824021 0.640676
O O6 0.267120 0.591963 0.924794
O O7 0.963651 0.815847 0.569279
O O8 0.843977 0.826941 0.856886
O O9 0.876961 0.527612 0.034891
O O10 0.140393 0.611668 0.200452
O O11 0.588190 0.749649 0.819621
O O12 0.361660 0.022735 0.700068
O O13 0.407967 0.050493 0.521242
O O14 0.312321 0.809873 0.346625
O O15 0.178038 0.993276 0.393221
O O16 0.641637 0.457317 0.762129
#
# Coordination Sequence:
#
# PCOD9072281 Si02
#       8
#     2   2   2   2   2   2   2   2
#     4   9  18  32  55  81 104 142 179 211 264 320
#     4  10  19  37  62  77 103 137 191 221 247 328
#     4  10  18  32  56  80 109 141 175 219 268 312
#     4   9  21  36  52  82 110 142 170 220 277 309
#     4   9  18  34  53  75 108 141 176 209 261 325
#     4  10  18  30  54  79 107 140 179 218 257 316
#     4  10  21  33  53  83 109 141 174 219 274 306
#     4   9  20  36  58  81 100 146 177 221 266 303
#
# _framework density 21.436115999999998
#
# number of rings (size 3 to 8) (size 9 to 14) (size 15 to 20)
#    0.750    1.750    0.000    4.125    0.000    6.000 
#    0.000    1.250    0.000   21.750    0.000    0.000 
#    0.000    0.000    0.000    0.000    0.000    0.000 
#
# Total GULP energy -89124.039096 kJ/mol
# GULP energy per Si atom -5570.252443 kJ/mol
# Density = 2.138733 g / cm^3
# Si number density = 21.436116 Si / 1000 Ang^3
#
#
#
# Elastic Constant Matrix: (Units=GPa)
#
#
# Indices 1 2 3 4 5 6 
#
# 1 73.8134 -4.8944 12.2337 -2.4639 -3.4487 22.1540
# 2 -4.8944 37.5184 -0.8085 2.8086 -13.2760 -0.0042
# 3 12.2337 -0.8085 53.8151 -5.2845 -6.1535 8.0686
# 4 -2.4639 2.8086 -5.2845 22.2209 7.2822 -1.3136
# 5 -3.4487 -13.2760 -6.1535 7.2822 32.1737 -1.9551
# 6 22.1540 -0.0042 8.0686 -1.3136 -1.9551 20.2012
#
#
#
# Elastic Compliance Matrix: (Units=1/GPa)
#
#
# Indices 1 2 3 4 5 6 
#
# 1 0.020665 0.003478 -0.001136 -0.000439 0.002194 -0.022024
# 2 0.003478 0.033592 0.001178 -0.009124 0.016325 -0.003291
# 3 -0.001136 0.001178 0.020497 0.003179 0.003174 -0.006427
# 4 -0.000439 -0.009124 0.003179 0.051800 -0.014859 0.001140
# 5 0.002194 0.016325 0.003174 -0.014859 0.041988 -0.000573
# 6 -0.022024 -0.003291 -0.006427 0.001140 -0.000573 0.076240
#
#
# Mechanical properties :
#
#
# Convention : Reuss Voigt Hill
#
# Bulk Modulus (GPa) = 12.22576 19.80094 16.01335
# Shear Modulus (GPa) = 18.86757 25.49359 22.18058
#
# Velocity S-wave (km/s) = 2.97000 3.45234 3.22021
# Velocity P-wave (km/s) = 4.18054 5.01485 4.61658
#
# Compressibility (1/GPa) = 0.08179453
#
# Stress axis : x y z
#
# Youngs Moduli (GPa) = 48.39210 29.76915 48.78805
#
# Poissons Ratio (x) = -0.10354 0.05540
# Poissons Ratio (y) = -0.16831 -0.05748
# Poissons Ratio (z) = 0.05495 -0.03507
#
# Static dielectric constant tensor:
#      x y z
#    x 1.848680 0.003790 0.043410 
#    y 0.003790 1.781340 0.022390 
#    z 0.043410 0.022390 1.811650 
# 
# From -- ./inp_files/445796.got.cif
#   From: 2010.05.17/outbox.cif.g08.bks.cpg/sg2_223_cif.got.tgz:445796.got - 2010.06.03 11:33:40.
