data_PCOD9072894
_publ_section_title
;
Structure prediction by ZEFSAII (Michael W. Deem and Ramdas Pophale) SiO2 
 PCOD9072894
Probable space group: P -1
;
_chemical_formula_sum "Si O2"
_cell_formula_units_Z 16
_cell_length_a 9.000000
_cell_length_b 12.000000
_cell_length_c 18.000000
_cell_angle_alpha 140.000000
_cell_angle_beta 110.000000
_cell_angle_gamma 100.000000
_cell_volume 813.354092
_symmetry_space_group_name_H-M "P -1"
_symmetry_group_IT_number 2
_symmetry_cell_setting 'triclinic'
loop_
_space_group_symop_operation_xyz
x,y,z
-x,-y,-z
loop_
_atom_site_type_symbol
_atom_site_label
_atom_site_fract_x
_atom_site_fract_y
_atom_site_fract_z
Si Si1 0.268394 0.236965 0.293413
Si Si2 0.269164 0.514275 0.995735
Si Si3 0.286049 0.413315 0.222761
Si Si4 0.744048 0.817325 0.281191
Si Si5 0.251302 0.295886 0.606527
Si Si6 0.181886 0.139193 0.911697
Si Si7 0.563483 0.194923 0.048693
Si Si8 0.126402 0.721963 0.982600
O O1 0.500000 0.500000 0.500000
O O2 0.230166 0.288639 0.230359
O O3 0.071703 0.133033 0.265059
O O4 0.235227 0.999089 0.162017
O O5 0.277710 0.391744 0.864271
O O6 0.196375 0.319226 0.950869
O O7 0.140452 0.588624 0.984040
O O8 0.530233 0.760805 0.188710
O O9 0.560856 0.648800 0.384811
O O10 0.124702 0.442470 0.181231
O O11 0.234709 0.242660 0.058301
O O12 0.734566 0.787030 0.352728
O O13 0.987962 0.075891 0.427236
O O14 0.316438 0.547764 0.758247
O O15 0.360884 0.124279 0.928932
O O16 0.727587 0.238519 0.039333
O O17 0.500000 0.000000 0.000000
#
# Coordination Sequence:
#
# PCOD9072894 Si02
#       8
#     2   2   2   2   2   2   2   2
#     4  11  25  44  62  90 128 167 208 265 320 374
#     4  11  20  39  65  93 128 165 211 261 311 372
#     4  10  21  42  64  87 124 169 206 244 323 385
#     4  10  20  38  63  90 133 164 205 256 316 374
#     4  10  20  39  64  92 122 171 207 254 320 367
#     4  10  21  41  66  88 124 177 203 248 327 379
#     4  11  19  37  66  95 118 167 221 254 302 380
#     4  11  22  40  65  93 125 166 215 257 308 382
#
# _framework density 19.671628999999999
#
# number of rings (size 3 to 8) (size 9 to 14) (size 15 to 20)
#    0.000    1.500    3.750    4.500    1.750    2.000 
#    4.500    1.250    0.000    0.000    0.000    0.000 
#    0.000    0.000    0.000    0.000    0.000    0.000 
#
# Total GULP energy -89106.252558 kJ/mol
# GULP energy per Si atom -5569.140785 kJ/mol
# Density = 1.962686 g / cm^3
# Si number density = 19.671629 Si / 1000 Ang^3
#
#
#
# Elastic Constant Matrix: (Units=GPa)
#
#
# Indices 1 2 3 4 5 6 
#
# 1 110.6070 41.8549 35.7523 13.2766 25.7532 -8.4365
# 2 41.8549 152.7827 36.1785 9.1092 22.0471 -13.6065
# 3 35.7523 36.1785 76.8337 13.9141 33.7020 -7.1522
# 4 13.2766 9.1092 13.9141 29.3199 7.3755 1.4118
# 5 25.7532 22.0471 33.7020 7.3755 34.5646 3.1922
# 6 -8.4365 -13.6065 -7.1522 1.4118 3.1922 39.6123
#
#
#
# Elastic Compliance Matrix: (Units=1/GPa)
#
#
# Indices 1 2 3 4 5 6 
#
# 1 0.012095 -0.001718 -0.001372 -0.002848 -0.006186 0.002338
# 2 -0.001718 0.007969 -0.001645 -0.000445 -0.002314 0.002277
# 3 -0.001372 -0.001645 0.025866 -0.005775 -0.022455 0.005828
# 4 -0.002848 -0.000445 -0.005775 0.038393 0.000138 -0.003181
# 5 -0.006186 -0.002314 -0.022455 0.000138 0.057882 -0.010836
# 6 0.002338 0.002277 0.005828 -0.003181 -0.010836 0.028564
#
#
# Mechanical properties :
#
#
# Convention : Reuss Voigt Hill
#
# Bulk Modulus (GPa) = 27.42810 63.08832 45.25821
# Shear Modulus (GPa) = 25.98842 35.79521 30.89181
#
# Velocity S-wave (km/s) = 3.63865 4.27035 3.96709
# Velocity P-wave (km/s) = 5.62373 7.51364 6.63631
#
# Compressibility (1/GPa) = 0.03645895
#
# Stress axis : x y z
#
# Youngs Moduli (GPa) = 82.67702 125.49216 38.66050
#
# Poissons Ratio (x) = 0.21557 0.05305
# Poissons Ratio (y) = 0.14202 0.06361
# Poissons Ratio (z) = 0.11346 0.20649
#
# Static dielectric constant tensor:
#      x y z
#    x 1.776260 0.024330 0.066610 
#    y 0.024330 1.710060 0.002260 
#    z 0.066610 0.002260 1.748360 
# 
# From -- ./inp_files/559309.got.cif
#   From: 2010.05.17/outbox.ucp.g08.bks.cvg/sg2_280_cif.got.tgz:559309.got - 2010.06.11 11:32:03.
