data_PCOD9072505
_publ_section_title
;
Structure prediction by ZEFSAII (Michael W. Deem and Ramdas Pophale) SiO2 
 PCOD9072505
Probable space group: P -1
;
_chemical_formula_sum "Si O2"
_cell_formula_units_Z 16
_cell_length_a 8.819276
_cell_length_b 9.535533
_cell_length_c 9.632570
_cell_angle_alpha 120.606048
_cell_angle_beta 99.460603
_cell_angle_gamma 102.205496
_cell_volume 644.846547
_symmetry_space_group_name_H-M "P -1"
_symmetry_group_IT_number 2
_symmetry_cell_setting 'triclinic'
loop_
_space_group_symop_operation_xyz
x,y,z
-x,-y,-z
loop_
_atom_site_type_symbol
_atom_site_label
_atom_site_fract_x
_atom_site_fract_y
_atom_site_fract_z
Si Si1 0.731922 0.317703 0.955556
Si Si2 0.284897 0.042006 0.115686
Si Si3 0.115737 0.049401 0.392947
Si Si4 0.996979 0.654524 0.217161
Si Si5 0.863185 0.139456 0.242626
Si Si6 0.103239 0.461239 0.371578
Si Si7 0.529097 0.817256 0.389060
Si Si8 0.599000 0.305484 0.391526
O O1 0.682264 0.143433 0.955776
O O2 0.579370 0.279973 0.807140
O O3 0.895541 0.330953 0.899611
O O4 0.810882 0.513091 0.129344
O O5 0.188857 0.043763 0.244475
O O6 0.442632 0.216371 0.230193
O O7 0.206764 0.031208 0.946946
O O8 0.275798 0.137270 0.555663
O O9 0.982897 0.136450 0.382495
O O10 0.016889 0.855107 0.331877
O O11 0.100617 0.587821 0.310616
O O12 0.989130 0.270462 0.217945
O O13 0.719474 0.200027 0.312265
O O14 0.000000 0.500000 0.500000
O O15 0.279398 0.495582 0.484553
O O16 0.461918 0.721206 0.473664
O O17 0.500000 0.000000 0.500000
#
# Coordination Sequence:
#
# PCOD9072505 Si02
#       8
#     2   2   2   2   2   2   2   2
#     4  10  18  30  61  82 105 140 202 227 259 317
#     4  10  19  36  59  84 110 150 189 229 270 338
#     4  10  22  35  60  86 115 144 183 240 284 317
#     4  10  18  34  56  87 102 147 193 228 266 331
#     4  11  22  38  53  90 117 145 180 235 288 327
#     4  10  20  35  56  80 114 148 184 222 271 343
#     4  11  17  36  58  83 108 145 195 230 266 334
#     4  10  20  34  59  81 107 154 189 223 270 340
#
# _framework density 24.812101999999999
#
# number of rings (size 3 to 8) (size 9 to 14) (size 15 to 20)
#    0.000    1.750    6.250    0.750    0.000    0.000 
#    0.000    9.375    0.000    0.750    0.000    0.000 
#    0.000    0.000    0.000    0.000    0.000    0.000 
#
# Total GULP energy -89207.175219 kJ/mol
# GULP energy per Si atom -5575.448451 kJ/mol
# Density = 2.475563 g / cm^3
# Si number density = 24.812102 Si / 1000 Ang^3
#
#
#
# Elastic Constant Matrix: (Units=GPa)
#
#
# Indices 1 2 3 4 5 6 
#
# 1 80.2925 12.0780 42.3814 5.8911 20.2927 3.9936
# 2 12.0780 44.8381 2.4779 5.8373 5.2650 -3.4715
# 3 42.3814 2.4779 137.6043 10.6929 49.4445 4.3940
# 4 5.8911 5.8373 10.6929 35.8262 12.3900 2.7395
# 5 20.2927 5.2650 49.4445 12.3900 39.7126 -0.2337
# 6 3.9936 -3.4715 4.3940 2.7395 -0.2337 25.2164
#
#
#
# Elastic Compliance Matrix: (Units=1/GPa)
#
#
# Indices 1 2 3 4 5 6 
#
# 1 0.015862 -0.003941 -0.003601 0.000423 -0.003246 -0.002503
# 2 -0.003941 0.024283 0.001735 -0.003337 -0.002300 0.004006
# 3 -0.003601 0.001735 0.014307 0.002023 -0.016846 -0.002060
# 4 0.000423 -0.003337 0.002023 0.032429 -0.012436 -0.004517
# 5 -0.003246 -0.002300 -0.016846 -0.012436 0.052028 0.004966
# 6 -0.002503 0.004006 -0.002060 -0.004517 0.004966 0.041500
#
#
# Mechanical properties :
#
#
# Convention : Reuss Voigt Hill
#
# Bulk Modulus (GPa) = 23.34477 41.84550 32.59514
# Shear Modulus (GPa) = 24.23611 33.87087 29.05349
#
# Velocity S-wave (km/s) = 3.12875 3.69873 3.42561
# Velocity P-wave (km/s) = 4.74143 5.92810 5.36766
#
# Compressibility (1/GPa) = 0.04283614
#
# Stress axis : x y z
#
# Youngs Moduli (GPa) = 63.04401 41.18104 69.89691
#
# Poissons Ratio (x) = 0.16231 0.25170
# Poissons Ratio (y) = 0.24848 -0.12125
# Poissons Ratio (z) = 0.22702 -0.07143
#
# Static dielectric constant tensor:
#      x y z
#    x 2.018020 -0.001140 -0.002940 
#    y -0.001140 2.156390 0.102570 
#    z -0.002940 0.102570 2.077000 
# 
# From -- ./inp_files/388272.got.cif
#   From: 2010.05.17/outbox.cif.g08.bks.cpg/sg2_195_cif.got.tgz:388272.got - 2010.06.03 11:33:40.
