data_PCOD9072042
_publ_section_title
;
Structure prediction by ZEFSAII (Michael W. Deem and Ramdas Pophale) SiO2 
 PCOD9072042
Probable space group: P -1
;
_chemical_formula_sum "Si O2"
_cell_formula_units_Z 14
_cell_length_a 7.919072
_cell_length_b 16.079738
_cell_length_c 5.350660
_cell_angle_alpha 89.490183
_cell_angle_beta 55.863747
_cell_angle_gamma 91.355817
_cell_volume 563.584194
_symmetry_space_group_name_H-M "P -1"
_symmetry_group_IT_number 2
_symmetry_cell_setting 'triclinic'
loop_
_space_group_symop_operation_xyz
x,y,z
-x,-y,-z
loop_
_atom_site_type_symbol
_atom_site_label
_atom_site_fract_x
_atom_site_fract_y
_atom_site_fract_z
Si Si1 0.011760 0.187969 0.220755
Si Si2 0.535019 0.313537 0.238064
Si Si3 0.403340 0.595829 0.316434
Si Si4 0.156952 0.424626 0.551580
Si Si5 0.864978 0.983760 0.861752
Si Si6 0.882187 0.621841 0.917783
Si Si7 0.257613 0.844238 0.052471
O O1 0.176970 0.115329 0.102436
O O2 0.860953 0.178572 0.588244
O O3 0.107506 0.279885 0.120307
O O4 0.890538 0.173816 0.061750
O O5 0.631804 0.341759 0.423243
O O6 0.302958 0.344055 0.437938
O O7 0.635189 0.362414 0.919417
O O8 0.560123 0.217156 0.153561
O O9 0.309742 0.503915 0.431121
O O10 0.648956 0.588175 0.113592
O O11 0.024399 0.412152 0.907505
O O12 0.031321 0.416862 0.402534
O O13 0.700329 0.055864 0.989772
O O14 0.000000 0.000000 0.500000
O O15 0.000000 0.000000 0.000000
#
# Coordination Sequence:
#
# PCOD9072042 Si02
#       7
#     2   2   2   2   2   2   2
#     4  10  19  32  50  73  99 125 154 191 236 283
#     4  10  18  30  51  73  93 119 162 201 231 271
#     4  10  19  33  53  69  89 126 166 200 228 272
#     4  10  19  33  53  69  89 126 166 200 228 272
#     4   8  16  30  48  68  92 126 160 184 218 278
#     4  10  18  30  51  73  93 119 162 201 231 271
#     4  10  19  32  50  73  99 125 154 191 236 283
#
# _framework density 24.841009
#
# number of rings (size 3 to 8) (size 9 to 14) (size 15 to 20)
#    0.000    2.286    0.000    6.000    0.000    0.000 
#    0.000    0.000    0.000   36.000    0.000    0.000 
#    0.000    0.000    0.000    0.000    0.000    0.000 
#
# Total GULP energy -78274.881880 kJ/mol
# GULP energy per Si atom -5591.062991 kJ/mol
# Density = 2.478447 g / cm^3
# Si number density = 24.841009 Si / 1000 Ang^3
#
#
#
# Elastic Constant Matrix: (Units=GPa)
#
#
# Indices 1 2 3 4 5 6 
#
# 1 57.9595 19.8764 38.9989 -0.8456 20.7550 0.0799
# 2 19.8764 147.4937 26.9446 24.3537 -2.2797 -10.1331
# 3 38.9989 26.9446 133.9400 3.4698 50.7035 0.3317
# 4 -0.8456 24.3537 3.4698 42.6241 -8.5437 -2.0059
# 5 20.7550 -2.2797 50.7035 -8.5437 66.4284 13.1339
# 6 0.0799 -10.1331 0.3317 -2.0059 13.1339 31.2907
#
#
#
# Elastic Compliance Matrix: (Units=1/GPa)
#
#
# Indices 1 2 3 4 5 6 
#
# 1 0.022579 -0.002420 -0.004853 0.001584 -0.003373 0.000728
# 2 -0.002420 0.008196 -0.001226 -0.004333 0.001027 0.001965
# 3 -0.004853 -0.001226 0.012586 -0.002081 -0.009020 0.003135
# 4 0.001584 -0.004333 -0.002081 0.027011 0.004744 -0.001645
# 5 -0.003373 0.001027 -0.009020 0.004744 0.025618 -0.010012
# 6 0.000728 0.001965 0.003135 -0.001645 -0.010012 0.036656
#
#
# Mechanical properties :
#
#
# Convention : Reuss Voigt Hill
#
# Bulk Modulus (GPa) = 37.93037 56.78145 47.35591
# Shear Modulus (GPa) = 31.55927 44.97353 38.26640
#
# Velocity S-wave (km/s) = 3.56820 4.25956 3.92912
# Velocity P-wave (km/s) = 5.68142 6.86290 6.29992
#
# Compressibility (1/GPa) = 0.02636410
#
# Stress axis : x y z
#
# Youngs Moduli (GPa) = 44.28904 122.00715 79.45025
#
# Poissons Ratio (x) = 0.29523 0.38559
# Poissons Ratio (y) = 0.10717 0.09739
# Poissons Ratio (z) = 0.21495 0.14955
#
# Static dielectric constant tensor:
#      x y z
#    x 2.016740 -0.042900 0.070410 
#    y -0.042900 1.981440 0.045450 
#    z 0.070410 0.045450 2.054010 
# 
# From -- ./inp_files/32126.got.cif
#   From: 2010.05.17/outbox.cif.g08.bks.cpg/sg2_17_cif.got.tgz:32126.got - 2010.06.03 11:33:40.
