data_PCOD9072650
_publ_section_title
;
Structure prediction by ZEFSAII (Michael W. Deem and Ramdas Pophale) SiO2 
 PCOD9072650
Probable space group: P -1
;
_chemical_formula_sum "Si O2"
_cell_formula_units_Z 16
_cell_length_a 15.000000
_cell_length_b 9.000000
_cell_length_c 9.000000
_cell_angle_alpha 60.000000
_cell_angle_beta 120.000000
_cell_angle_gamma 90.000000
_cell_volume 859.134739
_symmetry_space_group_name_H-M "P -1"
_symmetry_group_IT_number 2
_symmetry_cell_setting 'triclinic'
loop_
_space_group_symop_operation_xyz
x,y,z
-x,-y,-z
loop_
_atom_site_type_symbol
_atom_site_label
_atom_site_fract_x
_atom_site_fract_y
_atom_site_fract_z
Si Si1 0.508608 0.840795 0.705872
Si Si2 0.571785 0.559577 0.653899
Si Si3 0.754685 0.180407 0.033370
Si Si4 0.073794 0.312629 0.592229
Si Si5 0.966317 0.027053 0.128310
Si Si6 0.873867 0.902911 0.532241
Si Si7 0.676084 0.847256 0.089056
Si Si8 0.649996 0.856868 0.400305
O O1 0.509648 0.668343 0.694019
O O2 0.500000 0.000000 0.500000
O O3 0.411964 0.941235 0.688718
O O4 0.614173 0.804512 0.917992
O O5 0.500000 0.500000 0.500000
O O6 0.618069 0.704046 0.538595
O O7 0.668550 0.380002 0.877414
O O8 0.850278 0.178035 0.998418
O O9 0.817151 0.075748 0.287026
O O10 0.690765 0.045915 0.988332
O O11 0.053064 0.255840 0.436506
O O12 0.200899 0.290507 0.723471
O O13 0.000000 0.500000 0.500000
O O14 0.054124 0.156862 0.751594
O O15 0.058313 0.054327 0.299516
O O16 0.000000 0.000000 0.000000
O O17 0.776308 0.834129 0.536003
O O18 0.623862 0.846853 0.208562
#
# Coordination Sequence:
#
# PCOD9072650 Si02
#       8
#     2   2   2   2   2   2   2   2
#     4  10  20  34  55  79 106 143 179 219 271 325
#     4  11  23  37  55  83 112 141 180 229 277 322
#     4   9  19  38  57  77 111 148 178 224 272 319
#     4   9  19  36  58  82 110 144 181 224 269 322
#     4  10  21  35  57  84 112 146 183 223 271 320
#     4   9  20  39  57  78 110 150 184 218 271 328
#     4   9  19  37  58  79 107 146 182 218 272 326
#     4   9  20  38  58  78 108 144 183 227 270 324
#
# _framework density 18.623387999999998
#
# number of rings (size 3 to 8) (size 9 to 14) (size 15 to 20)
#    0.000    3.000    0.000    3.375    0.000   10.000 
#    0.000    6.875    0.000    0.000    0.000    0.000 
#    0.000    0.000    0.000    0.000    0.000    0.000 
#
# Total GULP energy -89110.270633 kJ/mol
# GULP energy per Si atom -5569.391915 kJ/mol
# Density = 1.858100 g / cm^3
# Si number density = 18.623388 Si / 1000 Ang^3
#
#
#
# Elastic Constant Matrix: (Units=GPa)
#
#
# Indices 1 2 3 4 5 6 
#
# 1 68.4434 35.0067 15.4788 -2.0300 -10.4181 -16.7390
# 2 35.0067 121.7430 53.7731 1.8067 8.8637 -37.6951
# 3 15.4788 53.7731 54.7376 12.6306 2.4722 -19.1253
# 4 -2.0300 1.8067 12.6306 36.5415 -12.7716 1.1541
# 5 -10.4181 8.8637 2.4722 -12.7716 14.1627 -2.2075
# 6 -16.7390 -37.6951 -19.1253 1.1541 -2.2075 27.8254
#
#
#
# Elastic Compliance Matrix: (Units=1/GPa)
#
#
# Indices 1 2 3 4 5 6 
#
# 1 0.028555 -0.007759 -0.004719 0.019084 0.044859 0.006190
# 2 -0.007759 0.022100 -0.012198 -0.004433 -0.018981 0.015565
# 3 -0.004719 -0.012198 0.039846 -0.020796 -0.020414 0.007267
# 4 0.019084 -0.004433 -0.020796 0.062579 0.076036 -0.005382
# 5 0.044859 -0.018981 -0.020414 0.076036 0.187455 -0.001040
# 6 0.006190 0.015565 0.007267 -0.005382 -0.001040 0.065885
#
#
# Mechanical properties :
#
#
# Convention : Reuss Voigt Hill
#
# Bulk Modulus (GPa) = 24.30202 50.38236 37.34219
# Shear Modulus (GPa) = 10.64993 25.08360 17.86676
#
# Velocity S-wave (km/s) = 2.39395 3.67398 3.10073
# Velocity P-wave (km/s) = 4.55180 6.71636 5.73709
#
# Compressibility (1/GPa) = 0.04114884
#
# Stress axis : x y z
#
# Youngs Moduli (GPa) = 35.02074 45.24911 25.09656
#
# Poissons Ratio (x) = 0.35108 0.11844
# Poissons Ratio (y) = 0.27172 0.30612
# Poissons Ratio (z) = 0.16528 0.55194
#
# Static dielectric constant tensor:
#      x y z
#    x 1.716770 -0.036490 0.017460 
#    y -0.036490 1.646010 -0.010540 
#    z 0.017460 -0.010540 1.646680 
# 
# From -- ./inp_files/297722.got.cif
#   From: 2010.05.17/outbox.ucp.g08.bks.cvg/sg2_149_cif.got.tgz:297722.got - 2010.06.11 11:32:03.
