data_PCOD9072283
_publ_section_title
;
Structure prediction by ZEFSAII (Michael W. Deem and Ramdas Pophale) SiO2 
 PCOD9072283
Probable space group: P -1
;
_chemical_formula_sum "Si O2"
_cell_formula_units_Z 16
_cell_length_a 12.982192
_cell_length_b 9.160934
_cell_length_c 7.258741
_cell_angle_alpha 115.780264
_cell_angle_beta 123.765230
_cell_angle_gamma 67.778806
_cell_volume 635.402059
_symmetry_space_group_name_H-M "P -1"
_symmetry_group_IT_number 2
_symmetry_cell_setting 'triclinic'
loop_
_space_group_symop_operation_xyz
x,y,z
-x,-y,-z
loop_
_atom_site_type_symbol
_atom_site_label
_atom_site_fract_x
_atom_site_fract_y
_atom_site_fract_z
Si Si1 0.205308 0.034242 0.339505
Si Si2 0.267255 0.007583 0.943107
Si Si3 0.091483 0.400004 0.387374
Si Si4 0.265825 0.674871 0.173140
Si Si5 0.277830 0.658620 0.739981
Si Si6 0.535824 0.905698 0.291070
Si Si7 0.797220 0.642582 0.896271
Si Si8 0.448157 0.388154 0.598220
O O1 0.233434 0.028557 0.141728
O O2 0.115498 0.209367 0.373069
O O3 0.329667 0.049312 0.589304
O O4 0.183646 0.849003 0.248971
O O5 0.210095 0.187097 0.908380
O O6 0.419574 0.958612 0.069538
O O7 0.223532 0.845822 0.729626
O O8 0.197209 0.516545 0.553492
O O9 0.090171 0.378222 0.151993
O O10 0.000000 0.500000 0.500000
O O11 0.202708 0.521328 0.078392
O O12 0.412132 0.650937 0.369327
O O13 0.285856 0.674496 0.974649
O O14 0.405781 0.577828 0.720007
O O15 0.553330 0.717398 0.272634
O O16 0.500000 0.000000 0.500000
O O17 0.658826 0.664517 0.668385
#
# Coordination Sequence:
#
# PCOD9072283 Si02
#       8
#     2   2   2   2   2   2   2   2
#     4   9  16  31  52  74 101 139 175 197 249 316
#     4   9  16  29  50  73 108 142 166 201 246 306
#     4  10  21  40  60  74  92 130 180 224 259 308
#     4  11  20  31  52  83 110 138 166 209 254 304
#     4  10  20  32  53  79 102 133 178 209 253 302
#     4  10  12  25  50  76 101 138 180 195 227 309
#     4  10  20  35  51  77 110 139 174 207 249 305
#     4  11  17  29  52  79 111 145 173 200 236 306
#
# _framework density 25.180906
#
# number of rings (size 3 to 8) (size 9 to 14) (size 15 to 20)
#    0.000    2.000    8.750    0.750    0.000    0.000 
#    0.000   10.000    0.000    0.000    0.000    0.000 
#    0.000    0.000    0.000    0.000    0.000    0.000 
#
# Total GULP energy -89223.915088 kJ/mol
# GULP energy per Si atom -5576.494693 kJ/mol
# Density = 2.512359 g / cm^3
# Si number density = 25.180906 Si / 1000 Ang^3
#
#
#
# Elastic Constant Matrix: (Units=GPa)
#
#
# Indices 1 2 3 4 5 6 
#
# 1 54.7839 56.7922 2.0067 11.8103 -18.0498 1.4957
# 2 56.7922 215.8347 35.1048 71.2905 -18.6534 2.6269
# 3 2.0067 35.1048 46.6879 17.0895 -15.2192 0.1160
# 4 11.8103 71.2905 17.0895 44.9527 -2.0248 -8.7795
# 5 -18.0498 -18.6534 -15.2192 -2.0248 26.8195 6.4406
# 6 1.4957 2.6269 0.1160 -8.7795 6.4406 33.3635
#
#
#
# Elastic Compliance Matrix: (Units=1/GPa)
#
#
# Indices 1 2 3 4 5 6 
#
# 1 0.037318 -0.009665 0.015024 -0.000176 0.028468 -0.006506
# 2 -0.009665 0.015028 -0.001947 -0.021797 0.002887 -0.007036
# 3 0.015024 -0.001947 0.038726 -0.016312 0.032181 -0.011160
# 4 -0.000176 -0.021797 -0.016312 0.066649 -0.025317 0.024207
# 5 0.028468 0.002887 0.032181 -0.025317 0.080524 -0.023822
# 6 -0.006506 -0.007036 -0.011160 0.024207 -0.023822 0.041826
#
#
# Mechanical properties :
#
#
# Convention : Reuss Voigt Hill
#
# Bulk Modulus (GPa) = 10.21506 56.12373 33.16940
# Shear Modulus (GPa) = 16.34636 35.92067 26.13352
#
# Velocity S-wave (km/s) = 2.55062 3.78101 3.22503
# Velocity P-wave (km/s) = 3.56927 6.43412 5.20277
#
# Compressibility (1/GPa) = 0.09789464
#
# Stress axis : x y z
#
# Youngs Moduli (GPa) = 26.79694 66.54309 25.82257
#
# Poissons Ratio (x) = 0.64315 -0.38796
# Poissons Ratio (y) = 0.25900 0.05028
# Poissons Ratio (z) = -0.40259 0.12956
#
# Static dielectric constant tensor:
#      x y z
#    x 2.107840 0.021300 0.109240 
#    y 0.021300 2.116780 0.016140 
#    z 0.109240 0.016140 2.274500 
# 
# From -- ./inp_files/197416.got.cif
#   From: 2010.05.17/outbox.cif.g08.bks.cpg/sg2_99_cif.got.tgz:197416.got - 2010.06.03 11:33:40.
