data_PCOD9072885
_publ_section_title
;
Structure prediction by ZEFSAII (Michael W. Deem and Ramdas Pophale) SiO2 
 PCOD9072885
Probable space group: P -1
;
_chemical_formula_sum "Si O2"
_cell_formula_units_Z 16
_cell_length_a 15.000000
_cell_length_b 12.000000
_cell_length_c 9.000000
_cell_angle_alpha 110.000000
_cell_angle_beta 130.000000
_cell_angle_gamma 40.000000
_cell_volume 759.581896
_symmetry_space_group_name_H-M "P -1"
_symmetry_group_IT_number 2
_symmetry_cell_setting 'triclinic'
loop_
_space_group_symop_operation_xyz
x,y,z
-x,-y,-z
loop_
_atom_site_type_symbol
_atom_site_label
_atom_site_fract_x
_atom_site_fract_y
_atom_site_fract_z
Si Si1 0.347618 0.330922 0.952030
Si Si2 0.585470 0.874063 0.314817
Si Si3 0.097758 0.531109 0.007726
Si Si4 0.648231 0.477388 0.190719
Si Si5 0.638152 0.095395 0.416745
Si Si6 0.384459 0.342011 0.490804
Si Si7 0.970575 0.892324 0.488536
Si Si8 0.165748 0.201766 0.936501
O O1 0.184998 0.516321 0.948521
O O2 0.495201 0.193108 0.172407
O O3 0.302193 0.252896 0.768024
O O4 0.405908 0.372724 0.904490
O O5 0.646937 0.960150 0.440835
O O6 0.608126 0.775588 0.440624
O O7 0.378835 0.030055 0.107976
O O8 0.229157 0.441893 0.249706
O O9 0.920386 0.733094 0.961485
O O10 0.104364 0.384383 0.911348
O O11 0.641696 0.525410 0.374360
O O12 0.851568 0.279502 0.309195
O O13 0.500000 0.500000 0.000000
O O14 0.810855 0.013663 0.489837
O O15 0.555792 0.234138 0.524265
O O16 0.913033 0.837245 0.276465
O O17 0.000000 0.000000 0.500000
#
# Coordination Sequence:
#
# PCOD9072885 Si02
#       8
#     2   2   2   2   2   2   2   2
#     4  10  20  38  62  90 124 165 208 252 314 377
#     4  11  20  36  66  96 133 165 198 258 327 374
#     4  10  21  39  63 100 125 163 204 259 329 369
#     4  11  25  46  62  85 124 174 214 261 311 374
#     4  11  21  40  64  98 126 163 212 257 314 381
#     4  10  22  40  64  98 127 162 209 263 319 374
#     4  12  26  44  64  93 125 175 216 260 311 373
#     4  11  21  38  66  92 135 159 205 258 321 374
#
# _framework density 21.064219999999999
#
# number of rings (size 3 to 8) (size 9 to 14) (size 15 to 20)
#    0.000    1.250    5.000    2.250    1.750    1.000 
#    4.500    4.375    0.000    0.000    0.000    0.000 
#    0.000    0.000    0.000    0.000    0.000    0.000 
#
# Total GULP energy -89151.856314 kJ/mol
# GULP energy per Si atom -5571.991020 kJ/mol
# Density = 2.101628 g / cm^3
# Si number density = 21.064220 Si / 1000 Ang^3
#
#
#
# Elastic Constant Matrix: (Units=GPa)
#
#
# Indices 1 2 3 4 5 6 
#
# 1 72.3523 47.9001 43.7603 19.5841 2.9136 -38.6960
# 2 47.9001 38.0762 8.6796 4.3975 -4.1974 -15.3863
# 3 43.7603 8.6796 55.6594 5.8075 1.5218 2.6108
# 4 19.5841 4.3975 5.8075 16.7235 -0.5498 -2.1988
# 5 2.9136 -4.1974 1.5218 -0.5498 31.8461 8.3974
# 6 -38.6960 -15.3863 2.6108 -2.1988 8.3974 37.4538
#
#
#
# Elastic Compliance Matrix: (Units=1/GPa)
#
#
# Indices 1 2 3 4 5 6 
#
# 1 -0.027197 0.020436 0.017074 0.017973 0.010530 -0.022199
# 2 0.020436 0.018382 -0.018222 -0.018669 -0.006912 0.030390
# 3 0.017074 -0.018222 0.008903 -0.017199 -0.007370 0.010176
# 4 0.017973 -0.018669 -0.017199 0.051596 -0.006782 0.016649
# 5 0.010530 -0.006912 -0.007370 -0.006782 0.029346 0.001576
# 6 -0.022199 0.030390 0.010176 0.016649 0.001576 0.016163
#
#
# Mechanical properties :
#
#
# Convention : Reuss Voigt Hill
#
# Bulk Modulus (GPa) = 25.86396 40.75199 33.30798
# Shear Modulus (GPa) = 69.92453 21.58787 45.75620
#
# Velocity S-wave (km/s) = 5.76784 3.20482 4.66577
# Velocity P-wave (km/s) = 7.52745 5.75178 6.69871
#
# Compressibility (1/GPa) = 0.03866383
#
# Stress axis : x y z
#
# Youngs Moduli (GPa) = -36.76870 54.40002 112.32244
#
# Poissons Ratio (x) = -1.11174 -1.91779
# Poissons Ratio (y) = 0.75142 2.04680
# Poissons Ratio (z) = 0.62779 0.99130
#
# Static dielectric constant tensor:
#      x y z
#    x 1.833770 -0.062610 0.025890 
#    y -0.062610 1.772480 0.132920 
#    z 0.025890 0.132920 1.816830 
# 
# From -- ./inp_files/308179.got.cif
#   From: 2010.05.17/outbox.ucp.g08.bks.cvg/sg2_155_cif.got.tgz:308179.got - 2010.06.11 11:32:03.
