data_PCOD9072204
_publ_section_title
;
Structure prediction by ZEFSAII (Michael W. Deem and Ramdas Pophale) SiO2 
 PCOD9072204
Probable space group: P -1
;
_chemical_formula_sum "Si O2"
_cell_formula_units_Z 16
_cell_length_a 20.143606
_cell_length_b 9.598900
_cell_length_c 12.080614
_cell_angle_alpha 38.101194
_cell_angle_beta 41.458376
_cell_angle_gamma 37.877415
_cell_volume 832.662565
_symmetry_space_group_name_H-M "P -1"
_symmetry_group_IT_number 2
_symmetry_cell_setting 'triclinic'
loop_
_space_group_symop_operation_xyz
x,y,z
-x,-y,-z
loop_
_atom_site_type_symbol
_atom_site_label
_atom_site_fract_x
_atom_site_fract_y
_atom_site_fract_z
Si Si1 0.523518 0.382686 0.921285
Si Si2 0.865459 0.499707 0.532635
Si Si3 0.930469 0.018198 0.461496
Si Si4 0.734524 0.286266 0.972824
Si Si5 0.292022 0.116256 0.905022
Si Si6 0.715105 0.487910 0.518496
Si Si7 0.062953 0.576376 0.965051
Si Si8 0.914646 0.889977 0.153325
O O1 0.599885 0.490390 0.699731
O O2 0.500000 0.500000 0.000000
O O3 0.394297 0.503709 0.963753
O O4 0.598949 0.074518 0.038020
O O5 0.804865 0.419151 0.752919
O O6 0.785447 0.531309 0.504169
O O7 0.876414 0.754356 0.378162
O O8 0.995347 0.270818 0.494301
O O9 0.799130 0.195269 0.552954
O O10 0.933730 0.186902 0.248016
O O11 0.000000 0.000000 0.500000
O O12 0.737159 0.083274 0.002103
O O13 0.801151 0.113814 0.100751
O O14 0.307970 0.295839 0.680895
O O15 0.186488 0.323290 0.981267
O O16 0.000000 0.500000 0.000000
O O17 0.983768 0.672197 0.110446
O O18 0.000000 0.000000 0.000000
#
# Coordination Sequence:
#
# PCOD9072204 Si02
#       8
#     2   2   2   2   2   2   2   2
#     4  10  21  31  52  83 124 151 183 233 289 346
#     4  11  19  34  55  77 114 158 183 233 292 342
#     4   9  18  28  52  85 114 142 184 232 286 337
#     4  11  21  38  53  84 123 150 192 233 287 347
#     4  10  19  32  55  86 113 146 186 234 287 333
#     4  10  18  30  52  89 117 145 185 235 291 338
#     4  11  18  35  58  83 117 145 186 247 283 337
#     4  12  26  39  57  86 118 156 194 237 293 345
#
# _framework density 19.215467
#
# number of rings (size 3 to 8) (size 9 to 14) (size 15 to 20)
#    0.000    1.500    6.250    1.500    3.500    3.500 
#    0.000    0.000    0.000    0.750    0.000    2.625 
#    0.000    0.000    0.000    0.000    0.000    0.000 
#
# Total GULP energy -89151.631363 kJ/mol
# GULP energy per Si atom -5571.976960 kJ/mol
# Density = 1.917173 g / cm^3
# Si number density = 19.215467 Si / 1000 Ang^3
#
#
#
# Elastic Constant Matrix: (Units=GPa)
#
#
# Indices 1 2 3 4 5 6 
#
# 1 12.4381 24.8638 4.7520 -9.4325 -9.1246 -10.0468
# 2 24.8638 124.0807 48.6759 -9.4907 -3.0358 -41.9709
# 3 4.7520 48.6759 126.3896 -9.5236 -7.5134 -8.5219
# 4 -9.4325 -9.4907 -9.5236 32.5851 -2.3371 6.9126
# 5 -9.1246 -3.0358 -7.5134 -2.3371 16.1742 -0.9696
# 6 -10.0468 -41.9709 -8.5219 6.9126 -0.9696 20.4022
#
#
#
# Elastic Compliance Matrix: (Units=1/GPa)
#
#
# Indices 1 2 3 4 5 6 
#
# 1 -1.308764 0.173120 -0.111024 -0.367137 -0.825416 -0.249553
# 2 0.173120 0.012737 0.005635 0.041388 0.114961 0.105246
# 3 -0.111024 0.005635 0.001427 -0.027150 -0.067022 -0.036471
# 4 -0.367137 0.041388 -0.027150 -0.067652 -0.227423 -0.094875
# 5 -0.825416 0.114961 -0.067022 -0.227423 -0.454785 -0.142522
# 6 -0.249553 0.105246 -0.036471 -0.094875 -0.142522 0.152773
#
#
# Mechanical properties :
#
#
# Convention : Reuss Voigt Hill
#
# Bulk Modulus (GPa) = -0.86271 46.61020 22.87375
# Shear Modulus (GPa) = -2.28717 26.14010 11.92646
#
# Velocity S-wave (km/s) = -1.09218 3.69232 2.49403
# Velocity P-wave (km/s) = 1.42843 6.51820 4.49702
#
# Compressibility (1/GPa) = -1.15913802
#
# Stress axis : x y z
#
# Youngs Moduli (GPa) = -0.76408 78.51422 700.64049
#
# Poissons Ratio (x) = -13.59239 77.78778
# Poissons Ratio (y) = 0.13228 -3.94792
# Poissons Ratio (z) = -0.08483 -0.44241
#
# Static dielectric constant tensor:
#      x y z
#    x 1.689620 -0.017550 -0.001180 
#    y -0.017550 1.704140 0.000860 
#    z -0.001180 0.000860 1.709930 
# 
# From -- ./inp_files/312850.got.cif
#   From: 2010.05.17/outbox.cif.g08.bks.cpg/sg2_157_cif.got.tgz:312850.got - 2010.06.03 11:33:40.
