data_PCOD9072555
_publ_section_title
;
Structure prediction by ZEFSAII (Michael W. Deem and Ramdas Pophale) SiO2 
 PCOD9072555
Probable space group: P -1
;
_chemical_formula_sum "Si O2"
_cell_formula_units_Z 14
_cell_length_a 9.000000
_cell_length_b 12.000000
_cell_length_c 12.000000
_cell_angle_alpha 60.000000
_cell_angle_beta 130.000000
_cell_angle_gamma 140.000000
_cell_volume 638.079485
_symmetry_space_group_name_H-M "P -1"
_symmetry_group_IT_number 2
_symmetry_cell_setting 'triclinic'
loop_
_space_group_symop_operation_xyz
x,y,z
-x,-y,-z
loop_
_atom_site_type_symbol
_atom_site_label
_atom_site_fract_x
_atom_site_fract_y
_atom_site_fract_z
Si Si1 0.495395 0.397727 0.380846
Si Si2 0.802095 0.500658 0.689375
Si Si3 0.247090 0.662484 0.965762
Si Si4 0.525123 0.114653 0.830993
Si Si5 0.985673 0.958514 0.731501
Si Si6 0.049439 0.877760 0.038706
Si Si7 0.728921 0.683946 0.182325
O O1 0.732079 0.485899 0.535574
O O2 0.325759 0.440231 0.330165
O O3 0.622970 0.508235 0.275151
O O4 0.301015 0.189276 0.384145
O O5 0.659458 0.304571 0.752464
O O6 0.106241 0.636929 0.797202
O O7 0.373118 0.829418 0.018906
O O8 0.474977 0.661770 0.056219
O O9 0.000000 0.500000 0.000000
O O10 0.663252 0.058548 0.860645
O O11 0.216153 0.006431 0.739535
O O12 0.083251 0.141572 0.734209
O O13 0.970422 0.857065 0.882538
O O14 0.872273 0.719360 0.117590
O O15 0.000000 0.000000 0.000000
#
# Coordination Sequence:
#
# PCOD9072555 Si02
#       7
#     2   2   2   2   2   2   2
#     4  11  21  38  62  93 122 162 199 246 305 364
#     4  10  21  36  60  94 122 154 208 245 300 361
#     4   9  16  35  62  86 118 152 195 255 294 343
#     4  10  19  39  63  91 121 154 206 258 295 353
#     4  10  21  38  65  91 118 158 206 252 297 363
#     4  10  22  36  61  92 122 157 200 254 310 353
#     4  10  21  41  62  89 128 152 202 259 299 353
#
# _framework density 21.940840000000001
#
# number of rings (size 3 to 8) (size 9 to 14) (size 15 to 20)
#    0.000    2.000    4.286    1.286    2.000    3.429 
#    0.000    0.714    0.000    1.714    0.000    0.000 
#    0.000    0.000    0.000    0.000    0.000    0.000 
#
# Total GULP energy -78114.015125 kJ/mol
# GULP energy per Si atom -5579.572509 kJ/mol
# Density = 2.189090 g / cm^3
# Si number density = 21.940840 Si / 1000 Ang^3
#
#
#
# Elastic Constant Matrix: (Units=GPa)
#
#
# Indices 1 2 3 4 5 6 
#
# 1 87.0980 13.0495 4.1629 -7.5256 -4.2750 22.7606
# 2 13.0495 103.7905 18.9772 9.8696 2.9094 17.9671
# 3 4.1629 18.9772 61.1076 16.3210 4.9195 9.5000
# 4 -7.5256 9.8696 16.3210 20.3289 4.9608 0.6216
# 5 -4.2750 2.9094 4.9195 4.9608 8.5066 -8.0765
# 6 22.7606 17.9671 9.5000 0.6216 -8.0765 31.2782
#
#
#
# Elastic Compliance Matrix: (Units=1/GPa)
#
#
# Indices 1 2 3 4 5 6 
#
# 1 0.015427 -0.000001 -0.000448 0.009080 -0.010575 -0.014000
# 2 -0.000001 0.011950 -0.000731 -0.002110 -0.011526 -0.009576
# 3 -0.000448 -0.000731 0.023162 -0.014727 -0.013877 -0.009580
# 4 0.009080 -0.002110 -0.014727 0.076540 -0.043921 -0.013784
# 5 -0.010575 -0.011526 -0.013877 -0.043921 0.222887 0.076956
# 6 -0.014000 -0.009576 -0.009580 -0.013784 0.076956 0.070714
#
#
# Mechanical properties :
#
#
# Convention : Reuss Voigt Hill
#
# Bulk Modulus (GPa) = 20.75578 36.04169 28.39874
# Shear Modulus (GPa) = 11.38696 26.40984 18.89840
#
# Velocity S-wave (km/s) = 2.28059 3.47318 2.93803
# Velocity P-wave (km/s) = 4.05157 5.70494 4.94781
#
# Compressibility (1/GPa) = 0.04817935
#
# Stress axis : x y z
#
# Youngs Moduli (GPa) = 64.82159 83.68217 43.17429
#
# Poissons Ratio (x) = 0.00009 0.01933
# Poissons Ratio (y) = 0.00007 0.03156
# Poissons Ratio (z) = 0.02902 0.06117
#
# Static dielectric constant tensor:
#      x y z
#    x 1.766390 -0.007080 -0.033800 
#    y -0.007080 1.858720 -0.037250 
#    z -0.033800 -0.037250 1.931110 
# 
# From -- ./inp_files/392406.got.cif
#   From: 2010.05.17/outbox.ucp.g08.bks.cvg/sg2_197_cif.got.tgz:392406.got - 2010.06.11 11:32:03.
