data_PCOD9072061
_publ_section_title
;
Structure prediction by ZEFSAII (Michael W. Deem and Ramdas Pophale) SiO2 
 PCOD9072061
Probable space group: P -1
;
_chemical_formula_sum "Si O2"
_cell_formula_units_Z 14
_cell_length_a 21.547016
_cell_length_b 8.849664
_cell_length_c 6.075242
_cell_angle_alpha 74.830124
_cell_angle_beta 97.032254
_cell_angle_gamma 151.336105
_cell_volume 521.740133
_symmetry_space_group_name_H-M "P -1"
_symmetry_group_IT_number 2
_symmetry_cell_setting 'triclinic'
loop_
_space_group_symop_operation_xyz
x,y,z
-x,-y,-z
loop_
_atom_site_type_symbol
_atom_site_label
_atom_site_fract_x
_atom_site_fract_y
_atom_site_fract_z
Si Si1 0.462333 0.293958 0.755139
Si Si2 0.877336 0.419572 0.321652
Si Si3 0.401267 0.656405 0.432135
Si Si4 0.776410 0.482462 0.516292
Si Si5 0.837281 0.008475 0.661243
Si Si6 0.021484 0.166032 0.150909
Si Si7 0.322249 0.236528 0.937147
O O1 0.500000 0.500000 0.500000
O O2 0.475579 0.148759 0.719047
O O3 0.333877 0.091177 0.883887
O O4 0.571661 0.538615 0.902273
O O5 0.783504 0.344958 0.414902
O O6 0.824658 0.131442 0.453445
O O7 0.015868 0.733601 0.401126
O O8 0.931471 0.573981 0.045199
O O9 0.371998 0.773257 0.430322
O O10 0.367735 0.471087 0.696571
O O11 0.278843 0.363479 0.316729
O O12 0.858508 0.618688 0.719205
O O13 0.876329 0.833766 0.322753
O O14 0.809958 0.008522 0.896656
O O15 0.000000 0.000000 0.000000
#
# Coordination Sequence:
#
# PCOD9072061 Si02
#       7
#     2   2   2   2   2   2   2
#     4   8  16  30  49  76  99 117 153 202 244 284
#     4  10  21  33  45  68 102 134 164 196 231 281
#     4  10  18  30  51  76  96 122 161 201 241 284
#     4  10  19  31  48  69  94 126 163 200 239 279
#     4  10  20  32  47  70  99 132 165 194 234 285
#     4   9  17  30  46  64  92 128 163 200 234 273
#     4   9  17  31  51  73  98 125 154 199 246 282
#
# _framework density 26.833282000000001
#
# number of rings (size 3 to 8) (size 9 to 14) (size 15 to 20)
#    0.000    2.571    0.000    3.429    0.000    4.571 
#    0.000    3.571    0.000    0.857    0.000   35.000 
#    0.000    0.000    0.000    0.000    0.000    0.000 
#
# Total GULP energy -78281.899353 kJ/mol
# GULP energy per Si atom -5591.564239 kJ/mol
# Density = 2.677221 g / cm^3
# Si number density = 26.833282 Si / 1000 Ang^3
#
#
#
# Elastic Constant Matrix: (Units=GPa)
#
#
# Indices 1 2 3 4 5 6 
#
# 1 194.3226 18.1280 36.7303 2.1806 -23.1175 21.7681
# 2 18.1280 58.5289 1.9488 3.2601 -1.6295 1.9278
# 3 36.7303 1.9488 96.2411 1.6972 -1.1558 3.3876
# 4 2.1806 3.2601 1.6972 28.7443 -1.6536 3.3467
# 5 -23.1175 -1.6295 -1.1558 -1.6536 45.6201 7.8869
# 6 21.7681 1.9278 3.3876 3.3467 7.8869 42.7056
#
#
#
# Elastic Compliance Matrix: (Units=1/GPa)
#
#
# Indices 1 2 3 4 5 6 
#
# 1 0.006650 -0.001773 -0.002327 0.000514 0.003939 -0.003893
# 2 -0.001773 0.017712 0.000337 -0.001951 -0.000380 0.000301
# 3 -0.002327 0.000337 0.011253 -0.000643 -0.000994 0.000512
# 4 0.000514 -0.001951 -0.000643 0.035508 0.002029 -0.003280
# 5 0.003939 -0.000380 -0.000994 0.002029 0.025111 -0.006708
# 6 -0.003893 0.000301 0.000512 -0.003280 -0.006708 0.026842
#
#
# Mechanical properties :
#
#
# Convention : Reuss Voigt Hill
#
# Bulk Modulus (GPa) = 35.59997 51.41187 43.50592
# Shear Modulus (GPa) = 35.72316 42.89970 39.31143
#
# Velocity S-wave (km/s) = 3.65266 4.00277 3.83172
# Velocity P-wave (km/s) = 5.57540 6.36901 5.98537
#
# Compressibility (1/GPa) = 0.02808991
#
# Stress axis : x y z
#
# Youngs Moduli (GPa) = 150.36975 56.45991 88.86379
#
# Poissons Ratio (x) = 0.10010 0.20678
# Poissons Ratio (y) = 0.26661 -0.02997
# Poissons Ratio (z) = 0.34989 -0.01904
#
# Static dielectric constant tensor:
#      x y z
#    x 2.140590 -0.008520 -0.046850 
#    y -0.008520 2.104480 0.062360 
#    z -0.046850 0.062360 2.112560 
# 
# From -- ./inp_files/52496.got.cif
#   From: 2010.05.17/outbox.cif.g08.bks.cpg/sg2_27_cif.got.tgz:52496.got - 2010.06.03 11:33:40.
