data_PCOD9072924
_publ_section_title
;
Structure prediction by ZEFSAII (Michael W. Deem and Ramdas Pophale) SiO2 
 PCOD9072924
Probable space group: P -1
;
_chemical_formula_sum "Si O2"
_cell_formula_units_Z 16
_cell_length_a 10.879797
_cell_length_b 8.947126
_cell_length_c 7.808948
_cell_angle_alpha 89.243339
_cell_angle_beta 117.676855
_cell_angle_gamma 104.850854
_cell_volume 645.691162
_symmetry_space_group_name_H-M "P -1"
_symmetry_group_IT_number 2
_symmetry_cell_setting 'triclinic'
loop_
_space_group_symop_operation_xyz
x,y,z
-x,-y,-z
loop_
_atom_site_type_symbol
_atom_site_label
_atom_site_fract_x
_atom_site_fract_y
_atom_site_fract_z
Si Si1 0.515893 0.694513 0.171983
Si Si2 0.464517 0.118868 0.146478
Si Si3 0.402496 0.324558 0.411667
Si Si4 0.218546 0.734231 0.550565
Si Si5 0.731095 0.518763 0.174489
Si Si6 0.859071 0.889367 0.650750
Si Si7 0.659277 0.092702 0.669620
Si Si8 0.069187 0.164228 0.683860
O O1 0.544391 0.748824 0.382595
O O2 0.364760 0.951037 0.145354
O O3 0.564425 0.828467 0.060255
O O4 0.352020 0.597750 0.023679
O O5 0.434400 0.248160 0.257174
O O6 0.637046 0.148071 0.275742
O O7 0.500000 0.500000 0.500000
O O8 0.390636 0.426222 0.801560
O O9 0.227498 0.278039 0.323505
O O10 0.198752 0.574229 0.642918
O O11 0.269583 0.743913 0.382700
O O12 0.076518 0.791875 0.468753
O O13 0.836434 0.678589 0.170688
O O14 0.854970 0.863388 0.443060
O O15 0.765789 0.994770 0.670679
O O16 0.021549 0.007219 0.769084
O O17 0.500000 0.000000 0.500000
#
# Coordination Sequence:
#
# PCOD9072924 Si02
#       8
#     2   2   2   2   2   2   2   2
#     4  10  20  34  55  88 118 141 195 242 286 341
#     4   9  19  33  56  86 109 151 189 235 296 327
#     4  11  19  33  57  85 115 141 189 245 283 331
#     4   9  17  30  53  82 110 153 191 228 286 343
#     4  10  18  31  51  84 112 151 188 232 291 329
#     4   9  19  31  51  86 109 150 194 229 283 335
#     4   8  15  31  53  77 112 143 185 235 281 333
#     4  10  18  32  53  81 119 149 196 231 273 358
#
# _framework density 24.779648999999999
#
# number of rings (size 3 to 8) (size 9 to 14) (size 15 to 20)
#    0.000    2.500    1.250    2.625    0.000    0.000 
#    0.000    0.000    0.000   73.500   13.000    0.000 
#    0.000    0.000    0.000    0.000    0.000    0.000 
#
# Total GULP energy -89202.027473 kJ/mol
# GULP energy per Si atom -5575.126717 kJ/mol
# Density = 2.472325 g / cm^3
# Si number density = 24.779649 Si / 1000 Ang^3
#
#
#
# Elastic Constant Matrix: (Units=GPa)
#
#
# Indices 1 2 3 4 5 6 
#
# 1 95.8238 17.1152 27.3734 -0.9054 -9.3847 14.9284
# 2 17.1152 125.7864 45.3777 11.9725 6.2511 36.3444
# 3 27.3734 45.3777 90.5708 -2.7978 -20.7504 8.4953
# 4 -0.9054 11.9725 -2.7978 41.2911 2.3594 8.7887
# 5 -9.3847 6.2511 -20.7504 2.3594 32.8336 1.4397
# 6 14.9284 36.3444 8.4953 8.7887 1.4397 42.7372
#
#
#
# Elastic Compliance Matrix: (Units=1/GPa)
#
#
# Indices 1 2 3 4 5 6 
#
# 1 0.012056 0.000613 -0.003195 0.000701 0.001448 -0.004290
# 2 0.000613 0.014217 -0.008041 -0.002117 -0.007021 -0.010035
# 3 -0.003195 -0.008041 0.018535 0.002099 0.012030 0.003433
# 4 0.000701 -0.002117 0.002099 0.025867 0.000255 -0.004190
# 5 0.001448 -0.007021 0.012030 0.000255 0.039718 0.001684
# 6 -0.004290 -0.010035 0.003433 -0.004190 0.001684 0.033553
#
#
# Mechanical properties :
#
#
# Convention : Reuss Voigt Hill
#
# Bulk Modulus (GPa) = 42.44250 54.65707 48.54978
# Shear Modulus (GPa) = 28.89407 38.19334 33.54371
#
# Velocity S-wave (km/s) = 3.41844 3.93022 3.68323
# Velocity P-wave (km/s) = 5.72242 6.53457 6.14194
#
# Compressibility (1/GPa) = 0.02356129
#
# Stress axis : x y z
#
# Youngs Moduli (GPa) = 82.94734 70.33739 53.95318
#
# Poissons Ratio (x) = -0.04314 0.17239
# Poissons Ratio (y) = -0.05088 0.43385
# Poissons Ratio (z) = 0.26504 0.56560
#
# Static dielectric constant tensor:
#      x y z
#    x 2.051370 0.006120 0.014220 
#    y 0.006120 2.178830 -0.044910 
#    z 0.014220 -0.044910 2.006790 
# 
# From -- ./inp_files/255068.got.cif
#   From: 2010.05.17/outbox.cif.g08.bks.cpg/sg2_128_cif.got.tgz:255068.got - 2010.06.03 11:33:40.
