data_PCOD9072607
_publ_section_title
;
Structure prediction by ZEFSAII (Michael W. Deem and Ramdas Pophale) SiO2 
 PCOD9072607
Probable space group: P -1
;
_chemical_formula_sum "Si O2"
_cell_formula_units_Z 14
_cell_length_a 24.000000
_cell_length_b 12.000000
_cell_length_c 18.000000
_cell_angle_alpha 30.000000
_cell_angle_beta 160.000000
_cell_angle_gamma 160.000000
_cell_volume 599.977376
_symmetry_space_group_name_H-M "P -1"
_symmetry_group_IT_number 2
_symmetry_cell_setting 'triclinic'
loop_
_space_group_symop_operation_xyz
x,y,z
-x,-y,-z
loop_
_atom_site_type_symbol
_atom_site_label
_atom_site_fract_x
_atom_site_fract_y
_atom_site_fract_z
Si Si1 0.707468 0.556384 0.124307
Si Si2 0.481449 0.002317 0.885542
Si Si3 0.577993 0.588205 0.679369
Si Si4 0.079566 0.031675 0.979971
Si Si5 0.752905 0.331174 0.750244
Si Si6 0.333395 0.538468 0.702809
Si Si7 0.989558 0.556048 0.759218
O O1 0.875348 0.893002 0.094029
O O2 0.761681 0.560362 0.275071
O O3 0.450980 0.425249 0.889336
O O4 0.709212 0.343873 0.195513
O O5 0.725629 0.170589 0.052385
O O6 0.456221 0.238422 0.701793
O O7 0.500000 0.000000 0.000000
O O8 0.386767 0.593170 0.437881
O O9 0.694040 0.657149 0.866931
O O10 0.823941 0.876273 0.774224
O O11 0.079847 0.771855 0.150797
O O12 0.848367 0.476747 0.702946
O O13 0.549909 0.934848 0.733447
O O14 0.000000 0.500000 0.000000
O O15 0.114084 0.388480 0.464476
#
# Coordination Sequence:
#
# PCOD9072607 Si02
#       7
#     2   2   2   2   2   2   2
#     4  11  23  43  67 104 144 178 223 293 345 410
#     4  11  24  43  67 105 143 174 224 288 354 408
#     4  10  22  41  74 101 135 181 231 285 343 412
#     4  10  19  42  76 100 130 182 238 277 341 416
#     4  12  24  44  72 105 135 179 241 290 336 406
#     4  11  24  43  71 101 138 182 238 284 342 406
#     4  11  23  44  73  97 131 193 236 277 340 412
#
# _framework density 23.334212999999998
#
# number of rings (size 3 to 8) (size 9 to 14) (size 15 to 20)
#    0.000    1.143    4.286    2.143    0.000    0.571 
#    5.143   10.714    0.000    0.000    0.000    0.000 
#    0.000    0.000    0.000    0.000    0.000    0.000 
#
# Total GULP energy -78246.557474 kJ/mol
# GULP energy per Si atom -5589.039820 kJ/mol
# Density = 2.328110 g / cm^3
# Si number density = 23.334213 Si / 1000 Ang^3
#
#
#
# Elastic Constant Matrix: (Units=GPa)
#
#
# Indices 1 2 3 4 5 6 
#
# 1 139.7273 7.3775 36.4073 -27.1553 6.8579 12.0273
# 2 7.3775 18.7901 -10.1839 -19.9109 -17.8135 -27.7736
# 3 36.4073 -10.1839 99.9699 -19.6689 9.6166 -18.6785
# 4 -27.1553 -19.9109 -19.6689 12.3432 12.4240 6.9875
# 5 6.8579 -17.8135 9.6166 12.4240 15.8767 -15.7621
# 6 12.0273 -27.7736 -18.6785 6.9875 -15.7621 38.5714
#
#
#
# Elastic Compliance Matrix: (Units=1/GPa)
#
#
# Indices 1 2 3 4 5 6 
#
# 1 0.005184 -0.000381 -0.004972 -0.012167 0.013104 0.003261
# 2 -0.000381 -0.020370 -0.010608 -0.031733 -0.008868 -0.017561
# 3 -0.004972 -0.010608 0.007317 -0.017940 0.000929 0.001085
# 4 -0.012167 -0.031733 -0.017940 -0.079601 0.049775 0.007018
# 5 0.013104 -0.008868 0.000929 0.049775 -0.018575 -0.026630
# 6 0.003261 -0.017561 0.001085 0.007018 -0.026630 0.000636
#
#
# Mechanical properties :
#
#
# Convention : Reuss Voigt Hill
#
# Bulk Modulus (GPa) = -25.13176 36.18769 5.52796
# Shear Modulus (GPa) = -57.63539 28.35068 -14.64236
#
# Velocity S-wave (km/s) = -4.97530 3.48944 -2.50772
# Velocity P-wave (km/s) = 6.61804 5.63711 2.45168
#
# Compressibility (1/GPa) = -0.03979029
#
# Stress axis : x y z
#
# Youngs Moduli (GPa) = 192.90502 -49.09152 136.67264
#
# Poissons Ratio (x) = -0.01869 0.67951
# Poissons Ratio (y) = 0.07344 1.44981
# Poissons Ratio (z) = 0.95909 -0.52076
#
# Static dielectric constant tensor:
#      x y z
#    x 2.008330 -0.035880 -0.048430 
#    y -0.035880 1.956040 -0.003590 
#    z -0.048430 -0.003590 1.833330 
# 
# From -- ./inp_files/219031.got.cif
#   From: 2010.05.17/outbox.ucp.g08.bks.cvg/sg2_110_cif.got.tgz:219031.got - 2010.06.11 11:32:03.
