data_PCOD9072715
_publ_section_title
;
Structure prediction by ZEFSAII (Michael W. Deem and Ramdas Pophale) SiO2 
 PCOD9072715
Probable space group: P -1
;
_chemical_formula_sum "Si O2"
_cell_formula_units_Z 15
_cell_length_a 12.000000
_cell_length_b 15.000000
_cell_length_c 15.000000
_cell_angle_alpha 20.000000
_cell_angle_beta 70.000000
_cell_angle_gamma 60.000000
_cell_volume 721.429718
_symmetry_space_group_name_H-M "P -1"
_symmetry_group_IT_number 2
_symmetry_cell_setting 'triclinic'
loop_
_space_group_symop_operation_xyz
x,y,z
-x,-y,-z
loop_
_atom_site_type_symbol
_atom_site_label
_atom_site_fract_x
_atom_site_fract_y
_atom_site_fract_z
Si Si1 0.633505 0.234653 0.655431
Si Si2 0.288429 0.959650 0.534638
Si Si3 0.863477 0.700465 0.910298
Si Si4 0.868224 0.953934 0.327483
Si Si5 0.054528 0.218752 0.992694
Si Si6 0.500000 0.000000 0.500000
Si Si7 0.448378 0.701078 0.960637
Si Si8 0.363237 0.333569 0.901135
O O1 0.500000 0.500000 0.500000
O O2 0.784750 0.001541 0.883662
O O3 0.600997 0.996033 0.840482
O O4 0.662518 0.427618 0.394026
O O5 0.240027 0.015543 0.394307
O O6 0.182171 0.964290 0.630680
O O7 0.323611 0.205134 0.329240
O O8 0.455039 0.652862 0.777196
O O9 0.913575 0.766213 0.925790
O O10 0.775101 0.556297 0.102638
O O11 0.000000 0.500000 0.000000
O O12 0.717950 0.155099 0.128043
O O13 0.968602 0.057668 0.167013
O O14 0.957336 0.576408 0.649708
O O15 0.534423 0.082439 0.315172
O O16 0.514911 0.701679 0.035246
#
# Coordination Sequence:
#
# PCOD9072715 Si02
#       8
#     2   2   2   2   2   1   2   2
#     4  11  25  48  76  95 123 162 214 290 349 392
#     4  11  23  35  55  83 129 193 224 247 299 361
#     4  11  22  37  58  89 139 171 208 263 314 375
#     4  11  25  37  60  87 135 173 213 259 298 376
#     4  11  24  41  59  96 124 166 219 257 336 384
#     4  10  20  36  52  82 124 178 232 242 288 356
#     4  11  24  37  60  87 133 182 227 253 300 371
#     4  11  24  43  67 103 125 166 229 265 320 401
#
# _framework density 20.792045999999999
#
# number of rings (size 3 to 8) (size 9 to 14) (size 15 to 20)
#    0.000    1.067    2.667    5.200    9.333    0.533 
#    0.000    0.000    0.000    4.800    0.000    0.000 
#    0.000    0.000    0.000    0.000    0.000    0.000 
#
# Total GULP energy -83566.936522 kJ/mol
# GULP energy per Si atom -5571.129101 kJ/mol
# Density = 2.074472 g / cm^3
# Si number density = 20.792046 Si / 1000 Ang^3
#
#
#
# Elastic Constant Matrix: (Units=GPa)
#
#
# Indices 1 2 3 4 5 6 
#
# 1 91.8599 18.8493 54.0992 -0.8128 19.5364 -20.9227
# 2 18.8493 56.2667 32.5769 -15.5733 9.2659 -24.4101
# 3 54.0992 32.5769 96.8155 -15.7146 -0.8623 -17.2449
# 4 -0.8128 -15.5733 -15.7146 22.9747 -10.5933 9.0730
# 5 19.5364 9.2659 -0.8623 -10.5933 34.0458 -3.4850
# 6 -20.9227 -24.4101 -17.2449 9.0730 -3.4850 27.8436
#
#
#
# Elastic Compliance Matrix: (Units=1/GPa)
#
#
# Indices 1 2 3 4 5 6 
#
# 1 0.035956 0.009801 -0.024295 -0.034307 -0.031747 0.027770
# 2 0.009801 0.036991 -0.012843 -0.001665 -0.013391 0.030706
# 3 -0.024295 -0.012843 0.030207 0.029773 0.025695 -0.017292
# 4 -0.034307 -0.001665 0.029773 0.097105 0.047578 -0.034487
# 5 -0.031747 -0.013391 0.025695 0.047578 0.063906 -0.027187
# 6 0.027770 0.030706 -0.017292 -0.034487 -0.027187 0.080826
#
#
# Mechanical properties :
#
#
# Convention : Reuss Voigt Hill
#
# Bulk Modulus (GPa) = 20.62725 50.66589 35.64657
# Shear Modulus (GPa) = 12.02423 26.26726 19.14575
#
# Velocity S-wave (km/s) = 2.40741 3.55819 3.03779
# Velocity P-wave (km/s) = 4.20355 6.42665 5.43008
#
# Compressibility (1/GPa) = 0.04847956
#
# Stress axis : x y z
#
# Youngs Moduli (GPa) = 27.81145 27.03376 33.10439
#
# Poissons Ratio (x) = -0.26495 0.80426
# Poissons Ratio (y) = -0.27257 0.42517
# Poissons Ratio (z) = 0.67567 0.34721
#
# Static dielectric constant tensor:
#      x y z
#    x 1.659920 -0.079450 0.182090 
#    y -0.079450 1.708800 0.034860 
#    z 0.182090 0.034860 1.655580 
# 
# From -- ./inp_files/371296.got.cif
#   From: 2010.05.17/outbox.ucp.g08.bks.cvg/sg2_186_cif.got.tgz:371296.got - 2010.06.11 11:32:03.
