data_PCOD9072445
_publ_section_title
;
Structure prediction by ZEFSAII (Michael W. Deem and Ramdas Pophale) SiO2 
 PCOD9072445
Probable space group: P -1
;
_chemical_formula_sum "Si O2"
_cell_formula_units_Z 16
_cell_length_a 12.000000
_cell_length_b 18.000000
_cell_length_c 9.000000
_cell_angle_alpha 120.000000
_cell_angle_beta 120.000000
_cell_angle_gamma 30.000000
_cell_volume 831.642886
_symmetry_space_group_name_H-M "P -1"
_symmetry_group_IT_number 2
_symmetry_cell_setting 'triclinic'
loop_
_space_group_symop_operation_xyz
x,y,z
-x,-y,-z
loop_
_atom_site_type_symbol
_atom_site_label
_atom_site_fract_x
_atom_site_fract_y
_atom_site_fract_z
Si Si1 0.580399 0.810926 0.364892
Si Si2 0.193542 0.132951 0.422540
Si Si3 0.294404 0.550007 0.579702
Si Si4 0.714040 0.433537 0.768902
Si Si5 0.763002 0.616189 0.539513
Si Si6 0.211316 0.122514 0.781676
Si Si7 0.588638 0.813076 0.884644
Si Si8 0.759600 0.605366 0.016480
O O1 0.704706 0.830457 0.516955
O O2 0.564711 0.757180 0.439817
O O3 0.346803 0.972695 0.303381
O O4 0.729588 0.678749 0.214923
O O5 0.221217 0.112197 0.599409
O O6 0.933803 0.276255 0.352925
O O7 0.506111 0.486048 0.719871
O O8 0.298058 0.547742 0.399781
O O9 0.274578 0.461837 0.523667
O O10 0.726169 0.522717 0.932683
O O11 0.951086 0.259544 0.789003
O O12 0.752828 0.685659 0.741077
O O13 0.000000 0.500000 0.500000
O O14 0.364965 0.969026 0.812108
O O15 0.304411 0.164657 0.935897
O O16 0.568937 0.745391 0.917137
O O17 0.000000 0.500000 0.000000
#
# Coordination Sequence:
#
# PCOD9072445 Si02
#       8
#     2   2   2   2   2   2   2   2
#     4  11  22  34  58  87 117 152 183 245 293 336
#     4  10  19  37  55  87 121 148 188 234 298 342
#     4  10  21  39  60  84 115 156 192 238 284 345
#     4  10  21  38  62  84 114 153 197 236 287 336
#     4  12  22  36  57  92 117 147 196 239 287 340
#     4  10  20  35  57  87 118 147 189 243 288 335
#     4  11  21  35  59  89 117 147 192 244 285 335
#     4  12  20  38  60  88 113 150 200 241 279 340
#
# _framework density 19.239027
#
# number of rings (size 3 to 8) (size 9 to 14) (size 15 to 20)
#    0.000    1.250    6.250    1.500    0.000    0.000 
#    0.000    3.125    0.000    0.000    0.000    0.000 
#    0.000    0.000    0.000    0.000    0.000    0.000 
#
# Total GULP energy -89266.499083 kJ/mol
# GULP energy per Si atom -5579.156193 kJ/mol
# Density = 1.919524 g / cm^3
# Si number density = 19.239027 Si / 1000 Ang^3
#
#
#
# Elastic Constant Matrix: (Units=GPa)
#
#
# Indices 1 2 3 4 5 6 
#
# 1 71.9468 53.5260 10.3963 -2.3790 15.9227 -3.7734
# 2 53.5260 141.6774 34.2479 2.0312 13.3197 -4.0372
# 3 10.3963 34.2479 48.2031 16.6148 3.4719 -3.0702
# 4 -2.3790 2.0312 16.6148 31.3909 0.9482 -0.7131
# 5 15.9227 13.3197 3.4719 0.9482 22.9719 -6.9977
# 6 -3.7734 -4.0372 -3.0702 -0.7131 -6.9977 27.3328
#
#
#
# Elastic Compliance Matrix: (Units=1/GPa)
#
#
# Indices 1 2 3 4 5 6 
#
# 1 0.021831 -0.007373 0.000542 0.002166 -0.011286 -0.000847
# 2 -0.007373 0.011712 -0.007641 0.002744 -0.000717 -0.000258
# 3 0.000542 -0.007641 0.031754 -0.016239 0.000610 0.002245
# 4 0.002166 0.002744 -0.016239 0.040498 -0.002526 -0.000710
# 5 -0.011286 -0.000717 0.000610 -0.002526 0.055613 0.012577
# 6 -0.000847 -0.000258 0.002245 -0.000710 0.012577 0.039884
#
#
# Mechanical properties :
#
#
# Convention : Reuss Voigt Hill
#
# Bulk Modulus (GPa) = 27.50825 50.90753 39.20789
# Shear Modulus (GPa) = 20.63090 27.24961 23.94026
#
# Velocity S-wave (km/s) = 3.27822 3.76755 3.53137
# Velocity P-wave (km/s) = 5.35333 6.74121 6.08696
#
# Compressibility (1/GPa) = 0.03635273
#
# Stress axis : x y z
#
# Youngs Moduli (GPa) = 45.80623 85.38441 31.49199
#
# Poissons Ratio (x) = 0.62954 -0.01708
# Poissons Ratio (y) = 0.33773 0.24064
# Poissons Ratio (z) = -0.02484 0.65246
#
# Static dielectric constant tensor:
#      x y z
#    x 1.657680 0.001730 -0.060570 
#    y 0.001730 1.734370 -0.019310 
#    z -0.060570 -0.019310 1.714640 
# 
# From -- ./inp_files/226638.got.cif
#   From: 2010.05.17/outbox.ucp.g08.bks.cvg/sg2_114_cif.got.tgz:226638.got - 2010.06.11 11:32:03.
