data_PCOD9072328
_publ_section_title
;
Structure prediction by ZEFSAII (Michael W. Deem and Ramdas Pophale) SiO2 
 PCOD9072328
Probable space group: P -1
;
_chemical_formula_sum "Si O2"
_cell_formula_units_Z 16
_cell_length_a 22.145387
_cell_length_b 5.762691
_cell_length_c 9.121542
_cell_angle_alpha 72.842960
_cell_angle_beta 141.693507
_cell_angle_gamma 108.871458
_cell_volume 681.094428
_symmetry_space_group_name_H-M "P -1"
_symmetry_group_IT_number 2
_symmetry_cell_setting 'triclinic'
loop_
_space_group_symop_operation_xyz
x,y,z
-x,-y,-z
loop_
_atom_site_type_symbol
_atom_site_label
_atom_site_fract_x
_atom_site_fract_y
_atom_site_fract_z
Si Si1 0.714791 0.153528 0.843900
Si Si2 0.183678 0.478709 0.838359
Si Si3 0.551329 0.504034 0.439220
Si Si4 0.970860 0.648056 0.679400
Si Si5 0.809154 0.808593 0.522186
Si Si6 0.345575 0.325822 0.987020
Si Si7 0.993397 0.114147 0.804157
Si Si8 0.740064 0.856718 0.705974
O O1 0.628029 0.314005 0.633098
O O2 0.749250 0.119814 0.749990
O O3 0.806095 0.270944 0.097115
O O4 0.667178 0.905867 0.882879
O O5 0.087932 0.366219 0.584789
O O6 0.277853 0.504224 0.903092
O O7 0.209002 0.294175 0.047389
O O8 0.500000 0.500000 0.500000
O O9 0.623470 0.754743 0.495989
O O10 0.459516 0.435161 0.169506
O O11 0.882571 0.622613 0.639674
O O12 0.026326 0.917027 0.787040
O O13 0.023711 0.407100 0.817593
O O14 0.708983 0.755968 0.251750
O O15 0.875075 0.069038 0.555557
O O16 0.787804 0.820468 0.649590
O O17 0.000000 0.000000 0.000000
#
# Coordination Sequence:
#
# PCOD9072328 Si02
#       8
#     2   2   2   2   2   2   2   2
#     4  10  18  30  55  71 104 143 196 233 276 320
#     4   9  18  32  54  80 104 144 189 234 264 329
#     4  11  19  31  50  74 101 143 196 235 275 322
#     4   9  20  36  63  88 113 145 187 226 270 335
#     4   9  22  36  54  81 117 143 181 227 289 337
#     4  10  18  33  50  76 100 143 190 236 271 328
#     4  10  20  37  64  91 115 142 181 227 277 338
#     4  10  21  34  49  81 109 148 183 231 283 327
#
# _framework density 23.491602
#
# number of rings (size 3 to 8) (size 9 to 14) (size 15 to 20)
#    0.750    1.500    3.750    1.500    1.750    2.500 
#    0.000    0.625    0.000    1.500    0.000    0.000 
#    0.000    0.000    0.000    0.000    0.000    0.000 
#
# Total GULP energy -89208.439562 kJ/mol
# GULP energy per Si atom -5575.527473 kJ/mol
# Density = 2.343813 g / cm^3
# Si number density = 23.491602 Si / 1000 Ang^3
#
#
#
# Elastic Constant Matrix: (Units=GPa)
#
#
# Indices 1 2 3 4 5 6 
#
# 1 99.4361 34.9744 40.9862 18.6735 1.3785 -18.5721
# 2 34.9744 111.4649 36.5015 26.1218 -0.9348 -19.1126
# 3 40.9862 36.5015 120.0920 24.9510 1.4919 -13.2169
# 4 18.6735 26.1218 24.9510 34.3250 -2.5464 0.8387
# 5 1.3785 -0.9348 1.4919 -2.5464 33.9743 12.4230
# 6 -18.5721 -19.1126 -13.2169 0.8387 12.4230 34.5174
#
#
#
# Elastic Compliance Matrix: (Units=1/GPa)
#
#
# Indices 1 2 3 4 5 6 
#
# 1 0.013875 -0.001051 -0.002432 -0.005428 -0.003589 0.007376
# 2 -0.001051 0.012992 -0.000814 -0.009135 -0.003040 0.007633
# 3 -0.002432 -0.000814 0.011138 -0.006397 -0.002148 0.003434
# 4 -0.005428 -0.009135 -0.006397 0.044716 0.008996 -0.014752
# 5 -0.003589 -0.003040 -0.002148 0.008996 0.036811 -0.017904
# 6 0.007376 0.007633 0.003434 -0.014752 -0.017904 0.045283
#
#
# Mechanical properties :
#
#
# Convention : Reuss Voigt Hill
#
# Bulk Modulus (GPa) = 34.00078 61.76856 47.88467
# Shear Modulus (GPa) = 27.29055 35.13209 31.21132
#
# Velocity S-wave (km/s) = 3.41209 3.87139 3.64897
# Velocity P-wave (km/s) = 5.47980 6.80694 6.17910
#
# Compressibility (1/GPa) = 0.02941109
#
# Stress axis : x y z
#
# Youngs Moduli (GPa) = 72.06965 76.97074 89.78142
#
# Poissons Ratio (x) = 0.08087 0.21836
# Poissons Ratio (y) = 0.07572 0.07312
# Poissons Ratio (z) = 0.17529 0.06269
#
# Static dielectric constant tensor:
#      x y z
#    x 1.888450 0.001670 0.007890 
#    y 0.001670 2.004570 0.041140 
#    z 0.007890 0.041140 1.914530 
# 
# From -- ./inp_files/124949.got.cif
#   From: 2010.05.17/outbox.cif.g08.bks.cpg/sg2_63_cif.got.tgz:124949.got - 2010.06.03 11:33:40.
