data_PCOD9072175
_publ_section_title
;
Structure prediction by ZEFSAII (Michael W. Deem and Ramdas Pophale) SiO2 
 PCOD9072175
Probable space group: P -1
;
_chemical_formula_sum "Si O2"
_cell_formula_units_Z 14
_cell_length_a 15.000000
_cell_length_b 21.000000
_cell_length_c 9.000000
_cell_angle_alpha 30.000000
_cell_angle_beta 130.000000
_cell_angle_gamma 150.000000
_cell_volume 640.267684
_symmetry_space_group_name_H-M "P -1"
_symmetry_group_IT_number 2
_symmetry_cell_setting 'triclinic'
loop_
_space_group_symop_operation_xyz
x,y,z
-x,-y,-z
loop_
_atom_site_type_symbol
_atom_site_label
_atom_site_fract_x
_atom_site_fract_y
_atom_site_fract_z
Si Si1 0.641064 0.890348 0.366777
Si Si2 0.075496 0.054704 0.302238
Si Si3 0.170980 0.382625 0.156106
Si Si4 0.468470 0.855334 0.528460
Si Si5 0.870261 0.234534 0.663415
Si Si6 0.223931 0.453397 0.714302
Si Si7 0.874371 0.263534 0.291219
O O1 0.741683 0.879809 0.609190
O O2 0.553095 0.918465 0.325045
O O3 0.458143 0.671315 0.522579
O O4 0.791125 0.075382 0.031943
O O5 0.154104 0.265684 0.929501
O O6 0.000000 0.000000 0.500000
O O7 0.902539 0.830085 0.478906
O O8 0.998917 0.307328 0.206914
O O9 0.374327 0.632604 0.920411
O O10 0.176839 0.406240 0.935871
O O11 0.280128 0.781255 0.472826
O O12 0.647189 0.068918 0.386901
O O13 0.868372 0.177331 0.611340
O O14 0.098397 0.458592 0.500358
O O15 0.000000 0.500000 0.000000
#
# Coordination Sequence:
#
# PCOD9072175 Si02
#       7
#     2   2   2   2   2   2   2
#     4  11  22  39  67  96 124 162 207 265 308 363
#     4  10  18  42  68  91 126 159 212 255 313 362
#     4  10  21  41  65  90 121 166 208 253 307 369
#     4  11  24  41  63  91 125 169 208 253 316 370
#     4  12  24  38  61  97 130 159 208 257 313 366
#     4  10  23  40  68  96 124 162 207 267 303 363
#     4  12  25  42  61  86 131 175 204 248 309 385
#
# _framework density 21.865853999999999
#
# number of rings (size 3 to 8) (size 9 to 14) (size 15 to 20)
#    0.000    1.143    5.714    1.286    2.000    2.286 
#    0.000    0.714    0.000    1.714    0.000    0.000 
#    0.000    0.000    0.000    0.000    0.000    0.000 
#
# Total GULP energy -78001.567013 kJ/mol
# GULP energy per Si atom -5571.540501 kJ/mol
# Density = 2.181609 g / cm^3
# Si number density = 21.865854 Si / 1000 Ang^3
#
#
#
# Elastic Constant Matrix: (Units=GPa)
#
#
# Indices 1 2 3 4 5 6 
#
# 1 64.1954 6.6554 20.1596 -12.1770 5.5445 6.4490
# 2 6.6554 102.2806 46.9127 -32.4483 13.9519 1.3794
# 3 20.1596 46.9127 54.1761 -25.5837 1.4399 -5.5443
# 4 -12.1770 -32.4483 -25.5837 39.4906 -8.1089 6.4047
# 5 5.5445 13.9519 1.4399 -8.1089 25.4016 -15.5262
# 6 6.4490 1.3794 -5.5443 6.4047 -15.5262 24.2786
#
#
#
# Elastic Compliance Matrix: (Units=1/GPa)
#
#
# Indices 1 2 3 4 5 6 
#
# 1 0.031761 0.019281 -0.029422 0.005273 -0.040968 -0.043841
# 2 0.019281 0.036382 -0.038256 0.008960 -0.049811 -0.050142
# 3 -0.029422 -0.038256 0.071833 0.008959 0.067161 0.066979
# 4 0.005273 0.008960 0.008959 0.041906 0.000203 -0.010789
# 5 -0.040968 -0.049811 0.067161 0.000203 0.147178 0.123116
# 6 -0.043841 -0.050142 0.066979 -0.010789 0.123116 0.152556
#
#
# Mechanical properties :
#
#
# Convention : Reuss Voigt Hill
#
# Bulk Modulus (GPa) = 23.15730 40.90085 32.02907
# Shear Modulus (GPa) = 8.43448 27.62913 18.03180
#
# Velocity S-wave (km/s) = 1.96615 3.55854 2.87480
# Velocity P-wave (km/s) = 3.97089 5.96910 5.06942
#
# Compressibility (1/GPa) = 0.04318293
#
# Stress axis : x y z
#
# Youngs Moduli (GPa) = 31.48543 27.48581 13.92111
#
# Poissons Ratio (x) = -0.52994 0.40958
# Poissons Ratio (y) = -0.60706 0.53256
# Poissons Ratio (z) = 0.92636 1.05148
#
# Static dielectric constant tensor:
#      x y z
#    x 1.873600 0.054730 0.043940 
#    y 0.054730 1.841900 -0.017930 
#    z 0.043940 -0.017930 1.884050 
# 
# From -- ./inp_files/319189.got.cif
#   From: 2010.05.17/outbox.ucp.g08.bks.cvg/sg2_160_cif.got.tgz:319189.got - 2010.06.11 11:32:03.
