data_PCOD9072421
_publ_section_title
;
Structure prediction by ZEFSAII (Michael W. Deem and Ramdas Pophale) SiO2 
 PCOD9072421
Probable space group: P -1
;
_chemical_formula_sum "Si O2"
_cell_formula_units_Z 16
_cell_length_a 5.549125
_cell_length_b 9.051551
_cell_length_c 18.741408
_cell_angle_alpha 43.741059
_cell_angle_beta 88.842362
_cell_angle_gamma 104.631803
_cell_volume 600.135078
_symmetry_space_group_name_H-M "P -1"
_symmetry_group_IT_number 2
_symmetry_cell_setting 'triclinic'
loop_
_space_group_symop_operation_xyz
x,y,z
-x,-y,-z
loop_
_atom_site_type_symbol
_atom_site_label
_atom_site_fract_x
_atom_site_fract_y
_atom_site_fract_z
Si Si1 0.722575 0.999095 0.845598
Si Si2 0.015697 0.541418 0.070862
Si Si3 0.417222 0.741074 0.622211
Si Si4 0.874245 0.120281 0.650776
Si Si5 0.262973 0.093437 0.877420
Si Si6 0.531278 0.575737 0.102686
Si Si7 0.669052 0.429959 0.467369
Si Si8 0.958411 0.848258 0.626669
O O1 0.744386 0.969125 0.772076
O O2 0.517027 0.119096 0.819863
O O3 0.015807 0.127071 0.830999
O O4 0.606911 0.751679 0.972007
O O5 0.219944 0.455143 0.137848
O O6 0.000000 0.500000 0.000000
O O7 0.724327 0.442586 0.137890
O O8 0.136525 0.817524 0.991650
O O9 0.419260 0.590822 0.605830
O O10 0.643048 0.725556 0.676493
O O11 0.130121 0.695135 0.669867
O O12 0.500000 0.000000 0.500000
O O13 0.686668 0.190616 0.575665
O O14 0.049487 0.363952 0.601007
O O15 0.038560 0.022652 0.632190
O O16 0.368961 0.251149 0.890901
O O17 0.500000 0.500000 0.500000
O O18 0.000000 0.000000 0.500000
#
# Coordination Sequence:
#
# PCOD9072421 Si02
#       8
#     2   2   2   2   2   2   2   2
#     4  10  21  35  58  89 116 147 195 250 284 329
#     4  10  18  30  56  92 116 145 191 243 277 329
#     4  10  19  35  58  79 104 141 192 226 276 351
#     4  11  24  36  59  88 116 150 196 255 296 340
#     4  10  20  38  62  84 114 157 202 227 280 359
#     4  10  19  37  61  86 113 161 199 228 276 361
#     4  11  23  37  59  87 114 151 199 243 304 355
#     4  10  19  36  57  80 101 146 189 222 283 346
#
# _framework density 26.660665000000002
#
# number of rings (size 3 to 8) (size 9 to 14) (size 15 to 20)
#    0.000    1.750    2.500    5.625    3.500    0.000 
#    0.000    0.000    0.000   24.000    0.000    0.000 
#    0.000    0.000    0.000    0.000    0.000    0.000 
#
# Total GULP energy -89615.651251 kJ/mol
# GULP energy per Si atom -5600.978203 kJ/mol
# Density = 2.659998 g / cm^3
# Si number density = 26.660665 Si / 1000 Ang^3
#
#
#
# Elastic Constant Matrix: (Units=GPa)
#
#
# Indices 1 2 3 4 5 6 
#
# 1 252.5726 51.4939 28.4849 26.2192 -9.7129 -3.3105
# 2 51.4939 128.8829 33.8663 23.6200 -0.0605 -1.8712
# 3 28.4849 33.8663 84.3769 13.2384 0.8262 -4.0297
# 4 26.2192 23.6200 13.2384 46.7755 -6.2667 -3.0986
# 5 -9.7129 -0.0605 0.8262 -6.2667 37.5059 16.0870
# 6 -3.3105 -1.8712 -4.0297 -3.0986 16.0870 45.8715
#
#
#
# Elastic Compliance Matrix: (Units=1/GPa)
#
#
# Indices 1 2 3 4 5 6 
#
# 1 0.004511 -0.001323 -0.000776 -0.001518 0.001043 -0.000265
# 2 -0.001323 0.009677 -0.002883 -0.003440 -0.000893 0.000127
# 3 -0.000776 -0.002883 0.013678 -0.002083 -0.001454 0.001397
# 4 -0.001518 -0.003440 -0.002083 0.025069 0.003879 -0.000100
# 5 0.001043 -0.000893 -0.001454 0.003879 0.032413 -0.011194
# 6 -0.000265 0.000127 0.001397 -0.000100 -0.011194 0.025828
#
#
# Mechanical properties :
#
#
# Convention : Reuss Voigt Hill
#
# Bulk Modulus (GPa) = 55.86135 77.05807 66.45971
# Shear Modulus (GPa) = 39.33652 49.49639 44.41646
#
# Velocity S-wave (km/s) = 3.84533 4.31342 4.08608
# Velocity P-wave (km/s) = 6.38072 7.33304 6.87340
#
# Compressibility (1/GPa) = 0.01790147
#
# Stress axis : x y z
#
# Youngs Moduli (GPa) = 221.68655 103.33665 73.10758
#
# Poissons Ratio (x) = 0.13675 0.05675
# Poissons Ratio (y) = 0.29338 0.21075
# Poissons Ratio (z) = 0.17210 0.29790
#
# Static dielectric constant tensor:
#      x y z
#    x 2.159710 0.023350 -0.043080 
#    y 0.023350 2.077180 -0.044760 
#    z -0.043080 -0.044760 2.155250 
# 
# From -- ./inp_files/109424.got.cif
#   From: 2010.05.17/outbox.cif.g08.bks.cpg/sg2_55_cif.got.tgz:109424.got - 2010.06.03 11:33:40.
