data_PCOD9072271
_publ_section_title
;
Structure prediction by ZEFSAII (Michael W. Deem and Ramdas Pophale) SiO2 
 PCOD9072271
Probable space group: P -1
;
_chemical_formula_sum "Si O2"
_cell_formula_units_Z 16
_cell_length_a 21.314697
_cell_length_b 12.235078
_cell_length_c 14.570055
_cell_angle_alpha 48.975561
_cell_angle_beta 151.914167
_cell_angle_gamma 149.345346
_cell_volume 824.606869
_symmetry_space_group_name_H-M "P -1"
_symmetry_group_IT_number 2
_symmetry_cell_setting 'triclinic'
loop_
_space_group_symop_operation_xyz
x,y,z
-x,-y,-z
loop_
_atom_site_type_symbol
_atom_site_label
_atom_site_fract_x
_atom_site_fract_y
_atom_site_fract_z
Si Si1 0.836730 0.181743 0.508246
Si Si2 0.347335 0.726797 0.543262
Si Si3 0.159918 0.381375 0.152680
Si Si4 0.344605 0.846506 0.070907
Si Si5 0.217369 0.146393 0.257502
Si Si6 0.025507 0.606703 0.619498
Si Si7 0.996976 0.642904 0.857469
Si Si8 0.669373 0.956266 0.688621
O O1 0.914492 0.238218 0.472690
O O2 0.999389 0.425114 0.640896
O O3 0.602757 0.062831 0.271652
O O4 0.823129 0.017815 0.632536
O O5 0.561581 0.841108 0.712449
O O6 0.209992 0.563165 0.544752
O O7 0.173599 0.541133 0.340848
O O8 0.396862 0.942518 0.491786
O O9 0.286081 0.635529 0.148763
O O10 0.272761 0.338493 0.278818
O O11 0.096136 0.320448 0.211597
O O12 0.926155 0.192635 0.904698
O O13 0.211703 0.760994 0.852538
O O14 0.233736 0.859500 0.995391
O O15 0.375001 0.209371 0.349816
O O16 0.000000 0.000000 0.000000
O O17 0.000000 0.500000 0.000000
#
# Coordination Sequence:
#
# PCOD9072271 Si02
#       8
#     2   2   2   2   2   2   2   2
#     4  11  22  34  61  79 107 154 181 217 287 324
#     4  10  18  30  54  77 110 131 176 233 276 311
#     4  10  19  33  50  77 116 140 170 226 274 326
#     4  10  20  35  55  85 112 136 184 234 271 322
#     4  10  21  36  52  81 114 144 182 222 272 331
#     4  10  20  38  53  86 111 138 184 235 269 324
#     4   9  17  29  47  78 108 135 166 227 275 312
#     4  10  18  30  54  78 105 142 170 228 282 315
#
# _framework density 19.403186999999999
#
# number of rings (size 3 to 8) (size 9 to 14) (size 15 to 20)
#    0.000    2.000    5.000    1.125    5.250    0.500 
#    0.000    0.000    0.000    6.000    3.250    0.000 
#    0.000    0.000    0.000    0.000    0.000    0.000 
#
# Total GULP energy -89186.839007 kJ/mol
# GULP energy per Si atom -5574.177438 kJ/mol
# Density = 1.935902 g / cm^3
# Si number density = 19.403187 Si / 1000 Ang^3
#
#
#
# Elastic Constant Matrix: (Units=GPa)
#
#
# Indices 1 2 3 4 5 6 
#
# 1 169.6170 38.4571 28.3430 -6.5791 5.9743 1.8450
# 2 38.4571 32.1196 12.5458 -4.2451 4.7968 5.6334
# 3 28.3430 12.5458 62.6916 3.5378 4.3853 11.8645
# 4 -6.5791 -4.2451 3.5378 18.4253 4.4157 3.3879
# 5 5.9743 4.7968 4.3853 4.4157 28.6043 -2.1877
# 6 1.8450 5.6334 11.8645 3.3879 -2.1877 41.8813
#
#
#
# Elastic Compliance Matrix: (Units=1/GPa)
#
#
# Indices 1 2 3 4 5 6 
#
# 1 0.008407 -0.009317 -0.002276 0.000998 0.000112 0.001453
# 2 -0.009317 0.047685 -0.004285 0.011434 -0.007626 -0.006113
# 3 -0.002276 -0.004285 0.019017 -0.004301 -0.001397 -0.004436
# 4 0.000998 0.011434 -0.004301 0.061941 -0.011485 -0.005974
# 5 0.000112 -0.007626 -0.001397 -0.011485 0.038536 0.004359
# 6 0.001453 -0.006113 -0.004436 -0.005974 0.004359 0.026603
#
#
# Mechanical properties :
#
#
# Convention : Reuss Voigt Hill
#
# Bulk Modulus (GPa) = 23.06594 47.01333 35.03963
# Shear Modulus (GPa) = 20.12915 30.12100 25.12507
#
# Velocity S-wave (km/s) = 3.22439 3.94429 3.60237
# Velocity P-wave (km/s) = 5.07698 6.71011 5.94984
#
# Compressibility (1/GPa) = 0.04335397
#
# Stress axis : x y z
#
# Youngs Moduli (GPa) = 118.94492 20.97098 52.58350
#
# Poissons Ratio (x) = 0.19538 0.11966
# Poissons Ratio (y) = 1.10819 0.22534
# Poissons Ratio (z) = 0.27067 0.08987
#
# Static dielectric constant tensor:
#      x y z
#    x 1.782520 -0.009460 0.024250 
#    y -0.009460 1.666110 0.041920 
#    z 0.024250 0.041920 1.750340 
# 
# From -- ./inp_files/266877.got.cif
#   From: 2010.05.17/outbox.cif.g08.bks.cpg/sg2_134_cif.got.tgz:266877.got - 2010.06.03 11:33:40.
