data_PCOD9072491
_publ_section_title
;
Structure prediction by ZEFSAII (Michael W. Deem and Ramdas Pophale) SiO2 
 PCOD9072491
Probable space group: P -1
;
_chemical_formula_sum "Si O2"
_cell_formula_units_Z 14
_cell_length_a 6.474198
_cell_length_b 14.797992
_cell_length_c 12.541781
_cell_angle_alpha 28.199387
_cell_angle_beta 89.703432
_cell_angle_gamma 81.734724
_cell_volume 542.589843
_symmetry_space_group_name_H-M "P -1"
_symmetry_group_IT_number 2
_symmetry_cell_setting 'triclinic'
loop_
_space_group_symop_operation_xyz
x,y,z
-x,-y,-z
loop_
_atom_site_type_symbol
_atom_site_label
_atom_site_fract_x
_atom_site_fract_y
_atom_site_fract_z
Si Si1 0.758498 0.806716 0.190056
Si Si2 0.777946 0.840616 0.756717
Si Si3 0.734660 0.534821 0.665729
Si Si4 0.633406 0.812656 0.561370
Si Si5 0.871357 0.092474 0.159481
Si Si6 0.807112 0.187813 0.721189
Si Si7 0.251951 0.421251 0.785830
O O1 0.684647 0.687465 0.408069
O O2 0.711336 0.729292 0.156745
O O3 0.019929 0.751393 0.267124
O O4 0.697288 0.048263 0.934460
O O5 0.783357 0.766313 0.713491
O O6 0.997353 0.857955 0.791204
O O7 0.605297 0.060499 0.533838
O O8 0.685011 0.697241 0.981626
O O9 0.634096 0.626265 0.683113
O O10 0.992366 0.508802 0.707673
O O11 0.733431 0.305986 0.890409
O O12 0.726136 0.955442 0.337405
O O13 0.050536 0.963114 0.211322
O O14 0.677039 0.388318 0.451346
#
# Coordination Sequence:
#
# PCOD9072491 Si02
#       7
#     2   2   2   2   2   2   2
#     4  10  18  31  58  93 124 152 199 243 293 359
#     4  10  24  43  62  86 124 157 202 252 305 351
#     4  10  20  35  61  92 118 159 203 241 296 359
#     4  11  23  45  60  87 124 157 199 261 296 349
#     4  11  21  40  63  94 115 162 205 240 300 366
#     4  10  18  30  60  91 118 159 194 236 303 347
#     4  10  19  35  57  91 119 158 198 243 292 363
#
# _framework density 25.802178999999999
#
# number of rings (size 3 to 8) (size 9 to 14) (size 15 to 20)
#    0.000    1.714    5.714    2.143    2.000    2.286 
#    5.143    2.143    0.000    1.714    0.000    0.000 
#    0.000    0.000    0.000    0.000    0.000    0.000 
#
# Total GULP energy -78407.154072 kJ/mol
# GULP energy per Si atom -5600.511005 kJ/mol
# Density = 2.574345 g / cm^3
# Si number density = 25.802179 Si / 1000 Ang^3
#
#
#
# Elastic Constant Matrix: (Units=GPa)
#
#
# Indices 1 2 3 4 5 6 
#
# 1 52.7718 7.1967 1.5151 -4.1562 -10.9714 16.4946
# 2 7.1967 135.4699 56.8154 0.0819 -2.9994 15.4049
# 3 1.5151 56.8154 132.3827 -12.4907 0.0162 14.0781
# 4 -4.1562 0.0819 -12.4907 36.0753 4.2217 0.7406
# 5 -10.9714 -2.9994 0.0162 4.2217 49.2147 0.3693
# 6 16.4946 15.4049 14.0781 0.7406 0.3693 23.9332
#
#
#
# Elastic Compliance Matrix: (Units=1/GPa)
#
#
# Indices 1 2 3 4 5 6 
#
# 1 0.026533 0.000087 0.002092 0.003512 0.005767 -0.019770
# 2 0.000087 0.009408 -0.003751 -0.001316 0.000736 -0.003880
# 3 0.002092 -0.003751 0.010039 0.003836 -0.000057 -0.005051
# 4 0.003512 -0.001316 0.003836 0.029765 -0.001816 -0.004722
# 5 0.005767 0.000736 -0.000057 -0.001816 0.021841 -0.004696
# 6 -0.019770 -0.003880 -0.005051 -0.004722 -0.004696 0.061096
#
#
# Mechanical properties :
#
#
# Convention : Reuss Voigt Hill
#
# Bulk Modulus (GPa) = 23.34457 50.18655 36.76556
# Shear Modulus (GPa) = 28.39252 38.85112 33.62182
#
# Velocity S-wave (km/s) = 3.32081 3.88458 3.61371
# Velocity P-wave (km/s) = 4.87554 6.29386 5.62955
#
# Compressibility (1/GPa) = 0.04283652
#
# Stress axis : x y z
#
# Youngs Moduli (GPa) = 37.68941 106.28839 99.61590
#
# Poissons Ratio (x) = -0.00922 -0.20842
# Poissons Ratio (y) = -0.00327 0.37361
# Poissons Ratio (z) = -0.07886 0.39864
#
# Static dielectric constant tensor:
#      x y z
#    x 2.169080 -0.015990 0.028520 
#    y -0.015990 1.941470 -0.015300 
#    z 0.028520 -0.015300 2.051050 
# 
# From -- ./inp_files/299660.got.cif
#   From: 2010.05.17/outbox.cif.g08.bks.cpg/sg2_150_cif.got.tgz:299660.got - 2010.06.03 11:33:40.
