data_PCOD9072160
_publ_section_title
;
Structure prediction by ZEFSAII (Michael W. Deem and Ramdas Pophale) SiO2 
 PCOD9072160
Probable space group: P -1
;
_chemical_formula_sum "Si O2"
_cell_formula_units_Z 16
_cell_length_a 18.000000
_cell_length_b 12.000000
_cell_length_c 21.000000
_cell_angle_alpha 150.000000
_cell_angle_beta 20.000000
_cell_angle_gamma 150.000000
_cell_volume 738.640068
_symmetry_space_group_name_H-M "P -1"
_symmetry_group_IT_number 2
_symmetry_cell_setting 'triclinic'
loop_
_space_group_symop_operation_xyz
x,y,z
-x,-y,-z
loop_
_atom_site_type_symbol
_atom_site_label
_atom_site_fract_x
_atom_site_fract_y
_atom_site_fract_z
Si Si1 0.045103 0.907982 0.559608
Si Si2 0.911422 0.149507 0.364877
Si Si3 0.645833 0.081192 0.805534
Si Si4 0.359720 0.574978 0.348262
Si Si5 0.038996 0.640172 0.203943
Si Si6 0.587322 0.589497 0.903336
Si Si7 0.896098 0.646807 0.108226
Si Si8 0.598997 0.544740 0.600268
O O1 0.177461 0.903053 0.516561
O O2 0.164414 0.881671 0.384272
O O3 0.822260 0.686138 0.635020
O O4 0.992176 0.151739 0.712936
O O5 0.750927 0.221827 0.479559
O O6 0.143211 0.364677 0.286529
O O7 0.985815 0.925137 0.174084
O O8 0.747916 0.241882 0.863376
O O9 0.591914 0.814485 0.740857
O O10 0.460046 0.171423 0.963301
O O11 0.504842 0.574668 0.166001
O O12 0.425577 0.576396 0.370152
O O13 0.820959 0.551799 0.383280
O O14 0.079092 0.449276 0.029784
O O15 0.500000 0.500000 0.000000
O O16 0.634029 0.592192 0.313863
O O17 0.000000 0.500000 0.000000
#
# Coordination Sequence:
#
# PCOD9072160 Si02
#       8
#     2   2   2   2   2   2   2   2
#     4  10  18  39  66  94 126 162 202 275 318 360
#     4  11  24  42  61  90 136 173 205 259 320 385
#     4  11  20  38  68 101 127 153 220 276 317 365
#     4  11  21  40  66  90 130 164 213 269 320 371
#     4  11  22  41  69  98 130 164 212 274 318 371
#     4  11  23  38  65 101 124 165 216 268 327 371
#     4  12  26  45  62  93 135 171 217 257 315 399
#     4  11  24  41  68  98 125 174 213 263 327 373
#
# _framework density 21.661429999999999
#
# number of rings (size 3 to 8) (size 9 to 14) (size 15 to 20)
#    0.000    1.000    3.750    5.250    1.750    2.000 
#    4.500    0.625    0.000    0.000    0.000    0.000 
#    0.000    0.000    0.000    0.000    0.000    0.000 
#
# Total GULP energy -89238.447891 kJ/mol
# GULP energy per Si atom -5577.402993 kJ/mol
# Density = 2.161213 g / cm^3
# Si number density = 21.661430 Si / 1000 Ang^3
#
#
#
# Elastic Constant Matrix: (Units=GPa)
#
#
# Indices 1 2 3 4 5 6 
#
# 1 139.0856 43.8625 29.7514 4.9037 -0.2603 -43.2404
# 2 43.8625 46.0393 23.3295 2.4429 2.6185 -13.1060
# 3 29.7514 23.3295 59.4311 9.2642 3.2842 -11.9575
# 4 4.9037 2.4429 9.2642 25.6832 4.2729 -6.9766
# 5 -0.2603 2.6185 3.2842 4.2729 38.3211 8.4412
# 6 -43.2404 -13.1060 -11.9575 -6.9766 8.4412 40.0131
#
#
#
# Elastic Compliance Matrix: (Units=1/GPa)
#
#
# Indices 1 2 3 4 5 6 
#
# 1 0.014346 -0.009389 -0.001139 0.002481 -0.002305 0.013007
# 2 -0.009389 0.035265 -0.009500 0.001952 -0.001716 -0.000732
# 3 -0.001139 -0.009500 0.022468 -0.006447 -0.000881 0.001434
# 4 0.002481 0.001952 -0.006447 0.044634 -0.006882 0.010628
# 5 -0.002305 -0.001716 -0.000881 -0.006882 0.029401 -0.010719
# 6 0.013007 -0.000732 0.001434 0.010628 -0.010719 0.043350
#
#
# Mechanical properties :
#
#
# Convention : Reuss Voigt Hill
#
# Bulk Modulus (GPa) = 31.22645 48.71587 39.97116
# Shear Modulus (GPa) = 20.81661 30.64433 25.73047
#
# Velocity S-wave (km/s) = 3.10336 3.76532 3.45025
# Velocity P-wave (km/s) = 5.22380 6.43755 5.86217
#
# Compressibility (1/GPa) = 0.03202414
#
# Stress axis : x y z
#
# Youngs Moduli (GPa) = 69.70550 28.35684 44.50872
#
# Poissons Ratio (x) = 0.26624 0.05068
# Poissons Ratio (y) = 0.65445 0.42282
# Poissons Ratio (z) = 0.07937 0.26938
#
# Static dielectric constant tensor:
#      x y z
#    x 1.829300 0.034370 -0.011200 
#    y 0.034370 1.827460 0.005390 
#    z -0.011200 0.005390 1.873540 
# 
# From -- ./inp_files/346513.got.cif
#   From: 2010.05.17/outbox.ucp.g08.bks.cvg/sg2_174_cif.got.tgz:346513.got - 2010.06.11 11:32:03.
