data_PCOD9072101
_publ_section_title
;
Structure prediction by ZEFSAII (Michael W. Deem and Ramdas Pophale) SiO2 
 PCOD9072101
Probable space group: P -1
;
_chemical_formula_sum "Si O2"
_cell_formula_units_Z 16
_cell_length_a 17.487621
_cell_length_b 8.928070
_cell_length_c 11.600693
_cell_angle_alpha 46.497601
_cell_angle_beta 31.123792
_cell_angle_gamma 44.020683
_cell_volume 637.078571
_symmetry_space_group_name_H-M "P -1"
_symmetry_group_IT_number 2
_symmetry_cell_setting 'triclinic'
loop_
_space_group_symop_operation_xyz
x,y,z
-x,-y,-z
loop_
_atom_site_type_symbol
_atom_site_label
_atom_site_fract_x
_atom_site_fract_y
_atom_site_fract_z
Si Si1 0.240374 0.103428 0.406129
Si Si2 0.149697 0.710326 0.763176
Si Si3 0.017672 0.785261 0.516098
Si Si4 0.590235 0.159848 0.343454
Si Si5 0.381680 0.243155 0.773172
Si Si6 0.175557 0.006071 0.057368
Si Si7 0.643344 0.589757 0.022474
Si Si8 0.986739 0.346498 0.795015
O O1 0.129753 0.209037 0.602266
O O2 0.133917 0.166110 0.394898
O O3 0.261677 0.848586 0.518569
O O4 0.370842 0.216934 0.154270
O O5 0.258510 0.457716 0.755503
O O6 0.995962 0.803429 0.831295
O O7 0.075586 0.754810 0.963629
O O8 0.034357 0.551922 0.672438
O O9 0.000000 0.000000 0.500000
O O10 0.156378 0.786996 0.250329
O O11 0.544710 0.178785 0.526395
O O12 0.554780 0.413131 0.213778
O O13 0.500000 0.000000 0.500000
O O14 0.758903 0.034950 0.135220
O O15 0.296601 0.067583 0.950925
O O16 0.391474 0.304087 0.860623
O O17 0.829652 0.442216 0.868999
#
# Coordination Sequence:
#
# PCOD9072101 Si02
#       8
#     2   2   2   2   2   2   2   2
#     4  10  19  31  51  78 108 141 175 217 266 316
#     4  10  20  33  54  84 112 138 174 221 267 313
#     4  10  18  30  51  81 111 140 174 218 266 315
#     4  10  21  36  56  78 104 141 183 221 263 316
#     4  10  21  35  55  81 108 141 180 220 264 313
#     4  10  19  35  56  81 110 142 176 218 265 315
#     4  10  18  34  54  77 106 141 179 219 261 317
#     4  10  19  32  52  82 111 140 177 220 266 315
#
# _framework density 25.114640000000001
#
# number of rings (size 3 to 8) (size 9 to 14) (size 15 to 20)
#    0.000    2.000    0.000    7.125    0.000    2.000 
#    0.000    0.625    0.000    1.500    0.000   24.500 
#    0.000    0.000    0.000    0.000    0.000    0.000 
#
# Total GULP energy -89289.109986 kJ/mol
# GULP energy per Si atom -5580.569374 kJ/mol
# Density = 2.505748 g / cm^3
# Si number density = 25.114640 Si / 1000 Ang^3
#
#
#
# Elastic Constant Matrix: (Units=GPa)
#
#
# Indices 1 2 3 4 5 6 
#
# 1 48.8326 25.7947 25.6183 -2.2907 -4.5685 14.4729
# 2 25.7947 77.8695 50.4365 -11.3801 -12.1682 29.9443
# 3 25.6183 50.4365 152.7433 -25.8992 -6.3609 9.8040
# 4 -2.2907 -11.3801 -25.8992 64.8681 7.3147 -3.9612
# 5 -4.5685 -12.1682 -6.3609 7.3147 28.3513 2.8538
# 6 14.4729 29.9443 9.8040 -3.9612 2.8538 34.2489
#
#
#
# Elastic Compliance Matrix: (Units=1/GPa)
#
#
# Indices 1 2 3 4 5 6 
#
# 1 0.026410 -0.003747 -0.002862 -0.001688 0.003198 -0.007526
# 2 -0.003747 0.029802 -0.007277 -0.000727 0.013114 -0.023566
# 3 -0.002862 -0.007277 0.009482 0.003056 -0.002793 0.005443
# 4 -0.001688 -0.000727 0.003056 0.017142 -0.004607 0.002841
# 5 0.003198 0.013114 -0.002793 -0.004607 0.043607 -0.016184
# 6 -0.007526 -0.023566 0.005443 0.002841 -0.016184 0.053102
#
#
# Mechanical properties :
#
#
# Convention : Reuss Voigt Hill
#
# Bulk Modulus (GPa) = 26.37030 53.68272 40.02651
# Shear Modulus (GPa) = 22.73184 37.33341 30.03262
#
# Velocity S-wave (km/s) = 3.01179 3.85972 3.46182
# Velocity P-wave (km/s) = 4.75576 6.42532 5.65252
#
# Compressibility (1/GPa) = 0.03792145
#
# Stress axis : x y z
#
# Youngs Moduli (GPa) = 37.86499 33.55508 105.46150
#
# Poissons Ratio (x) = 0.12574 0.30183
# Poissons Ratio (y) = 0.14189 0.76741
# Poissons Ratio (z) = 0.10837 0.24417
#
# Static dielectric constant tensor:
#      x y z
#    x 2.034730 -0.051030 0.035500 
#    y -0.051030 2.047560 -0.018360 
#    z 0.035500 -0.018360 2.084000 
# 
# From -- ./inp_files/244151.got.cif
#   From: 2010.05.17/outbox.cif.g08.bks.cpg/sg2_123_cif.got.tgz:244151.got - 2010.06.03 11:33:40.
