data_PCOD9072350
_publ_section_title
;
Structure prediction by ZEFSAII (Michael W. Deem and Ramdas Pophale) SiO2 
 PCOD9072350
Probable space group: P -1
;
_chemical_formula_sum "Si O2"
_cell_formula_units_Z 14
_cell_length_a 9.179328
_cell_length_b 13.341418
_cell_length_c 5.690443
_cell_angle_alpha 50.224394
_cell_angle_beta 71.943166
_cell_angle_gamma 72.964403
_cell_volume 504.923457
_symmetry_space_group_name_H-M "P -1"
_symmetry_group_IT_number 2
_symmetry_cell_setting 'triclinic'
loop_
_space_group_symop_operation_xyz
x,y,z
-x,-y,-z
loop_
_atom_site_type_symbol
_atom_site_label
_atom_site_fract_x
_atom_site_fract_y
_atom_site_fract_z
Si Si1 0.134573 0.379713 0.613144
Si Si2 0.185436 0.083695 0.531739
Si Si3 0.319812 0.041207 0.028282
Si Si4 0.560937 0.641416 0.257297
Si Si5 0.863699 0.226125 0.978965
Si Si6 0.439063 0.358584 0.242482
Si Si7 0.162728 0.778514 0.500863
O O1 0.253197 0.384441 0.762496
O O2 0.000000 0.500000 0.500000
O O3 0.040225 0.255614 0.846466
O O4 0.977249 0.822506 0.527616
O O5 0.277222 0.102036 0.217166
O O6 0.277223 0.102036 0.699503
O O7 0.147406 0.930315 0.780824
O O8 0.230304 0.914983 0.262372
O O9 0.500000 0.000000 0.000000
O O10 0.500000 0.500000 0.500000
O O11 0.746803 0.615559 0.669016
O O12 0.518131 0.706940 0.930526
O O13 0.796466 0.285902 0.676280
O O14 0.796466 0.285902 0.169550
O O15 0.490786 0.291677 0.567090
O O16 0.500000 0.500000 0.000000
#
# Coordination Sequence:
#
# PCOD9072350 Si02
#       7
#     2   2   2   2   2   2   2
#     4  10  22  34  56  80 105 140 180 217 259 319
#     4  10  19  36  58  79 107 141 176 218 263 311
#     4  10  18  30  55  85 109 143 171 207 267 321
#     4   8  16  32  53  73  97 134 173 210 264 304
#     4  10  20  33  54  83 107 133 176 223 265 307
#     4   8  16  32  53  73  97 134 173 210 264 304
#     4  10  20  37  58  77 105 141 177 221 263 308
#
# _framework density 27.726972
#
# number of rings (size 3 to 8) (size 9 to 14) (size 15 to 20)
#    0.857    1.714    0.000    4.714    2.000    0.571 
#    0.000    0.000    0.000   27.429    0.000    0.000 
#    0.000    0.000    0.000    0.000    0.000    0.000 
#
# Total GULP energy -78337.613285 kJ/mol
# GULP energy per Si atom -5595.543806 kJ/mol
# Density = 2.766386 g / cm^3
# Si number density = 27.726972 Si / 1000 Ang^3
#
#
#
# Elastic Constant Matrix: (Units=GPa)
#
#
# Indices 1 2 3 4 5 6 
#
# 1 147.3010 50.3485 72.6810 29.5081 5.3156 12.8116
# 2 50.3485 113.8958 93.2414 27.3303 12.1708 12.1944
# 3 72.6810 93.2414 223.8900 80.1225 4.1393 11.2969
# 4 29.5081 27.3303 80.1225 79.3191 12.8915 6.5116
# 5 5.3156 12.1708 4.1393 12.8915 52.5747 11.1372
# 6 12.8116 12.1944 11.2969 6.5116 11.1372 45.2743
#
#
#
# Elastic Compliance Matrix: (Units=1/GPa)
#
#
# Indices 1 2 3 4 5 6 
#
# 1 0.008569 -0.002261 -0.001469 -0.000856 0.000278 -0.001395
# 2 -0.002261 0.014704 -0.006216 0.002663 -0.003041 -0.001405
# 3 -0.001469 -0.006216 0.010464 -0.008338 0.002811 -0.000014
# 4 -0.000856 0.002663 -0.008338 0.021268 -0.005043 -0.000213
# 5 0.000278 -0.003041 0.002811 -0.005043 0.021680 -0.004569
# 6 -0.001395 -0.001405 -0.000014 -0.000213 -0.004569 0.024018
#
#
# Mechanical properties :
#
#
# Convention : Reuss Voigt Hill
#
# Bulk Modulus (GPa) = 72.21398 101.95874 87.08636
# Shear Modulus (GPa) = 39.93309 53.35469 46.64389
#
# Velocity S-wave (km/s) = 3.79915 4.39143 4.10598
# Velocity P-wave (km/s) = 6.73394 7.90981 7.34544
#
# Compressibility (1/GPa) = 0.01384773
#
# Stress axis : x y z
#
# Youngs Moduli (GPa) = 116.70053 68.00789 95.56121
#
# Poissons Ratio (x) = 0.15374 0.14035
# Poissons Ratio (y) = 0.26381 0.59398
# Poissons Ratio (z) = 0.17140 0.42271
#
# Static dielectric constant tensor:
#      x y z
#    x 2.150460 0.035630 -0.005000 
#    y 0.035630 2.136860 0.055520 
#    z -0.005000 0.055520 2.200300 
# 
# From -- ./inp_files/50034.got.cif
#   From: 2010.05.17/outbox.cif.g08.bks.cpg/sg2_26_cif.got.tgz:50034.got - 2010.06.03 11:33:40.
