data_PCOD9072716
_publ_section_title
;
Structure prediction by ZEFSAII (Michael W. Deem and Ramdas Pophale) SiO2 
 PCOD9072716
Probable space group: P -1
;
_chemical_formula_sum "Si O2"
_cell_formula_units_Z 16
_cell_length_a 14.467376
_cell_length_b 13.895355
_cell_length_c 12.428975
_cell_angle_alpha 58.611187
_cell_angle_beta 79.250513
_cell_angle_gamma 26.595816
_cell_volume 652.013106
_symmetry_space_group_name_H-M "P -1"
_symmetry_group_IT_number 2
_symmetry_cell_setting 'triclinic'
loop_
_space_group_symop_operation_xyz
x,y,z
-x,-y,-z
loop_
_atom_site_type_symbol
_atom_site_label
_atom_site_fract_x
_atom_site_fract_y
_atom_site_fract_z
Si Si1 0.863344 0.705462 0.644264
Si Si2 0.852805 0.475261 0.732774
Si Si3 0.186756 0.734467 0.816541
Si Si4 0.455142 0.553375 0.287168
Si Si5 0.320790 0.558455 0.132569
Si Si6 0.998975 0.291693 0.568666
Si Si7 0.345237 0.496428 0.581619
Si Si8 0.995912 0.776799 0.690450
O O1 0.944832 0.482351 0.773027
O O2 0.018487 0.574879 0.576109
O O3 0.951024 0.696920 0.721010
O O4 0.502239 0.115313 0.463182
O O5 0.862172 0.350252 0.870396
O O6 0.034184 0.265254 0.703680
O O7 0.395569 0.551574 0.786082
O O8 0.150990 0.644686 0.842036
O O9 0.279501 0.647735 0.968525
O O10 0.880245 0.153953 0.621699
O O11 0.246082 0.709493 0.171582
O O12 0.403770 0.711834 0.292367
O O13 0.682292 0.203969 0.497475
O O14 0.689415 0.116638 0.309618
O O15 0.699185 0.555933 0.461778
O O16 0.194178 0.604586 0.652742
#
# Coordination Sequence:
#
# PCOD9072716 Si02
#       8
#     2   2   2   2   2   2   2   2
#     4   9  17  34  54  70  92 126 159 199 250 279
#     4  10  20  31  49  76  98 118 161 207 236 285
#     4   9  16  26  50  71  96 134 163 183 234 294
#     4   9  14  27  50  72  95 128 165 192 230 283
#     4  11  19  30  48  73 101 131 159 189 239 284
#     4  10  18  31  50  73  99 123 158 201 240 279
#     4   8  15  27  49  73  94 127 166 191 231 283
#     4   8  13  28  50  73  89 121 167 198 227 281
#
# _framework density 24.539383000000001
#
# number of rings (size 3 to 8) (size 9 to 14) (size 15 to 20)
#    0.000    2.750    5.000    2.250    0.000    0.000 
#    0.000    1.875    0.000    3.750    0.000    0.000 
#    0.000    0.000    0.000    0.000    0.000    0.000 
#
# Total GULP energy -89184.196649 kJ/mol
# GULP energy per Si atom -5574.012291 kJ/mol
# Density = 2.448353 g / cm^3
# Si number density = 24.539383 Si / 1000 Ang^3
#
#
#
# Elastic Constant Matrix: (Units=GPa)
#
#
# Indices 1 2 3 4 5 6 
#
# 1 210.0577 28.5278 29.8714 11.9058 10.7247 5.2804
# 2 28.5278 71.9795 -1.0232 16.8867 -5.0308 -9.6870
# 3 29.8714 -1.0232 58.8376 17.5189 14.8733 4.8421
# 4 11.9058 16.8867 17.5189 15.9375 -0.1728 0.9149
# 5 10.7247 -5.0308 14.8733 -0.1728 29.1068 9.6734
# 6 5.2804 -9.6870 4.8421 0.9149 9.6734 23.2620
#
#
#
# Elastic Compliance Matrix: (Units=1/GPa)
#
#
# Indices 1 2 3 4 5 6 
#
# 1 0.005618 -0.003478 -0.003920 0.003917 0.000047 -0.002081
# 2 -0.003478 0.027527 0.016514 -0.045579 -0.007189 0.013597
# 3 -0.003920 0.016514 0.042086 -0.061641 -0.020943 0.010139
# 4 0.003917 -0.045579 -0.061641 0.177799 0.032369 -0.027492
# 5 0.000047 -0.007189 -0.020943 0.032369 0.051013 -0.021131
# 6 -0.002081 0.013597 0.010139 -0.027492 -0.021131 0.056881
#
#
# Mechanical properties :
#
#
# Convention : Reuss Voigt Hill
#
# Bulk Modulus (GPa) = 10.69941 50.62521 30.66231
# Shear Modulus (GPa) = 13.37446 32.56119 22.96782
#
# Velocity S-wave (km/s) = 2.33710 3.64661 3.06266
# Velocity P-wave (km/s) = 3.41354 6.19720 5.00288
#
# Compressibility (1/GPa) = 0.09346311
#
# Stress axis : x y z
#
# Youngs Moduli (GPa) = 177.98991 36.32863 23.76074
#
# Poissons Ratio (x) = 0.12636 0.09313
# Poissons Ratio (y) = 0.61908 -0.39238
# Poissons Ratio (z) = 0.69764 -0.59992
#
# Static dielectric constant tensor:
#      x y z
#    x 2.022240 -0.026420 0.035950 
#    y -0.026420 2.059850 -0.070660 
#    z 0.035950 -0.070660 1.948310 
# 
# From -- ./inp_files/453707.got.cif
#   From: 2010.05.17/outbox.cif.g08.bks.cpg/sg2_227_cif.got.tgz:453707.got - 2010.06.03 11:33:40.
