data_PCOD9072236
_publ_section_title
;
Structure prediction by ZEFSAII (Michael W. Deem and Ramdas Pophale) SiO2 
 PCOD9072236
Probable space group: P -1
;
_chemical_formula_sum "Si O2"
_cell_formula_units_Z 14
_cell_length_a 24.327310
_cell_length_b 11.414929
_cell_length_c 10.563093
_cell_angle_alpha 132.831757
_cell_angle_beta 22.356847
_cell_angle_gamma 141.889224
_cell_volume 674.183822
_symmetry_space_group_name_H-M "P -1"
_symmetry_group_IT_number 2
_symmetry_cell_setting 'triclinic'
loop_
_space_group_symop_operation_xyz
x,y,z
-x,-y,-z
loop_
_atom_site_type_symbol
_atom_site_label
_atom_site_fract_x
_atom_site_fract_y
_atom_site_fract_z
Si Si1 0.231215 0.576140 0.300446
Si Si2 0.635810 0.041839 0.130276
Si Si3 0.347944 0.652723 0.835006
Si Si4 0.262480 0.227404 0.283321
Si Si5 0.463401 0.454881 0.260724
Si Si6 0.012716 0.687482 0.167421
Si Si7 0.352216 0.924602 0.470785
O O1 0.063432 0.391696 0.589316
O O2 0.265561 0.776652 0.430093
O O3 0.228543 0.569781 0.151137
O O4 0.398713 0.579508 0.995290
O O5 0.715456 0.255582 0.064683
O O6 0.500000 0.000000 0.500000
O O7 0.500369 0.905608 0.206120
O O8 0.767136 0.979151 0.825555
O O9 0.380427 0.510282 0.587931
O O10 0.536167 0.845595 0.622910
O O11 0.317936 0.291706 0.357293
O O12 0.113543 0.259887 0.587638
O O13 0.423055 0.364847 0.946057
O O14 0.000000 0.500000 0.000000
O O15 0.206613 0.861430 0.842295
#
# Coordination Sequence:
#
# PCOD9072236 Si02
#       7
#     2   2   2   2   2   2   2
#     4  10  18  34  53  81 109 143 181 218 277 323
#     4  10  19  34  55  84 106 138 186 227 264 315
#     4  10  20  30  56  83 108 139 181 230 266 317
#     4  10  18  33  56  81 105 145 184 225 262 321
#     4  10  18  30  53  82 106 136 187 227 260 315
#     4   9  20  34  57  82 108 144 182 222 272 325
#     4   9  19  35  55  81 106 143 177 223 271 322
#
# _framework density 20.765848999999999
#
# number of rings (size 3 to 8) (size 9 to 14) (size 15 to 20)
#    0.857    1.429    2.857    0.857    2.000    0.000 
#    0.000    6.429    0.000   15.429    0.000    0.000 
#    0.000    0.000    0.000    0.000    0.000    0.000 
#
# Total GULP energy -77981.638746 kJ/mol
# GULP energy per Si atom -5570.117053 kJ/mol
# Density = 2.071859 g / cm^3
# Si number density = 20.765849 Si / 1000 Ang^3
#
#
#
# Elastic Constant Matrix: (Units=GPa)
#
#
# Indices 1 2 3 4 5 6 
#
# 1 60.2808 14.9473 40.9240 2.3796 20.3677 -8.7422
# 2 14.9473 45.5046 42.3259 4.0166 9.9247 -8.6593
# 3 40.9240 42.3259 117.2335 6.8514 18.6393 -8.0278
# 4 2.3796 4.0166 6.8514 30.8619 -2.4510 6.3690
# 5 20.3677 9.9247 18.6393 -2.4510 39.5920 -1.8453
# 6 -8.7422 -8.6593 -8.0278 6.3690 -1.8453 27.7901
#
#
#
# Elastic Compliance Matrix: (Units=1/GPa)
#
#
# Indices 1 2 3 4 5 6 
#
# 1 0.025609 0.002306 -0.007564 -0.002746 -0.010056 0.006551
# 2 0.002306 0.035457 -0.012064 -0.004307 -0.004242 0.008994
# 3 -0.007564 -0.012064 0.015577 -0.001052 -0.000550 -0.001434
# 4 -0.002746 -0.004307 -0.001052 0.035937 0.004726 -0.010432
# 5 -0.010056 -0.004242 -0.000550 0.004726 0.031877 -0.003611
# 6 0.006551 0.008994 -0.001434 -0.010432 -0.003611 0.042584
#
#
# Mechanical properties :
#
#
# Convention : Reuss Voigt Hill
#
# Bulk Modulus (GPa) = 23.81091 46.60146 35.20619
# Shear Modulus (GPa) = 21.21486 27.97025 24.59256
#
# Velocity S-wave (km/s) = 3.19975 3.67404 3.44507
# Velocity P-wave (km/s) = 5.01423 6.36304 5.72847
#
# Compressibility (1/GPa) = 0.04199756
#
# Stress axis : x y z
#
# Youngs Moduli (GPa) = 39.04950 28.20339 64.19774
#
# Poissons Ratio (x) = -0.06504 0.48560
# Poissons Ratio (y) = -0.09005 0.77450
# Poissons Ratio (z) = 0.29538 0.34025
#
# Static dielectric constant tensor:
#      x y z
#    x 1.829330 0.005380 -0.010080 
#    y 0.005380 1.745430 0.005560 
#    z -0.010080 0.005560 1.718970 
# 
# From -- ./inp_files/477536.got.cif
#   From: 2010.05.17/outbox.cif.g08.bks.cpg/sg2_239_cif.got.tgz:477536.got - 2010.06.03 11:33:40.
