data_PCOD9072410
_publ_section_title
;
Structure prediction by ZEFSAII (Michael W. Deem and Ramdas Pophale) SiO2 
 PCOD9072410
Probable space group: P -1
;
_chemical_formula_sum "Si O2"
_cell_formula_units_Z 16
_cell_length_a 12.000000
_cell_length_b 9.000000
_cell_length_c 9.000000
_cell_angle_alpha 100.000000
_cell_angle_beta 120.000000
_cell_angle_gamma 60.000000
_cell_volume 725.212580
_symmetry_space_group_name_H-M "P -1"
_symmetry_group_IT_number 2
_symmetry_cell_setting 'triclinic'
loop_
_space_group_symop_operation_xyz
x,y,z
-x,-y,-z
loop_
_atom_site_type_symbol
_atom_site_label
_atom_site_fract_x
_atom_site_fract_y
_atom_site_fract_z
Si Si1 0.808747 0.452529 0.854980
Si Si2 0.759524 0.084212 0.422247
Si Si3 0.240732 0.876390 0.223676
Si Si4 0.472897 0.336781 0.785607
Si Si5 0.190442 0.415215 0.443260
Si Si6 0.023025 0.242763 0.181841
Si Si7 0.056106 0.755735 0.564896
Si Si8 0.476414 0.331248 0.127936
O O1 0.796511 0.278535 0.828071
O O2 0.827659 0.488887 0.707059
O O3 0.662430 0.610348 0.849040
O O4 0.940328 0.403657 0.047861
O O5 0.722947 0.108017 0.576874
O O6 0.836413 0.198747 0.448765
O O7 0.612887 0.155378 0.242270
O O8 0.889644 0.894344 0.439299
O O9 0.372324 0.818540 0.187113
O O10 0.109558 0.062219 0.126894
O O11 0.354529 0.335279 0.596579
O O12 0.480016 0.515151 0.803576
O O13 0.437300 0.325715 0.930505
O O14 0.138694 0.277011 0.355830
O O15 0.096779 0.563190 0.523434
O O16 0.921603 0.229434 0.241241
#
# Coordination Sequence:
#
# PCOD9072410 Si02
#       8
#     2   2   2   2   2   2   2   2
#     4  11  22  38  62  87 116 152 197 242 284 340
#     4  10  19  36  60  90 115 146 191 245 287 332
#     4  10  21  39  61  88 114 151 194 244 286 339
#     4  10  21  35  61  87 115 154 191 240 291 342
#     4  12  22  40  59  85 122 156 192 232 295 350
#     4  11  25  38  58  86 122 156 191 237 288 350
#     4  10  21  36  59  85 117 154 188 234 288 345
#     4  10  20  36  60  91 114 143 199 247 285 334
#
# _framework density 22.062495999999999
#
# number of rings (size 3 to 8) (size 9 to 14) (size 15 to 20)
#    0.000    1.500    2.500    2.625    3.500    3.500 
#    0.000    0.000    0.000    4.500    0.000    0.000 
#    0.000    0.000    0.000    0.000    0.000    0.000 
#
# Total GULP energy -89321.028161 kJ/mol
# GULP energy per Si atom -5582.564260 kJ/mol
# Density = 2.201228 g / cm^3
# Si number density = 22.062496 Si / 1000 Ang^3
#
#
#
# Elastic Constant Matrix: (Units=GPa)
#
#
# Indices 1 2 3 4 5 6 
#
# 1 14.9168 28.1647 -6.0247 -4.0551 4.7111 -10.7765
# 2 28.1647 65.6500 -1.5667 -4.7705 13.4267 -24.9254
# 3 -6.0247 -1.5667 56.0857 -19.0334 21.8507 -6.5369
# 4 -4.0551 -4.7705 -19.0334 30.2420 3.0849 -0.2566
# 5 4.7111 13.4267 21.8507 3.0849 16.0139 8.2219
# 6 -10.7765 -24.9254 -6.5369 -0.2566 8.2219 26.0526
#
#
#
# Elastic Compliance Matrix: (Units=1/GPa)
#
#
# Indices 1 2 3 4 5 6 
#
# 1 0.397852 -0.208254 0.003725 0.014185 0.079958 -0.058834
# 2 -0.208254 0.112007 -0.020150 -0.021672 -0.010814 0.019161
# 3 0.003725 -0.020150 -0.001510 -0.007358 0.034148 -0.028965
# 4 0.014185 -0.021672 -0.007358 0.023279 0.033434 -0.027035
# 5 0.079958 -0.010814 0.034148 0.033434 -0.025397 0.039640
# 6 -0.058834 0.019161 -0.028965 -0.027035 0.039640 0.012335
#
#
# Mechanical properties :
#
#
# Convention : Reuss Voigt Hill
#
# Bulk Modulus (GPa) = 16.95204 19.75547 18.35375
# Shear Modulus (GPa) = 5.06284 22.20032 13.63158
#
# Velocity S-wave (km/s) = 1.51649 3.17558 2.48838
# Velocity P-wave (km/s) = 3.28126 4.73492 4.07346
#
# Compressibility (1/GPa) = 0.05898996
#
# Stress axis : x y z
#
# Youngs Moduli (GPa) = 2.51350 8.92802 -662.29881
#
# Poissons Ratio (x) = 1.85930 2.46703
# Poissons Ratio (y) = 0.52345 -13.34534
# Poissons Ratio (z) = -0.00936 0.17990
#
# Static dielectric constant tensor:
#      x y z
#    x 1.840790 0.027260 0.029930 
#    y 0.027260 1.778980 -0.013350 
#    z 0.029930 -0.013350 1.858200 
# 
# From -- ./inp_files/189913.got.cif
#   From: 2010.05.17/outbox.ucp.g08.bks.cvg/sg2_95_cif.got.tgz:189913.got - 2010.06.11 11:32:03.
