data_PCOD9072780
_publ_section_title
;
Structure prediction by ZEFSAII (Michael W. Deem and Ramdas Pophale) SiO2 
 PCOD9072780
Probable space group: P -1
;
_chemical_formula_sum "Si O2"
_cell_formula_units_Z 16
_cell_length_a 27.311562
_cell_length_b 15.833715
_cell_length_c 16.252380
_cell_angle_alpha 152.639720
_cell_angle_beta 16.810364
_cell_angle_gamma 152.334821
_cell_volume 900.226194
_symmetry_space_group_name_H-M "P -1"
_symmetry_group_IT_number 2
_symmetry_cell_setting 'triclinic'
loop_
_space_group_symop_operation_xyz
x,y,z
-x,-y,-z
loop_
_atom_site_type_symbol
_atom_site_label
_atom_site_fract_x
_atom_site_fract_y
_atom_site_fract_z
Si Si1 0.055531 0.804888 0.734780
Si Si2 0.032191 0.604503 0.428272
Si Si3 0.679567 0.341133 0.728635
Si Si4 0.705459 0.880628 0.825231
Si Si5 0.261607 0.055109 0.981547
Si Si6 0.088463 0.806196 0.343229
Si Si7 0.088297 0.396711 0.702639
Si Si8 0.637402 0.298660 0.566121
O O1 0.928498 0.601595 0.797078
O O2 0.229595 0.818024 0.520134
O O3 0.084065 0.745785 0.543947
O O4 0.000000 0.000000 0.000000
O O5 0.817578 0.534449 0.705264
O O6 0.108738 0.704279 0.307123
O O7 0.682976 0.343890 0.626998
O O8 0.479242 0.276592 0.023747
O O9 0.867199 0.785432 0.486753
O O10 0.708676 0.968250 0.988216
O O11 0.747196 0.032967 0.817093
O O12 0.427310 0.227568 0.836547
O O13 0.282721 0.871383 0.740288
O O14 0.079962 0.106234 0.302059
O O15 0.033456 0.658185 0.228606
O O16 0.272634 0.524085 0.481567
O O17 0.000000 0.500000 0.000000
#
# Coordination Sequence:
#
# PCOD9072780 Si02
#       8
#     2   2   2   2   2   2   2   2
#     4   9  19  38  61  85 105 133 177 239 285 327
#     4   9  20  36  59  84 104 136 184 223 282 328
#     4   9  19  36  55  81 105 139 185 228 271 329
#     4  10  21  34  51  75 114 151 177 217 276 312
#     4   9  20  31  50  76 112 145 182 218 266 310
#     4  11  20  34  52  76 109 147 178 218 267 332
#     4  11  20  32  50  73 115 151 182 218 263 316
#     4  10  18  31  50  81 105 141 188 225 254 325
#
# _framework density 17.773309999999999
#
# number of rings (size 3 to 8) (size 9 to 14) (size 15 to 20)
#    0.750    1.500    1.250    3.000    3.500    1.500 
#    2.250    1.875    0.000    0.750    0.000    0.000 
#    0.000    0.000    0.000    0.000    0.000    0.000 
#
# Total GULP energy -89112.977217 kJ/mol
# GULP energy per Si atom -5569.561076 kJ/mol
# Density = 1.773286 g / cm^3
# Si number density = 17.773310 Si / 1000 Ang^3
#
#
#
# Elastic Constant Matrix: (Units=GPa)
#
#
# Indices 1 2 3 4 5 6 
#
# 1 50.6526 33.3258 18.9705 8.0096 7.4291 -28.2714
# 2 33.3258 89.1370 23.5543 -6.7722 14.4687 -22.8053
# 3 18.9705 23.5543 62.6571 5.8605 12.8882 -7.9981
# 4 8.0096 -6.7722 5.8605 30.6592 -0.9938 4.4025
# 5 7.4291 14.4687 12.8882 -0.9938 19.6586 -6.0849
# 6 -28.2714 -22.8053 -7.9981 4.4025 -6.0849 30.5029
#
#
#
# Elastic Compliance Matrix: (Units=1/GPa)
#
#
# Indices 1 2 3 4 5 6 
#
# 1 0.060806 -0.010353 -0.006447 -0.024166 0.003465 0.051106
# 2 -0.010353 0.017524 -0.002635 0.006790 -0.006764 0.000485
# 3 -0.006447 -0.002635 0.020808 -0.002612 -0.010714 -0.004249
# 4 -0.024166 0.006790 -0.002612 0.044438 0.000570 -0.024307
# 5 0.003465 -0.006764 -0.010714 0.000570 0.064080 0.008046
# 6 0.051106 0.000485 -0.004249 -0.024307 0.008046 0.084513
#
#
# Mechanical properties :
#
#
# Convention : Reuss Voigt Hill
#
# Bulk Modulus (GPa) = 16.59259 39.34978 27.97119
# Shear Modulus (GPa) = 14.23981 24.60388 19.42185
#
# Velocity S-wave (km/s) = 2.83360 3.72468 3.30927
# Velocity P-wave (km/s) = 4.47903 6.37852 5.51122
#
# Compressibility (1/GPa) = 0.06026785
#
# Stress axis : x y z
#
# Youngs Moduli (GPa) = 16.44571 57.06545 48.05876
#
# Poissons Ratio (x) = 0.59082 0.30982
# Poissons Ratio (y) = 0.17027 0.12662
# Poissons Ratio (z) = 0.10602 0.15035
#
# Static dielectric constant tensor:
#      x y z
#    x 1.605940 -0.011600 -0.013310 
#    y -0.011600 1.677350 0.001610 
#    z -0.013310 0.001610 1.600750 
# 
# From -- ./inp_files/544178.got.cif
#   From: 2010.05.17/outbox.cif.g08.bks.cpg/sg2_273_cif.got.tgz:544178.got - 2010.06.03 11:33:40.
