data_PCOD9072861
_publ_section_title
;
Structure prediction by ZEFSAII (Michael W. Deem and Ramdas Pophale) SiO2 
 PCOD9072861
Probable space group: P -1
;
_chemical_formula_sum "Si O2"
_cell_formula_units_Z 16
_cell_length_a 9.000000
_cell_length_b 21.000000
_cell_length_c 6.000000
_cell_angle_alpha 50.000000
_cell_angle_beta 120.000000
_cell_angle_gamma 110.000000
_cell_volume 751.947714
_symmetry_space_group_name_H-M "P -1"
_symmetry_group_IT_number 2
_symmetry_cell_setting 'triclinic'
loop_
_space_group_symop_operation_xyz
x,y,z
-x,-y,-z
loop_
_atom_site_type_symbol
_atom_site_label
_atom_site_fract_x
_atom_site_fract_y
_atom_site_fract_z
Si Si1 0.633820 0.024292 0.849737
Si Si2 0.038902 0.868588 0.032895
Si Si3 0.635257 0.712623 0.453625
Si Si4 0.343189 0.118890 0.184175
Si Si5 0.011292 0.730198 0.683499
Si Si6 0.750627 0.271606 0.757402
Si Si7 0.689847 0.539023 0.631655
Si Si8 0.046763 0.587664 0.662976
O O1 0.822332 0.056474 0.997528
O O2 0.522500 0.096182 0.487768
O O3 0.663215 0.948209 0.872519
O O4 0.500000 0.000000 0.000000
O O5 0.011682 0.816114 0.356628
O O6 0.146280 0.804845 0.102491
O O7 0.837365 0.890045 0.788151
O O8 0.456104 0.723382 0.431083
O O9 0.639191 0.623266 0.533920
O O10 0.826051 0.722525 0.689116
O O11 0.639386 0.787738 0.108227
O O12 0.016909 0.650853 0.704025
O O13 0.192993 0.732763 0.936119
O O14 0.852534 0.354977 0.566995
O O15 0.500000 0.500000 0.500000
O O16 0.847039 0.558795 0.523116
O O17 0.812151 0.480333 0.008583
#
# Coordination Sequence:
#
# PCOD9072861 Si02
#       8
#     2   2   2   2   2   2   2   2
#     4  11  23  39  62  89 116 149 191 238 285 341
#     4  10  22  38  60  88 118 154 192 232 284 341
#     4  10  21  38  60  85 113 152 197 235 285 346
#     4  10  23  42  60  84 119 153 188 235 289 342
#     4   9  20  39  59  83 120 157 190 236 285 337
#     4  11  21  36  61  88 117 154 193 237 283 333
#     4  10  20  38  60  82 117 156 189 239 292 335
#     4   9  21  38  56  86 118 151 197 235 283 345
#
# _framework density 21.278075000000001
#
# number of rings (size 3 to 8) (size 9 to 14) (size 15 to 20)
#    0.000    2.000    0.000    3.375    0.000    7.000 
#    0.000   11.250    0.000    0.000    0.000    0.000 
#    0.000    0.000    0.000    0.000    0.000    0.000 
#
# Total GULP energy -89082.417342 kJ/mol
# GULP energy per Si atom -5567.651084 kJ/mol
# Density = 2.122965 g / cm^3
# Si number density = 21.278075 Si / 1000 Ang^3
#
#
#
# Elastic Constant Matrix: (Units=GPa)
#
#
# Indices 1 2 3 4 5 6 
#
# 1 168.5227 22.2294 3.7351 -2.8034 30.3309 19.5689
# 2 22.2294 49.4587 3.1278 -16.2197 0.4087 17.8381
# 3 3.7351 3.1278 42.1789 -16.6822 15.2128 -2.7546
# 4 -2.8034 -16.2197 -16.6822 22.5816 1.9743 11.8193
# 5 30.3309 0.4087 15.2128 1.9743 36.6532 -3.6051
# 6 19.5689 17.8381 -2.7546 11.8193 -3.6051 36.1024
#
#
#
# Elastic Compliance Matrix: (Units=1/GPa)
#
#
# Indices 1 2 3 4 5 6 
#
# 1 0.001670 -0.040954 -0.033253 -0.079135 0.021551 0.044853
# 2 -0.040954 -0.208525 -0.216764 -0.479111 0.179875 0.283506
# 3 -0.033253 -0.216764 -0.166389 -0.437373 0.149160 0.270514
# 4 -0.079135 -0.479111 -0.437373 -0.980632 0.364557 0.603695
# 5 0.021551 0.179875 0.149160 0.364557 -0.095550 -0.218067
# 6 0.044853 0.283506 0.270514 0.603695 -0.218067 -0.335467
#
#
# Mechanical properties :
#
#
# Convention : Reuss Voigt Hill
#
# Bulk Modulus (GPa) = -1.04691 35.37167 17.16238
# Shear Modulus (GPa) = -3.28656 34.47197 15.59270
#
# Velocity S-wave (km/s) = -1.24416 4.02938 2.70998
# Velocity P-wave (km/s) = 1.59906 6.18930 4.22791
#
# Compressibility (1/GPa) = -0.95518781
#
# Stress axis : x y z
#
# Youngs Moduli (GPa) = 598.91285 -4.79558 -6.01001
#
# Poissons Ratio (x) = -0.19640 -0.19985
# Poissons Ratio (y) = 24.52812 -1.30276
# Poissons Ratio (z) = 19.91572 -1.03951
#
# Static dielectric constant tensor:
#      x y z
#    x 1.780540 0.006760 -0.047070 
#    y 0.006760 1.798830 0.004930 
#    z -0.047070 0.004930 1.851980 
# 
# From -- ./inp_files/52273.got.cif
#   From: 2010.05.17/outbox.ucp.g08.bks.cvg/sg2_27_cif.got.tgz:52273.got - 2010.06.11 11:32:03.
