data_PCOD9072786
_publ_section_title
;
Structure prediction by ZEFSAII (Michael W. Deem and Ramdas Pophale) SiO2 
 PCOD9072786
Probable space group: P -1
;
_chemical_formula_sum "Si O2"
_cell_formula_units_Z 16
_cell_length_a 32.400490
_cell_length_b 5.395018
_cell_length_c 19.896216
_cell_angle_alpha 105.773411
_cell_angle_beta 162.801352
_cell_angle_gamma 63.753513
_cell_volume 759.127908
_symmetry_space_group_name_H-M "P -1"
_symmetry_group_IT_number 2
_symmetry_cell_setting 'triclinic'
loop_
_space_group_symop_operation_xyz
x,y,z
-x,-y,-z
loop_
_atom_site_type_symbol
_atom_site_label
_atom_site_fract_x
_atom_site_fract_y
_atom_site_fract_z
Si Si1 0.216642 0.021599 0.360928
Si Si2 0.582907 0.430804 0.731757
Si Si3 0.498288 0.923852 0.154393
Si Si4 0.838794 0.157495 0.603585
Si Si5 0.165111 0.294955 0.165862
Si Si6 0.776623 0.130674 0.878477
Si Si7 0.386168 0.900375 0.845813
Si Si8 0.524312 0.098043 0.730817
O O1 0.411639 0.901097 0.680081
O O2 0.222360 0.005414 0.287801
O O3 0.150466 0.899763 0.304144
O O4 0.048085 0.419627 0.136798
O O5 0.743522 0.203116 0.910626
O O6 0.402146 0.561947 0.417494
O O7 0.596928 0.226691 0.802521
O O8 0.574796 0.744899 0.761392
O O9 0.675794 0.558474 0.376728
O O10 0.432089 0.912665 0.123812
O O11 0.348422 0.047760 0.873449
O O12 0.769261 0.991329 0.441074
O O13 0.032838 0.990688 0.861553
O O14 0.302206 0.360629 0.403170
O O15 0.210887 0.177045 0.151584
O O16 0.500000 0.500000 0.000000
O O17 0.500000 0.000000 0.000000
#
# Coordination Sequence:
#
# PCOD9072786 Si02
#       8
#     2   2   2   2   2   2   2   2
#     4  10  18  31  50  81 118 143 182 215 286 335
#     4  10  23  40  55  81 111 154 193 231 269 328
#     4  10  21  35  55  84 114 144 182 236 285 339
#     4  11  21  33  59  83 111 150 183 232 283 342
#     4   9  19  32  49  83 114 149 181 227 269 339
#     4  10  21  36  56  79 115 148 193 232 274 326
#     4  10  21  37  55  84 117 145 181 227 286 343
#     4  10  22  37  58  78 111 152 189 226 280 331
#
# _framework density 21.076817999999999
#
# number of rings (size 3 to 8) (size 9 to 14) (size 15 to 20)
#    0.000    2.000    2.500    0.750    5.250    6.000 
#    0.000    0.000    0.000    1.500    0.000    0.000 
#    0.000    0.000    0.000    0.000    0.000    0.000 
#
# Total GULP energy -89076.828323 kJ/mol
# GULP energy per Si atom -5567.301770 kJ/mol
# Density = 2.102885 g / cm^3
# Si number density = 21.076818 Si / 1000 Ang^3
#
#
#
# Elastic Constant Matrix: (Units=GPa)
#
#
# Indices 1 2 3 4 5 6 
#
# 1 164.2459 65.5043 18.9059 -4.5646 11.3856 -15.4808
# 2 65.5043 69.3673 18.8952 10.1439 2.0044 -4.2307
# 3 18.9059 18.8952 20.3467 6.5805 3.8045 -10.8964
# 4 -4.5646 10.1439 6.5805 16.5358 -5.5688 -2.0773
# 5 11.3856 2.0044 3.8045 -5.5688 27.4995 3.9960
# 6 -15.4808 -4.2307 -10.8964 -2.0773 3.9960 43.3554
#
#
#
# Elastic Compliance Matrix: (Units=1/GPa)
#
#
# Indices 1 2 3 4 5 6 
#
# 1 0.011879 -0.012306 -0.000784 0.010836 -0.002237 0.003569
# 2 -0.012306 0.032801 -0.017906 -0.016274 0.002865 -0.006738
# 3 -0.000784 -0.017906 0.091287 -0.029649 -0.020105 0.021348
# 4 0.010836 -0.016274 -0.029649 0.091563 0.019722 -0.002601
# 5 -0.002237 0.002865 -0.020105 0.019722 0.045134 -0.008787
# 6 0.003569 -0.006738 0.021348 -0.002601 -0.008787 0.029733
#
#
# Mechanical properties :
#
#
# Convention : Reuss Voigt Hill
#
# Bulk Modulus (GPa) = 13.51857 51.17451 32.34654
# Shear Modulus (GPa) = 12.85186 27.52178 20.18682
#
# Velocity S-wave (km/s) = 2.47202 3.61748 3.09815
# Velocity P-wave (km/s) = 3.81781 6.46382 5.30833
#
# Compressibility (1/GPa) = 0.07397234
#
# Stress axis : x y z
#
# Youngs Moduli (GPa) = 84.17963 30.48703 10.95449
#
# Poissons Ratio (x) = 0.37518 0.00859
# Poissons Ratio (y) = 1.03594 0.19616
# Poissons Ratio (z) = 0.06604 0.54591
#
# Static dielectric constant tensor:
#      x y z
#    x 1.795210 0.001770 -0.025300 
#    y 0.001770 1.879960 0.016690 
#    z -0.025300 0.016690 1.782120 
# 
# From -- ./inp_files/75160.got.cif
#   From: 2010.05.17/outbox.cif.g08.bks.cpg/sg2_38_cif.got.tgz:75160.got - 2010.06.03 11:33:40.
