data_PCOD9072999
_publ_section_title
;
Structure prediction by ZEFSAII (Michael W. Deem and Ramdas Pophale) SiO2 
 PCOD9072999
Probable space group: P -1
;
_chemical_formula_sum "Si O2"
_cell_formula_units_Z 16
_cell_length_a 9.000000
_cell_length_b 15.000000
_cell_length_c 18.000000
_cell_angle_alpha 30.000000
_cell_angle_beta 140.000000
_cell_angle_gamma 140.000000
_cell_volume 740.097418
_symmetry_space_group_name_H-M "P -1"
_symmetry_group_IT_number 2
_symmetry_cell_setting 'triclinic'
loop_
_space_group_symop_operation_xyz
x,y,z
-x,-y,-z
loop_
_atom_site_type_symbol
_atom_site_label
_atom_site_fract_x
_atom_site_fract_y
_atom_site_fract_z
Si Si1 0.514336 0.915465 0.234420
Si Si2 0.140092 0.897233 0.517166
Si Si3 0.055556 0.621113 0.263559
Si Si4 0.713082 0.410201 0.152274
Si Si5 0.187337 0.268177 0.618654
Si Si6 0.682321 0.773562 0.541100
Si Si7 0.757581 0.334575 0.050089
Si Si8 0.673110 0.610734 0.252941
O O1 0.602093 0.797113 0.291257
O O2 0.525962 0.859286 0.365306
O O3 0.223407 0.839593 0.163648
O O4 0.722475 0.119699 0.168372
O O5 0.337686 0.790297 0.681515
O O6 0.049651 0.866055 0.420144
O O7 0.909757 0.784549 0.564902
O O8 0.226258 0.100387 0.441670
O O9 0.917978 0.548026 0.185682
O O10 0.876493 0.591270 0.287705
O O11 0.204073 0.476943 0.445646
O O12 0.757751 0.365273 0.116323
O O13 0.500000 0.500000 0.000000
O O14 0.204999 0.265194 0.717180
O O15 0.508400 0.574248 0.643993
O O16 0.514731 0.340810 0.910325
O O17 0.000000 0.500000 0.000000
#
# Coordination Sequence:
#
# PCOD9072999 Si02
#       8
#     2   2   2   2   2   2   2   2
#     4  11  24  45  71  98 133 185 222 270 343 407
#     4   9  20  38  68  94 127 178 226 272 321 401
#     4  11  24  45  70  99 140 177 224 276 337 405
#     4  11  22  46  66  95 134 185 220 265 343 407
#     4  10  23  40  69 104 129 172 228 278 331 389
#     4  10  20  39  70  99 130 175 228 272 333 390
#     4  12  28  47  69  99 137 178 228 282 332 398
#     4  12  25  42  67 104 141 172 219 286 335 389
#
# _framework density 21.618776
#
# number of rings (size 3 to 8) (size 9 to 14) (size 15 to 20)
#    0.000    1.250    3.750    1.500    8.750    1.000 
#    0.000    5.000    0.000    0.000    0.000    0.000 
#    0.000    0.000    0.000    0.000    0.000    0.000 
#
# Total GULP energy -89095.921732 kJ/mol
# GULP energy per Si atom -5568.495108 kJ/mol
# Density = 2.156957 g / cm^3
# Si number density = 21.618776 Si / 1000 Ang^3
#
#
#
# Elastic Constant Matrix: (Units=GPa)
#
#
# Indices 1 2 3 4 5 6 
#
# 1 79.2836 51.0735 14.4549 7.4634 -0.1773 -33.2605
# 2 51.0735 142.9893 29.2011 20.3244 -6.5779 -45.3498
# 3 14.4549 29.2011 39.3191 26.0608 -2.3280 -11.2775
# 4 7.4634 20.3244 26.0608 27.7706 -8.7253 -8.2264
# 5 -0.1773 -6.5779 -2.3280 -8.7253 21.8819 10.1117
# 6 -33.2605 -45.3498 -11.2775 -8.2264 10.1117 34.1508
#
#
#
# Elastic Compliance Matrix: (Units=1/GPa)
#
#
# Indices 1 2 3 4 5 6 
#
# 1 0.024053 -0.000659 -0.000453 -0.001935 -0.012696 0.025695
# 2 -0.000659 0.013509 -0.002469 -0.004118 -0.005801 0.017208
# 3 -0.000453 -0.002469 0.084687 -0.083370 -0.031168 0.013392
# 4 -0.001935 -0.004118 -0.083370 0.127774 0.049495 -0.018760
# 5 -0.012696 -0.005801 -0.031168 0.049495 0.079698 -0.042036
# 6 0.025695 0.017208 0.013392 -0.018760 -0.042036 0.089507
#
#
# Mechanical properties :
#
#
# Convention : Reuss Voigt Hill
#
# Bulk Modulus (GPa) = 8.68909 50.11677 29.40293
# Shear Modulus (GPa) = 10.75843 27.88484 19.32163
#
# Velocity S-wave (km/s) = 2.23321 3.59534 2.99280
# Velocity P-wave (km/s) = 3.26766 6.36142 5.05694
#
# Compressibility (1/GPa) = 0.11508687
#
# Stress axis : x y z
#
# Youngs Moduli (GPa) = 41.57513 74.02458 11.80823
#
# Poissons Ratio (x) = 0.04875 0.00535
# Poissons Ratio (y) = 0.02738 0.02916
# Poissons Ratio (z) = 0.01883 0.18279
#
# Static dielectric constant tensor:
#      x y z
#    x 1.766970 0.023050 0.074240 
#    y 0.023050 1.795170 -0.026460 
#    z 0.074240 -0.026460 2.026440 
# 
# From -- ./inp_files/244971.got.cif
#   From: 2010.05.17/outbox.ucp.g08.bks.cvg/sg2_123_cif.got.tgz:244971.got - 2010.06.11 11:32:03.
