data_PCOD9072755
_publ_section_title
;
Structure prediction by ZEFSAII (Michael W. Deem and Ramdas Pophale) SiO2 
 PCOD9072755
Probable space group: P -1
;
_chemical_formula_sum "Si O2"
_cell_formula_units_Z 16
_cell_length_a 14.009531
_cell_length_b 10.262996
_cell_length_c 11.174943
_cell_angle_alpha 42.853497
_cell_angle_beta 55.123833
_cell_angle_gamma 81.309559
_cell_volume 786.241271
_symmetry_space_group_name_H-M "P -1"
_symmetry_group_IT_number 2
_symmetry_cell_setting 'triclinic'
loop_
_space_group_symop_operation_xyz
x,y,z
-x,-y,-z
loop_
_atom_site_type_symbol
_atom_site_label
_atom_site_fract_x
_atom_site_fract_y
_atom_site_fract_z
Si Si1 0.381754 0.660622 0.551522
Si Si2 0.302430 0.679406 0.336542
Si Si3 0.346410 0.951650 0.898406
Si Si4 0.920255 0.746360 0.202786
Si Si5 0.135907 0.638203 0.087462
Si Si6 0.205397 0.187110 0.974708
Si Si7 0.913730 0.176531 0.508486
Si Si8 0.863963 0.272926 0.235917
O O1 0.388241 0.689380 0.382986
O O2 0.333060 0.405992 0.781228
O O3 0.263113 0.699875 0.657145
O O4 0.520141 0.842535 0.381176
O O5 0.219151 0.427075 0.523113
O O6 0.191178 0.742725 0.423717
O O7 0.374518 0.838480 0.068781
O O8 0.254044 0.051918 0.946273
O O9 0.267987 0.761973 0.985946
O O10 0.877814 0.732438 0.102828
O O11 0.022031 0.662255 0.223181
O O12 0.000000 0.000000 0.000000
O O13 0.062267 0.379843 0.283380
O O14 0.151606 0.771998 0.863492
O O15 0.119311 0.031653 0.247308
O O16 0.879478 0.126312 0.426676
O O17 0.000000 0.500000 0.000000
#
# Coordination Sequence:
#
# PCOD9072755 Si02
#       8
#     2   2   2   2   2   2   2   2
#     4  10  20  35  52  75 103 139 172 203 251 303
#     4   8  18  31  50  74 100 135 171 203 248 300
#     4  11  20  31  52  78 108 135 165 208 253 312
#     4  10  18  31  50  77 108 128 160 211 261 295
#     4  10  20  33  52  78 102 135 169 207 260 298
#     4  10  19  32  53  78 104 131 169 213 255 294
#     4   8  17  32  55  75  97 133 170 215 246 295
#     4   9  18  38  56  70  98 136 179 210 245 298
#
# _framework density 20.349988
#
# number of rings (size 3 to 8) (size 9 to 14) (size 15 to 20)
#    0.000    2.500    1.250    3.000    1.750    2.000 
#    0.000    5.625    0.000    0.750    0.000    0.000 
#    0.000    0.000    0.000    0.000    0.000    0.000 
#
# Total GULP energy -89114.922832 kJ/mol
# GULP energy per Si atom -5569.682677 kJ/mol
# Density = 2.030367 g / cm^3
# Si number density = 20.349988 Si / 1000 Ang^3
#
#
#
# Elastic Constant Matrix: (Units=GPa)
#
#
# Indices 1 2 3 4 5 6 
#
# 1 43.6232 6.7493 35.0079 -0.4959 -5.9301 9.3487
# 2 6.7493 25.0082 21.7861 -4.4500 -6.2876 7.2730
# 3 35.0079 21.7861 124.4368 -18.2704 -0.1044 22.1647
# 4 -0.4959 -4.4500 -18.2704 25.4345 -1.8763 -5.5516
# 5 -5.9301 -6.2876 -0.1044 -1.8763 20.3142 -7.3163
# 6 9.3487 7.2730 22.1647 -5.5516 -7.3163 24.4760
#
#
#
# Elastic Compliance Matrix: (Units=1/GPa)
#
#
# Indices 1 2 3 4 5 6 
#
# 1 0.032117 0.001595 -0.009685 -0.006077 0.008216 -0.002893
# 2 0.001595 0.052534 -0.008598 0.003607 0.015994 -0.002834
# 3 -0.009685 -0.008598 0.014602 0.006542 -0.007603 -0.007758
# 4 -0.006077 0.003607 0.006542 0.046729 0.006529 0.007876
# 5 0.008216 0.015994 -0.007603 0.006529 0.064225 0.019673
# 6 -0.002893 -0.002834 -0.007758 0.007876 0.019673 0.057496
#
#
# Mechanical properties :
#
#
# Convention : Reuss Voigt Hill
#
# Bulk Modulus (GPa) = 15.17981 35.57276 25.37628
# Shear Modulus (GPa) = 15.47801 22.67993 19.07897
#
# Velocity S-wave (km/s) = 2.76087 3.34203 3.06525
# Velocity P-wave (km/s) = 4.19986 5.69303 5.00247
#
# Compressibility (1/GPa) = 0.06587700
#
# Stress axis : x y z
#
# Youngs Moduli (GPa) = 31.13645 19.03515 68.48299
#
# Poissons Ratio (x) = -0.03036 0.66323
# Poissons Ratio (y) = -0.04966 0.58884
# Poissons Ratio (z) = 0.30155 0.16367
#
# Static dielectric constant tensor:
#      x y z
#    x 1.754330 -0.005710 0.003500 
#    y -0.005710 1.779200 0.001890 
#    z 0.003500 0.001890 1.752070 
# 
# From -- ./inp_files/254700.got.cif
#   From: 2010.05.17/outbox.cif.g08.bks.cpg/sg2_128_cif.got.tgz:254700.got - 2010.06.03 11:33:40.
