data_PCOD9072218
_publ_section_title
;
Structure prediction by ZEFSAII (Michael W. Deem and Ramdas Pophale) SiO2 
 PCOD9072218
Probable space group: P -1
;
_chemical_formula_sum "Si O2"
_cell_formula_units_Z 16
_cell_length_a 15.000000
_cell_length_b 27.000000
_cell_length_c 21.000000
_cell_angle_alpha 20.000000
_cell_angle_beta 160.000000
_cell_angle_gamma 160.000000
_cell_volume 870.351457
_symmetry_space_group_name_H-M "P -1"
_symmetry_group_IT_number 2
_symmetry_cell_setting 'triclinic'
loop_
_space_group_symop_operation_xyz
x,y,z
-x,-y,-z
loop_
_atom_site_type_symbol
_atom_site_label
_atom_site_fract_x
_atom_site_fract_y
_atom_site_fract_z
Si Si1 0.324269 0.894196 0.367109
Si Si2 0.504832 0.383741 0.974787
Si Si3 0.197863 0.085117 0.232674
Si Si4 0.189147 0.576419 0.245836
Si Si5 0.334045 0.584025 0.701753
Si Si6 0.324338 0.278172 0.712489
Si Si7 0.961698 0.690151 0.066428
Si Si8 0.635810 0.787792 0.045855
O O1 0.539838 0.909167 0.552765
O O2 0.308023 0.749185 0.485825
O O3 0.990175 0.849891 0.215808
O O4 0.433828 0.065618 0.196689
O O5 0.352932 0.218608 0.117903
O O6 0.855314 0.488799 0.098651
O O7 0.347691 0.493088 0.756831
O O8 0.464785 0.332738 0.936316
O O9 0.008731 0.152133 0.065909
O O10 0.968398 0.899640 0.281088
O O11 0.236457 0.423158 0.484190
O O12 0.445580 0.677596 0.244673
O O13 0.188522 0.690314 0.166187
O O14 0.090236 0.449678 0.747586
O O15 0.648985 0.630207 0.891639
O O16 0.485171 0.278590 0.885601
#
# Coordination Sequence:
#
# PCOD9072218 Si02
#       8
#     2   2   2   2   2   2   2   2
#     4  10  19  32  53  79 109 136 168 217 264 305
#     4  10  20  35  57  80 104 138 174 214 261 304
#     4  10  19  35  59  81 102 134 176 217 259 307
#     4  10  21  38  57  75 102 140 177 215 258 307
#     4   8  15  30  53  80 104 129 169 216 260 305
#     4  11  23  36  52  78 108 139 176 213 255 310
#     4   8  15  30  55  80  99 128 174 221 256 296
#     4  11  22  32  48  79 112 139 170 211 259 309
#
# _framework density 18.383378
#
# number of rings (size 3 to 8) (size 9 to 14) (size 15 to 20)
#    0.000    2.250    0.000    6.000    0.000    3.000 
#    0.000    1.250    0.000    6.750    0.000    0.000 
#    0.000    0.000    0.000    0.000    0.000    0.000 
#
# Total GULP energy -89256.165543 kJ/mol
# GULP energy per Si atom -5578.510346 kJ/mol
# Density = 1.834154 g / cm^3
# Si number density = 18.383378 Si / 1000 Ang^3
#
#
#
# Elastic Constant Matrix: (Units=GPa)
#
#
# Indices 1 2 3 4 5 6 
#
# 1 54.1506 6.0935 33.6937 -5.0989 5.0592 -21.7825
# 2 6.0935 52.0307 15.3098 -6.1762 -3.6373 -11.7333
# 3 33.6937 15.3098 56.5737 -10.9787 18.1902 -18.8595
# 4 -5.0989 -6.1762 -10.9787 21.8579 -4.2036 9.9574
# 5 5.0592 -3.6373 18.1902 -4.2036 22.0929 4.6517
# 6 -21.7825 -11.7333 -18.8595 9.9574 4.6517 23.1464
#
#
#
# Elastic Compliance Matrix: (Units=1/GPa)
#
#
# Indices 1 2 3 4 5 6 
#
# 1 0.041014 0.005400 -0.012892 -0.014880 -0.008937 0.039028
# 2 0.005400 0.024116 -0.011588 0.002523 0.011828 0.004402
# 3 -0.012892 -0.011588 0.065183 -0.010159 -0.065647 0.052667
# 4 -0.014880 0.002523 -0.010159 0.072671 0.038654 -0.060033
# 5 -0.008937 0.011828 -0.065647 0.038654 0.131498 -0.098958
# 6 0.039028 0.004402 0.052667 -0.060033 -0.098958 0.170789
#
#
# Mechanical properties :
#
#
# Convention : Reuss Voigt Hill
#
# Bulk Modulus (GPa) = 10.85151 30.32768 20.58959
# Shear Modulus (GPa) = 8.70854 20.59664 14.65259
#
# Velocity S-wave (km/s) = 2.17887 3.35086 2.82628
# Velocity P-wave (km/s) = 3.49938 5.61286 4.67706
#
# Compressibility (1/GPa) = 0.09215308
#
# Stress axis : x y z
#
# Youngs Moduli (GPa) = 24.38181 41.46657 15.34136
#
# Poissons Ratio (x) = -0.22392 0.19778
# Poissons Ratio (y) = -0.13166 0.17778
# Poissons Ratio (z) = 0.31433 0.48052
#
# Static dielectric constant tensor:
#      x y z
#    x 1.665100 -0.021940 0.002660 
#    y -0.021940 1.638840 -0.013480 
#    z 0.002660 -0.013480 1.631370 
# 
# From -- ./inp_files/314095.got.cif
#   From: 2010.05.17/outbox.ucp.g08.bks.cvg/sg2_158_cif.got.tgz:314095.got - 2010.06.11 11:32:03.
