data_PCOD9072090
_publ_section_title
;
Structure prediction by ZEFSAII (Michael W. Deem and Ramdas Pophale) SiO2 
 PCOD9072090
Probable space group: P -1
;
_chemical_formula_sum "Si O2"
_cell_formula_units_Z 14
_cell_length_a 16.038299
_cell_length_b 29.119356
_cell_length_c 16.935900
_cell_angle_alpha 159.546697
_cell_angle_beta 17.766298
_cell_angle_gamma 160.612599
_cell_volume 740.546341
_symmetry_space_group_name_H-M "P -1"
_symmetry_group_IT_number 2
_symmetry_cell_setting 'triclinic'
loop_
_space_group_symop_operation_xyz
x,y,z
-x,-y,-z
loop_
_atom_site_type_symbol
_atom_site_label
_atom_site_fract_x
_atom_site_fract_y
_atom_site_fract_z
Si Si1 0.892427 0.232808 0.308305
Si Si2 0.575089 0.304070 0.101431
Si Si3 0.316958 0.579046 0.533723
Si Si4 0.255421 0.392490 0.657487
Si Si5 0.681040 0.990610 0.244798
Si Si6 0.659676 0.720146 0.154300
Si Si7 0.237242 0.371194 0.922922
O O1 0.768939 0.124454 0.319577
O O2 0.592303 0.223393 0.520103
O O3 0.108593 0.402151 0.417008
O O4 0.100121 0.201730 0.007783
O O5 0.310151 0.289639 0.378091
O O6 0.631811 0.445282 0.223162
O O7 0.894530 0.338573 0.913639
O O8 0.496761 0.163903 0.891160
O O9 0.527783 0.594646 0.443972
O O10 0.550258 0.656634 0.375502
O O11 0.070931 0.640938 0.858874
O O12 0.500000 0.000000 0.500000
O O13 0.000000 0.000000 0.000000
O O14 0.820981 0.721813 0.094076
O O15 0.451495 0.545296 0.035763
#
# Coordination Sequence:
#
# PCOD9072090 Si02
#       7
#     2   2   2   2   2   2   2
#     4  10  20  32  51  76 106 140 170 208 264 316
#     4  10  22  37  54  76 104 141 177 214 263 305
#     4  10  18  30  51  80 105 133 171 215 264 307
#     4  10  20  36  55  76 105 138 177 220 257 308
#     4  12  24  38  56  80 109 140 177 218 259 314
#     4   9  17  31  47  73 108 138 168 206 262 322
#     4   9  17  28  48  76 107 134 166 214 263 311
#
# _framework density 18.904962000000001
#
# number of rings (size 3 to 8) (size 9 to 14) (size 15 to 20)
#    0.000    2.000    0.000    4.286    0.000    8.000 
#    0.000    0.000    0.000    0.000    0.000   20.000 
#    0.000    0.000    0.000    0.000    0.000    0.000 
#
# Total GULP energy -78095.350893 kJ/mol
# GULP energy per Si atom -5578.239350 kJ/mol
# Density = 1.886193 g / cm^3
# Si number density = 18.904962 Si / 1000 Ang^3
#
#
#
# Elastic Constant Matrix: (Units=GPa)
#
#
# Indices 1 2 3 4 5 6 
#
# 1 115.5166 30.3239 27.5079 -9.9750 -16.5069 -0.6903
# 2 30.3239 40.7017 28.5730 -13.1705 3.9029 -7.9371
# 3 27.5079 28.5730 75.0126 -24.7855 2.0873 -3.6641
# 4 -9.9750 -13.1705 -24.7855 25.4257 4.5045 2.0366
# 5 -16.5069 3.9029 2.0873 4.5045 33.6257 -10.6502
# 6 -0.6903 -7.9371 -3.6641 2.0366 -10.6502 25.3158
#
#
#
# Elastic Compliance Matrix: (Units=1/GPa)
#
#
# Indices 1 2 3 4 5 6 
#
# 1 0.012593 -0.009563 -0.002466 -0.003933 0.008212 0.000760
# 2 -0.009563 0.043870 -0.008922 0.011107 -0.008236 0.007844
# 3 -0.002466 -0.008922 0.023843 0.018815 -0.005156 -0.003096
# 4 -0.003933 0.011107 0.018815 0.064928 -0.014777 -0.005342
# 5 0.008212 -0.008236 -0.005156 -0.014777 0.042018 0.015761
# 6 0.000760 0.007844 -0.003096 -0.005342 0.015761 0.048593
#
#
# Mechanical properties :
#
#
# Convention : Reuss Voigt Hill
#
# Bulk Modulus (GPa) = 26.03864 44.89339 35.46601
# Shear Modulus (GPa) = 17.20894 26.52852 21.86873
#
# Velocity S-wave (km/s) = 3.02037 3.75007 3.40482
# Velocity P-wave (km/s) = 5.09577 6.52297 5.85303
#
# Compressibility (1/GPa) = 0.03840446
#
# Stress axis : x y z
#
# Youngs Moduli (GPa) = 79.41099 22.79484 41.94114
#
# Poissons Ratio (x) = 0.21798 0.10344
# Poissons Ratio (y) = 0.75937 0.37418
# Poissons Ratio (z) = 0.19586 0.20336
#
# Static dielectric constant tensor:
#      x y z
#    x 1.640100 -0.005100 -0.000520 
#    y -0.005100 1.661780 0.002970 
#    z -0.000520 0.002970 1.650840 
# 
# From -- ./inp_files/36143.got.cif
#   From: 2010.05.17/outbox.cif.g08.bks.cpg/sg2_19_cif.got.tgz:36143.got - 2010.06.03 11:33:40.
