data_PCOD9072593
_publ_section_title
;
Structure prediction by ZEFSAII (Michael W. Deem and Ramdas Pophale) SiO2 
 PCOD9072593
Probable space group: P -1
;
_chemical_formula_sum "Si O2"
_cell_formula_units_Z 16
_cell_length_a 20.257571
_cell_length_b 9.201664
_cell_length_c 8.756419
_cell_angle_alpha 142.580655
_cell_angle_beta 47.723269
_cell_angle_gamma 143.474255
_cell_volume 587.619730
_symmetry_space_group_name_H-M "P -1"
_symmetry_group_IT_number 2
_symmetry_cell_setting 'triclinic'
loop_
_space_group_symop_operation_xyz
x,y,z
-x,-y,-z
loop_
_atom_site_type_symbol
_atom_site_label
_atom_site_fract_x
_atom_site_fract_y
_atom_site_fract_z
Si Si1 0.656733 0.756303 0.392650
Si Si2 0.905570 0.156166 0.333045
Si Si3 0.729015 0.793764 0.852499
Si Si4 0.980499 0.264109 0.742628
Si Si5 0.444191 0.287373 0.175423
Si Si6 0.707391 0.354214 0.154194
Si Si7 0.778217 0.365495 0.393246
Si Si8 0.938274 0.734529 0.071270
O O1 0.568781 0.573147 0.242487
O O2 0.601365 0.814134 0.664513
O O3 0.673328 0.528978 0.259906
O O4 0.780925 0.043236 0.406595
O O5 0.000000 0.500000 0.500000
O O6 0.908983 0.970537 0.313484
O O7 0.952337 0.093544 0.060325
O O8 0.627578 0.654780 0.773569
O O9 0.734836 0.531359 0.691044
O O10 0.844892 0.036717 0.785094
O O11 0.723630 0.016005 0.159646
O O12 0.092650 0.475911 0.637744
O O13 0.027349 0.396703 0.958419
O O14 0.000000 0.000000 0.500000
O O15 0.406559 0.970850 0.908395
O O16 0.763445 0.452673 0.316309
O O17 0.817773 0.434916 0.956616
#
# Coordination Sequence:
#
# PCOD9072593 Si02
#       8
#     2   2   2   2   2   2   2   2
#     4  10  19  31  48  74 100 140 182 226 269 330
#     4  10  20  35  55  74 105 144 186 223 271 319
#     4  10  18  31  47  71 110 138 171 213 273 333
#     4   9  18  32  51  80 108 139 174 225 285 331
#     4  10  19  29  48  74 108 137 176 221 283 328
#     4   9  16  30  48  71 104 134 169 221 281 327
#     4   9  17  29  46  72 107 139 168 210 271 332
#     4   9  19  35  52  78 106 138 180 225 271 334
#
# _framework density 27.228491999999999
#
# number of rings (size 3 to 8) (size 9 to 14) (size 15 to 20)
#    0.000    2.500    1.250    2.250    0.000    0.000 
#    4.500    0.000    0.000    0.750    0.000    0.875 
#    0.000    0.000    0.000    0.000    0.000    0.000 
#
# Total GULP energy -89126.258304 kJ/mol
# GULP energy per Si atom -5570.391144 kJ/mol
# Density = 2.716652 g / cm^3
# Si number density = 27.228492 Si / 1000 Ang^3
#
#
#
# Elastic Constant Matrix: (Units=GPa)
#
#
# Indices 1 2 3 4 5 6 
#
# 1 144.3007 48.8203 28.2968 18.6026 -0.5211 26.1233
# 2 48.8203 158.0354 30.9141 21.2329 10.6102 24.3530
# 3 28.2968 30.9141 91.4125 36.4071 -20.7035 11.7685
# 4 18.6026 21.2329 36.4071 25.6404 3.2067 13.0442
# 5 -0.5211 10.6102 -20.7035 3.2067 30.9630 10.3402
# 6 26.1233 24.3530 11.7685 13.0442 10.3402 50.4529
#
#
#
# Elastic Compliance Matrix: (Units=1/GPa)
#
#
# Indices 1 2 3 4 5 6 
#
# 1 0.008583 -0.001920 0.001035 -0.004904 0.003043 -0.003115
# 2 -0.001920 0.007974 -0.003122 0.000457 -0.004455 -0.001332
# 3 0.001035 -0.003122 0.054310 -0.080928 0.045839 -0.000169
# 4 -0.004904 0.000457 -0.080928 0.170121 -0.069089 -0.008628
# 5 0.003043 -0.004455 0.045839 -0.069089 0.074170 -0.007456
# 6 -0.003115 -0.001332 -0.000169 -0.008628 -0.007456 0.025875
#
#
# Mechanical properties :
#
#
# Convention : Reuss Voigt Hill
#
# Bulk Modulus (GPa) = 15.90965 67.75677 41.83321
# Shear Modulus (GPa) = 13.51359 40.45909 26.98634
#
# Velocity S-wave (km/s) = 2.23020 3.85893 3.15160
# Velocity P-wave (km/s) = 3.53376 6.69281 5.35169
#
# Compressibility (1/GPa) = 0.06285493
#
# Stress axis : x y z
#
# Youngs Moduli (GPa) = 116.50313 125.40158 18.41285
#
# Poissons Ratio (x) = 0.24071 -0.01906
# Poissons Ratio (y) = 0.22363 0.05749
# Poissons Ratio (z) = -0.12061 0.39152
#
# Static dielectric constant tensor:
#      x y z
#    x 2.191480 -0.104240 0.133820 
#    y -0.104240 2.129660 -0.092250 
#    z 0.133820 -0.092250 2.789360 
# 
# From -- ./inp_files/66254.got.cif
#   From: 2010.05.17/outbox.cif.g08.bks.cpg/sg2_34_cif.got.tgz:66254.got - 2010.06.03 11:33:40.
