data_PCOD9072621
_publ_section_title
;
Structure prediction by ZEFSAII (Michael W. Deem and Ramdas Pophale) SiO2 
 PCOD9072621
Probable space group: P -1
;
_chemical_formula_sum "Si O2"
_cell_formula_units_Z 16
_cell_length_a 9.000000
_cell_length_b 21.000000
_cell_length_c 15.000000
_cell_angle_alpha 20.000000
_cell_angle_beta 100.000000
_cell_angle_gamma 90.000000
_cell_volume 835.359047
_symmetry_space_group_name_H-M "P -1"
_symmetry_group_IT_number 2
_symmetry_cell_setting 'triclinic'
loop_
_space_group_symop_operation_xyz
x,y,z
-x,-y,-z
loop_
_atom_site_type_symbol
_atom_site_label
_atom_site_fract_x
_atom_site_fract_y
_atom_site_fract_z
Si Si1 0.529677 0.539511 0.846673
Si Si2 0.587139 0.995653 0.792816
Si Si3 0.929122 0.774610 0.220115
Si Si4 0.128826 0.636005 0.238773
Si Si5 0.259372 0.572199 0.627391
Si Si6 0.565660 0.306842 0.876498
Si Si7 0.210048 0.877371 0.680690
Si Si8 0.204822 0.167675 0.154150
O O1 0.543619 0.754229 0.554186
O O2 0.362347 0.582598 0.711498
O O3 0.500000 0.500000 0.000000
O O4 0.696813 0.342432 0.078105
O O5 0.500778 0.840038 0.989377
O O6 0.686831 0.940919 0.780496
O O7 0.733568 0.954905 0.937365
O O8 0.886174 0.579598 0.483347
O O9 0.043763 0.734223 0.195960
O O10 0.066083 0.757145 0.334361
O O11 0.314534 0.620110 0.263008
O O12 0.990549 0.776098 0.964554
O O13 0.397537 0.497646 0.657159
O O14 0.224405 0.374550 0.897873
O O15 0.693706 0.173977 0.146464
O O16 0.262613 0.026701 0.432858
O O17 0.000000 0.000000 0.500000
#
# Coordination Sequence:
#
# PCOD9072621 Si02
#       8
#     2   2   2   2   2   2   2   2
#     4  11  23  38  59  85 123 156 196 243 293 350
#     4  10  21  36  57  86 118 155 194 238 296 345
#     4   9  19  35  58  84 117 152 194 242 288 353
#     4   9  16  32  57  88 115 145 197 246 284 335
#     4   9  21  35  57  89 111 154 201 241 282 350
#     4  10  20  31  58  91 117 151 199 242 291 344
#     4  11  21  36  60  85 119 159 195 247 289 348
#     4   9  17  34  58  84 113 151 199 236 288 344
#
# _framework density 19.153441000000001
#
# number of rings (size 3 to 8) (size 9 to 14) (size 15 to 20)
#    0.000    2.250    2.500    2.250    1.750    4.000 
#    0.000    0.625    5.500    6.750    0.000    0.000 
#    0.000    0.000    0.000    0.000    0.000    0.000 
#
# Total GULP energy -89103.722881 kJ/mol
# GULP energy per Si atom -5568.982680 kJ/mol
# Density = 1.910985 g / cm^3
# Si number density = 19.153441 Si / 1000 Ang^3
#
#
#
# Elastic Constant Matrix: (Units=GPa)
#
#
# Indices 1 2 3 4 5 6 
#
# 1 134.2830 23.2050 26.8596 2.5615 1.6729 10.0667
# 2 23.2050 68.2182 23.6376 10.4210 5.8547 16.0802
# 3 26.8596 23.6376 93.8114 1.0338 6.0063 -5.1360
# 4 2.5615 10.4210 1.0338 29.5239 -0.0733 1.7713
# 5 1.6729 5.8547 6.0063 -0.0733 31.6197 10.4220
# 6 10.0667 16.0802 -5.1360 1.7713 10.4220 23.3153
#
#
#
# Elastic Compliance Matrix: (Units=1/GPa)
#
#
# Indices 1 2 3 4 5 6 
#
# 1 0.008425 -0.001210 -0.002430 0.000028 0.001573 -0.004043
# 2 -0.001210 0.021880 -0.006176 -0.006397 0.002652 -0.016627
# 3 -0.002430 -0.006176 0.013770 0.001274 -0.004759 0.010373
# 4 0.000028 -0.006397 0.001274 0.035978 0.000449 0.001747
# 5 0.001573 0.002652 -0.004759 0.000449 0.038867 -0.020964
# 6 -0.004043 -0.016627 0.010373 0.001747 -0.020964 0.067627
#
#
# Mechanical properties :
#
#
# Convention : Reuss Voigt Hill
#
# Bulk Modulus (GPa) = 40.91156 49.30191 45.10673
# Shear Modulus (GPa) = 23.32901 31.73247 27.53074
#
# Velocity S-wave (km/s) = 3.49378 4.07474 3.79539
# Velocity P-wave (km/s) = 6.13853 6.92346 6.54278
#
# Compressibility (1/GPa) = 0.02444297
#
# Stress axis : x y z
#
# Youngs Moduli (GPa) = 118.69359 45.70486 72.62126
#
# Poissons Ratio (x) = 0.05531 0.17645
# Poissons Ratio (y) = 0.14363 0.44851
# Poissons Ratio (z) = 0.28839 0.28228
#
# Static dielectric constant tensor:
#      x y z
#    x 1.652420 0.008640 0.018790 
#    y 0.008640 1.674040 0.015620 
#    z 0.018790 0.015620 1.753280 
# 
# From -- ./inp_files/209000.got.cif
#   From: 2010.05.17/outbox.ucp.g08.bks.cvg/sg2_105_cif.got.tgz:209000.got - 2010.06.11 11:32:03.
