data_PCOD9072545
_publ_section_title
;
Structure prediction by ZEFSAII (Michael W. Deem and Ramdas Pophale) SiO2 
 PCOD9072545
Probable space group: P -1
;
_chemical_formula_sum "Si O2"
_cell_formula_units_Z 16
_cell_length_a 8.019775
_cell_length_b 9.220084
_cell_length_c 13.124813
_cell_angle_alpha 111.382685
_cell_angle_beta 99.394177
_cell_angle_gamma 45.601887
_cell_volume 639.495436
_symmetry_space_group_name_H-M "P -1"
_symmetry_group_IT_number 2
_symmetry_cell_setting 'triclinic'
loop_
_space_group_symop_operation_xyz
x,y,z
-x,-y,-z
loop_
_atom_site_type_symbol
_atom_site_label
_atom_site_fract_x
_atom_site_fract_y
_atom_site_fract_z
Si Si1 0.493865 0.868093 0.816610
Si Si2 0.646587 0.468787 0.602457
Si Si3 0.187172 0.119144 0.257611
Si Si4 0.877201 0.727676 0.493461
Si Si5 0.558684 0.421175 0.801332
Si Si6 0.108660 0.939625 0.883803
Si Si7 0.219666 0.374484 0.732102
Si Si8 0.887084 0.473805 0.892355
O O1 0.545246 0.701157 0.692480
O O2 0.585578 0.968106 0.803343
O O3 0.231436 0.016734 0.872446
O O4 0.672220 0.714995 0.886819
O O5 0.500000 0.500000 0.500000
O O6 0.912089 0.316964 0.552404
O O7 0.636131 0.369627 0.677003
O O8 0.217791 0.119611 0.380629
O O9 0.080339 0.019617 0.198113
O O10 0.980003 0.372107 0.261951
O O11 0.000000 0.500000 0.500000
O O12 0.714845 0.765009 0.397661
O O13 0.335442 0.681573 0.845987
O O14 0.431600 0.339848 0.791213
O O15 0.243937 0.608067 0.123998
O O16 0.000000 0.000000 0.000000
O O17 0.079568 0.353280 0.790081
O O18 0.000000 0.500000 0.000000
#
# Coordination Sequence:
#
# PCOD9072545 Si02
#       8
#     2   2   2   2   2   2   2   2
#     4   9  17  28  37  59  80 105 139 157 192 238
#     4  10  14  21  36  56  80 106 129 150 185 236
#     4   9  16  25  38  57  81 108 135 155 191 239
#     4  10  13  22  37  56  80 109 129 151 188 241
#     4   9  18  27  38  59  79 106 139 158 193 238
#     4   9  17  28  39  53  78 108 139 171 193 220
#     4   9  15  26  37  56  82 105 132 158 189 239
#     4   9  16  28  40  54  80 109 136 166 191 225
#
# _framework density 25.019727
#
# number of rings (size 3 to 8) (size 9 to 14) (size 15 to 20)
#    0.000    3.000    5.000    3.000    0.000    1.000 
#    0.000    0.000    0.000    0.000    0.000    0.000 
#    0.000    4.000    0.000   19.125    2.250    1.125 
#
# Total GULP energy -89440.833308 kJ/mol
# GULP energy per Si atom -5590.052082 kJ/mol
# Density = 2.496278 g / cm^3
# Si number density = 25.019727 Si / 1000 Ang^3
#
#
#
# Elastic Constant Matrix: (Units=GPa)
#
#
# Indices 1 2 3 4 5 6 
#
# 1 240.8334 50.9222 74.5649 -6.5571 5.2631 -20.7859
# 2 50.9222 59.6954 10.5475 -0.8077 2.6532 -9.3308
# 3 74.5649 10.5475 120.2892 -15.7745 11.7947 -12.0183
# 4 -6.5571 -0.8077 -15.7745 8.9445 -11.8558 3.1307
# 5 5.2631 2.6532 11.7947 -11.8558 63.7649 -7.6196
# 6 -20.7859 -9.3308 -12.0183 3.1307 -7.6196 57.3877
#
#
#
# Elastic Compliance Matrix: (Units=1/GPa)
#
#
# Indices 1 2 3 4 5 6 
#
# 1 0.006295 -0.004599 -0.003778 -0.002843 -0.000052 0.000889
# 2 -0.004599 0.020788 0.001153 -0.001002 -0.000655 0.001923
# 3 -0.003778 0.001153 0.013548 0.024061 0.002309 0.000650
# 4 -0.002843 -0.001002 0.024061 0.195104 0.031794 -0.002576
# 5 -0.000052 -0.000655 0.002309 0.031794 0.021373 0.001462
# 6 0.000889 0.001923 0.000650 -0.002576 0.001462 0.018531
#
#
# Mechanical properties :
#
#
# Convention : Reuss Voigt Hill
#
# Bulk Modulus (GPa) = 38.19323 76.98746 57.59034
# Shear Modulus (GPa) = 16.73289 45.00497 30.86893
#
# Velocity S-wave (km/s) = 2.58890 4.24580 3.51634
# Velocity P-wave (km/s) = 4.92290 7.40765 6.28921
#
# Compressibility (1/GPa) = 0.02618265
#
# Stress axis : x y z
#
# Youngs Moduli (GPa) = 158.86052 48.10566 73.81340
#
# Poissons Ratio (x) = 0.22126 0.27884
# Poissons Ratio (y) = 0.73067 -0.08513
# Poissons Ratio (z) = 0.60011 -0.05548
#
# Static dielectric constant tensor:
#      x y z
#    x 2.099280 0.184220 -0.064400 
#    y 0.184220 2.158410 -0.140840 
#    z -0.064400 -0.140840 1.968220 
# 
# From -- ./inp_files/396230.got.cif
#   From: 2010.05.17/outbox.cif.g08.bks.cpg/sg2_199_cif.got.tgz:396230.got - 2010.06.03 11:33:40.
