data_PCOD9072173
_publ_section_title
;
Structure prediction by ZEFSAII (Michael W. Deem and Ramdas Pophale) SiO2 
 PCOD9072173
Probable space group: P -1
;
_chemical_formula_sum "Si O2"
_cell_formula_units_Z 16
_cell_length_a 15.000000
_cell_length_b 9.000000
_cell_length_c 9.000000
_cell_angle_alpha 100.000000
_cell_angle_beta 40.000000
_cell_angle_gamma 110.000000
_cell_volume 725.993766
_symmetry_space_group_name_H-M "P -1"
_symmetry_group_IT_number 2
_symmetry_cell_setting 'triclinic'
loop_
_space_group_symop_operation_xyz
x,y,z
-x,-y,-z
loop_
_atom_site_type_symbol
_atom_site_label
_atom_site_fract_x
_atom_site_fract_y
_atom_site_fract_z
Si Si1 0.959991 0.563051 0.221125
Si Si2 0.883051 0.758871 0.129076
Si Si3 0.652785 0.984653 0.867111
Si Si4 0.362479 0.481708 0.780487
Si Si5 0.189245 0.955281 0.618891
Si Si6 0.565617 0.644818 0.054915
Si Si7 0.739203 0.253182 0.040518
Si Si8 0.306293 0.721073 0.545270
O O1 0.919832 0.714563 0.239843
O O2 0.820299 0.411957 0.410322
O O3 0.000000 0.500000 0.000000
O O4 0.093061 0.629444 0.175281
O O5 0.776732 0.601902 0.160519
O O6 0.798323 0.883515 0.282983
O O7 0.031344 0.836848 0.858408
O O8 0.784343 0.032671 0.587317
O O9 0.702474 0.091746 0.969783
O O10 0.500000 0.000000 0.000000
O O11 0.625698 0.802827 0.911427
O O12 0.500000 0.500000 0.500000
O O13 0.329111 0.384892 0.959913
O O14 0.372586 0.657633 0.850091
O O15 0.317428 0.890185 0.494994
O O16 0.444006 0.669012 0.326847
O O17 0.500000 0.500000 0.000000
O O18 0.724395 0.254026 0.238756
#
# Coordination Sequence:
#
# PCOD9072173 Si02
#       8
#     2   2   2   2   2   2   2   2
#     4  10  18  41  71 101 128 168 228 281 330 400
#     4  11  23  43  71 101 136 178 233 282 330 405
#     4  12  28  46  65  99 144 180 223 284 349 404
#     4  12  24  41  71 104 131 176 232 278 335 406
#     4  11  25  43  70  97 139 180 224 280 345 397
#     4  12  28  45  65 101 139 179 226 284 349 404
#     4  11  23  43  70 101 134 173 228 277 340 411
#     4  11  21  44  73  97 132 184 226 276 341 408
#
# _framework density 22.038757
#
# number of rings (size 3 to 8) (size 9 to 14) (size 15 to 20)
#    0.000    0.750    7.500    0.750    7.000    0.500 
#    2.250    2.500    0.000    0.000    0.000    0.000 
#    0.000    0.000    0.000    0.000    0.000    0.000 
#
# Total GULP energy -89114.386324 kJ/mol
# GULP energy per Si atom -5569.649145 kJ/mol
# Density = 2.198860 g / cm^3
# Si number density = 22.038757 Si / 1000 Ang^3
#
#
#
# Elastic Constant Matrix: (Units=GPa)
#
#
# Indices 1 2 3 4 5 6 
#
# 1 65.8553 28.4298 16.0569 3.8636 9.6144 0.0900
# 2 28.4298 120.7642 31.4793 10.2398 11.4334 -2.2072
# 3 16.0569 31.4793 39.1403 20.3607 14.9228 -3.7002
# 4 3.8636 10.2398 20.3607 3.7310 4.7894 13.1021
# 5 9.6144 11.4334 14.9228 4.7894 20.4589 -6.2086
# 6 0.0900 -2.2072 -3.7002 13.1021 -6.2086 31.1112
#
#
#
# Elastic Compliance Matrix: (Units=1/GPa)
#
#
# Indices 1 2 3 4 5 6 
#
# 1 0.017622 -0.003212 -0.000137 -0.004850 -0.005025 0.000744
# 2 -0.003212 0.010747 -0.005572 -0.003780 0.001032 0.001907
# 3 -0.000137 -0.005572 0.014632 0.043567 -0.024326 -0.021857
# 4 -0.004850 -0.003780 0.043567 -0.066801 -0.001826 0.032695
# 5 -0.005025 0.001032 -0.024326 -0.001826 0.072614 0.012455
# 6 0.000744 0.001907 -0.021857 0.032695 0.012455 0.018393
#
#
# Mechanical properties :
#
#
# Convention : Reuss Voigt Hill
#
# Bulk Modulus (GPa) = 39.74832 41.96574 40.85703
# Shear Modulus (GPa) = 53.51288 21.04647 37.27968
#
# Velocity S-wave (km/s) = 4.93295 3.09362 4.11731
# Velocity P-wave (km/s) = 7.10775 5.64303 6.41732
#
# Compressibility (1/GPa) = 0.02515830
#
# Stress axis : x y z
#
# Youngs Moduli (GPa) = 56.74712 93.04863 68.34371
#
# Poissons Ratio (x) = 0.29890 0.00934
# Poissons Ratio (y) = 0.18229 0.38084
# Poissons Ratio (z) = 0.00775 0.51850
#
# Static dielectric constant tensor:
#      x y z
#    x 1.877970 -0.104580 -0.010370 
#    y -0.104580 1.851230 -0.018130 
#    z -0.010370 -0.018130 1.848200 
# 
# From -- ./inp_files/298667.got.cif
#   From: 2010.05.17/outbox.ucp.g08.bks.cvg/sg2_150_cif.got.tgz:298667.got - 2010.06.11 11:32:03.
