data_PCOD9072723
_publ_section_title
;
Structure prediction by ZEFSAII (Michael W. Deem and Ramdas Pophale) SiO2 
 PCOD9072723
Probable space group: P -1
;
_chemical_formula_sum "Si O2"
_cell_formula_units_Z 14
_cell_length_a 21.599247
_cell_length_b 8.147539
_cell_length_c 8.811534
_cell_angle_alpha 95.850944
_cell_angle_beta 155.014633
_cell_angle_gamma 96.712658
_cell_volume 564.989235
_symmetry_space_group_name_H-M "P -1"
_symmetry_group_IT_number 2
_symmetry_cell_setting 'triclinic'
loop_
_space_group_symop_operation_xyz
x,y,z
-x,-y,-z
loop_
_atom_site_type_symbol
_atom_site_label
_atom_site_fract_x
_atom_site_fract_y
_atom_site_fract_z
Si Si1 0.386744 0.115834 0.228918
Si Si2 0.129910 0.760572 0.471993
Si Si3 0.651251 0.211501 0.324562
Si Si4 0.528457 0.385020 0.829447
Si Si5 0.114818 0.407454 0.532401
Si Si6 0.963689 0.964328 0.595129
Si Si7 0.683586 0.412613 0.709531
O O1 0.439031 0.184148 0.521265
O O2 0.539594 0.240773 0.471359
O O3 0.239800 0.161672 0.864455
O O4 0.285371 0.892832 0.945216
O O5 0.217343 0.790663 0.505832
O O6 0.004241 0.845686 0.226691
O O7 0.058010 0.546592 0.343019
O O8 0.723694 0.313113 0.653703
O O9 0.571811 0.332412 0.082267
O O10 0.500000 0.000000 0.000000
O O11 0.708370 0.521596 0.160873
O O12 0.403695 0.468810 0.536589
O O13 0.165788 0.465365 0.827381
O O14 0.988932 0.179788 0.233655
O O15 0.000000 0.000000 0.500000
#
# Coordination Sequence:
#
# PCOD9072723 Si02
#       7
#     2   2   2   2   2   2   2
#     4   9  17  33  50  75 101 129 163 210 247 290
#     4   9  20  34  48  77 104 131 167 202 253 297
#     4  11  21  27  45  77 111 138 154 196 254 303
#     4  10  18  31  50  74 107 132 166 198 248 308
#     4  10  19  32  56  76  99 136 164 208 256 291
#     4  10  19  35  55  74  97 127 176 222 246 281
#     4  11  17  32  50  76 108 132 164 195 247 319
#
# _framework density 24.779233000000001
#
# number of rings (size 3 to 8) (size 9 to 14) (size 15 to 20)
#    0.857    1.143    4.286    1.286    2.000    2.286 
#    0.000    0.000    0.000    0.857    0.000   15.000 
#    0.000    0.000    0.000    0.000    0.000    0.000 
#
# Total GULP energy -78189.671211 kJ/mol
# GULP energy per Si atom -5584.976515 kJ/mol
# Density = 2.472283 g / cm^3
# Si number density = 24.779233 Si / 1000 Ang^3
#
#
#
# Elastic Constant Matrix: (Units=GPa)
#
#
# Indices 1 2 3 4 5 6 
#
# 1 148.7744 59.2841 25.9763 5.2554 -8.5058 -6.1603
# 2 59.2841 166.6583 17.4293 9.7073 13.0897 -1.0076
# 3 25.9763 17.4293 31.7908 5.8132 8.6249 0.5457
# 4 5.2554 9.7073 5.8132 22.6065 5.0674 -2.2376
# 5 -8.5058 13.0897 8.6249 5.0674 21.7610 -1.7464
# 6 -6.1603 -1.0076 0.5457 -2.2376 -1.7464 36.0316
#
#
#
# Elastic Compliance Matrix: (Units=1/GPa)
#
#
# Indices 1 2 3 4 5 6 
#
# 1 0.010436 -0.003491 -0.009309 -0.000591 0.010190 0.002285
# 2 -0.003491 0.007734 0.000492 -0.001377 -0.005952 -0.000762
# 3 -0.009309 0.000492 0.045545 -0.005406 -0.021018 -0.003622
# 4 -0.000591 -0.001377 -0.005406 0.048477 -0.008344 0.002548
# 5 0.010190 -0.005952 -0.021018 -0.008344 0.064150 0.004485
# 6 0.002285 -0.000762 -0.003622 0.002548 0.004485 0.028553
#
#
# Mechanical properties :
#
#
# Convention : Reuss Voigt Hill
#
# Bulk Modulus (GPa) = 25.57582 61.40032 43.48807
# Shear Modulus (GPa) = 20.61479 32.38207 26.49843
#
# Velocity S-wave (km/s) = 2.88746 3.61892 3.27369
# Velocity P-wave (km/s) = 4.63254 6.50345 5.64603
#
# Compressibility (1/GPa) = 0.03909944
#
# Stress axis : x y z
#
# Youngs Moduli (GPa) = 95.82144 129.30403 21.95614
#
# Poissons Ratio (x) = 0.45138 0.20439
# Poissons Ratio (y) = 0.33450 -0.01080
# Poissons Ratio (z) = 0.89201 -0.06363
#
# Static dielectric constant tensor:
#      x y z
#    x 1.968400 -0.104260 0.028150 
#    y -0.104260 2.068450 -0.039170 
#    z 0.028150 -0.039170 1.938610 
# 
# From -- ./inp_files/191986.got.cif
#   From: 2010.05.17/outbox.cif.g08.bks.cpg/sg2_96_cif.got.tgz:191986.got - 2010.06.03 11:33:40.
