data_PCOD9072938
_publ_section_title
;
Structure prediction by ZEFSAII (Michael W. Deem and Ramdas Pophale) SiO2 
 PCOD9072938
Probable space group: P -1
;
_chemical_formula_sum "Si O2"
_cell_formula_units_Z 16
_cell_length_a 14.270974
_cell_length_b 20.954595
_cell_length_c 8.683160
_cell_angle_alpha 50.608233
_cell_angle_beta 138.233176
_cell_angle_gamma 150.891779
_cell_volume 840.227553
_symmetry_space_group_name_H-M "P -1"
_symmetry_group_IT_number 2
_symmetry_cell_setting 'triclinic'
loop_
_space_group_symop_operation_xyz
x,y,z
-x,-y,-z
loop_
_atom_site_type_symbol
_atom_site_label
_atom_site_fract_x
_atom_site_fract_y
_atom_site_fract_z
Si Si1 0.298504 0.830447 0.154020
Si Si2 0.203381 0.530546 0.206066
Si Si3 0.341863 0.343072 0.734884
Si Si4 0.953014 0.667549 0.452824
Si Si5 0.158782 0.648136 0.505838
Si Si6 0.480782 0.233720 0.974192
Si Si7 0.801551 0.621298 0.795084
Si Si8 0.567874 0.109738 0.128582
O O1 0.286639 0.740581 0.372539
O O2 0.453493 0.968428 0.216414
O O3 0.390279 0.857496 0.052635
O O4 0.046689 0.753117 0.955841
O O5 0.198254 0.474024 0.439352
O O6 0.422011 0.678708 0.195164
O O7 0.159038 0.445135 0.148087
O O8 0.000000 0.500000 0.000000
O O9 0.176443 0.306802 0.713489
O O10 0.341736 0.243852 0.869570
O O11 0.588073 0.497214 0.826337
O O12 0.271692 0.346587 0.474512
O O13 0.019202 0.663091 0.375474
O O14 0.186534 0.777985 0.664734
O O15 0.000000 0.500000 0.500000
O O16 0.321770 0.693791 0.772124
O O17 0.421246 0.114766 0.023185
#
# Coordination Sequence:
#
# PCOD9072938 Si02
#       8
#     2   2   2   2   2   2   2   2
#     4  11  21  37  56  84 116 138 192 229 275 322
#     4  10  13  26  52  77 105 128 187 227 247 318
#     4   9  17  33  57  80 110 143 188 223 268 340
#     4  10  20  34  57  83 109 154 183 219 283 326
#     4  11  23  34  56  88 114 140 176 243 283 315
#     4  10  20  33  56  82 106 150 185 223 273 326
#     4   9  17  30  52  81 106 145 178 233 271 308
#     4  10  21  36  61  79 105 156 187 230 260 326
#
# _framework density 19.042460999999999
#
# number of rings (size 3 to 8) (size 9 to 14) (size 15 to 20)
#    0.000    2.000    5.000    2.250    1.750    2.000 
#    0.000    3.125    0.000    1.500    0.000    0.000 
#    0.000    0.000    0.000    0.000    0.000    0.000 
#
# Total GULP energy -89090.842976 kJ/mol
# GULP energy per Si atom -5568.177686 kJ/mol
# Density = 1.899912 g / cm^3
# Si number density = 19.042461 Si / 1000 Ang^3
#
#
#
# Elastic Constant Matrix: (Units=GPa)
#
#
# Indices 1 2 3 4 5 6 
#
# 1 108.9106 6.5082 16.5447 -6.4147 29.1233 -25.8804
# 2 6.5082 70.7943 21.3393 -10.8781 -5.7043 -20.1653
# 3 16.5447 21.3393 42.2990 -3.6667 5.9059 -6.8832
# 4 -6.4147 -10.8781 -3.6667 17.7549 -2.7381 0.1713
# 5 29.1233 -5.7043 5.9059 -2.7381 30.8840 -6.9484
# 6 -25.8804 -20.1653 -6.8832 0.1713 -6.9484 28.3636
#
#
#
# Elastic Compliance Matrix: (Units=1/GPa)
#
#
# Indices 1 2 3 4 5 6 
#
# 1 0.015747 0.003635 -0.003936 0.005447 -0.009896 0.013541
# 2 0.003635 0.026910 -0.011368 0.016809 0.010174 0.022081
# 3 -0.003936 -0.011368 0.030548 -0.002912 -0.005760 -0.005654
# 4 0.005447 0.016809 -0.002912 0.069155 0.008689 0.017925
# 5 -0.009896 0.010174 -0.005760 0.008689 0.047341 0.008351
# 6 0.013541 0.022081 -0.005654 0.017925 0.008351 0.063876
#
#
# Mechanical properties :
#
#
# Convention : Reuss Voigt Hill
#
# Bulk Modulus (GPa) = 20.05309 34.53204 27.29257
# Shear Modulus (GPa) = 17.03367 27.24129 22.13748
#
# Velocity S-wave (km/s) = 2.99408 3.78637 3.41329
# Velocity P-wave (km/s) = 4.74408 6.10648 5.46788
#
# Compressibility (1/GPa) = 0.04986762
#
# Stress axis : x y z
#
# Youngs Moduli (GPa) = 63.50293 37.16069 32.73587
#
# Poissons Ratio (x) = -0.13509 0.12885
# Poissons Ratio (y) = -0.23086 0.37214
# Poissons Ratio (z) = 0.24995 0.42244
#
# Static dielectric constant tensor:
#      x y z
#    x 1.714470 0.011290 -0.008660 
#    y 0.011290 1.698010 -0.001250 
#    z -0.008660 -0.001250 1.702460 
# 
# From -- ./inp_files/318586.got.cif
#   From: 2010.05.17/outbox.cif.g08.bks.cpg/sg2_160_cif.got.tgz:318586.got - 2010.06.03 11:33:40.
