data_PCOD9072059
_publ_section_title
;
Structure prediction by ZEFSAII (Michael W. Deem and Ramdas Pophale) SiO2 
 PCOD9072059
Probable space group: P -1
;
_chemical_formula_sum "Si O2"
_cell_formula_units_Z 14
_cell_length_a 16.502245
_cell_length_b 12.633881
_cell_length_c 9.517853
_cell_angle_alpha 147.363619
_cell_angle_beta 133.480154
_cell_angle_gamma 63.952133
_cell_volume 724.879375
_symmetry_space_group_name_H-M "P -1"
_symmetry_group_IT_number 2
_symmetry_cell_setting 'triclinic'
loop_
_space_group_symop_operation_xyz
x,y,z
-x,-y,-z
loop_
_atom_site_type_symbol
_atom_site_label
_atom_site_fract_x
_atom_site_fract_y
_atom_site_fract_z
Si Si1 0.628412 0.021071 0.521100
Si Si2 0.459649 0.260158 0.636492
Si Si3 0.161593 0.667137 0.348007
Si Si4 0.387589 0.249271 0.226418
Si Si5 0.821310 0.045822 0.554376
Si Si6 0.570382 0.269709 0.251622
Si Si7 0.974720 0.822392 0.392668
O O1 0.620406 0.894970 0.514353
O O2 0.749995 0.070527 0.634140
O O3 0.581286 0.209507 0.706403
O O4 0.523616 0.866662 0.125259
O O5 0.389026 0.221746 0.362860
O O6 0.500000 0.500000 0.000000
O O7 0.303627 0.757894 0.632740
O O8 0.096174 0.772143 0.496553
O O9 0.129794 0.737833 0.234996
O O10 0.114777 0.413618 0.018487
O O11 0.506322 0.222560 0.273614
O O12 0.403608 0.488584 0.482251
O O13 0.275598 0.107928 0.842756
O O14 0.915576 0.927413 0.555959
O O15 0.000000 0.000000 0.500000
#
# Coordination Sequence:
#
# PCOD9072059 Si02
#       7
#     2   2   2   2   2   2   2
#     4  10  22  34  51  77 107 140 175 208 253 310
#     4  11  21  34  47  72 111 144 172 206 254 308
#     4  10  18  30  51  76 106 136 165 212 266 301
#     4  10  19  31  52  79 109 139 168 210 254 303
#     4  10  19  34  54  78 105 135 174 215 253 304
#     4  10  18  32  53  79 106 137 174 207 254 308
#     4   9  19  32  48  77 108 130 167 216 263 303
#
# _framework density 19.313558
#
# number of rings (size 3 to 8) (size 9 to 14) (size 15 to 20)
#    0.000    2.000    2.857    1.714    0.000    3.429 
#    0.000    0.000    0.000    0.000    0.000   28.000 
#    0.000    0.857    0.000    0.000    0.000    0.000 
#
# Total GULP energy -78060.946350 kJ/mol
# GULP energy per Si atom -5575.781882 kJ/mol
# Density = 1.926960 g / cm^3
# Si number density = 19.313558 Si / 1000 Ang^3
#
#
#
# Elastic Constant Matrix: (Units=GPa)
#
#
# Indices 1 2 3 4 5 6 
#
# 1 147.9174 37.8998 15.4190 5.8349 -4.9978 -8.9125
# 2 37.8998 72.0012 14.9690 16.6157 -18.5174 7.6051
# 3 15.4190 14.9690 47.7532 21.2784 -12.0228 0.6867
# 4 5.8349 16.6157 21.2784 36.0617 -9.7954 -10.0224
# 5 -4.9978 -18.5174 -12.0228 -9.7954 27.1869 -3.1142
# 6 -8.9125 7.6051 0.6867 -10.0224 -3.1142 37.2147
#
#
#
# Elastic Compliance Matrix: (Units=1/GPa)
#
#
# Indices 1 2 3 4 5 6 
#
# 1 0.008570 -0.005616 -0.003190 0.003722 -0.001849 0.004107
# 2 -0.005616 0.022214 0.001964 -0.009740 0.010580 -0.007659
# 3 -0.003190 0.001964 0.031660 -0.018825 0.007258 -0.006212
# 4 0.003722 -0.009740 -0.018825 0.048821 0.005242 0.016816
# 5 -0.001849 0.010580 0.007258 0.005242 0.049065 0.002779
# 6 0.004107 -0.007659 -0.006212 0.016816 0.002779 0.034296
#
#
# Mechanical properties :
#
#
# Convention : Reuss Voigt Hill
#
# Bulk Modulus (GPa) = 20.50852 44.91638 32.71245
# Shear Modulus (GPa) = 22.26531 33.38494 27.82512
#
# Velocity S-wave (km/s) = 3.39902 4.16212 3.79978
# Velocity P-wave (km/s) = 5.10355 6.81209 6.01876
#
# Compressibility (1/GPa) = 0.04876022
#
# Stress axis : x y z
#
# Youngs Moduli (GPa) = 116.68315 45.01612 31.58531
#
# Poissons Ratio (x) = 0.25282 0.10076
# Poissons Ratio (y) = 0.65533 -0.06203
# Poissons Ratio (z) = 0.37222 -0.08841
#
# Static dielectric constant tensor:
#      x y z
#    x 1.748230 -0.017930 0.012190 
#    y -0.017930 1.700180 0.034490 
#    z 0.012190 0.034490 1.665320 
# 
# From -- ./inp_files/304434.got.cif
#   From: 2010.05.17/outbox.cif.g08.bks.cpg/sg2_153_cif.got.tgz:304434.got - 2010.06.03 11:33:40.
