data_PCOD9072844
_publ_section_title
;
Structure prediction by ZEFSAII (Michael W. Deem and Ramdas Pophale) SiO2 
 PCOD9072844
Probable space group: P -1
;
_chemical_formula_sum "Si O2"
_cell_formula_units_Z 14
_cell_length_a 24.000000
_cell_length_b 12.000000
_cell_length_c 15.000000
_cell_angle_alpha 150.000000
_cell_angle_beta 20.000000
_cell_angle_gamma 150.000000
_cell_volume 703.466731
_symmetry_space_group_name_H-M "P -1"
_symmetry_group_IT_number 2
_symmetry_cell_setting 'triclinic'
loop_
_space_group_symop_operation_xyz
x,y,z
-x,-y,-z
loop_
_atom_site_type_symbol
_atom_site_label
_atom_site_fract_x
_atom_site_fract_y
_atom_site_fract_z
Si Si1 0.109685 0.355446 0.399348
Si Si2 0.538793 0.649216 0.192790
Si Si3 0.741204 0.000448 0.708408
Si Si4 0.170619 0.914870 0.681279
Si Si5 0.561256 0.763363 0.639454
Si Si6 0.722010 0.816909 0.800842
Si Si7 0.496198 0.948449 0.608046
O O1 0.118879 0.629464 0.565690
O O2 0.166526 0.274133 0.355948
O O3 0.921730 0.189184 0.540598
O O4 0.260186 0.320417 0.086049
O O5 0.446745 0.400711 0.115428
O O6 0.505587 0.844179 0.313306
O O7 0.463688 0.703600 0.436597
O O8 0.650916 0.808247 0.634814
O O9 0.789495 0.887175 0.648279
O O10 0.603010 0.139239 0.035701
O O11 0.313073 0.993854 0.599940
O O12 0.291626 0.051898 0.512871
O O13 0.000000 0.000000 0.000000
O O14 0.500000 0.500000 0.500000
O O15 0.653333 0.028482 0.085570
#
# Coordination Sequence:
#
# PCOD9072844 Si02
#       7
#     2   2   2   2   2   2   2
#     4  11  22  43  67 102 131 164 219 276 322 382
#     4  10  20  37  70  92 131 164 212 270 325 378
#     4  11  25  42  66  96 131 175 216 257 330 390
#     4  12  24  42  68  94 130 168 219 276 315 379
#     4  11  26  48  63  89 135 179 215 262 320 391
#     4  11  20  43  68  96 134 168 210 271 328 384
#     4  10  20  38  63  97 123 167 214 261 322 374
#
# _framework density 19.901439
#
# number of rings (size 3 to 8) (size 9 to 14) (size 15 to 20)
#    0.000    1.143    4.286    2.143    4.000    0.571 
#    0.000    0.000    0.000    6.000    0.000    0.000 
#    0.000    0.000    0.000    0.000    0.000    0.000 
#
# Total GULP energy -78003.559379 kJ/mol
# GULP energy per Si atom -5571.682813 kJ/mol
# Density = 1.985614 g / cm^3
# Si number density = 19.901439 Si / 1000 Ang^3
#
#
#
# Elastic Constant Matrix: (Units=GPa)
#
#
# Indices 1 2 3 4 5 6 
#
# 1 71.8603 48.3900 48.3406 17.6594 3.0692 10.0248
# 2 48.3900 91.8281 37.7469 -2.9917 5.2055 2.1360
# 3 48.3406 37.7469 129.3391 5.4519 -16.0160 2.4311
# 4 17.6594 -2.9917 5.4519 37.7973 6.2996 -2.2671
# 5 3.0692 5.2055 -16.0160 6.2996 38.6413 3.9616
# 6 10.0248 2.1360 2.4311 -2.2671 3.9616 29.5703
#
#
#
# Elastic Compliance Matrix: (Units=1/GPa)
#
#
# Indices 1 2 3 4 5 6 
#
# 1 0.035911 -0.016051 -0.007749 -0.017667 0.000184 -0.011757
# 2 -0.016051 0.020162 -0.000918 0.010224 -0.004041 0.005386
# 3 -0.007749 -0.000918 0.011472 0.001095 0.005199 0.001138
# 4 -0.017667 0.010224 0.001095 0.036970 -0.006456 0.008860
# 5 0.000184 -0.004041 0.005199 -0.006456 0.030100 -0.004725
# 6 -0.011757 0.005386 0.001138 0.008860 -0.004725 0.038633
#
#
# Mechanical properties :
#
#
# Convention : Reuss Voigt Hill
#
# Bulk Modulus (GPa) = 55.21862 62.44250 58.83056
# Shear Modulus (GPa) = 21.86073 31.77179 26.81626
#
# Velocity S-wave (km/s) = 3.31788 3.99990 3.67475
# Velocity P-wave (km/s) = 6.51798 7.26473 6.90146
#
# Compressibility (1/GPa) = 0.01810983
#
# Stress axis : x y z
#
# Youngs Moduli (GPa) = 27.84661 49.59751 87.16982
#
# Poissons Ratio (x) = 0.79609 0.67548
# Poissons Ratio (y) = 0.44697 0.08000
# Poissons Ratio (z) = 0.21578 0.04552
#
# Static dielectric constant tensor:
#      x y z
#    x 1.795340 -0.022580 0.061680 
#    y -0.022580 1.700140 -0.006330 
#    z 0.061680 -0.006330 1.705160 
# 
# From -- ./inp_files/304784.got.cif
#   From: 2010.05.17/outbox.ucp.g08.bks.cvg/sg2_153_cif.got.tgz:304784.got - 2010.06.11 11:32:03.
