data_PCOD9072245
_publ_section_title
;
Structure prediction by ZEFSAII (Michael W. Deem and Ramdas Pophale) SiO2 
 PCOD9072245
Probable space group: P -1
;
_chemical_formula_sum "Si O2"
_cell_formula_units_Z 16
_cell_length_a 17.143292
_cell_length_b 26.797471
_cell_length_c 12.807679
_cell_angle_alpha 26.877417
_cell_angle_beta 143.102568
_cell_angle_gamma 161.462288
_cell_volume 801.232980
_symmetry_space_group_name_H-M "P -1"
_symmetry_group_IT_number 2
_symmetry_cell_setting 'triclinic'
loop_
_space_group_symop_operation_xyz
x,y,z
-x,-y,-z
loop_
_atom_site_type_symbol
_atom_site_label
_atom_site_fract_x
_atom_site_fract_y
_atom_site_fract_z
Si Si1 0.313727 0.791387 0.765766
Si Si2 0.879709 0.468345 0.584494
Si Si3 0.356582 0.543515 0.053730
Si Si4 0.605819 0.647272 0.438436
Si Si5 0.216467 0.803815 0.867805
Si Si6 0.710548 0.901538 0.935399
Si Si7 0.905464 0.617457 0.539001
Si Si8 0.620454 0.288066 0.427930
O O1 0.315004 0.841953 0.788142
O O2 0.031812 0.607953 0.755845
O O3 0.500000 0.000000 0.500000
O O4 0.457141 0.780430 0.932293
O O5 0.928342 0.598597 0.478557
O O6 0.711344 0.381307 0.468030
O O7 0.151684 0.621153 0.547273
O O8 0.741744 0.265287 0.876850
O O9 0.393648 0.616035 0.841320
O O10 0.317265 0.385747 0.331530
O O11 0.604001 0.766613 0.968557
O O12 0.092383 0.404208 0.074595
O O13 0.500000 0.500000 0.500000
O O14 0.797506 0.874428 0.163706
O O15 0.381908 0.557440 0.415771
O O16 0.364779 0.024600 0.645590
O O17 0.927157 0.151926 0.683107
#
# Coordination Sequence:
#
# PCOD9072245 Si02
#       8
#     2   2   2   2   2   2   2   2
#     4  10  18  30  53  84 110 135 169 213 277 338
#     4  10  22  36  57  87 110 140 183 226 273 333
#     4  10  22  36  54  80 107 145 192 225 259 323
#     4  10  22  36  52  79 110 144 188 224 261 326
#     4  11  20  35  58  81 112 146 176 222 280 327
#     4  10  20  34  54  82 112 140 172 222 280 330
#     4  11  21  35  55  80 113 145 173 220 281 324
#     4  10  20  38  59  81 111 142 183 230 273 319
#
# _framework density 19.969225000000002
#
# number of rings (size 3 to 8) (size 9 to 14) (size 15 to 20)
#    0.000    1.750    0.000    7.125    0.000    4.500 
#    0.000    0.625    0.000    1.500    0.000    0.000 
#    0.000    0.000    0.000    0.000    0.000    0.000 
#
# Total GULP energy -89306.803195 kJ/mol
# GULP energy per Si atom -5581.675200 kJ/mol
# Density = 1.992377 g / cm^3
# Si number density = 19.969225 Si / 1000 Ang^3
#
#
#
# Elastic Constant Matrix: (Units=GPa)
#
#
# Indices 1 2 3 4 5 6 
#
# 1 54.2903 11.8582 2.3575 19.9053 -12.7517 -7.9293
# 2 11.8582 55.8870 36.9215 14.5418 -10.3376 -18.5101
# 3 2.3575 36.9215 133.3268 32.2927 -4.8351 -11.5034
# 4 19.9053 14.5418 32.2927 34.4088 0.5717 -3.5171
# 5 -12.7517 -10.3376 -4.8351 0.5717 28.6799 2.9790
# 6 -7.9293 -18.5101 -11.5034 -3.5171 2.9790 26.4024
#
#
#
# Elastic Compliance Matrix: (Units=1/GPa)
#
#
# Indices 1 2 3 4 5 6 
#
# 1 0.031310 0.000779 0.006184 -0.023695 0.014906 0.007805
# 2 0.000779 0.030093 -0.004843 -0.007000 0.008719 0.017305
# 3 0.006184 -0.004843 0.012077 -0.012745 0.003120 0.001674
# 4 -0.023695 -0.007000 -0.012745 0.057107 -0.015492 -0.008222
# 5 0.014906 0.008719 0.003120 -0.015492 0.044973 0.004811
# 6 0.007805 0.017305 0.001674 -0.008222 0.004811 0.051443
#
#
# Mechanical properties :
#
#
# Convention : Reuss Voigt Hill
#
# Bulk Modulus (GPa) = 12.86669 38.41982 25.64325
# Shear Modulus (GPa) = 20.10713 30.72267 25.41490
#
# Velocity S-wave (km/s) = 3.17662 3.92663 3.57137
# Velocity P-wave (km/s) = 4.46226 6.31183 5.46585
#
# Compressibility (1/GPa) = 0.07772004
#
# Stress axis : x y z
#
# Youngs Moduli (GPa) = 31.93913 33.23036 82.80437
#
# Poissons Ratio (x) = -0.02590 -0.51204
# Poissons Ratio (y) = -0.02489 0.40098
# Poissons Ratio (z) = -0.19750 0.16092
#
# Static dielectric constant tensor:
#      x y z
#    x 1.680750 0.023860 -0.000760 
#    y 0.023860 1.719620 -0.003210 
#    z -0.000760 -0.003210 1.769940 
# 
# From -- ./inp_files/467584.got.cif
#   From: 2010.05.17/outbox.cif.g08.bks.cpg/sg2_234_cif.got.tgz:467584.got - 2010.06.03 11:33:40.
