data_PCOD9072288
_publ_section_title
;
Structure prediction by ZEFSAII (Michael W. Deem and Ramdas Pophale) SiO2 
 PCOD9072288
Probable space group: P -1
;
_chemical_formula_sum "Si O2"
_cell_formula_units_Z 16
_cell_length_a 15.000000
_cell_length_b 12.000000
_cell_length_c 15.000000
_cell_angle_alpha 130.000000
_cell_angle_beta 150.000000
_cell_angle_gamma 40.000000
_cell_volume 865.974363
_symmetry_space_group_name_H-M "P -1"
_symmetry_group_IT_number 2
_symmetry_cell_setting 'triclinic'
loop_
_space_group_symop_operation_xyz
x,y,z
-x,-y,-z
loop_
_atom_site_type_symbol
_atom_site_label
_atom_site_fract_x
_atom_site_fract_y
_atom_site_fract_z
Si Si1 0.841599 0.848498 0.988261
Si Si2 0.522405 0.543749 0.335602
Si Si3 0.123016 0.807824 0.470023
Si Si4 0.864311 0.439316 0.047585
Si Si5 0.238511 0.270617 0.412350
Si Si6 0.476342 0.015611 0.631041
Si Si7 0.264451 0.806425 0.394730
Si Si8 0.286595 0.182207 0.941248
O O1 0.963560 0.676719 0.941491
O O2 0.635195 0.002571 0.837824
O O3 0.752521 0.819767 0.987778
O O4 0.027653 0.881068 0.188865
O O5 0.696397 0.339672 0.386845
O O6 0.645104 0.630260 0.454043
O O7 0.423523 0.623367 0.388747
O O8 0.314926 0.604686 0.128475
O O9 0.239407 0.793080 0.470697
O O10 0.930942 0.782571 0.272118
O O11 0.000000 0.000000 0.500000
O O12 0.729541 0.641964 0.008848
O O13 0.999153 0.389344 0.229290
O O14 0.296142 0.195853 0.523387
O O15 0.356470 0.102818 0.363016
O O16 0.359831 0.921711 0.515687
O O17 0.500000 0.000000 0.000000
#
# Coordination Sequence:
#
# PCOD9072288 Si02
#       8
#     2   2   2   2   2   2   2   2
#     4   9  20  34  53  81 108 140 178 218 265 319
#     4  10  19  34  55  79 109 142 175 218 268 316
#     4  11  22  35  52  79 111 140 179 223 267 321
#     4  10  19  34  55  79 109 142 175 218 268 316
#     4   9  18  34  51  85 109 141 180 219 260 319
#     4   9  18  32  57  77 113 143 176 219 266 313
#     4   9  20  34  53  81 108 140 178 218 265 319
#     4  11  22  35  52  79 111 140 179 223 267 321
#
# _framework density 18.476298
#
# number of rings (size 3 to 8) (size 9 to 14) (size 15 to 20)
#    0.000    2.250    1.250    1.500    3.500    1.000 
#    0.000    5.000    0.000    3.000    0.000    5.250 
#    0.000    0.000    0.000    0.000    0.000    0.000 
#
# Total GULP energy -89129.019911 kJ/mol
# GULP energy per Si atom -5570.563744 kJ/mol
# Density = 1.843424 g / cm^3
# Si number density = 18.476298 Si / 1000 Ang^3
#
#
#
# Elastic Constant Matrix: (Units=GPa)
#
#
# Indices 1 2 3 4 5 6 
#
# 1 12.2385 12.5823 20.9060 -15.1439 3.8159 -4.4874
# 2 12.5823 54.5059 31.7025 -22.1682 1.8084 -10.8641
# 3 20.9060 31.7025 94.1577 -29.4026 -9.8288 9.7051
# 4 -15.1439 -22.1682 -29.4026 28.0264 -3.6070 -3.5236
# 5 3.8159 1.8084 -9.8288 -3.6070 7.7134 -10.1903
# 6 -4.4874 -10.8641 9.7051 -3.5236 -10.1903 9.2100
#
#
#
# Elastic Compliance Matrix: (Units=1/GPa)
#
#
# Indices 1 2 3 4 5 6 
#
# 1 0.598782 0.000817 -0.144769 0.109500 -0.463260 -0.025414
# 2 0.000817 0.020292 -0.011663 -0.005005 -0.050878 -0.021583
# 3 -0.144769 -0.011663 0.056578 -0.013753 0.123578 -0.012444
# 4 0.109500 -0.005005 -0.013753 0.051237 -0.132468 -0.065025
# 5 -0.463260 -0.050878 0.123578 -0.132468 0.325287 -0.106721
# 6 -0.025414 -0.021583 -0.012444 -0.065025 -0.106721 -0.059109
#
#
# Mechanical properties :
#
#
# Convention : Reuss Voigt Hill
#
# Bulk Modulus (GPa) = 2.74406 32.36485 17.55445
# Shear Modulus (GPa) = 3.50687 15.37071 9.43879
#
# Velocity S-wave (km/s) = 1.37919 2.88742 2.26267
# Velocity P-wave (km/s) = 2.00614 5.35456 4.04326
#
# Compressibility (1/GPa) = 0.36442415
#
# Stress axis : x y z
#
# Youngs Moduli (GPa) = 1.67006 49.27996 17.67460
#
# Poissons Ratio (x) = -0.04028 2.55873
# Poissons Ratio (y) = -0.00137 0.20614
# Poissons Ratio (z) = 0.24177 0.57475
#
# Static dielectric constant tensor:
#      x y z
#    x 1.623410 0.022040 -0.004030 
#    y 0.022040 1.677350 0.074060 
#    z -0.004030 0.074060 1.761910 
# 
# From -- ./inp_files/187673.got.cif
#   From: 2010.05.17/outbox.ucp.g08.bks.cvg/sg2_94_cif.got.tgz:187673.got - 2010.06.11 11:32:03.
