data_PCOD9072700
_publ_section_title
;
Structure prediction by ZEFSAII (Michael W. Deem and Ramdas Pophale) SiO2 
 PCOD9072700
Probable space group: P -1
;
_chemical_formula_sum "Si O2"
_cell_formula_units_Z 14
_cell_length_a 12.000000
_cell_length_b 9.000000
_cell_length_c 9.000000
_cell_angle_alpha 70.000000
_cell_angle_beta 110.000000
_cell_angle_gamma 60.000000
_cell_volume 614.029152
_symmetry_space_group_name_H-M "P -1"
_symmetry_group_IT_number 2
_symmetry_cell_setting 'triclinic'
loop_
_space_group_symop_operation_xyz
x,y,z
-x,-y,-z
loop_
_atom_site_type_symbol
_atom_site_label
_atom_site_fract_x
_atom_site_fract_y
_atom_site_fract_z
Si Si1 0.895198 0.547847 0.693011
Si Si2 0.992072 0.205574 0.270738
Si Si3 0.654143 0.829116 0.735398
Si Si4 0.283591 0.761838 0.735462
Si Si5 0.571950 0.308690 0.862578
Si Si6 0.138944 0.072142 0.069641
Si Si7 0.426625 0.116194 0.769431
O O1 0.995871 0.615801 0.755075
O O2 0.784936 0.614008 0.768520
O O3 0.760999 0.708794 0.444764
O O4 0.022641 0.282210 0.830636
O O5 0.028755 0.120693 0.144587
O O6 0.820970 0.291024 0.226834
O O7 0.146765 0.989758 0.507350
O O8 0.747401 0.900304 0.806956
O O9 0.500000 0.000000 0.500000
O O10 0.546008 0.886344 0.807979
O O11 0.433253 0.570319 0.757138
O O12 0.350956 0.789992 0.903084
O O13 0.471531 0.262173 0.749386
O O14 0.735664 0.164326 0.877585
O O15 0.500000 0.000000 0.000000
#
# Coordination Sequence:
#
# PCOD9072700 Si02
#       7
#     2   2   2   2   2   2   2
#     4  10  20  37  62  93 124 152 193 254 315 364
#     4  10  21  40  64  90 119 160 205 247 305 360
#     4   8  16  32  52  81 121 154 186 231 295 364
#     4  10  23  42  62  83 122 166 205 251 294 360
#     4  10  23  42  57  85 123 162 207 245 299 362
#     4  10  21  38  63  92 122 155 203 257 304 363
#     4  10  20  35  60  90 123 157 198 253 307 364
#
# _framework density 22.800219999999999
#
# number of rings (size 3 to 8) (size 9 to 14) (size 15 to 20)
#    0.000    2.286    0.000    2.571    0.000    6.857 
#    0.000   18.571    0.000    0.000    0.000    0.000 
#    0.000    0.000    0.000    0.000    0.000    0.000 
#
# Total GULP energy -77947.117635 kJ/mol
# GULP energy per Si atom -5567.651260 kJ/mol
# Density = 2.274833 g / cm^3
# Si number density = 22.800220 Si / 1000 Ang^3
#
#
#
# Elastic Constant Matrix: (Units=GPa)
#
#
# Indices 1 2 3 4 5 6 
#
# 1 58.5788 9.1936 27.6827 -1.5585 13.8980 -2.3754
# 2 9.1936 95.3363 14.3667 -3.5831 1.4885 -27.1703
# 3 27.6827 14.3667 105.1997 9.1928 11.1357 -9.6065
# 4 -1.5585 -3.5831 9.1928 34.3319 -3.0632 5.1588
# 5 13.8980 1.4885 11.1357 -3.0632 34.0480 7.4240
# 6 -2.3754 -27.1703 -9.6065 5.1588 7.4240 29.6782
#
#
#
# Elastic Compliance Matrix: (Units=1/GPa)
#
#
# Indices 1 2 3 4 5 6 
#
# 1 0.021222 -0.000922 -0.004744 0.001371 -0.007136 0.000866
# 2 -0.000922 0.014712 0.000011 -0.000994 -0.003511 0.014450
# 3 -0.004744 0.000011 0.011993 -0.004518 -0.003522 0.005179
# 4 0.001371 -0.000994 -0.004518 0.032225 0.005897 -0.009339
# 5 -0.007136 -0.003511 -0.003522 0.005897 0.037460 -0.015321
# 6 0.000866 0.014450 0.005179 -0.009339 -0.015321 0.054125
#
#
# Mechanical properties :
#
#
# Convention : Reuss Voigt Hill
#
# Bulk Modulus (GPa) = 27.30866 40.17788 33.74327
# Shear Modulus (GPa) = 25.60788 33.46975 29.53882
#
# Velocity S-wave (km/s) = 3.35497 3.83555 3.60328
# Velocity P-wave (km/s) = 5.19722 6.10534 5.66949
#
# Compressibility (1/GPa) = 0.03661842
#
# Stress axis : x y z
#
# Youngs Moduli (GPa) = 47.12036 67.97231 83.38128
#
# Poissons Ratio (x) = 0.06266 0.39555
# Poissons Ratio (y) = 0.04344 -0.00095
# Poissons Ratio (z) = 0.22353 -0.00078
#
# Static dielectric constant tensor:
#      x y z
#    x 2.744820 -0.356950 -0.683190 
#    y -0.356950 2.086530 0.234590 
#    z -0.683190 0.234590 2.340020 
# 
# From -- ./inp_files/243080.got.cif
#   From: 2010.05.17/outbox.ucp.g08.bks.cvg/sg2_122_cif.got.tgz:243080.got - 2010.06.11 11:32:03.
