data_PCOD9072201
_publ_section_title
;
Structure prediction by ZEFSAII (Michael W. Deem and Ramdas Pophale) SiO2 
 PCOD9072201
Probable space group: P -1
;
_chemical_formula_sum "Si O2"
_cell_formula_units_Z 11
_cell_length_a 15.906313
_cell_length_b 6.745974
_cell_length_c 4.917609
_cell_angle_alpha 110.569495
_cell_angle_beta 111.559045
_cell_angle_gamma 47.209693
_cell_volume 356.119533
_symmetry_space_group_name_H-M "P -1"
_symmetry_group_IT_number 2
_symmetry_cell_setting 'triclinic'
loop_
_space_group_symop_operation_xyz
x,y,z
-x,-y,-z
loop_
_atom_site_type_symbol
_atom_site_label
_atom_site_fract_x
_atom_site_fract_y
_atom_site_fract_z
Si Si1 0.500000 0.500000 0.000000
Si Si2 0.365110 0.898384 0.488500
Si Si3 0.000000 0.000000 0.500000
Si Si4 0.910776 0.390532 0.056278
Si Si5 0.339034 0.382366 0.981343
Si Si6 0.138015 0.081702 0.522398
Si Si7 0.500000 0.000000 0.500000
O O1 0.586191 0.279912 0.273030
O O2 0.456795 0.795122 0.300248
O O3 0.384056 0.540180 0.021624
O O4 0.232440 0.015252 0.382789
O O5 0.366570 0.163274 0.668819
O O6 0.144744 0.870265 0.617590
O O7 0.960377 0.267542 0.766274
O O8 0.883061 0.671721 0.225180
O O9 0.013634 0.171747 0.287182
O O10 0.792057 0.446650 0.995621
O O11 0.415348 0.197832 0.240216
#
# Coordination Sequence:
#
# PCOD9072201 Si02
#       7
#     1   2   1   2   2   2   1
#     4  10  12  22  44  70 100 130 162 222 266 300
#     4   8  15  27  45  75 104 127 176 223 257 317
#     4  12  22  34  52  84 116 148 180 226 268 328
#     4  10  21  37  56  80 114 146 183 224 275 329
#     4   8  15  27  45  75 104 127 176 223 257 317
#     4  10  21  37  56  80 114 146 183 224 275 329
#     4   6  12  26  44  74 100 116 178 222 250 300
#
# _framework density 30.888504000000001
#
# number of rings (size 3 to 8) (size 9 to 14) (size 15 to 20)
#    1.091    1.818    0.000    2.182    0.000    0.000 
#    0.000    0.000    0.000    0.000    0.000   48.364 
#    0.000    0.000    0.000    0.000    0.000    0.000 
#
# Total GULP energy -61382.460914 kJ/mol
# GULP energy per Si atom -5580.223719 kJ/mol
# Density = 3.081820 g / cm^3
# Si number density = 30.888504 Si / 1000 Ang^3
#
#
#
# Elastic Constant Matrix: (Units=GPa)
#
#
# Indices 1 2 3 4 5 6 
#
# 1 373.5832 88.7416 69.2390 -13.1727 34.0220 2.7396
# 2 88.7416 75.8160 54.6018 15.4028 -21.1045 2.9352
# 3 69.2390 54.6018 161.3232 11.1192 -29.4401 -28.0587
# 4 -13.1727 15.4028 11.1192 76.2980 -3.7312 -7.2290
# 5 34.0220 -21.1045 -29.4401 -3.7312 83.6044 6.5632
# 6 2.7396 2.9352 -28.0587 -7.2290 6.5632 90.6075
#
#
#
# Elastic Compliance Matrix: (Units=1/GPa)
#
#
# Indices 1 2 3 4 5 6 
#
# 1 0.004783 -0.006679 -0.000565 0.002104 -0.003764 0.000337
# 2 -0.006679 0.028591 -0.005544 -0.006058 0.007988 -0.003503
# 3 -0.000565 -0.005544 0.009153 0.000052 0.001828 0.002903
# 4 0.002104 -0.006058 0.000052 0.014734 -0.001824 0.001456
# 5 -0.003764 0.007988 0.001828 -0.001824 0.016142 -0.000894
# 6 0.000337 -0.003503 0.002903 0.001456 -0.000894 0.012220
#
#
# Mechanical properties :
#
#
# Convention : Reuss Voigt Hill
#
# Bulk Modulus (GPa) = 59.00232 115.09858 87.05045
# Shear Modulus (GPa) = 42.79057 76.64465 59.71761
#
# Velocity S-wave (km/s) = 3.72603 4.98670 4.40173
# Velocity P-wave (km/s) = 6.13631 8.39641 7.35371
#
# Compressibility (1/GPa) = 0.01694849
#
# Stress axis : x y z
#
# Youngs Moduli (GPa) = 209.08870 34.97660 109.25721
#
# Poissons Ratio (x) = 0.23362 0.06176
# Poissons Ratio (y) = 1.39656 0.60574
# Poissons Ratio (z) = 0.11819 0.19392
#
# Static dielectric constant tensor:
#      x y z
#    x 3.303920 0.062420 -0.414330 
#    y 0.062420 3.112210 -0.059870 
#    z -0.414330 -0.059870 2.979390 
# 
# From -- ./inp_files/24930.got.cif
#   From: 2010.05.17/outbox.cif.g08.bks.cpg/sg2_13_cif.got.tgz:24930.got - 2010.06.03 11:33:40.
