data_PCOD9072136
_publ_section_title
;
Structure prediction by ZEFSAII (Michael W. Deem and Ramdas Pophale) SiO2 
 PCOD9072136
Probable space group: P -1
;
_chemical_formula_sum "Si O2"
_cell_formula_units_Z 15
_cell_length_a 7.921599
_cell_length_b 20.970733
_cell_length_c 9.283008
_cell_angle_alpha 42.912501
_cell_angle_beta 70.910692
_cell_angle_gamma 42.169673
_cell_volume 621.403992
_symmetry_space_group_name_H-M "P -1"
_symmetry_group_IT_number 2
_symmetry_cell_setting 'triclinic'
loop_
_space_group_symop_operation_xyz
x,y,z
-x,-y,-z
loop_
_atom_site_type_symbol
_atom_site_label
_atom_site_fract_x
_atom_site_fract_y
_atom_site_fract_z
Si Si1 0.886539 0.366345 0.018343
Si Si2 0.703544 0.279715 0.390478
Si Si3 0.233466 0.330423 0.770593
Si Si4 0.368027 0.386661 0.915972
Si Si5 0.222048 0.305219 0.306611
Si Si6 0.928734 0.797762 0.307591
Si Si7 0.739959 0.073967 0.846759
Si Si8 0.500000 0.500000 0.500000
O O1 0.610639 0.546904 0.785537
O O2 0.076754 0.308047 0.924408
O O3 0.812612 0.290630 0.202835
O O4 0.063595 0.327969 0.172277
O O5 0.884927 0.239578 0.546063
O O6 0.727464 0.158028 0.587871
O O7 0.400784 0.315254 0.877210
O O8 0.449830 0.210899 0.787871
O O9 0.000000 0.500000 0.500000
O O10 0.509478 0.426963 0.766486
O O11 0.029438 0.543272 0.780667
O O12 0.428964 0.296813 0.186798
O O13 0.287289 0.189263 0.581271
O O14 0.164057 0.656738 0.370466
O O15 0.791684 0.943272 0.029277
O O16 0.000000 0.000000 0.000000
#
# Coordination Sequence:
#
# PCOD9072136 Si02
#       8
#     2   2   2   2   2   2   2   1
#     4   9  17  29  50  78 106 140 177 212 257 307
#     4   9  16  30  49  77 108 138 171 213 264 311
#     4  11  20  32  52  82 108 137 175 216 260 316
#     4   9  17  30  49  75 100 131 176 216 252 296
#     4   8  16  31  48  71 101 133 177 213 251 306
#     4   9  18  31  49  75 103 135 176 213 262 306
#     4  10  19  32  49  76 113 138 168 221 266 308
#     4  10  18  30  52  74  96 134 178 212 246 316
#
# _framework density 24.138885999999999
#
# number of rings (size 3 to 8) (size 9 to 14) (size 15 to 20)
#    0.000    2.667    1.333    1.600    0.000    0.000 
#    0.000   12.000    0.000    3.200    0.000   35.467 
#    0.000    0.000    0.000    0.000    0.000    0.000 
#
# Total GULP energy -83509.720985 kJ/mol
# GULP energy per Si atom -5567.314732 kJ/mol
# Density = 2.408394 g / cm^3
# Si number density = 24.138886 Si / 1000 Ang^3
#
#
#
# Elastic Constant Matrix: (Units=GPa)
#
#
# Indices 1 2 3 4 5 6 
#
# 1 70.6190 22.8267 53.9172 17.4141 -9.2575 -7.0179
# 2 22.8267 79.9363 59.3022 19.3861 -5.4009 -17.5760
# 3 53.9172 59.3022 233.2765 31.1603 -17.7404 -19.6722
# 4 17.4141 19.3861 31.1603 41.9138 -9.0094 -9.0757
# 5 -9.2575 -5.4009 -17.7404 -9.0094 45.8140 12.3784
# 6 -7.0179 -17.5760 -19.6722 -9.0757 12.3784 29.7398
#
#
#
# Elastic Compliance Matrix: (Units=1/GPa)
#
#
# Indices 1 2 3 4 5 6 
#
# 1 0.018358 -0.001985 -0.003122 -0.004220 0.001678 -0.000893
# 2 -0.001985 0.017888 -0.003077 -0.003975 -0.002386 0.007848
# 3 -0.003122 -0.003077 0.006114 -0.001488 0.000903 0.000659
# 4 -0.004220 -0.003975 -0.001488 0.029979 0.003037 0.003555
# 5 0.001678 -0.002386 0.000903 0.003037 0.025570 -0.010133
# 6 -0.000893 0.007848 0.000659 0.003555 -0.010133 0.043790
#
#
# Mechanical properties :
#
#
# Convention : Reuss Voigt Hill
#
# Bulk Modulus (GPa) = 38.47661 72.88044 55.67853
# Shear Modulus (GPa) = 29.98815 40.01257 35.00036
#
# Velocity S-wave (km/s) = 3.52848 4.07578 3.81196
# Velocity P-wave (km/s) = 5.70740 7.23927 6.51849
#
# Compressibility (1/GPa) = 0.02598981
#
# Stress axis : x y z
#
# Youngs Moduli (GPa) = 54.47191 55.90311 163.56796
#
# Poissons Ratio (x) = 0.11099 0.51071
# Poissons Ratio (y) = 0.10815 0.50334
# Poissons Ratio (z) = 0.17008 0.17203
#
# Static dielectric constant tensor:
#      x y z
#    x 2.086170 -0.018100 -0.028180 
#    y -0.018100 1.887710 0.037580 
#    z -0.028180 0.037580 1.958200 
# 
# From -- ./inp_files/331298.got.cif
#   From: 2010.05.17/outbox.cif.g08.bks.cpg/sg2_166_cif.got.tgz:331298.got - 2010.06.03 11:33:40.
