data_PCOD9072827
_publ_section_title
;
Structure prediction by ZEFSAII (Michael W. Deem and Ramdas Pophale) SiO2 
 PCOD9072827
Probable space group: P -1
;
_chemical_formula_sum "Si O2"
_cell_formula_units_Z 16
_cell_length_a 12.000000
_cell_length_b 15.000000
_cell_length_c 15.000000
_cell_angle_alpha 40.000000
_cell_angle_beta 40.000000
_cell_angle_gamma 30.000000
_cell_volume 822.330465
_symmetry_space_group_name_H-M "P -1"
_symmetry_group_IT_number 2
_symmetry_cell_setting 'triclinic'
loop_
_space_group_symop_operation_xyz
x,y,z
-x,-y,-z
loop_
_atom_site_type_symbol
_atom_site_label
_atom_site_fract_x
_atom_site_fract_y
_atom_site_fract_z
Si Si1 0.667312 0.983099 0.334675
Si Si2 0.483214 0.314031 0.789707
Si Si3 0.814824 0.255205 0.320244
Si Si4 0.800742 0.710583 0.697934
Si Si5 0.722821 0.823832 0.855590
Si Si6 0.882982 0.608260 0.392638
Si Si7 0.494198 0.767353 0.366356
Si Si8 0.042848 0.068742 0.644263
O O1 0.795264 0.806458 0.325542
O O2 0.853818 0.966585 0.292274
O O3 0.500000 0.000000 0.500000
O O4 0.472722 0.161653 0.257027
O O5 0.366507 0.517758 0.743744
O O6 0.420960 0.328743 0.710430
O O7 0.765045 0.185225 0.722425
O O8 0.391275 0.228091 0.967519
O O9 0.734659 0.202927 0.493676
O O10 0.062632 0.202317 0.215096
O O11 0.832065 0.130145 0.327688
O O12 0.817964 0.696692 0.804997
O O13 0.894585 0.816035 0.530780
O O14 0.930548 0.528197 0.695124
O O15 0.552042 0.042616 0.761543
O O16 0.657503 0.662222 0.436064
O O17 0.000000 0.500000 0.500000
#
# Coordination Sequence:
#
# PCOD9072827 Si02
#       8
#     2   2   2   2   2   2   2   2
#     4  10  20  37  63  98 133 167 218 275 325 373
#     4  12  27  43  66  99 137 176 218 269 332 402
#     4  12  24  41  67  96 134 171 221 275 325 386
#     4  11  22  40  68  98 131 174 220 272 322 389
#     4  12  24  46  66  96 139 178 214 269 339 391
#     4  12  22  37  69 103 130 165 219 281 327 376
#     4  12  23  43  70  99 131 172 223 275 328 385
#     4  11  22  39  67  96 131 174 219 270 331 381
#
# _framework density 19.456897999999999
#
# number of rings (size 3 to 8) (size 9 to 14) (size 15 to 20)
#    0.000    0.500    6.250    4.500    0.000    0.000 
#    0.000    0.625    0.000    1.500    0.000    0.000 
#    0.000    0.000    0.000    0.000    0.000    0.000 
#
# Total GULP energy -89190.025656 kJ/mol
# GULP energy per Si atom -5574.376604 kJ/mol
# Density = 1.941261 g / cm^3
# Si number density = 19.456898 Si / 1000 Ang^3
#
#
#
# Elastic Constant Matrix: (Units=GPa)
#
#
# Indices 1 2 3 4 5 6 
#
# 1 150.9573 44.2199 30.7200 18.3198 -0.5378 13.6194
# 2 44.2199 132.7480 13.9373 3.5079 -8.0648 22.5904
# 3 30.7200 13.9373 108.6618 7.4538 -9.6472 -0.5578
# 4 18.3198 3.5079 7.4538 22.0263 4.0399 -1.6532
# 5 -0.5378 -8.0648 -9.6472 4.0399 19.3304 3.4676
# 6 13.6194 22.5904 -0.5578 -1.6532 3.4676 50.1963
#
#
#
# Elastic Compliance Matrix: (Units=1/GPa)
#
#
# Indices 1 2 3 4 5 6 
#
# 1 0.008525 -0.002231 -0.001696 -0.006286 0.000049 -0.001538
# 2 -0.002231 0.009250 -0.000120 -0.000711 0.004585 -0.003899
# 3 -0.001696 -0.000120 0.010423 -0.003140 0.005738 0.000130
# 4 -0.006286 -0.000711 -0.003140 0.054795 -0.014349 0.004786
# 5 0.000049 0.004585 0.005738 -0.014349 0.060707 -0.006679
# 6 -0.001538 -0.003899 0.000130 0.004786 -0.006679 0.022714
#
#
# Mechanical properties :
#
#
# Convention : Reuss Voigt Hill
#
# Bulk Modulus (GPa) = 49.74194 63.34683 56.54439
# Shear Modulus (GPa) = 27.59254 38.54325 33.06790
#
# Velocity S-wave (km/s) = 3.76990 4.45562 4.12703
# Velocity P-wave (km/s) = 6.67609 7.68754 7.19960
#
# Compressibility (1/GPa) = 0.02010376
#
# Stress axis : x y z
#
# Youngs Moduli (GPa) = 117.30494 108.11307 95.93938
#
# Poissons Ratio (x) = 0.24117 0.16274
# Poissons Ratio (y) = 0.26168 0.01151
# Poissons Ratio (z) = 0.19898 0.01297
#
# Static dielectric constant tensor:
#      x y z
#    x 1.701250 -0.041040 0.015610 
#    y -0.041040 1.776990 -0.007110 
#    z 0.015610 -0.007110 1.666270 
# 
# From -- ./inp_files/521452.got.cif
#   From: 2010.05.17/outbox.ucp.g08.bks.cvg/sg2_261_cif.got.tgz:521452.got - 2010.06.11 11:32:03.
