data_PCOD9072500
_publ_section_title
;
Structure prediction by ZEFSAII (Michael W. Deem and Ramdas Pophale) SiO2 
 PCOD9072500
Probable space group: P -1
;
_chemical_formula_sum "Si O2"
_cell_formula_units_Z 16
_cell_length_a 6.000000
_cell_length_b 6.000000
_cell_length_c 24.000000
_cell_angle_alpha 90.000000
_cell_angle_beta 120.000000
_cell_angle_gamma 80.000000
_cell_volume 733.050061
_symmetry_space_group_name_H-M "P -1"
_symmetry_group_IT_number 2
_symmetry_cell_setting 'triclinic'
loop_
_space_group_symop_operation_xyz
x,y,z
-x,-y,-z
loop_
_atom_site_type_symbol
_atom_site_label
_atom_site_fract_x
_atom_site_fract_y
_atom_site_fract_z
Si Si1 0.456830 0.193463 0.448437
Si Si2 0.934981 0.409358 0.551571
Si Si3 0.255649 0.618438 0.012548
Si Si4 0.450189 0.054950 0.658985
Si Si5 0.030577 0.824260 0.225111
Si Si6 0.992854 0.111661 0.118891
Si Si7 0.331622 0.496369 0.842018
Si Si8 0.437454 0.827784 0.773785
O O1 0.697652 0.300956 0.499358
O O2 0.190401 0.381538 0.423723
O O3 0.500000 0.000000 0.500000
O O4 0.476312 0.084659 0.389274
O O5 0.000000 0.500000 0.500000
O O6 0.180281 0.236633 0.610721
O O7 0.425747 0.642837 0.090026
O O8 0.500000 0.500000 0.000000
O O9 0.000000 0.500000 0.000000
O O10 0.114131 0.835262 0.957176
O O11 0.686384 0.173015 0.712213
O O12 0.427162 0.881781 0.706967
O O13 0.913677 0.600808 0.211598
O O14 0.992907 0.884580 0.154181
O O15 0.819813 0.010400 0.232530
O O16 0.296700 0.124896 0.164737
O O17 0.805846 0.301589 0.133749
O O18 0.442577 0.579034 0.798630
#
# Coordination Sequence:
#
# PCOD9072500 Si02
#       8
#     2   2   2   2   2   2   2   2
#     4  11  25  47  74 102 140 173 227 291 345 422
#     4  11  25  47  73 105 133 174 229 285 345 423
#     4  10  19  37  71 100 135 187 245 297 371 428
#     4  11  25  47  67  99 143 183 225 287 360 417
#     4  10  24  43  61 100 137 176 236 283 341 439
#     4   9  20  41  63  93 138 178 232 294 352 412
#     4  10  21  42  67  94 135 182 234 288 350 423
#     4  10  22  43  62  91 139 177 224 285 346 420
#
# _framework density 21.826612999999998
#
# number of rings (size 3 to 8) (size 9 to 14) (size 15 to 20)
#    0.000    1.750    2.500    0.375    1.750    2.500 
#   18.000    0.625    0.000    0.000    0.000    0.000 
#    0.000    0.000    0.000    0.000    0.000    0.000 
#
# Total GULP energy -89089.337232 kJ/mol
# GULP energy per Si atom -5568.083577 kJ/mol
# Density = 2.177693 g / cm^3
# Si number density = 21.826613 Si / 1000 Ang^3
#
#
#
# Elastic Constant Matrix: (Units=GPa)
#
#
# Indices 1 2 3 4 5 6 
#
# 1 111.7897 35.4365 55.4401 -12.9426 -2.7904 3.9653
# 2 35.4365 51.8408 47.8708 -7.0402 -12.4820 -5.7207
# 3 55.4401 47.8708 191.5691 -30.5081 -13.6046 -11.8940
# 4 -12.9426 -7.0402 -30.5081 29.3860 -4.5789 5.8152
# 5 -2.7904 -12.4820 -13.6046 -4.5789 48.3591 -12.3286
# 6 3.9653 -5.7207 -11.8940 5.8152 -12.3286 36.6982
#
#
#
# Elastic Compliance Matrix: (Units=1/GPa)
#
#
# Indices 1 2 3 4 5 6 
#
# 1 0.012683 -0.007824 -0.001822 0.002277 -0.002721 -0.004456
# 2 -0.007824 0.031657 -0.004786 -0.000975 0.008091 0.007102
# 3 -0.001822 -0.004786 0.008248 0.006583 0.002055 0.001771
# 4 0.002277 -0.000975 0.006583 0.043082 0.004936 -0.003433
# 5 -0.002721 0.008091 0.002055 0.004936 0.026272 0.010265
# 6 -0.004456 0.007102 0.001771 -0.003433 0.010265 0.033404
#
#
# Mechanical properties :
#
#
# Convention : Reuss Voigt Hill
#
# Bulk Modulus (GPa) = 42.15456 70.29937 56.22697
# Shear Modulus (GPa) = 26.02528 37.31879 31.67204
#
# Velocity S-wave (km/s) = 3.45681 4.13944 3.81343
# Velocity P-wave (km/s) = 5.94037 7.42460 6.72356
#
# Compressibility (1/GPa) = 0.02372223
#
# Stress axis : x y z
#
# Youngs Moduli (GPa) = 78.84400 31.58814 121.24552
#
# Poissons Ratio (x) = 0.24716 0.22097
# Poissons Ratio (y) = 0.61691 0.58031
# Poissons Ratio (z) = 0.14369 0.15119
#
# Static dielectric constant tensor:
#      x y z
#    x 1.844800 0.006990 -0.034040 
#    y 0.006990 1.856640 -0.021480 
#    z -0.034040 -0.021480 1.724330 
# 
# From -- ./inp_files/114755.got.cif
#   From: 2010.05.17/outbox.ucp.g08.bks.cvg/sg2_58_cif.got.tgz:114755.got - 2010.06.11 11:32:03.
