data_PCOD9072068
_publ_section_title
;
Structure prediction by ZEFSAII (Michael W. Deem and Ramdas Pophale) SiO2 
 PCOD9072068
Probable space group: P -1
;
_chemical_formula_sum "Si O2"
_cell_formula_units_Z 12
_cell_length_a 9.865301
_cell_length_b 7.469760
_cell_length_c 9.957807
_cell_angle_alpha 117.064821
_cell_angle_beta 53.030109
_cell_angle_gamma 129.949494
_cell_volume 446.597108
_symmetry_space_group_name_H-M "P -1"
_symmetry_group_IT_number 2
_symmetry_cell_setting 'triclinic'
loop_
_space_group_symop_operation_xyz
x,y,z
-x,-y,-z
loop_
_atom_site_type_symbol
_atom_site_label
_atom_site_fract_x
_atom_site_fract_y
_atom_site_fract_z
Si Si1 0.312525 0.960624 0.440063
Si Si2 0.371538 0.525206 0.966168
Si Si3 0.695812 0.918240 0.232427
Si Si4 0.795517 0.746767 0.554680
Si Si5 0.745764 0.940048 0.902733
Si Si6 0.946911 0.388725 0.750309
O O1 0.509969 0.952285 0.336234
O O2 0.171484 0.738515 0.357632
O O3 0.211864 0.949812 0.639188
O O4 0.350769 0.193912 0.417805
O O5 0.368746 0.352891 0.795845
O O6 0.507807 0.806604 0.971843
O O7 0.500000 0.500000 0.000000
O O8 0.145735 0.455372 0.101261
O O9 0.790711 0.964355 0.042815
O O10 0.776419 0.758800 0.729935
O O11 0.832573 0.551234 0.400923
O O12 0.000000 0.000000 0.500000
O O13 0.873711 0.194481 0.846376
#
# Coordination Sequence:
#
# PCOD9072068 Si02
#       6
#     2   2   2   2   2   2
#     4   9  17  32  51  71 103 127 161 198 255 275
#     4  10  18  30  51  77  99 123 165 204 241 285
#     4  10  19  30  51  78 101 125 156 213 245 279
#     4   8  18  32  52  72  94 134 166 196 232 298
#     4   9  17  31  54  76  91 131 173 191 235 296
#     4  10  18  35  55  70  97 132 168 197 237 294
#
# _framework density 26.869855999999999
#
# number of rings (size 3 to 8) (size 9 to 14) (size 15 to 20)
#    0.000    3.000    3.333    0.500    2.333    0.000 
#    0.000   15.000    0.000    0.000    0.000    0.000 
#    0.000    0.000    0.000    0.000    0.000    0.000 
#
# Total GULP energy -66861.418419 kJ/mol
# GULP energy per Si atom -5571.784868 kJ/mol
# Density = 2.680870 g / cm^3
# Si number density = 26.869856 Si / 1000 Ang^3
#
#
#
# Elastic Constant Matrix: (Units=GPa)
#
#
# Indices 1 2 3 4 5 6 
#
# 1 82.6276 32.6312 47.9429 24.0874 -8.2294 -23.1740
# 2 32.6312 80.8145 43.3680 12.0257 0.1143 -18.2117
# 3 47.9429 43.3680 182.2719 -4.1187 14.8231 -20.4957
# 4 24.0874 12.0257 -4.1187 38.3922 -17.8013 -6.5061
# 5 -8.2294 0.1143 14.8231 -17.8013 47.4391 18.9303
# 6 -23.1740 -18.2117 -20.4957 -6.5061 18.9303 36.8250
#
#
#
# Elastic Compliance Matrix: (Units=1/GPa)
#
#
# Indices 1 2 3 4 5 6 
#
# 1 0.021658 -0.002358 -0.004001 -0.013449 -0.003989 0.009911
# 2 -0.002358 0.016891 -0.002387 -0.004888 -0.004283 0.006879
# 3 -0.004001 -0.002387 0.007725 0.003155 -0.002995 0.002698
# 4 -0.013449 -0.004888 0.003155 0.042348 0.016656 -0.010205
# 5 -0.003989 -0.004283 -0.002995 0.016656 0.036385 -0.022056
# 6 0.009911 0.006879 0.002698 -0.010205 -0.022056 0.047831
#
#
# Mechanical properties :
#
#
# Convention : Reuss Voigt Hill
#
# Bulk Modulus (GPa) = 34.74408 65.95535 50.34971
# Shear Modulus (GPa) = 25.00958 39.31607 32.16282
#
# Velocity S-wave (km/s) = 3.05416 3.82933 3.46350
# Velocity P-wave (km/s) = 5.03942 6.64464 5.89691
#
# Compressibility (1/GPa) = 0.02878188
#
# Stress axis : x y z
#
# Youngs Moduli (GPa) = 46.17246 59.20436 129.45227
#
# Poissons Ratio (x) = 0.13959 0.51791
# Poissons Ratio (y) = 0.10886 0.30904
# Poissons Ratio (z) = 0.18473 0.14134
#
# Static dielectric constant tensor:
#      x y z
#    x 2.170840 -0.064770 -0.116090 
#    y -0.064770 2.427700 -0.107510 
#    z -0.116090 -0.107510 2.226000 
# 
# From -- ./inp_files/199068.got.cif
#   From: 2010.05.17/outbox.cif.g08.bks.cpg/sg2_100_cif.got.tgz:199068.got - 2010.06.03 11:33:40.
