data_PCOD9072400
_publ_section_title
;
Structure prediction by ZEFSAII (Michael W. Deem and Ramdas Pophale) SiO2 
 PCOD9072400
Probable space group: P -1
;
_chemical_formula_sum "Si O2"
_cell_formula_units_Z 16
_cell_length_a 15.000000
_cell_length_b 15.000000
_cell_length_c 9.000000
_cell_angle_alpha 50.000000
_cell_angle_beta 30.000000
_cell_angle_gamma 50.000000
_cell_volume 755.761493
_symmetry_space_group_name_H-M "P -1"
_symmetry_group_IT_number 2
_symmetry_cell_setting 'triclinic'
loop_
_space_group_symop_operation_xyz
x,y,z
-x,-y,-z
loop_
_atom_site_type_symbol
_atom_site_label
_atom_site_fract_x
_atom_site_fract_y
_atom_site_fract_z
Si Si1 0.521898 0.552219 0.624401
Si Si2 0.134792 0.999869 0.944759
Si Si3 0.089122 0.618732 0.116581
Si Si4 0.516922 0.302760 0.763123
Si Si5 0.897976 0.167941 0.346004
Si Si6 0.059022 0.796032 0.417412
Si Si7 0.883454 0.484639 0.335312
Si Si8 0.206485 0.202370 0.454987
O O1 0.577034 0.416767 0.627366
O O2 0.553722 0.645654 0.351668
O O3 0.670266 0.553815 0.539322
O O4 0.296745 0.577056 0.927805
O O5 0.259774 0.085908 0.609231
O O6 0.015124 0.067768 0.180194
O O7 0.196730 0.864491 0.059054
O O8 0.000000 0.000000 0.000000
O O9 0.987547 0.524181 0.286811
O O10 0.959111 0.703324 0.329728
O O11 0.092830 0.707406 0.878170
O O12 0.679240 0.185112 0.642981
O O13 0.365056 0.268565 0.121319
O O14 0.965000 0.161052 0.424628
O O15 0.118528 0.653649 0.490464
O O16 0.873496 0.829131 0.553512
O O17 0.000000 0.500000 0.000000
#
# Coordination Sequence:
#
# PCOD9072400 Si02
#       8
#     2   2   2   2   2   2   2   2
#     4  10  20  36  58  90 130 162 206 249 303 365
#     4   9  21  40  62  86 118 162 201 254 315 367
#     4  10  22  39  60  93 128 167 197 254 312 368
#     4  10  19  36  59  89 121 162 197 255 306 364
#     4  10  19  38  64  88 118 156 212 249 302 368
#     4  11  20  36  61  89 114 161 208 248 300 370
#     4  12  20  35  62  94 124 158 213 253 298 367
#     4  10  22  40  61  86 127 158 202 252 317 361
#
# _framework density 21.1707
#
# number of rings (size 3 to 8) (size 9 to 14) (size 15 to 20)
#    0.000    1.750    2.500    3.375    0.000    2.000 
#    2.250    5.625    0.000    1.500    0.000    0.000 
#    0.000    0.000    0.000    0.000    0.000    0.000 
#
# Total GULP energy -89223.817724 kJ/mol
# GULP energy per Si atom -5576.488608 kJ/mol
# Density = 2.112251 g / cm^3
# Si number density = 21.170700 Si / 1000 Ang^3
#
#
#
# Elastic Constant Matrix: (Units=GPa)
#
#
# Indices 1 2 3 4 5 6 
#
# 1 103.1136 21.9118 27.9691 -3.6174 4.9999 0.6513
# 2 21.9118 69.7510 43.6403 -29.0727 0.6186 -8.6235
# 3 27.9691 43.6403 110.8632 -15.7791 6.7117 -12.3447
# 4 -3.6174 -29.0727 -15.7791 21.2706 -5.6852 3.5309
# 5 4.9999 0.6186 6.7117 -5.6852 23.9885 -0.2670
# 6 0.6513 -8.6235 -12.3447 3.5309 -0.2670 27.2803
#
#
#
# Elastic Compliance Matrix: (Units=1/GPa)
#
#
# Indices 1 2 3 4 5 6 
#
# 1 0.011385 -0.006455 -0.001557 -0.008757 -0.003868 -0.001921
# 2 -0.006455 0.048339 -0.009223 0.062238 0.017467 0.003376
# 3 -0.001557 -0.009223 0.012994 -0.004953 -0.004207 0.003602
# 4 -0.008757 0.062238 -0.004953 0.135892 0.033817 0.000384
# 5 -0.003868 0.017467 -0.004207 0.033817 0.051232 -0.000165
# 6 -0.001921 0.003376 0.003602 0.000384 -0.000165 0.039348
#
#
# Mechanical properties :
#
#
# Convention : Reuss Voigt Hill
#
# Bulk Modulus (GPa) = 26.14588 52.30781 39.22684
# Shear Modulus (GPa) = 14.43378 27.18830 20.81104
#
# Velocity S-wave (km/s) = 2.61393 3.58752 3.13870
# Velocity P-wave (km/s) = 4.63541 6.47470 5.63066
#
# Compressibility (1/GPa) = 0.03824695
#
# Stress axis : x y z
#
# Youngs Moduli (GPa) = 87.83731 20.68734 76.95745
#
# Poissons Ratio (x) = 0.13354 0.11985
# Poissons Ratio (y) = 0.56702 0.70976
# Poissons Ratio (z) = 0.13679 0.19079
#
# Static dielectric constant tensor:
#      x y z
#    x 1.778040 0.004280 -0.007740 
#    y 0.004280 1.804380 -0.021960 
#    z -0.007740 -0.021960 1.856130 
# 
# From -- ./inp_files/314556.got.cif
#   From: 2010.05.17/outbox.ucp.g08.bks.cvg/sg2_158_cif.got.tgz:314556.got - 2010.06.11 11:32:03.
