data_PCOD9072989
_publ_section_title
;
Structure prediction by ZEFSAII (Michael W. Deem and Ramdas Pophale) SiO2 
 PCOD9072989
Probable space group: P -1
;
_chemical_formula_sum "Si O2"
_cell_formula_units_Z 16
_cell_length_a 12.000000
_cell_length_b 6.000000
_cell_length_c 15.000000
_cell_angle_alpha 90.000000
_cell_angle_beta 110.000000
_cell_angle_gamma 50.000000
_cell_volume 740.289630
_symmetry_space_group_name_H-M "P -1"
_symmetry_group_IT_number 2
_symmetry_cell_setting 'triclinic'
loop_
_space_group_symop_operation_xyz
x,y,z
-x,-y,-z
loop_
_atom_site_type_symbol
_atom_site_label
_atom_site_fract_x
_atom_site_fract_y
_atom_site_fract_z
Si Si1 0.529832 0.213481 0.967550
Si Si2 0.726853 0.886971 0.769290
Si Si3 0.010443 0.839639 0.189747
Si Si4 0.130295 0.137301 0.019073
Si Si5 0.818361 0.140943 0.442901
Si Si6 0.833183 0.985881 0.640161
Si Si7 0.871870 0.732708 0.304781
Si Si8 0.614125 0.703761 0.251981
O O1 0.424920 0.374151 0.848789
O O2 0.718998 0.959014 0.994251
O O3 0.500000 0.500000 0.000000
O O4 0.500000 0.000000 0.000000
O O5 0.852347 0.524444 0.790109
O O6 0.794493 0.981723 0.860461
O O7 0.703699 0.034435 0.668235
O O8 0.559898 0.003399 0.758285
O O9 0.889480 0.877739 0.227100
O O10 0.078421 0.953948 0.268462
O O11 0.936753 0.964615 0.069071
O O12 0.000000 0.500000 0.000000
O O13 0.708301 0.444709 0.353220
O O14 0.764995 0.174637 0.530318
O O15 0.840438 0.892154 0.389936
O O16 0.000000 0.000000 0.500000
O O17 0.967925 0.628535 0.649507
O O18 0.720074 0.771850 0.249557
#
# Coordination Sequence:
#
# PCOD9072989 Si02
#       8
#     2   2   2   2   2   2   2   2
#     4  11  26  46  71 106 145 183 236 293 355 417
#     4   9  23  43  58  94 131 173 219 268 345 401
#     4  10  20  39  68  91 125 168 227 270 332 406
#     4   9  20  44  65  97 136 183 229 280 348 419
#     4  12  24  41  66  98 126 170 227 279 346 399
#     4  11  23  40  65  93 128 170 224 282 329 408
#     4  11  22  39  67  93 131 165 224 280 338 404
#     4  11  25  42  66  96 136 174 220 279 346 407
#
# _framework density 21.613161999999999
#
# number of rings (size 3 to 8) (size 9 to 14) (size 15 to 20)
#    0.000    1.500    2.500    1.125    5.250    2.000 
#   11.250    1.250    0.000    0.000    0.000    0.000 
#    0.000    0.000    0.000    0.000    0.000    0.000 
#
# Total GULP energy -89170.732876 kJ/mol
# GULP energy per Si atom -5573.170805 kJ/mol
# Density = 2.156397 g / cm^3
# Si number density = 21.613162 Si / 1000 Ang^3
#
#
#
# Elastic Constant Matrix: (Units=GPa)
#
#
# Indices 1 2 3 4 5 6 
#
# 1 48.6758 13.9204 -23.5609 -10.4236 -19.1487 -26.5842
# 2 13.9204 55.7897 -7.6592 9.9770 -1.9307 -10.1637
# 3 -23.5609 -7.6592 62.7653 -6.2574 -21.5513 -20.3694
# 4 -10.4236 9.9770 -6.2574 29.2488 1.6215 -0.8181
# 5 -19.1487 -1.9307 -21.5513 1.6215 38.3007 0.3890
# 6 -26.5842 -10.1637 -20.3694 -0.8181 0.3890 17.6352
#
#
#
# Elastic Compliance Matrix: (Units=1/GPa)
#
#
# Indices 1 2 3 4 5 6 
#
# 1 -0.004260 -0.005663 -0.014791 -0.002924 -0.010343 -0.026677
# 2 -0.005663 0.021892 0.000816 -0.009130 -0.000929 0.004620
# 3 -0.014791 0.000816 0.001000 -0.005565 -0.006344 -0.020789
# 4 -0.002924 -0.009130 -0.005565 0.035025 -0.006391 -0.014332
# 5 -0.010343 -0.000929 -0.006344 -0.006391 0.017837 -0.024145
# 6 -0.026677 0.004620 -0.020789 -0.014332 -0.024145 -0.004991
#
#
# Mechanical properties :
#
#
# Convention : Reuss Voigt Hill
#
# Bulk Modulus (GPa) = -48.44383 14.73682 -16.85351
# Shear Modulus (GPa) = 50.55791 29.33896 39.94844
#
# Velocity S-wave (km/s) = 4.84179 3.68837 4.30389
# Velocity P-wave (km/s) = 2.96557 4.99720 4.10893
#
# Compressibility (1/GPa) = -0.02064246
#
# Stress axis : x y z
#
# Youngs Moduli (GPa) = -234.73140 45.67920 999.94754
#
# Poissons Ratio (x) = 0.25866 14.78984
# Poissons Ratio (y) = -1.32920 -0.81614
# Poissons Ratio (z) = -3.47182 -0.03728
#
# Static dielectric constant tensor:
#      x y z
#    x 1.821750 0.020230 -0.005570 
#    y 0.020230 1.784300 -0.026430 
#    z -0.005570 -0.026430 1.793590 
# 
# From -- ./inp_files/78041.got.cif
#   From: 2010.05.17/outbox.ucp.g08.bks.cvg/sg2_40_cif.got.tgz:78041.got - 2010.06.11 11:32:03.
