data_PCOD9072902
_publ_section_title
;
Structure prediction by ZEFSAII (Michael W. Deem and Ramdas Pophale) SiO2 
 PCOD9072902
Probable space group: P -1
;
_chemical_formula_sum "Si O2"
_cell_formula_units_Z 16
_cell_length_a 12.000000
_cell_length_b 15.000000
_cell_length_c 15.000000
_cell_angle_alpha 150.000000
_cell_angle_beta 60.000000
_cell_angle_gamma 140.000000
_cell_volume 747.221570
_symmetry_space_group_name_H-M "P -1"
_symmetry_group_IT_number 2
_symmetry_cell_setting 'triclinic'
loop_
_space_group_symop_operation_xyz
x,y,z
-x,-y,-z
loop_
_atom_site_type_symbol
_atom_site_label
_atom_site_fract_x
_atom_site_fract_y
_atom_site_fract_z
Si Si1 0.789487 0.427271 0.900692
Si Si2 0.493998 0.839550 0.062674
Si Si3 0.491291 0.564793 0.331446
Si Si4 0.223686 0.468221 0.208576
Si Si5 0.912325 0.443716 0.347816
Si Si6 0.108116 0.467832 0.772338
Si Si7 0.116141 0.065349 0.381894
Si Si8 0.106457 0.171332 0.272490
O O1 0.589455 0.193209 0.836065
O O2 0.735146 0.426003 0.819381
O O3 0.926126 0.394762 0.818545
O O4 0.930626 0.728709 0.154219
O O5 0.709207 0.152035 0.221788
O O6 0.502854 0.633891 0.876484
O O7 0.316723 0.710126 0.952692
O O8 0.412277 0.604055 0.312911
O O9 0.698556 0.807456 0.518984
O O10 0.307642 0.382080 0.316277
O O11 0.092892 0.491934 0.323750
O O12 0.065822 0.135789 0.968903
O O13 0.864510 0.426745 0.247404
O O14 0.964104 0.697804 0.580991
O O15 0.059290 0.203439 0.560161
O O16 0.162368 0.156056 0.336395
#
# Coordination Sequence:
#
# PCOD9072902 Si02
#       8
#     2   2   2   2   2   2   2   2
#     4  10  22  41  64  86 123 166 199 249 304 360
#     4  11  22  37  60  94 122 161 202 248 306 363
#     4  11  22  37  62  92 125 156 202 255 302 359
#     4  10  22  43  61  88 125 161 202 250 302 363
#     4  10  21  38  62  91 123 157 203 252 302 361
#     4   9  20  38  60  88 122 155 200 256 300 349
#     4   9  21  39  62  94 120 155 207 251 302 362
#     4  10  20  38  64  90 121 157 200 254 305 352
#
# _framework density 21.412658
#
# number of rings (size 3 to 8) (size 9 to 14) (size 15 to 20)
#    0.000    2.000    1.250    1.500    1.750    3.000 
#    2.250    0.000    0.000    0.750    0.000    0.000 
#    0.000    0.000    0.000    0.000    0.000    0.000 
#
# Total GULP energy -89504.377470 kJ/mol
# GULP energy per Si atom -5594.023592 kJ/mol
# Density = 2.136392 g / cm^3
# Si number density = 21.412658 Si / 1000 Ang^3
#
#
#
# Elastic Constant Matrix: (Units=GPa)
#
#
# Indices 1 2 3 4 5 6 
#
# 1 175.5171 37.1539 41.0020 -9.5725 0.8918 0.2077
# 2 37.1539 116.2978 24.6637 -10.4436 -13.1041 5.2317
# 3 41.0020 24.6637 73.0807 -10.3118 -7.1730 3.8614
# 4 -9.5725 -10.4436 -10.3118 21.8054 2.5625 -4.5429
# 5 0.8918 -13.1041 -7.1730 2.5625 35.7869 -11.5972
# 6 0.2077 5.2317 3.8614 -4.5429 -11.5972 25.7007
#
#
#
# Elastic Compliance Matrix: (Units=1/GPa)
#
#
# Indices 1 2 3 4 5 6 
#
# 1 0.006868 -0.001573 -0.003347 0.000905 -0.001385 0.000303
# 2 -0.001573 0.010104 -0.001804 0.002960 0.003233 0.000209
# 3 -0.003347 -0.001804 0.017189 0.005484 0.002437 -0.000119
# 4 0.000905 0.002960 0.005484 0.051853 0.001116 0.008236
# 5 -0.001385 0.003233 0.002437 0.001116 0.034325 0.014673
# 6 0.000303 0.000209 -0.000119 0.008236 0.014673 0.046959
#
#
# Mechanical properties :
#
#
# Convention : Reuss Voigt Hill
#
# Bulk Modulus (GPa) = 48.27388 63.39276 55.83332
# Shear Modulus (GPa) = 26.64519 34.13034 30.38776
#
# Velocity S-wave (km/s) = 3.53138 3.99674 3.77125
# Velocity P-wave (km/s) = 6.26267 7.13920 6.71525
#
# Compressibility (1/GPa) = 0.02071514
#
# Stress axis : x y z
#
# Youngs Moduli (GPa) = 145.59717 98.96778 58.17560
#
# Poissons Ratio (x) = 0.15566 0.19471
# Poissons Ratio (y) = 0.22900 0.10493
# Poissons Ratio (z) = 0.48729 0.17851
#
# Static dielectric constant tensor:
#      x y z
#    x 1.759300 -0.026310 -0.021130 
#    y -0.026310 1.793810 -0.027960 
#    z -0.021130 -0.027960 1.776230 
# 
# From -- ./inp_files/522626.got.cif
#   From: 2010.05.17/outbox.ucp.g08.bks.cvg/sg2_262_cif.got.tgz:522626.got - 2010.06.11 11:32:03.
