data_PCOD9072249
_publ_section_title
;
Structure prediction by ZEFSAII (Michael W. Deem and Ramdas Pophale) SiO2 
 PCOD9072249
Probable space group: P -1
;
_chemical_formula_sum "Si O2"
_cell_formula_units_Z 16
_cell_length_a 7.971328
_cell_length_b 8.961029
_cell_length_c 14.260217
_cell_angle_alpha 45.218572
_cell_angle_beta 59.207371
_cell_angle_gamma 81.529685
_cell_volume 581.845256
_symmetry_space_group_name_H-M "P -1"
_symmetry_group_IT_number 2
_symmetry_cell_setting 'triclinic'
loop_
_space_group_symop_operation_xyz
x,y,z
-x,-y,-z
loop_
_atom_site_type_symbol
_atom_site_label
_atom_site_fract_x
_atom_site_fract_y
_atom_site_fract_z
Si Si1 0.997820 0.787533 0.924762
Si Si2 0.466788 0.731742 0.505561
Si Si3 0.828288 0.341660 0.686797
Si Si4 0.594077 0.214916 0.146210
Si Si5 0.876507 0.154458 0.352242
Si Si6 0.743681 0.667262 0.696486
Si Si7 0.598850 0.872126 0.955081
Si Si8 0.820509 0.736817 0.287285
O O1 0.158827 0.660259 0.958899
O O2 0.107303 0.999301 0.870167
O O3 0.753841 0.758504 0.007465
O O4 0.050844 0.834355 0.779439
O O5 0.502139 0.952403 0.328756
O O6 0.331996 0.780092 0.606896
O O7 0.695173 0.717476 0.430598
O O8 0.326733 0.474822 0.633330
O O9 0.693080 0.465401 0.724656
O O10 0.745024 0.107412 0.759881
O O11 0.000000 0.500000 0.500000
O O12 0.962518 0.296273 0.752384
O O13 0.552468 0.235238 0.039534
O O14 0.454571 0.330159 0.189820
O O15 0.059316 0.299435 0.305832
O O16 0.814621 0.899353 0.516081
O O17 0.500000 0.000000 0.000000
#
# Coordination Sequence:
#
# PCOD9072249 Si02
#       8
#     2   2   2   2   2   2   2   2
#     4  10  21  36  57  83 110 156 199 236 288 352
#     4   9  17  29  50  80 119 154 184 238 294 337
#     4  11  21  34  60  89 118 154 195 239 293 346
#     4  10  21  37  58  82 115 153 199 242 286 350
#     4  10  18  30  53  84 120 155 195 232 291 350
#     4  10  19  32  55  85 119 158 194 237 290 348
#     4  11  24  42  63  87 116 154 196 245 298 348
#     4   9  17  28  45  79 117 148 188 231 285 335
#
# _framework density 27.498721
#
# number of rings (size 3 to 8) (size 9 to 14) (size 15 to 20)
#    0.000    2.000    2.500    2.250    1.750    6.000 
#    0.000    0.625    0.000    0.750    0.000    0.000 
#    0.000    0.000    0.000    0.000    0.000    0.000 
#
# Total GULP energy -89226.399428 kJ/mol
# GULP energy per Si atom -5576.649964 kJ/mol
# Density = 2.743613 g / cm^3
# Si number density = 27.498721 Si / 1000 Ang^3
#
#
#
# Elastic Constant Matrix: (Units=GPa)
#
#
# Indices 1 2 3 4 5 6 
#
# 1 134.9434 47.6162 45.2569 28.3024 -33.2888 -4.8297
# 2 47.6162 124.5528 27.9621 13.3743 -4.9600 -3.4005
# 3 45.2569 27.9621 66.1209 24.9317 -7.8275 -14.7005
# 4 28.3024 13.3743 24.9317 54.3556 -13.2475 -21.2955
# 5 -33.2888 -4.9600 -7.8275 -13.2475 47.1006 7.6624
# 6 -4.8297 -3.4005 -14.7005 -21.2955 7.6624 43.3002
#
#
#
# Elastic Compliance Matrix: (Units=1/GPa)
#
#
# Indices 1 2 3 4 5 6 
#
# 1 0.012947 -0.003004 -0.006525 -0.002571 0.007616 -0.003619
# 2 -0.003004 0.009618 -0.002129 -0.000257 -0.001510 -0.000162
# 3 -0.006525 -0.002129 0.023314 -0.005705 -0.003348 0.004807
# 4 -0.002571 -0.000257 -0.005705 0.027362 0.003170 0.010652
# 5 0.007616 -0.001510 -0.003348 0.003170 0.027391 -0.003694
# 6 -0.003619 -0.000162 0.004807 0.010652 -0.003694 0.030203
#
#
# Mechanical properties :
#
#
# Convention : Reuss Voigt Hill
#
# Bulk Modulus (GPa) = 44.32070 63.03195 53.67632
# Shear Modulus (GPa) = 30.92678 42.60341 36.76509
#
# Velocity S-wave (km/s) = 3.35724 3.94037 3.66043
# Velocity P-wave (km/s) = 5.58394 6.60860 6.11776
#
# Compressibility (1/GPa) = 0.02256282
#
# Stress axis : x y z
#
# Youngs Moduli (GPa) = 77.23571 103.96873 42.89342
#
# Poissons Ratio (x) = 0.31236 0.27988
# Poissons Ratio (y) = 0.23204 0.09132
# Poissons Ratio (z) = 0.50396 0.22134
#
# Static dielectric constant tensor:
#      x y z
#    x 0.946970 1.163630 -0.472480 
#    y 1.163630 1.251610 0.136560 
#    z -0.472480 0.136560 2.306610 
# 
# From -- ./inp_files/494602.got.cif
#   From: 2010.05.17/outbox.cif.g08.bks.cpg/sg2_248_cif.got.tgz:494602.got - 2010.06.03 11:33:40.
