data_PCOD9072569
_publ_section_title
;
Structure prediction by ZEFSAII (Michael W. Deem and Ramdas Pophale) SiO2 
 PCOD9072569
Probable space group: P -1
;
_chemical_formula_sum "Si O2"
_cell_formula_units_Z 16
_cell_length_a 9.000000
_cell_length_b 18.000000
_cell_length_c 9.000000
_cell_angle_alpha 100.000000
_cell_angle_beta 140.000000
_cell_angle_gamma 60.000000
_cell_volume 752.029055
_symmetry_space_group_name_H-M "P -1"
_symmetry_group_IT_number 2
_symmetry_cell_setting 'triclinic'
loop_
_space_group_symop_operation_xyz
x,y,z
-x,-y,-z
loop_
_atom_site_type_symbol
_atom_site_label
_atom_site_fract_x
_atom_site_fract_y
_atom_site_fract_z
Si Si1 0.205940 0.789718 0.096059
Si Si2 0.270637 0.935602 0.288854
Si Si3 0.844722 0.256206 0.441121
Si Si4 0.855500 0.658713 0.460184
Si Si5 0.213865 0.387811 0.919522
Si Si6 0.710049 0.455801 0.999687
Si Si7 0.844601 0.335674 0.791085
Si Si8 0.180704 0.095990 0.444180
O O1 0.256451 0.849109 0.270194
O O2 0.523142 0.713487 0.256111
O O3 0.051837 0.751185 0.051531
O O4 0.031526 0.844451 0.834452
O O5 0.539270 0.909502 0.385886
O O6 0.256432 0.993647 0.439508
O O7 0.000000 0.000000 0.000000
O O8 0.539570 0.298974 0.148293
O O9 0.783519 0.301106 0.576467
O O10 0.017626 0.288329 0.494650
O O11 0.040593 0.146808 0.510807
O O12 0.006690 0.621394 0.721881
O O13 0.907102 0.593828 0.335617
O O14 0.239258 0.471058 0.002686
O O15 0.037779 0.367378 0.887805
O O16 0.500000 0.500000 0.000000
O O17 0.641968 0.416395 0.789050
#
# Coordination Sequence:
#
# PCOD9072569 Si02
#       8
#     2   2   2   2   2   2   2   2
#     4  11  21  40  64  96 128 164 215 257 309 377
#     4   9  20  34  67 103 126 156 208 265 304 363
#     4  11  22  42  64  91 131 169 208 260 322 378
#     4  11  22  40  68  93 116 169 222 265 311 370
#     4  11  24  44  61  92 128 170 209 268 325 374
#     4  12  24  45  65  90 123 166 225 274 312 365
#     4  11  28  39  61  95 130 172 207 259 325 384
#     4  10  19  39  68  98 126 161 212 258 310 369
#
# _framework density 21.275773999999998
#
# number of rings (size 3 to 8) (size 9 to 14) (size 15 to 20)
#    0.000    1.250    3.750    2.250    1.750    0.500 
#    0.000    0.625    0.000    7.500    0.000    0.000 
#    0.000    0.000    0.000    0.000    0.000    0.000 
#
# Total GULP energy -89091.536664 kJ/mol
# GULP energy per Si atom -5568.221041 kJ/mol
# Density = 2.122735 g / cm^3
# Si number density = 21.275774 Si / 1000 Ang^3
#
#
#
# Elastic Constant Matrix: (Units=GPa)
#
#
# Indices 1 2 3 4 5 6 
#
# 1 99.9570 39.1331 26.9431 3.1114 -5.6250 -5.0453
# 2 39.1331 116.7049 1.0015 31.8192 -9.8833 -13.9452
# 3 26.9431 1.0015 63.1027 1.3549 9.6682 -21.5061
# 4 3.1114 31.8192 1.3549 29.2175 -5.5573 -1.6968
# 5 -5.6250 -9.8833 9.6682 -5.5573 23.2360 8.4014
# 6 -5.0453 -13.9452 -21.5061 -1.6968 8.4014 43.8050
#
#
#
# Elastic Compliance Matrix: (Units=1/GPa)
#
#
# Indices 1 2 3 4 5 6 
#
# 1 0.015831 -0.007606 -0.010900 0.008548 0.009895 -0.007516
# 2 -0.007606 0.016487 0.006821 -0.017918 -0.004827 0.007953
# 3 -0.010900 0.006821 0.030841 -0.010792 -0.022357 0.019927
# 4 0.008548 -0.017918 -0.010792 0.055783 0.016248 -0.010974
# 5 0.009895 -0.004827 -0.022357 0.016248 0.064956 -0.023202
# 6 -0.007516 0.007953 0.019927 -0.010974 -0.023202 0.038303
#
#
# Mechanical properties :
#
#
# Convention : Reuss Voigt Hill
#
# Bulk Modulus (GPa) = 25.13189 45.99112 35.56151
# Shear Modulus (GPa) = 19.31735 33.43083 26.37409
#
# Velocity S-wave (km/s) = 3.01649 3.96828 3.52466
# Velocity P-wave (km/s) = 4.89596 6.53145 5.77193
#
# Compressibility (1/GPa) = 0.03979008
#
# Stress axis : x y z
#
# Youngs Moduli (GPa) = 63.16592 60.65309 32.42398
#
# Poissons Ratio (x) = 0.46131 0.35341
# Poissons Ratio (y) = 0.48042 -0.22115
# Poissons Ratio (z) = 0.68850 -0.41369
#
# Static dielectric constant tensor:
#      x y z
#    x 1.730000 -0.024360 0.007950 
#    y -0.024360 1.935620 -0.001970 
#    z 0.007950 -0.001970 1.778330 
# 
# From -- ./inp_files/39001.got.cif
#   From: 2010.05.17/outbox.ucp.g08.bks.cvg/sg2_20_cif.got.tgz:39001.got - 2010.06.11 11:32:03.
