data_PCOD9072836
_publ_section_title
;
Structure prediction by ZEFSAII (Michael W. Deem and Ramdas Pophale) SiO2 
 PCOD9072836
Probable space group: P -1
;
_chemical_formula_sum "Si O2"
_cell_formula_units_Z 14
_cell_length_a 9.000000
_cell_length_b 12.000000
_cell_length_c 9.000000
_cell_angle_alpha 70.000000
_cell_angle_beta 110.000000
_cell_angle_gamma 130.000000
_cell_volume 689.539475
_symmetry_space_group_name_H-M "P -1"
_symmetry_group_IT_number 2
_symmetry_cell_setting 'triclinic'
loop_
_space_group_symop_operation_xyz
x,y,z
-x,-y,-z
loop_
_atom_site_type_symbol
_atom_site_label
_atom_site_fract_x
_atom_site_fract_y
_atom_site_fract_z
Si Si1 0.204878 0.057262 0.617037
Si Si2 0.959952 0.369497 0.655274
Si Si3 0.591543 0.498036 0.877679
Si Si4 0.235746 0.315719 0.625476
Si Si5 0.765882 0.374288 0.160245
Si Si6 0.034454 0.270785 0.256355
Si Si7 0.553025 0.161238 0.473679
O O1 0.253313 0.182148 0.691356
O O2 0.364117 0.128730 0.507517
O O3 0.000000 0.000000 0.500000
O O4 0.141995 0.903407 0.731917
O O5 0.058976 0.293088 0.668268
O O6 0.082619 0.460051 0.799328
O O7 0.000000 0.500000 0.500000
O O8 0.728066 0.249304 0.614963
O O9 0.436910 0.449317 0.711774
O O10 0.793670 0.656500 0.838684
O O11 0.500000 0.500000 0.000000
O O12 0.645256 0.384384 0.983490
O O13 0.162688 0.319958 0.432329
O O14 0.630556 0.261754 0.303035
O O15 0.913986 0.338146 0.178784
O O16 0.500000 0.000000 0.500000
#
# Coordination Sequence:
#
# PCOD9072836 Si02
#       7
#     2   2   2   2   2   2   2
#     4  10  23  39  66 101 128 165 224 274 317 374
#     4  10  20  37  66  94 126 168 220 262 314 387
#     4  12  27  41  64 100 136 169 212 276 339 372
#     4  11  22  43  67 100 126 173 222 269 322 385
#     4  11  23  42  65  96 131 170 214 273 326 383
#     4  11  23  45  67  92 131 174 223 262 318 402
#     4  11  20  40  69  98 128 170 225 264 319 395
#
# _framework density 20.303405999999999
#
# number of rings (size 3 to 8) (size 9 to 14) (size 15 to 20)
#    0.000    1.143    5.714    1.714    6.000    0.000 
#    0.000    2.857    0.000    0.000    0.000    0.000 
#    0.000    0.000    0.000    0.000    0.000    0.000 
#
# Total GULP energy -77996.551713 kJ/mol
# GULP energy per Si atom -5571.182265 kJ/mol
# Density = 2.025719 g / cm^3
# Si number density = 20.303406 Si / 1000 Ang^3
#
#
#
# Elastic Constant Matrix: (Units=GPa)
#
#
# Indices 1 2 3 4 5 6 
#
# 1 114.3214 13.3467 -4.0239 2.3157 -0.9034 16.3383
# 2 13.3467 36.7848 -26.1380 7.2712 -3.9356 10.8632
# 3 -4.0239 -26.1380 15.2188 -1.6558 23.3014 0.6551
# 4 2.3157 7.2712 -1.6558 19.7074 6.6453 -1.1820
# 5 -0.9034 -3.9356 23.3014 6.6453 31.1764 1.2010
# 6 16.3383 10.8632 0.6551 -1.1820 1.2010 42.5203
#
#
#
# Elastic Compliance Matrix: (Units=1/GPa)
#
#
# Indices 1 2 3 4 5 6 
#
# 1 0.009432 -0.001364 0.001551 -0.000385 -0.000850 -0.003286
# 2 -0.001364 0.008765 -0.037500 -0.017477 0.032918 -0.002553
# 3 0.001551 -0.037500 -0.054564 -0.002655 0.036322 0.008725
# 4 -0.000385 -0.017477 -0.002655 0.062044 -0.013718 0.006766
# 5 -0.000850 0.032918 0.036322 -0.013718 0.012344 -0.009373
# 6 -0.003286 -0.002553 0.008725 0.006766 -0.009373 0.025751
#
#
# Mechanical properties :
#
#
# Convention : Reuss Voigt Hill
#
# Bulk Modulus (GPa) = -9.00966 14.74386 2.86710
# Shear Modulus (GPa) = 49.30935 30.89019 40.09977
#
# Velocity S-wave (km/s) = 4.93345 3.90478 4.44895
# Velocity P-wave (km/s) = 5.29196 5.25426 5.27314
#
# Compressibility (1/GPa) = -0.11099199
#
# Stress axis : x y z
#
# Youngs Moduli (GPa) = 106.02345 114.09554 -18.32727
#
# Poissons Ratio (x) = 0.15565 0.02843
# Poissons Ratio (y) = 0.14463 -0.68727
# Poissons Ratio (z) = -0.16447 4.27854
#
# Static dielectric constant tensor:
#      x y z
#    x 1.785330 -0.102490 0.014320 
#    y -0.102490 1.916130 -0.050570 
#    z 0.014320 -0.050570 1.746970 
# 
# From -- ./inp_files/157272.got.cif
#   From: 2010.05.17/outbox.ucp.g08.bks.cvg/sg2_79_cif.got.tgz:157272.got - 2010.06.11 11:32:03.
