data_PCOD9072018
_publ_section_title
;
Structure prediction by ZEFSAII (Michael W. Deem and Ramdas Pophale) SiO2 
 PCOD9072018
Probable space group: P -1
;
_chemical_formula_sum "Si O2"
_cell_formula_units_Z 16
_cell_length_a 9.000000
_cell_length_b 12.000000
_cell_length_c 18.000000
_cell_angle_alpha 150.000000
_cell_angle_beta 60.000000
_cell_angle_gamma 130.000000
_cell_volume 736.400153
_symmetry_space_group_name_H-M "P -1"
_symmetry_group_IT_number 2
_symmetry_cell_setting 'triclinic'
loop_
_space_group_symop_operation_xyz
x,y,z
-x,-y,-z
loop_
_atom_site_type_symbol
_atom_site_label
_atom_site_fract_x
_atom_site_fract_y
_atom_site_fract_z
Si Si1 0.263157 0.761580 0.315643
Si Si2 0.054244 0.495466 0.852293
Si Si3 0.519241 0.687654 0.469822
Si Si4 0.568152 0.092650 0.951607
Si Si5 0.882197 0.958896 0.370997
Si Si6 0.891046 0.562745 0.499202
Si Si7 0.734704 0.420905 0.309054
Si Si8 0.534554 0.474765 0.779926
O O1 0.307486 0.589431 0.261421
O O2 0.162783 0.588883 0.168619
O O3 0.436086 0.027423 0.394624
O O4 0.146157 0.880272 0.461315
O O5 0.047432 0.234955 0.729276
O O6 0.165362 0.576747 0.792111
O O7 0.196758 0.724269 0.002202
O O8 0.328182 0.536620 0.478035
O O9 0.692679 0.659196 0.450099
O O10 0.477615 0.548963 0.320134
O O11 0.474370 0.833544 0.779925
O O12 0.472401 0.268166 0.052565
O O13 0.500000 0.000000 0.000000
O O14 0.666431 0.768098 0.284810
O O15 0.002268 0.145057 0.382756
O O16 0.865669 0.424723 0.346853
O O17 0.000000 0.500000 0.500000
#
# Coordination Sequence:
#
# PCOD9072018 Si02
#       8
#     2   2   2   2   2   2   2   2
#     4  11  18  31  56  87 113 135 185 238 278 315
#     4  10  18  33  61  83 102 146 191 231 265 321
#     4  11  21  35  55  85 115 144 179 226 283 334
#     4   9  18  37  57  79 107 148 192 225 268 328
#     4  10  18  35  56  79 116 146 182 225 277 336
#     4  12  24  35  53  86 120 146 173 226 289 333
#     4  11  20  38  58  81 111 152 184 224 272 335
#     4  10  19  34  59  84 110 145 183 235 273 319
#
# _framework density 21.727318
#
# number of rings (size 3 to 8) (size 9 to 14) (size 15 to 20)
#    0.000    1.500    6.250    4.500    0.000    0.000 
#    0.000    3.750    0.000   13.500    0.000    0.000 
#    0.000    0.000    0.000    0.000    0.000    0.000 
#
# Total GULP energy -89132.724507 kJ/mol
# GULP energy per Si atom -5570.795282 kJ/mol
# Density = 2.167787 g / cm^3
# Si number density = 21.727318 Si / 1000 Ang^3
#
#
#
# Elastic Constant Matrix: (Units=GPa)
#
#
# Indices 1 2 3 4 5 6 
#
# 1 96.2071 7.7418 27.6812 6.6798 8.6897 -32.0848
# 2 7.7418 107.9059 17.5369 19.2552 3.9251 -5.6489
# 3 27.6812 17.5369 50.0955 30.3867 4.5103 -10.9716
# 4 6.6798 19.2552 30.3867 19.4289 2.2948 -2.8043
# 5 8.6897 3.9251 4.5103 2.2948 14.1266 -2.5549
# 6 -32.0848 -5.6489 -10.9716 -2.8043 -2.5549 29.7327
#
#
#
# Elastic Compliance Matrix: (Units=1/GPa)
#
#
# Indices 1 2 3 4 5 6 
#
# 1 0.006184 0.010045 0.065757 -0.111107 -0.005583 0.021887
# 2 0.010045 0.002932 -0.057739 0.083931 -0.002594 -0.002217
# 3 0.065757 -0.057739 -0.397109 0.652971 -0.008333 -0.025676
# 4 -0.111107 0.083931 0.652971 -1.009596 0.008232 0.042485
# 5 -0.005583 -0.002594 -0.008333 0.008232 0.075851 -0.002298
# 6 0.021887 -0.002217 -0.025676 0.042485 -0.002298 0.051166
#
#
# Mechanical properties :
#
#
# Convention : Reuss Voigt Hill
#
# Bulk Modulus (GPa) = -2.84197 40.01424 18.58613
# Shear Modulus (GPa) = -3.51127 26.07421 11.28147
#
# Velocity S-wave (km/s) = -1.27262 3.46795 2.28113
# Velocity P-wave (km/s) = 1.86287 5.87300 3.93839
#
# Compressibility (1/GPa) = -0.35186806
#
# Stress axis : x y z
#
# Youngs Moduli (GPa) = 161.71273 341.09600 -2.51820
#
# Poissons Ratio (x) = -3.42618 0.16559
# Poissons Ratio (y) = -1.62434 -0.14540
# Poissons Ratio (z) = -10.63382 19.69462
#
# Static dielectric constant tensor:
#      x y z
#    x 1.910510 0.060900 0.073890 
#    y 0.060900 1.856230 -0.006200 
#    z 0.073890 -0.006200 1.864210 
# 
# From -- ./inp_files/189346.got.cif
#   From: 2010.05.17/outbox.ucp.g08.bks.cvg/sg2_95_cif.got.tgz:189346.got - 2010.06.11 11:32:03.
