data_PCOD9072120
_publ_section_title
;
Structure prediction by ZEFSAII (Michael W. Deem and Ramdas Pophale) SiO2 
 PCOD9072120
Probable space group: P -1
;
_chemical_formula_sum "Si O2"
_cell_formula_units_Z 14
_cell_length_a 9.471674
_cell_length_b 12.486842
_cell_length_c 10.247064
_cell_angle_alpha 34.204907
_cell_angle_beta 61.862985
_cell_angle_gamma 59.980939
_cell_volume 585.726326
_symmetry_space_group_name_H-M "P -1"
_symmetry_group_IT_number 2
_symmetry_cell_setting 'triclinic'
loop_
_space_group_symop_operation_xyz
x,y,z
-x,-y,-z
loop_
_atom_site_type_symbol
_atom_site_label
_atom_site_fract_x
_atom_site_fract_y
_atom_site_fract_z
Si Si1 0.001165 0.737410 0.153986
Si Si2 0.525391 0.887353 0.927992
Si Si3 0.212704 0.339033 0.444472
Si Si4 0.592087 0.267156 0.377477
Si Si5 0.350661 0.924168 0.706007
Si Si6 0.183922 0.862061 0.200252
Si Si7 0.668479 0.496011 0.348548
O O1 0.097013 0.539620 0.244431
O O2 0.119567 0.802790 0.147041
O O3 0.852143 0.685625 0.355588
O O4 0.933157 0.936188 0.906456
O O5 0.364246 0.912910 0.063341
O O6 0.665762 0.721573 0.098004
O O7 0.440130 0.822109 0.898914
O O8 0.584405 0.077106 0.662197
O O9 0.400127 0.357536 0.341866
O O10 0.220703 0.125684 0.592898
O O11 0.689178 0.208528 0.259464
O O12 0.659192 0.411763 0.293725
O O13 0.500000 0.000000 0.500000
O O14 0.196886 0.666156 0.474546
O O15 0.500000 0.500000 0.500000
#
# Coordination Sequence:
#
# PCOD9072120 Si02
#       7
#     2   2   2   2   2   2   2
#     4  10  18  30  52  71 106 130 168 208 239 302
#     4   9  17  34  51  78 104 129 164 211 256 294
#     4   9  16  31  51  79  93 129 169 206 254 288
#     4  10  19  35  54  78 102 129 166 216 254 293
#     4   8  16  31  54  76 100 124 170 212 249 292
#     4  10  19  32  46  77 105 134 163 204 253 301
#     4  10  21  32  49  77 107 131 166 204 258 307
#
# _framework density 23.901947
#
# number of rings (size 3 to 8) (size 9 to 14) (size 15 to 20)
#    0.000    2.857    2.857    1.714    0.000    2.857 
#    5.143    1.429    0.000    1.714    0.000    0.000 
#    0.000    0.000    0.000    0.000    0.000    0.000 
#
# Total GULP energy -78086.636697 kJ/mol
# GULP energy per Si atom -5577.616907 kJ/mol
# Density = 2.384755 g / cm^3
# Si number density = 23.901947 Si / 1000 Ang^3
#
#
#
# Elastic Constant Matrix: (Units=GPa)
#
#
# Indices 1 2 3 4 5 6 
#
# 1 43.5878 22.2271 22.7192 -17.0646 2.4355 2.8392
# 2 22.2271 113.7296 54.8434 -29.0378 20.9566 -0.8676
# 3 22.7192 54.8434 141.0645 -49.8970 27.0744 -21.8663
# 4 -17.0646 -29.0378 -49.8970 41.8516 -13.0269 8.4948
# 5 2.4355 20.9566 27.0744 -13.0269 37.4922 -5.6672
# 6 2.8392 -0.8676 -21.8663 8.4948 -5.6672 31.4024
#
#
#
# Elastic Compliance Matrix: (Units=1/GPa)
#
#
# Indices 1 2 3 4 5 6 
#
# 1 0.029587 -0.003109 -0.001461 0.010502 0.003618 -0.005966
# 2 -0.003109 0.012301 -0.002825 0.003270 -0.003943 -0.002942
# 3 -0.001461 -0.002825 0.014381 0.012250 -0.003531 0.006117
# 4 0.010502 0.003270 0.012250 0.047306 0.004427 -0.004327
# 5 0.003618 -0.003943 -0.003531 0.004427 0.033011 0.001866
# 6 -0.005966 -0.002942 0.006117 -0.004327 0.001866 0.038070
#
#
# Mechanical properties :
#
#
# Convention : Reuss Voigt Hill
#
# Bulk Modulus (GPa) = 24.10725 55.32904 39.71815
# Shear Modulus (GPa) = 24.59772 35.38871 29.99322
#
# Velocity S-wave (km/s) = 3.21145 3.85200 3.54622
# Velocity P-wave (km/s) = 4.88457 6.55610 5.78107
#
# Compressibility (1/GPa) = 0.04148130
#
# Stress axis : x y z
#
# Youngs Moduli (GPa) = 33.79863 81.29168 69.53521
#
# Poissons Ratio (x) = 0.25271 0.10159
# Poissons Ratio (y) = 0.10507 0.19641
# Poissons Ratio (z) = 0.04938 0.22962
#
# Static dielectric constant tensor:
#      x y z
#    x 2.015070 0.041460 -0.021620 
#    y 0.041460 1.972110 -0.000990 
#    z -0.021620 -0.000990 1.939460 
# 
# From -- ./inp_files/432259.got.cif
#   From: 2010.05.17/outbox.cif.g08.bks.cpg/sg2_217_cif.got.tgz:432259.got - 2010.06.03 11:33:40.
