data_PCOD9072243
_publ_section_title
;
Structure prediction by ZEFSAII (Michael W. Deem and Ramdas Pophale) SiO2 
 PCOD9072243
Probable space group: P -1
;
_chemical_formula_sum "Si O2"
_cell_formula_units_Z 16
_cell_length_a 18.000000
_cell_length_b 12.000000
_cell_length_c 27.000000
_cell_angle_alpha 150.000000
_cell_angle_beta 20.000000
_cell_angle_gamma 140.000000
_cell_volume 957.657604
_symmetry_space_group_name_H-M "P -1"
_symmetry_group_IT_number 2
_symmetry_cell_setting 'triclinic'
loop_
_space_group_symop_operation_xyz
x,y,z
-x,-y,-z
loop_
_atom_site_type_symbol
_atom_site_label
_atom_site_fract_x
_atom_site_fract_y
_atom_site_fract_z
Si Si1 0.911049 0.546414 0.325859
Si Si2 0.346664 0.592191 0.829343
Si Si3 0.491725 0.018731 0.249237
Si Si4 0.139103 0.769195 0.851794
Si Si5 0.824019 0.256211 0.363076
Si Si6 0.439848 0.497757 0.978510
Si Si7 0.321036 0.110236 0.029300
Si Si8 0.916950 0.721684 0.074841
O O1 0.752599 0.801662 0.534598
O O2 0.828570 0.441319 0.287866
O O3 0.883692 0.373350 0.320431
O O4 0.169453 0.555740 0.163435
O O5 0.590126 0.426090 0.595655
O O6 0.242037 0.445909 0.878380
O O7 0.152535 0.635449 0.924933
O O8 0.368286 0.854462 0.927401
O O9 0.643447 0.160185 0.236646
O O10 0.479947 0.779433 0.190964
O O11 0.604444 0.953649 0.099379
O O12 0.992640 0.719742 0.970125
O O13 0.000000 0.000000 0.000000
O O14 0.049219 0.223559 0.243099
O O15 0.807752 0.993472 0.262698
O O16 0.500000 0.500000 0.000000
O O17 0.551021 0.692756 0.960785
#
# Coordination Sequence:
#
# PCOD9072243 Si02
#       8
#     2   2   2   2   2   2   2   2
#     4  12  21  31  56  79 109 143 172 212 268 320
#     4  10  20  33  54  75 107 136 177 218 258 308
#     4  11  20  34  49  80 108 138 174 211 264 320
#     4  12  19  36  55  76 113 144 167 212 267 320
#     4  11  17  32  50  78 104 138 169 212 264 310
#     4  10  20  34  49  77 110 139 173 221 265 310
#     4  10  19  33  52  74 109 135 171 217 263 304
#     4  10  20  35  50  78 106 140 174 214 258 314
#
# _framework density 16.707433000000002
#
# number of rings (size 3 to 8) (size 9 to 14) (size 15 to 20)
#    0.000    1.250    8.750    0.750    0.000    3.000 
#    0.000    0.000    0.000    0.750    0.000    1.750 
#    0.000    0.000    0.000    0.000    0.000    0.000 
#
# Total GULP energy -89131.544664 kJ/mol
# GULP energy per Si atom -5570.721541 kJ/mol
# Density = 1.666941 g / cm^3
# Si number density = 16.707433 Si / 1000 Ang^3
#
#
#
# Elastic Constant Matrix: (Units=GPa)
#
#
# Indices 1 2 3 4 5 6 
#
# 1 34.7964 25.9569 16.2409 -2.2928 -1.0555 0.9368
# 2 25.9569 180.9260 49.4450 1.8471 -4.5978 -2.8121
# 3 16.2409 49.4450 115.3295 14.7281 -15.3124 -2.7910
# 4 -2.2928 1.8471 14.7281 21.4887 -3.5420 -2.4835
# 5 -1.0555 -4.5978 -15.3124 -3.5420 16.9725 -0.0793
# 6 0.9368 -2.8121 -2.7910 -2.4835 -0.0793 33.4304
#
#
#
# Elastic Compliance Matrix: (Units=1/GPa)
#
#
# Indices 1 2 3 4 5 6 
#
# 1 0.033972 -0.003854 -0.004162 0.006454 -0.001345 -0.001147
# 2 -0.003854 0.006750 -0.002496 0.000694 -0.000515 0.000518
# 3 -0.004162 -0.002496 0.012427 -0.007253 0.008765 0.000426
# 4 0.006454 0.000694 -0.007253 0.053369 0.005199 0.003249
# 5 -0.001345 -0.000515 0.008765 0.005199 0.067694 0.001273
# 6 -0.001147 0.000518 0.000426 0.003249 0.001273 0.030269
#
#
# Mechanical properties :
#
#
# Convention : Reuss Voigt Hill
#
# Bulk Modulus (GPa) = 31.12856 57.14862 44.13859
# Shear Modulus (GPa) = 21.16737 30.33893 25.75315
#
# Velocity S-wave (km/s) = 3.56328 4.26595 3.93035
# Velocity P-wave (km/s) = 5.96668 7.65142 6.86096
#
# Compressibility (1/GPa) = 0.03212484
#
# Stress axis : x y z
#
# Youngs Moduli (GPa) = 29.43617 148.14848 80.46867
#
# Poissons Ratio (x) = 0.57101 0.33492
# Poissons Ratio (y) = 0.11346 0.20082
# Poissons Ratio (z) = 0.12252 0.36973
#
# Static dielectric constant tensor:
#      x y z
#    x 1.574380 0.000660 -0.013110 
#    y 0.000660 1.592060 0.011180 
#    z -0.013110 0.011180 1.577650 
# 
# From -- ./inp_files/432590.got.cif
#   From: 2010.05.17/outbox.ucp.g08.bks.cvg/sg2_217_cif.got.tgz:432590.got - 2010.06.11 11:32:03.
