data_PCOD9072345
_publ_section_title
;
Structure prediction by ZEFSAII (Michael W. Deem and Ramdas Pophale) SiO2 
 PCOD9072345
Probable space group: P -1
;
_chemical_formula_sum "Si O2"
_cell_formula_units_Z 16
_cell_length_a 11.021443
_cell_length_b 8.694834
_cell_length_c 10.499112
_cell_angle_alpha 42.031486
_cell_angle_beta 96.365669
_cell_angle_gamma 82.712361
_cell_volume 635.537911
_symmetry_space_group_name_H-M "P -1"
_symmetry_group_IT_number 2
_symmetry_cell_setting 'triclinic'
loop_
_space_group_symop_operation_xyz
x,y,z
-x,-y,-z
loop_
_atom_site_type_symbol
_atom_site_label
_atom_site_fract_x
_atom_site_fract_y
_atom_site_fract_z
Si Si1 0.166033 0.670293 0.716737
Si Si2 0.555499 0.375016 0.257226
Si Si3 0.143660 0.478400 0.567194
Si Si4 0.614768 0.766394 0.394860
Si Si5 0.595569 0.246586 0.800135
Si Si6 0.345264 0.150089 0.362476
Si Si7 0.127281 0.964136 0.120151
Si Si8 0.919487 0.810065 0.758842
O O1 0.315013 0.622482 0.799423
O O2 0.160493 0.489935 0.712768
O O3 0.062657 0.678750 0.808057
O O4 0.117863 0.932260 0.479433
O O5 0.488422 0.630798 0.161073
O O6 0.437736 0.297327 0.232768
O O7 0.614426 0.131725 0.505540
O O8 0.255559 0.262818 0.650152
O O9 0.156887 0.718538 0.356153
O O10 0.000000 0.500000 0.500000
O O11 0.607314 0.498575 0.589455
O O12 0.491259 0.867287 0.228046
O O13 0.633474 0.872173 0.468559
O O14 0.742770 0.073827 0.922799
O O15 0.196813 0.284131 0.240545
O O16 0.094001 0.156032 0.112659
O O17 0.000000 0.000000 0.000000
#
# Coordination Sequence:
#
# PCOD9072345 Si02
#       8
#     2   2   2   2   2   2   2   2
#     4   9  16  29  47  78 110 136 166 222 287 323
#     4   9  16  27  45  75 109 134 168 223 280 325
#     4  10  18  30  55  83 112 137 177 229 280 324
#     4   9  16  26  47  82 108 134 171 229 276 312
#     4   9  17  29  50  73 105 139 185 222 265 318
#     4   9  17  24  44  79 113 133 173 227 281 317
#     4  10  22  37  55  75 107 154 191 217 265 336
#     4   9  18  30  48  75 109 140 176 222 269 325
#
# _framework density 25.175526000000001
#
# number of rings (size 3 to 8) (size 9 to 14) (size 15 to 20)
#    0.000    2.750    1.250    0.750   12.250    1.000 
#    0.000    0.000    0.000   13.500    0.000    0.000 
#    0.000    0.000    0.000    0.000    0.000    0.000 
#
# Total GULP energy -89262.718041 kJ/mol
# GULP energy per Si atom -5578.919878 kJ/mol
# Density = 2.511822 g / cm^3
# Si number density = 25.175526 Si / 1000 Ang^3
#
#
#
# Elastic Constant Matrix: (Units=GPa)
#
#
# Indices 1 2 3 4 5 6 
#
# 1 222.2569 86.9658 42.8295 1.5467 55.7757 -35.3911
# 2 86.9658 129.1776 48.6273 5.0701 21.5456 -19.3701
# 3 42.8295 48.6273 92.6844 -2.3344 1.7598 -10.6361
# 4 1.5467 5.0701 -2.3344 22.3795 8.4828 7.0159
# 5 55.7757 21.5456 1.7598 8.4828 29.6808 -7.7352
# 6 -35.3911 -19.3701 -10.6361 7.0159 -7.7352 44.9265
#
#
#
# Elastic Compliance Matrix: (Units=1/GPa)
#
#
# Indices 1 2 3 4 5 6 
#
# 1 0.012162 -0.003352 -0.002975 0.006948 -0.021544 0.002637
# 2 -0.003352 0.012378 -0.004791 -0.003309 -0.000958 0.001914
# 3 -0.002975 -0.004791 0.014569 -0.000616 0.008538 0.000606
# 4 0.006948 -0.003309 -0.000616 0.059798 -0.030493 -0.010688
# 5 -0.021544 -0.000958 0.008538 -0.030493 0.084091 0.003878
# 6 0.002637 0.001914 0.000606 -0.010688 0.003878 0.027641
#
#
# Mechanical properties :
#
#
# Convention : Reuss Voigt Hill
#
# Bulk Modulus (GPa) = 59.26143 88.99600 74.12872
# Shear Modulus (GPa) = 20.96443 37.11045 29.03744
#
# Velocity S-wave (km/s) = 2.88884 3.84352 3.39986
# Velocity P-wave (km/s) = 5.89216 7.42454 6.70229
#
# Compressibility (1/GPa) = 0.01687438
#
# Stress axis : x y z
#
# Youngs Moduli (GPa) = 82.22251 80.78882 68.63698
#
# Poissons Ratio (x) = 0.27081 0.20418
# Poissons Ratio (y) = 0.27561 0.32882
# Poissons Ratio (z) = 0.24460 0.38704
#
# Static dielectric constant tensor:
#      x y z
#    x 2.047200 -0.055050 -0.006010 
#    y -0.055050 2.072580 -0.012850 
#    z -0.006010 -0.012850 1.905670 
# 
# From -- ./inp_files/414345.got.cif
#   From: 2010.05.17/outbox.cif.g08.bks.cpg/sg2_208_cif.got.tgz:414345.got - 2010.06.03 11:33:40.
