data_PCOD9072362
_publ_section_title
;
Structure prediction by ZEFSAII (Michael W. Deem and Ramdas Pophale) SiO2 
 PCOD9072362
Probable space group: P -1
;
_chemical_formula_sum "Si O2"
_cell_formula_units_Z 16
_cell_length_a 15.000000
_cell_length_b 15.000000
_cell_length_c 12.000000
_cell_angle_alpha 120.000000
_cell_angle_beta 150.000000
_cell_angle_gamma 40.000000
_cell_volume 747.221570
_symmetry_space_group_name_H-M "P -1"
_symmetry_group_IT_number 2
_symmetry_cell_setting 'triclinic'
loop_
_space_group_symop_operation_xyz
x,y,z
-x,-y,-z
loop_
_atom_site_type_symbol
_atom_site_label
_atom_site_fract_x
_atom_site_fract_y
_atom_site_fract_z
Si Si1 0.525572 0.589118 0.798105
Si Si2 0.747116 0.972319 0.744547
Si Si3 0.448075 0.237186 0.426328
Si Si4 0.056009 0.703387 0.063936
Si Si5 0.321110 0.832615 0.011196
Si Si6 0.196422 0.842589 0.434985
Si Si7 0.166009 0.386533 0.714768
Si Si8 0.369405 0.450412 0.662549
O O1 0.657418 0.482038 0.762282
O O2 0.295910 0.772506 0.622774
O O3 0.434225 0.535757 0.743481
O O4 0.765599 0.547744 0.091416
O O5 0.500000 0.000000 0.500000
O O6 0.710467 0.053504 0.643819
O O7 0.704777 0.073884 0.859015
O O8 0.007841 0.787469 0.946766
O O9 0.543040 0.241492 0.414688
O O10 0.395624 0.353308 0.530458
O O11 0.187842 0.272566 0.163786
O O12 0.070861 0.788779 0.221722
O O13 0.545132 0.775371 0.128653
O O14 0.439588 0.678265 0.107549
O O15 0.030306 0.967755 0.715099
O O16 0.000000 0.500000 0.500000
O O17 0.953452 0.406810 0.559337
#
# Coordination Sequence:
#
# PCOD9072362 Si02
#       8
#     2   2   2   2   2   2   2   2
#     4  12  24  38  61  92 123 159 197 251 299 353
#     4   8  17  32  57  90 117 148 193 247 295 344
#     4  10  19  35  60  91 123 161 193 241 306 356
#     4  10  20  35  57  90 126 155 194 245 296 357
#     4   9  21  40  61  85 121 160 198 248 293 356
#     4  11  24  38  57  94 129 156 193 242 308 368
#     4  10  23  44  64  86 117 158 211 251 291 347
#     4  10  21  39  65  90 116 158 209 248 293 348
#
# _framework density 21.412658
#
# number of rings (size 3 to 8) (size 9 to 14) (size 15 to 20)
#    0.000    2.000    2.500    0.375    3.500    5.500 
#    0.000    4.375    0.000    0.000    0.000    0.000 
#    0.000    0.000    0.000    0.000    0.000    0.000 
#
# Total GULP energy -89197.368688 kJ/mol
# GULP energy per Si atom -5574.835543 kJ/mol
# Density = 2.136392 g / cm^3
# Si number density = 21.412658 Si / 1000 Ang^3
#
#
#
# Elastic Constant Matrix: (Units=GPa)
#
#
# Indices 1 2 3 4 5 6 
#
# 1 97.0932 43.3548 38.4330 -26.2186 9.0186 15.3900
# 2 43.3548 26.0919 17.2515 -12.9903 -2.7804 20.4576
# 3 38.4330 17.2515 56.9298 -6.7188 -5.3153 0.1124
# 4 -26.2186 -12.9903 -6.7188 26.6114 -4.3376 -3.8703
# 5 9.0186 -2.7804 -5.3153 -4.3376 30.9487 -8.2636
# 6 15.3900 20.4576 0.1124 -3.8703 -8.2636 23.1775
#
#
#
# Elastic Compliance Matrix: (Units=1/GPa)
#
#
# Indices 1 2 3 4 5 6 
#
# 1 0.000739 0.094008 -0.027345 0.024843 -0.015614 -0.084753
# 2 0.094008 -0.361641 0.042547 -0.034419 0.010580 0.254600
# 3 -0.027345 0.042547 0.024221 -0.000370 0.011795 -0.015371
# 4 0.024843 -0.034419 -0.000370 0.048925 0.002599 0.022983
# 5 -0.015614 0.010580 0.011795 0.002599 0.044847 0.017396
# 6 -0.084753 0.254600 -0.015371 0.022983 0.017396 -0.115186
#
#
# Mechanical properties :
#
#
# Convention : Reuss Voigt Hill
#
# Bulk Modulus (GPa) = -8.45588 42.02150 16.78281
# Shear Modulus (GPa) = -8.11771 21.55256 6.71743
#
# Velocity S-wave (km/s) = -1.94918 3.17603 1.77312
# Velocity P-wave (km/s) = 3.00389 5.75472 3.47084
#
# Compressibility (1/GPa) = -0.11826087
#
# Stress axis : x y z
#
# Youngs Moduli (GPa) = 1353.22505 -2.76517 41.28711
#
# Poissons Ratio (x) = 0.25995 1.12899
# Poissons Ratio (y) = -127.21389 -1.75665
# Poissons Ratio (z) = 37.00369 0.11765
#
# Static dielectric constant tensor:
#      x y z
#    x 1.805370 -0.034670 0.002770 
#    y -0.034670 1.781500 -0.071750 
#    z 0.002770 -0.071750 1.851640 
# 
# From -- ./inp_files/426443.got.cif
#   From: 2010.05.17/outbox.ucp.g08.bks.cvg/sg2_214_cif.got.tgz:426443.got - 2010.06.11 11:32:03.
