data_PCOD9072432
_publ_section_title
;
Structure prediction by ZEFSAII (Michael W. Deem and Ramdas Pophale) SiO2 
 PCOD9072432
Probable space group: P -1
;
_chemical_formula_sum "Si O2"
_cell_formula_units_Z 16
_cell_length_a 12.000000
_cell_length_b 9.000000
_cell_length_c 15.000000
_cell_angle_alpha 80.000000
_cell_angle_beta 40.000000
_cell_angle_gamma 60.000000
_cell_volume 835.587839
_symmetry_space_group_name_H-M "P -1"
_symmetry_group_IT_number 2
_symmetry_cell_setting 'triclinic'
loop_
_space_group_symop_operation_xyz
x,y,z
-x,-y,-z
loop_
_atom_site_type_symbol
_atom_site_label
_atom_site_fract_x
_atom_site_fract_y
_atom_site_fract_z
Si Si1 0.766667 0.348162 0.150487
Si Si2 0.967791 0.998814 0.411080
Si Si3 0.135930 0.207070 0.646333
Si Si4 0.624685 0.089179 0.940818
Si Si5 0.759559 0.837359 0.053448
Si Si6 0.477556 0.257140 0.651536
Si Si7 0.558708 0.170011 0.401311
Si Si8 0.751970 0.544464 0.960587
O O1 0.671885 0.532467 0.247870
O O2 0.651504 0.255852 0.271575
O O3 0.724231 0.424662 0.065328
O O4 0.020419 0.222159 0.028225
O O5 0.722895 0.174406 0.531497
O O6 0.952577 0.846460 0.378872
O O7 0.000000 0.000000 0.500000
O O8 0.157429 0.991423 0.241911
O O9 0.345224 0.198641 0.489522
O O10 0.947855 0.396118 0.791136
O O11 0.243576 0.040494 0.671895
O O12 0.456787 0.305510 0.988053
O O13 0.500000 0.000000 0.000000
O O14 0.681260 0.016296 0.017851
O O15 0.603330 0.845819 0.226575
O O16 0.795875 0.674206 0.980664
O O17 0.476401 0.248436 0.545280
#
# Coordination Sequence:
#
# PCOD9072432 Si02
#       8
#     2   2   2   2   2   2   2   2
#     4  11  20  34  62  95 121 157 205 253 300 358
#     4  11  22  40  62  83 115 160 205 250 305 366
#     4  10  22  39  59  84 123 164 198 252 311 363
#     4  10  22  40  62  88 119 159 204 250 299 359
#     4  10  19  36  63  93 122 162 206 249 298 353
#     4  10  20  36  63  92 123 158 202 254 299 361
#     4  10  21  37  58  92 128 157 197 251 314 361
#     4  10  21  38  58  87 127 162 203 251 301 362
#
# _framework density 19.148195999999999
#
# number of rings (size 3 to 8) (size 9 to 14) (size 15 to 20)
#    0.000    1.750    0.000    7.125    0.000    3.000 
#    0.000    6.250    0.000   16.500    0.000    0.000 
#    0.000    0.000    0.000    0.000    0.000    0.000 
#
# Total GULP energy -89102.513458 kJ/mol
# GULP energy per Si atom -5568.907091 kJ/mol
# Density = 1.910461 g / cm^3
# Si number density = 19.148196 Si / 1000 Ang^3
#
#
#
# Elastic Constant Matrix: (Units=GPa)
#
#
# Indices 1 2 3 4 5 6 
#
# 1 100.1650 31.5782 41.4543 -13.0742 -9.8779 -7.2029
# 2 31.5782 108.9564 55.2891 -22.8279 -6.5325 -27.4389
# 3 41.4543 55.2891 148.1692 -18.0278 -20.8581 -7.5419
# 4 -13.0742 -22.8279 -18.0278 53.3750 5.0269 0.3014
# 5 -9.8779 -6.5325 -20.8581 5.0269 40.5125 1.1025
# 6 -7.2029 -27.4389 -7.5419 0.3014 1.1025 34.7592
#
#
#
# Elastic Compliance Matrix: (Units=1/GPa)
#
#
# Indices 1 2 3 4 5 6 
#
# 1 0.011817 -0.001819 -0.002278 0.001227 0.001250 0.000468
# 2 -0.001819 0.015612 -0.004319 0.004809 -0.001046 0.011002
# 3 -0.002278 -0.004319 0.009464 0.000462 0.003616 -0.001947
# 4 0.001227 0.004809 0.000462 0.021362 -0.001448 0.004012
# 5 0.001250 -0.001046 0.003616 -0.001448 0.026878 -0.000622
# 6 0.000468 0.011002 -0.001947 0.004012 -0.000622 0.037114
#
#
# Mechanical properties :
#
#
# Convention : Reuss Voigt Hill
#
# Bulk Modulus (GPa) = 49.84715 68.21487 59.03101
# Shear Modulus (GPa) = 34.30127 40.99392 37.64759
#
# Velocity S-wave (km/s) = 4.23703 4.63198 4.43890
# Velocity P-wave (km/s) = 7.07287 8.01929 7.56090
#
# Compressibility (1/GPa) = 0.02006133
#
# Stress axis : x y z
#
# Youngs Moduli (GPa) = 84.62446 64.05232 105.66060
#
# Poissons Ratio (x) = 0.11650 0.24073
# Poissons Ratio (y) = 0.15391 0.45634
# Poissons Ratio (z) = 0.19280 0.27664
#
# Static dielectric constant tensor:
#      x y z
#    x 1.717420 0.013530 0.006500 
#    y 0.013530 1.717470 0.007520 
#    z 0.006500 0.007520 1.663500 
# 
# From -- ./inp_files/515509.got.cif
#   From: 2010.05.17/outbox.ucp.g08.bks.cvg/sg2_258_cif.got.tgz:515509.got - 2010.06.11 11:32:03.
