data_PCOD9072582
_publ_section_title
;
Structure prediction by ZEFSAII (Michael W. Deem and Ramdas Pophale) SiO2 
 PCOD9072582
Probable space group: P -1
;
_chemical_formula_sum "Si O2"
_cell_formula_units_Z 16
_cell_length_a 24.000000
_cell_length_b 21.000000
_cell_length_c 9.000000
_cell_angle_alpha 40.000000
_cell_angle_beta 150.000000
_cell_angle_gamma 160.000000
_cell_volume 744.844803
_symmetry_space_group_name_H-M "P -1"
_symmetry_group_IT_number 2
_symmetry_cell_setting 'triclinic'
loop_
_space_group_symop_operation_xyz
x,y,z
-x,-y,-z
loop_
_atom_site_type_symbol
_atom_site_label
_atom_site_fract_x
_atom_site_fract_y
_atom_site_fract_z
Si Si1 0.865395 0.392153 0.036010
Si Si2 0.585428 0.509553 0.830376
Si Si3 0.630058 0.322340 0.841606
Si Si4 0.340831 0.005889 0.144387
Si Si5 0.180763 0.083237 0.672526
Si Si6 0.528546 0.998309 0.816782
Si Si7 0.757586 0.839360 0.683301
Si Si8 0.220923 0.532891 0.755306
O O1 0.016486 0.443264 0.402514
O O2 0.778933 0.426744 0.852517
O O3 0.000000 0.500000 0.000000
O O4 0.651251 0.167020 0.903192
O O5 0.500000 0.500000 0.500000
O O6 0.400303 0.302214 0.846401
O O7 0.644637 0.650165 0.807428
O O8 0.770849 0.570594 0.111321
O O9 0.390649 0.190123 0.528721
O O10 0.593833 0.181186 0.060065
O O11 0.750618 0.461463 0.013309
O O12 0.299359 0.923794 0.036586
O O13 0.568337 0.241585 0.219079
O O14 0.376295 0.946199 0.450205
O O15 0.174539 0.960816 0.896940
O O16 0.216263 0.121724 0.505226
O O17 0.000000 0.000000 0.500000
O O18 0.000000 0.000000 0.000000
#
# Coordination Sequence:
#
# PCOD9072582 Si02
#       8
#     2   2   2   2   2   2   2   2
#     4  12  25  39  61  95 125 157 207 261 316 363
#     4   9  18  40  65  85 121 164 207 253 303 370
#     4  11  23  44  62  87 127 165 207 256 307 384
#     4   9  18  38  64  84 126 163 197 250 310 365
#     4  10  20  40  65  93 121 159 211 256 308 374
#     4  10  20  39  61  86 121 165 200 250 305 369
#     4  11  23  42  63  91 126 166 211 258 309 368
#     4  10  19  40  66  85 122 161 204 252 309 376
#
# _framework density 21.480985
#
# number of rings (size 3 to 8) (size 9 to 14) (size 15 to 20)
#    0.000    1.750    6.250    0.750    1.750    1.000 
#    6.750    0.625    0.000    0.000    0.000    0.000 
#    0.000    0.000    0.000    0.000    0.000    0.000 
#
# Total GULP energy -89087.659081 kJ/mol
# GULP energy per Si atom -5567.978693 kJ/mol
# Density = 2.143209 g / cm^3
# Si number density = 21.480985 Si / 1000 Ang^3
#
#
#
# Elastic Constant Matrix: (Units=GPa)
#
#
# Indices 1 2 3 4 5 6 
#
# 1 119.1821 12.7896 49.1084 -8.6844 47.9097 19.3001
# 2 12.7896 22.8847 6.2499 -20.0435 4.4463 0.5418
# 3 49.1084 6.2499 81.0837 -1.5190 32.1223 0.3190
# 4 -8.6844 -20.0435 -1.5190 22.4713 -7.1214 12.1385
# 5 47.9097 4.4463 32.1223 -7.1214 36.1594 2.4698
# 6 19.3001 0.5418 0.3190 12.1385 2.4698 17.8838
#
#
#
# Elastic Compliance Matrix: (Units=1/GPa)
#
#
# Indices 1 2 3 4 5 6 
#
# 1 0.022575 -0.026726 0.000334 -0.023026 -0.031209 -0.003620
# 2 -0.026726 -0.054199 0.020822 -0.121045 -0.008005 0.113377
# 3 0.000334 0.020822 0.015076 0.025977 -0.010085 -0.017500
# 4 -0.023026 -0.121045 0.025977 -0.144641 -0.014933 0.128290
# 5 -0.031209 -0.008005 -0.010085 -0.014933 0.073681 0.034063
# 6 -0.003620 0.113377 -0.017500 0.128290 0.034063 -0.035079
#
#
# Mechanical properties :
#
#
# Convention : Reuss Voigt Hill
#
# Bulk Modulus (GPa) = -36.11794 39.93850 1.91028
# Shear Modulus (GPa) = -41.43282 25.63639 -7.89822
#
# Velocity S-wave (km/s) = -4.39659 3.45838 -1.91959
# Velocity P-wave (km/s) = 6.52869 5.88048 2.00546
#
# Compressibility (1/GPa) = -0.02768707
#
# Stress axis : x y z
#
# Youngs Moduli (GPa) = 44.29738 -18.45059 66.32917
#
# Poissons Ratio (x) = -0.49310 -0.02217
# Poissons Ratio (y) = 1.18387 -1.38108
# Poissons Ratio (z) = -0.01480 0.38417
#
# Static dielectric constant tensor:
#      x y z
#    x 1.864920 0.025060 0.009120 
#    y 0.025060 1.829600 -0.033500 
#    z 0.009120 -0.033500 1.787720 
# 
# From -- ./inp_files/282743.got.cif
#   From: 2010.05.17/outbox.ucp.g08.bks.cvg/sg2_142_cif.got.tgz:282743.got - 2010.06.11 11:32:03.
