data_PCOD9072093
_publ_section_title
;
Structure prediction by ZEFSAII (Michael W. Deem and Ramdas Pophale) SiO2 
 PCOD9072093
Probable space group: P -1
;
_chemical_formula_sum "Si O2"
_cell_formula_units_Z 14
_cell_length_a 9.000000
_cell_length_b 18.000000
_cell_length_c 18.000000
_cell_angle_alpha 160.000000
_cell_angle_beta 120.000000
_cell_angle_gamma 50.000000
_cell_volume 701.203365
_symmetry_space_group_name_H-M "P -1"
_symmetry_group_IT_number 2
_symmetry_cell_setting 'triclinic'
loop_
_space_group_symop_operation_xyz
x,y,z
-x,-y,-z
loop_
_atom_site_type_symbol
_atom_site_label
_atom_site_fract_x
_atom_site_fract_y
_atom_site_fract_z
Si Si1 0.726439 0.090054 0.597231
Si Si2 0.704418 0.786260 0.450372
Si Si3 0.446543 0.211902 0.293501
Si Si4 0.374282 0.568224 0.355260
Si Si5 0.818135 0.661630 0.803859
Si Si6 0.472434 0.133989 0.867695
Si Si7 0.091770 0.131867 0.728255
O O1 0.478327 0.246333 0.656932
O O2 0.844686 0.239620 0.778680
O O3 0.746328 0.923959 0.520676
O O4 0.853317 0.913580 0.389062
O O5 0.927833 0.517836 0.284260
O O6 0.595335 0.986679 0.683417
O O7 0.472931 0.424226 0.540341
O O8 0.267242 0.321758 0.287069
O O9 0.428537 0.072144 0.231060
O O10 0.671447 0.973767 0.087670
O O11 0.257339 0.476647 0.290489
O O12 0.215731 0.856047 0.547701
O O13 0.478404 0.372085 0.125821
O O14 0.223695 0.245951 0.898187
#
# Coordination Sequence:
#
# PCOD9072093 Si02
#       7
#     2   2   2   2   2   2   2
#     4   9  18  34  59  83 119 146 194 237 282 337
#     4  10  19  35  58  89 120 146 183 248 290 327
#     4   9  20  36  59  85 112 152 194 229 279 352
#     4  10  18  36  59  80 114 154 188 232 278 347
#     4  10  19  35  60  87 112 148 192 240 282 332
#     4   9  20  35  58  85 119 148 188 231 289 342
#     4   9  17  35  60  82 110 155 195 229 273 348
#
# _framework density 19.965676999999999
#
# number of rings (size 3 to 8) (size 9 to 14) (size 15 to 20)
#    0.000    2.571    1.429    0.429    0.000    0.571 
#    0.000   12.143    6.286    0.000    0.000    0.000 
#    0.000    0.000    0.000    0.000    0.000    0.000 
#
# Total GULP energy -77969.085259 kJ/mol
# GULP energy per Si atom -5569.220376 kJ/mol
# Density = 1.992023 g / cm^3
# Si number density = 19.965677 Si / 1000 Ang^3
#
#
#
# Elastic Constant Matrix: (Units=GPa)
#
#
# Indices 1 2 3 4 5 6 
#
# 1 97.9487 45.4709 12.1901 -1.4537 -8.9602 -5.5904
# 2 45.4709 172.7767 34.6708 -13.7462 -16.2296 -10.2556
# 3 12.1901 34.6708 59.9358 -15.6717 -2.9684 -13.6455
# 4 -1.4537 -13.7462 -15.6717 34.1719 -1.1644 -9.0683
# 5 -8.9602 -16.2296 -2.9684 -1.1644 18.4797 -1.1354
# 6 -5.5904 -10.2556 -13.6455 -9.0683 -1.1354 50.1087
#
#
#
# Elastic Compliance Matrix: (Units=1/GPa)
#
#
# Indices 1 2 3 4 5 6 
#
# 1 0.011870 -0.002689 -0.000755 -0.000674 0.003262 0.000520
# 2 -0.002689 0.007807 -0.002920 0.002135 0.005280 0.001009
# 3 -0.000755 -0.002920 0.023492 0.011730 0.002067 0.007885
# 4 -0.000674 0.002135 0.011730 0.038528 0.006516 0.010676
# 5 0.003262 0.005280 0.002067 0.006516 0.061356 0.004577
# 6 0.000520 0.001009 0.007885 0.010676 0.004577 0.024404
#
#
# Mechanical properties :
#
#
# Convention : Reuss Voigt Hill
#
# Bulk Modulus (GPa) = 32.85006 57.25833 45.05419
# Shear Modulus (GPa) = 26.27000 36.44069 31.35535
#
# Velocity S-wave (km/s) = 3.63127 4.27683 3.96721
# Velocity P-wave (km/s) = 5.83699 7.28897 6.60301
#
# Compressibility (1/GPa) = 0.03044135
#
# Stress axis : x y z
#
# Youngs Moduli (GPa) = 84.24859 128.08956 42.56826
#
# Poissons Ratio (x) = 0.34438 0.03214
# Poissons Ratio (y) = 0.22651 0.12430
# Poissons Ratio (z) = 0.06360 0.37402
#
# Static dielectric constant tensor:
#      x y z
#    x 1.741540 -0.025680 0.030420 
#    y -0.025680 1.713670 -0.008370 
#    z 0.030420 -0.008370 1.781260 
# 
# From -- ./inp_files/293446.got.cif
#   From: 2010.05.17/outbox.ucp.g08.bks.cvg/sg2_147_cif.got.tgz:293446.got - 2010.06.11 11:32:03.
