data_PCOD9072329
_publ_section_title
;
Structure prediction by ZEFSAII (Michael W. Deem and Ramdas Pophale) SiO2 
 PCOD9072329
Probable space group: P -1
;
_chemical_formula_sum "Si O2"
_cell_formula_units_Z 16
_cell_length_a 15.703608
_cell_length_b 11.922885
_cell_length_c 9.194235
_cell_angle_alpha 42.471614
_cell_angle_beta 75.865399
_cell_angle_gamma 49.834935
_cell_volume 793.812165
_symmetry_space_group_name_H-M "P -1"
_symmetry_group_IT_number 2
_symmetry_cell_setting 'triclinic'
loop_
_space_group_symop_operation_xyz
x,y,z
-x,-y,-z
loop_
_atom_site_type_symbol
_atom_site_label
_atom_site_fract_x
_atom_site_fract_y
_atom_site_fract_z
Si Si1 0.743742 0.626755 0.374829
Si Si2 0.497276 0.779446 0.297943
Si Si3 0.895041 0.505143 0.696833
Si Si4 0.945704 0.162121 0.579275
Si Si5 0.885254 0.890008 0.228396
Si Si6 0.640639 0.257773 0.805905
Si Si7 0.766794 0.884580 0.894089
Si Si8 0.001214 0.733218 0.832088
O O1 0.599999 0.783449 0.255686
O O2 0.781814 0.597653 0.553877
O O3 0.822971 0.367238 0.526603
O O4 0.789301 0.728306 0.169320
O O5 0.564466 0.529089 0.581168
O O6 0.455775 0.764232 0.169517
O O7 0.366767 0.996379 0.225281
O O8 0.900819 0.694952 0.492038
O O9 0.019844 0.257930 0.806685
O O10 0.896207 0.457750 0.909819
O O11 0.060774 0.039237 0.758503
O O12 0.952533 0.289705 0.325829
O O13 0.952534 0.975946 0.679985
O O14 0.742377 0.105252 0.035419
O O15 0.724901 0.116893 0.760746
O O16 0.886545 0.757723 0.869019
#
# Coordination Sequence:
#
# PCOD9072329 Si02
#       8
#     2   2   2   2   2   2   2   2
#     4  11  20  32  54  87 104 135 172 215 258 315
#     4   9  19  31  52  82 105 137 171 214 259 300
#     4  10  18  30  55  75 110 132 169 217 259 310
#     4  10  25  33  53  77 108 138 177 211 261 318
#     4  10  18  34  50  83 101 135 173 215 264 303
#     4   9  17  31  52  78 106 134 166 218 253 301
#     4  10  18  33  55  74 109 136 169 217 253 303
#     4  11  21  39  50  76 107 143 172 215 260 311
#
# _framework density 20.155901
#
# number of rings (size 3 to 8) (size 9 to 14) (size 15 to 20)
#    0.750    1.250    2.500    2.625    1.750    3.000 
#    0.000    0.000    0.000    2.250    0.000    4.375 
#    0.000    0.000    0.000    0.000    0.000    0.000 
#
# Total GULP energy -89158.137811 kJ/mol
# GULP energy per Si atom -5572.383613 kJ/mol
# Density = 2.011002 g / cm^3
# Si number density = 20.155901 Si / 1000 Ang^3
#
#
#
# Elastic Constant Matrix: (Units=GPa)
#
#
# Indices 1 2 3 4 5 6 
#
# 1 135.8119 22.5934 38.1536 9.6275 22.8107 -10.5058
# 2 22.5934 31.6767 8.7825 1.2513 8.8341 5.0573
# 3 38.1536 8.7825 86.3679 2.6719 21.3096 -6.8897
# 4 9.6275 1.2513 2.6719 22.9142 -1.8570 -2.7867
# 5 22.8107 8.8341 21.3096 -1.8570 38.8094 -7.4429
# 6 -10.5058 5.0573 -6.8897 -2.7867 -7.4429 22.3590
#
#
#
# Elastic Compliance Matrix: (Units=1/GPa)
#
#
# Indices 1 2 3 4 5 6 
#
# 1 0.010160 -0.006343 -0.002835 -0.003276 -0.002331 0.004150
# 2 -0.006343 0.041139 -0.000467 -0.002098 -0.008453 -0.015505
# 3 -0.002835 -0.000467 0.014474 -0.000819 -0.005996 0.001135
# 4 -0.003276 -0.002098 -0.000819 0.046544 0.006344 0.006596
# 5 -0.002331 -0.008453 -0.005996 0.006344 0.034835 0.011356
# 6 0.004150 -0.015505 0.001135 0.006596 0.011356 0.055134
#
#
# Mechanical properties :
#
#
# Convention : Reuss Voigt Hill
#
# Bulk Modulus (GPa) = 21.51467 43.65730 32.58599
# Shear Modulus (GPa) = 21.09073 29.10498 25.09786
#
# Velocity S-wave (km/s) = 3.23829 3.80411 3.53255
# Velocity P-wave (km/s) = 4.96783 6.40327 5.73067
#
# Compressibility (1/GPa) = 0.04647990
#
# Stress axis : x y z
#
# Youngs Moduli (GPa) = 98.42674 24.30800 69.09074
#
# Poissons Ratio (x) = 0.15420 0.19590
# Poissons Ratio (y) = 0.62436 0.03229
# Poissons Ratio (z) = 0.27908 0.01136
#
# Static dielectric constant tensor:
#      x y z
#    x 1.782040 0.002680 -0.013710 
#    y 0.002680 1.702480 -0.027150 
#    z -0.013710 -0.027150 1.762740 
# 
# From -- ./inp_files/306234.got.cif
#   From: 2010.05.17/outbox.cif.g08.bks.cpg/sg2_154_cif.got.tgz:306234.got - 2010.06.03 11:33:40.
