data_PCOD9072773
_publ_section_title
;
Structure prediction by ZEFSAII (Michael W. Deem and Ramdas Pophale) SiO2 
 PCOD9072773
Probable space group: P -1
;
_chemical_formula_sum "Si O2"
_cell_formula_units_Z 16
_cell_length_a 15.000000
_cell_length_b 15.000000
_cell_length_c 15.000000
_cell_angle_alpha 140.000000
_cell_angle_beta 140.000000
_cell_angle_gamma 20.000000
_cell_volume 725.414092
_symmetry_space_group_name_H-M "P -1"
_symmetry_group_IT_number 2
_symmetry_cell_setting 'triclinic'
loop_
_space_group_symop_operation_xyz
x,y,z
-x,-y,-z
loop_
_atom_site_type_symbol
_atom_site_label
_atom_site_fract_x
_atom_site_fract_y
_atom_site_fract_z
Si Si1 0.592742 0.582076 0.277154
Si Si2 0.168010 0.153149 0.473805
Si Si3 0.801262 0.440838 0.567946
Si Si4 0.460361 0.486557 0.245962
Si Si5 0.364437 0.979614 0.928148
Si Si6 0.333241 0.314240 0.762401
Si Si7 0.798447 0.773173 0.816492
Si Si8 0.938174 0.190023 0.655380
O O1 0.483948 0.527325 0.193521
O O2 0.595947 0.624717 0.207671
O O3 0.897693 0.344228 0.360414
O O4 0.404322 0.855111 0.391571
O O5 0.238784 0.254300 0.592231
O O6 0.090133 0.193351 0.549150
O O7 0.652964 0.436058 0.404182
O O8 0.729864 0.665780 0.673668
O O9 0.781451 0.420760 0.641825
O O10 0.510437 0.276573 0.134641
O O11 0.198101 0.729940 0.293112
O O12 0.188290 0.067156 0.781134
O O13 0.500000 0.000000 0.000000
O O14 0.216352 0.168790 0.046920
O O15 0.086445 0.554329 0.824133
O O16 0.584659 0.046358 0.806985
O O17 0.000000 0.000000 0.500000
#
# Coordination Sequence:
#
# PCOD9072773 Si02
#       8
#     2   2   2   2   2   2   2   2
#     4  11  22  39  70 103 144 188 242 298 356 414
#     4  10  20  36  66 107 146 182 237 302 355 414
#     4  10  22  42  70 108 142 189 237 299 359 431
#     4  11  25  44  69 106 143 183 245 301 357 424
#     4  12  30  48  72 105 145 190 235 301 362 438
#     4  11  22  43  67 103 144 196 237 291 356 429
#     4  11  27  45  71 105 151 188 240 291 361 429
#     4  12  25  44  77 105 140 186 242 297 366 429
#
# _framework density 22.056367999999999
#
# number of rings (size 3 to 8) (size 9 to 14) (size 15 to 20)
#    0.000    1.000    1.250    5.625    8.750    1.000 
#    0.000    1.250    0.000    0.000    0.000    0.000 
#    0.000    0.000    0.000    0.000    0.000    0.000 
#
# Total GULP energy -89287.894227 kJ/mol
# GULP energy per Si atom -5580.493389 kJ/mol
# Density = 2.200617 g / cm^3
# Si number density = 22.056368 Si / 1000 Ang^3
#
#
#
# Elastic Constant Matrix: (Units=GPa)
#
#
# Indices 1 2 3 4 5 6 
#
# 1 196.0835 40.8637 43.0076 9.6419 15.3893 10.1436
# 2 40.8637 101.1729 32.6345 13.9322 -0.8007 -3.9057
# 3 43.0076 32.6345 106.4631 17.4647 10.9593 -7.2966
# 4 9.6419 13.9322 17.4647 34.2057 0.2609 -4.2483
# 5 15.3893 -0.8007 10.9593 0.2609 42.8298 2.2468
# 6 10.1436 -3.9057 -7.2966 -4.2483 2.2468 39.9879
#
#
#
# Elastic Compliance Matrix: (Units=1/GPa)
#
#
# Indices 1 2 3 4 5 6 
#
# 1 0.006153 -0.001958 -0.001810 -0.000250 -0.001677 -0.002015
# 2 -0.001958 0.011925 -0.002484 -0.002949 0.001538 0.000809
# 3 -0.001810 -0.002484 0.012001 -0.004327 -0.002550 0.002090
# 4 -0.000250 -0.002949 -0.004327 0.033013 0.000812 0.002448
# 5 -0.001677 0.001538 -0.002550 0.000812 0.024690 -0.001191
# 6 -0.002015 0.000809 0.002090 0.002448 -0.001191 0.026306
#
#
# Mechanical properties :
#
#
# Convention : Reuss Voigt Hill
#
# Bulk Modulus (GPa) = 56.89486 70.74790 63.82138
# Shear Modulus (GPa) = 37.75004 42.55224 40.15114
#
# Velocity S-wave (km/s) = 4.14155 4.39709 4.27123
# Velocity P-wave (km/s) = 6.98005 7.61083 7.30225
#
# Compressibility (1/GPa) = 0.01757628
#
# Stress axis : x y z
#
# Youngs Moduli (GPa) = 162.52183 83.85397 83.32711
#
# Poissons Ratio (x) = 0.16419 0.15081
# Poissons Ratio (y) = 0.31822 0.20696
# Poissons Ratio (z) = 0.29413 0.20827
#
# Static dielectric constant tensor:
#      x y z
#    x 1.846290 0.026070 -0.017870 
#    y 0.026070 1.899460 -0.030510 
#    z -0.017870 -0.030510 1.806600 
# 
# From -- ./inp_files/97825.got.cif
#   From: 2010.05.17/outbox.ucp.g08.bks.cvg/sg2_49_cif.got.tgz:97825.got - 2010.06.11 11:32:03.
