data_PCOD9072088
_publ_section_title
;
Structure prediction by ZEFSAII (Michael W. Deem and Ramdas Pophale) SiO2 
 PCOD9072088
Probable space group: P -1
;
_chemical_formula_sum "Si O2"
_cell_formula_units_Z 14
_cell_length_a 10.343730
_cell_length_b 13.042728
_cell_length_c 7.194380
_cell_angle_alpha 111.051004
_cell_angle_beta 135.063178
_cell_angle_gamma 48.271327
_cell_volume 499.959866
_symmetry_space_group_name_H-M "P -1"
_symmetry_group_IT_number 2
_symmetry_cell_setting 'triclinic'
loop_
_space_group_symop_operation_xyz
x,y,z
-x,-y,-z
loop_
_atom_site_type_symbol
_atom_site_label
_atom_site_fract_x
_atom_site_fract_y
_atom_site_fract_z
Si Si1 0.671256 0.041098 0.206572
Si Si2 0.130717 0.394187 0.337069
Si Si3 0.488482 0.463610 0.747145
Si Si4 0.898344 0.238541 0.518383
Si Si5 0.228714 0.317380 0.815505
Si Si6 0.180782 0.836286 0.015929
Si Si7 0.496031 0.885218 0.519523
O O1 0.669099 0.062315 0.437868
O O2 0.501966 0.197467 0.053558
O O3 0.928547 0.916511 0.306625
O O4 0.500000 0.000000 0.000000
O O5 0.294001 0.440269 0.513974
O O6 0.144184 0.351795 0.537409
O O7 0.246558 0.251563 0.250624
O O8 0.871525 0.529971 0.109502
O O9 0.357656 0.612999 0.601525
O O10 0.734289 0.303202 0.866051
O O11 0.500000 0.500000 0.000000
O O12 0.078600 0.272226 0.709677
O O13 0.873572 0.195923 0.258836
O O14 0.407964 0.828843 0.247653
O O15 0.000000 0.000000 0.000000
O O16 0.500000 0.000000 0.500000
#
# Coordination Sequence:
#
# PCOD9072088 Si02
#       7
#     2   2   2   2   2   2   2
#     4  10  19  31  51  75 107 143 173 213 271 315
#     4   9  18  32  52  78 103 135 180 219 261 311
#     4   8  16  29  49  73 101 130 173 218 254 309
#     4   9  16  31  50  75 102 137 173 210 260 312
#     4   9  18  33  54  79 107 138 174 217 266 321
#     4  10  18  30  51  80 102 137 179 216 260 308
#     4  11  21  33  52  81 108 136 179 225 258 310
#
# _framework density 28.002248000000002
#
# number of rings (size 3 to 8) (size 9 to 14) (size 15 to 20)
#    0.000    2.571    1.429    1.714    0.000    0.571 
#    0.000    0.000    0.000   23.143    0.000   22.000 
#    0.000    0.000    0.000    0.000    0.000    0.000 
#
# Total GULP energy -78064.625929 kJ/mol
# GULP energy per Si atom -5576.044709 kJ/mol
# Density = 2.793851 g / cm^3
# Si number density = 28.002248 Si / 1000 Ang^3
#
#
#
# Elastic Constant Matrix: (Units=GPa)
#
#
# Indices 1 2 3 4 5 6 
#
# 1 54.2871 37.5021 21.8375 -9.3877 -0.3549 -0.8730
# 2 37.5021 284.1504 65.1542 -66.0477 20.1548 -23.0727
# 3 21.8375 65.1542 127.0967 -20.7168 -5.6788 -0.7528
# 4 -9.3877 -66.0477 -20.7168 56.7793 -19.2986 13.9153
# 5 -0.3549 20.1548 -5.6788 -19.2986 19.6159 -4.8558
# 6 -0.8730 -23.0727 -0.7528 13.9153 -4.8558 43.7172
#
#
#
# Elastic Compliance Matrix: (Units=1/GPa)
#
#
# Indices 1 2 3 4 5 6 
#
# 1 0.021087 -0.002285 -0.002080 0.001408 0.003289 -0.000904
# 2 -0.002285 0.005481 -0.001714 0.004632 -0.001316 0.001197
# 3 -0.002080 -0.001714 0.010295 0.004847 0.009151 -0.001295
# 4 0.001408 0.004632 0.004847 0.037253 0.031895 -0.005759
# 5 0.003289 -0.001316 0.009151 0.031895 0.086157 -0.001053
# 6 -0.000904 0.001197 -0.001295 -0.005759 -0.001053 0.025182
#
#
# Mechanical properties :
#
#
# Convention : Reuss Voigt Hill
#
# Bulk Modulus (GPa) = 40.47914 79.39131 59.93522
# Shear Modulus (GPa) = 24.28963 46.75851 35.52407
#
# Velocity S-wave (km/s) = 2.94839 4.09077 3.56563
# Velocity P-wave (km/s) = 5.10664 7.12221 6.19692
#
# Compressibility (1/GPa) = 0.02470408
#
# Stress axis : x y z
#
# Youngs Moduli (GPa) = 47.42327 182.44769 97.13221
#
# Poissons Ratio (x) = 0.41695 0.20207
# Poissons Ratio (y) = 0.10838 0.16646
# Poissons Ratio (z) = 0.09866 0.31267
#
# Static dielectric constant tensor:
#      x y z
#    x 2.201470 -0.104890 0.054950 
#    y -0.104890 2.449950 -0.209060 
#    z 0.054950 -0.209060 2.217700 
# 
# From -- ./inp_files/206232.got.cif
#   From: 2010.05.17/outbox.cif.g08.bks.cpg/sg2_104_cif.got.tgz:206232.got - 2010.06.03 11:33:40.
