data_PCOD9072686
_publ_section_title
;
Structure prediction by ZEFSAII (Michael W. Deem and Ramdas Pophale) SiO2 
 PCOD9072686
Probable space group: P -1
;
_chemical_formula_sum "Si O2"
_cell_formula_units_Z 16
_cell_length_a 6.000000
_cell_length_b 6.000000
_cell_length_c 24.000000
_cell_angle_alpha 120.000000
_cell_angle_beta 80.000000
_cell_angle_gamma 90.000000
_cell_volume 733.050061
_symmetry_space_group_name_H-M "P -1"
_symmetry_group_IT_number 2
_symmetry_cell_setting 'triclinic'
loop_
_space_group_symop_operation_xyz
x,y,z
-x,-y,-z
loop_
_atom_site_type_symbol
_atom_site_label
_atom_site_fract_x
_atom_site_fract_y
_atom_site_fract_z
Si Si1 0.474932 0.697730 0.662273
Si Si2 0.387221 0.229122 0.783947
Si Si3 0.122836 0.263206 0.035083
Si Si4 0.135451 0.118179 0.413316
Si Si5 0.279886 0.450672 0.539743
Si Si6 0.226533 0.224237 0.906761
Si Si7 0.006577 0.306845 0.165475
Si Si8 0.232898 0.583102 0.286913
O O1 0.660281 0.794381 0.623272
O O2 0.343754 0.492722 0.606938
O O3 0.604998 0.565568 0.692885
O O4 0.332018 0.956641 0.724778
O O5 0.411666 0.214335 0.848115
O O6 0.189840 0.458945 0.808833
O O7 0.613994 0.296744 0.751891
O O8 0.946855 0.517678 0.063236
O O9 0.179234 0.288765 0.101773
O O10 0.294250 0.239072 0.971252
O O11 0.000000 0.000000 0.000000
O O12 0.200870 0.185390 0.483267
O O13 0.915193 0.316247 0.434908
O O14 0.106013 0.826148 0.357763
O O15 0.500000 0.500000 0.500000
O O16 0.100475 0.966864 0.867414
O O17 0.100716 0.383206 0.231288
#
# Coordination Sequence:
#
# PCOD9072686 Si02
#       8
#     2   2   2   2   2   2   2   2
#     4  10  21  35  55  82 114 149 188 234 284 337
#     4  10  21  37  56  81 115 152 192 240 285 337
#     4   8  16  32  56  84 112 148 192 236 286 339
#     4   9  20  38  58  81 113 148 187 233 281 337
#     4   9  18  38  61  81 110 149 188 232 282 332
#     4   9  17  33  59  83 109 151 195 236 285 338
#     4  10  20  35  57  83 115 152 190 237 290 342
#     4  11  23  36  55  87 118 149 191 235 284 342
#
# _framework density 21.826612999999998
#
# number of rings (size 3 to 8) (size 9 to 14) (size 15 to 20)
#    0.000    2.500    0.000    1.500    0.000    6.500 
#    0.000    6.250    0.000   30.750    0.000    0.000 
#    0.000    0.000    0.000    0.000    0.000    0.000 
#
# Total GULP energy -89247.218181 kJ/mol
# GULP energy per Si atom -5577.951136 kJ/mol
# Density = 2.177693 g / cm^3
# Si number density = 21.826613 Si / 1000 Ang^3
#
#
#
# Elastic Constant Matrix: (Units=GPa)
#
#
# Indices 1 2 3 4 5 6 
#
# 1 33.9763 5.6751 29.5073 11.8941 5.9506 -3.7770
# 2 5.6751 77.2292 46.4413 20.5937 2.4114 -2.5075
# 3 29.5073 46.4413 173.2589 41.1354 6.8810 -6.1459
# 4 11.8941 20.5937 41.1354 29.2380 4.8039 -1.1690
# 5 5.9506 2.4114 6.8810 4.8039 35.3853 -1.1477
# 6 -3.7770 -2.5075 -6.1459 -1.1690 -1.1477 19.6296
#
#
#
# Elastic Compliance Matrix: (Units=1/GPa)
#
#
# Indices 1 2 3 4 5 6 
#
# 1 0.037696 0.002931 -0.004402 -0.010316 -0.004107 0.005395
# 2 0.002931 0.016896 -0.002832 -0.009087 0.000182 0.001305
# 3 -0.004402 -0.002832 0.009631 -0.009785 0.000429 0.001249
# 4 -0.010316 -0.009087 -0.009785 0.059083 -0.003859 -0.002916
# 5 -0.004107 0.000182 0.000429 -0.003859 0.029407 0.000857
# 6 0.005395 0.001305 0.001249 -0.002916 0.000857 0.052416
#
#
# Mechanical properties :
#
#
# Convention : Reuss Voigt Hill
#
# Bulk Modulus (GPa) = 17.97989 49.74576 33.86282
# Shear Modulus (GPa) = 21.52651 30.37331 25.94991
#
# Velocity S-wave (km/s) = 3.14387 3.73443 3.45180
# Velocity P-wave (km/s) = 4.62969 6.43703 5.60667
#
# Compressibility (1/GPa) = 0.05561769
#
# Stress axis : x y z
#
# Youngs Moduli (GPa) = 26.52809 59.18730 103.83275
#
# Poissons Ratio (x) = -0.17349 0.45706
# Poissons Ratio (y) = -0.07776 0.29401
# Poissons Ratio (z) = 0.11677 0.16759
#
# Static dielectric constant tensor:
#      x y z
#    x 1.815730 0.035620 0.011580 
#    y 0.035620 1.808810 -0.029650 
#    z 0.011580 -0.029650 1.829210 
# 
# From -- ./inp_files/10722.got.cif
#   From: 2010.05.17/outbox.ucp.g08.bks.cvg/sg2_6_cif.got.tgz:10722.got - 2010.06.11 11:32:03.
