data_PCOD9072276
_publ_section_title
;
Structure prediction by ZEFSAII (Michael W. Deem and Ramdas Pophale) SiO2 
 PCOD9072276
Probable space group: P -1
;
_chemical_formula_sum "Si O2"
_cell_formula_units_Z 16
_cell_length_a 12.000000
_cell_length_b 18.000000
_cell_length_c 15.000000
_cell_angle_alpha 150.000000
_cell_angle_beta 130.000000
_cell_angle_gamma 30.000000
_cell_volume 731.734496
_symmetry_space_group_name_H-M "P -1"
_symmetry_group_IT_number 2
_symmetry_cell_setting 'triclinic'
loop_
_space_group_symop_operation_xyz
x,y,z
-x,-y,-z
loop_
_atom_site_type_symbol
_atom_site_label
_atom_site_fract_x
_atom_site_fract_y
_atom_site_fract_z
Si Si1 0.443198 0.098577 0.785192
Si Si2 0.380828 0.737358 0.943446
Si Si3 0.103260 0.804397 0.610726
Si Si4 0.985823 0.144527 0.014866
Si Si5 0.918988 0.537752 0.363902
Si Si6 0.523520 0.387536 0.527080
Si Si7 0.510607 0.920654 0.822529
Si Si8 0.771258 0.810084 0.403718
O O1 0.708978 0.809196 0.587302
O O2 0.401520 0.103849 0.873923
O O3 0.243958 0.195442 0.715543
O O4 0.448583 0.269817 0.947426
O O5 0.195245 0.835495 0.024581
O O6 0.497634 0.486209 0.711161
O O7 0.216364 0.944678 0.993804
O O8 0.257066 0.617295 0.580138
O O9 0.298954 0.644251 0.465510
O O10 0.875803 0.886033 0.559287
O O11 0.059474 0.014944 0.823896
O O12 0.879093 0.396576 0.216358
O O13 0.921825 0.571299 0.294251
O O14 0.201258 0.335205 0.323626
O O15 0.597252 0.156158 0.319081
O O16 0.500000 0.000000 0.000000
O O17 0.500000 0.000000 0.500000
#
# Coordination Sequence:
#
# PCOD9072276 Si02
#       8
#     2   2   2   2   2   2   2   2
#     4  11  24  40  61  92 127 162 209 258 308 370
#     4  10  21  34  57  92 125 156 205 256 311 359
#     4  10  20  39  61  87 123 162 206 249 308 368
#     4  10  19  33  60  91 119 157 207 261 302 355
#     4  11  21  39  64  91 125 164 209 257 309 360
#     4  10  22  37  62  88 122 161 203 258 310 359
#     4  12  24  39  63  95 125 157 213 259 308 367
#     4  10  22  41  64  90 126 170 206 251 308 377
#
# _framework density 21.865853999999999
#
# number of rings (size 3 to 8) (size 9 to 14) (size 15 to 20)
#    0.000    1.500    2.500    3.375    7.000    0.000 
#    0.000   10.000    0.000    0.000    0.000    0.000 
#    0.000    0.000    0.000    0.000    0.000    0.000 
#
# Total GULP energy -89183.502672 kJ/mol
# GULP energy per Si atom -5573.968917 kJ/mol
# Density = 2.181609 g / cm^3
# Si number density = 21.865854 Si / 1000 Ang^3
#
#
#
# Elastic Constant Matrix: (Units=GPa)
#
#
# Indices 1 2 3 4 5 6 
#
# 1 77.5886 20.5103 49.4299 -17.5954 15.7651 -3.6654
# 2 20.5103 51.6579 -2.4463 -15.4054 -3.5641 3.5662
# 3 49.4299 -2.4463 6.5095 -1.1640 3.5126 18.3039
# 4 -17.5954 -15.4054 -1.1640 15.7003 2.2792 -4.2586
# 5 15.7651 -3.5641 3.5126 2.2792 34.5144 -8.3441
# 6 -3.6654 3.5662 18.3039 -4.2586 -8.3441 26.4543
#
#
#
# Elastic Compliance Matrix: (Units=1/GPa)
#
#
# Indices 1 2 3 4 5 6 
#
# 1 0.003157 0.000945 0.017085 0.003130 -0.006442 -0.013040
# 2 0.000945 0.027111 -0.002973 0.028173 0.001680 0.003598
# 3 0.017085 -0.002973 -0.016059 0.019910 -0.003963 0.015834
# 4 0.003130 0.028173 0.019910 0.096350 -0.007906 -0.004123
# 5 -0.006442 0.001680 -0.003963 -0.007906 0.035832 0.011652
# 6 -0.013040 0.003598 0.015834 -0.004123 0.011652 0.027565
#
#
# Mechanical properties :
#
#
# Convention : Reuss Voigt Hill
#
# Bulk Modulus (GPa) = 22.56150 30.08265 26.32208
# Shear Modulus (GPa) = 31.52270 19.88460 25.70365
#
# Velocity S-wave (km/s) = 3.80101 3.01888 3.43230
# Velocity P-wave (km/s) = 5.44097 5.09306 5.26988
#
# Compressibility (1/GPa) = 0.04432329
#
# Stress axis : x y z
#
# Youngs Moduli (GPa) = 316.77460 36.88497 -62.27007
#
# Poissons Ratio (x) = -0.03485 1.06391
# Poissons Ratio (y) = -0.29929 -0.18513
# Poissons Ratio (z) = -5.41221 0.10966
#
# Static dielectric constant tensor:
#      x y z
#    x 1.800310 0.018660 -0.026540 
#    y 0.018660 1.892850 0.069290 
#    z -0.026540 0.069290 1.884850 
# 
# From -- ./inp_files/218914.got.cif
#   From: 2010.05.17/outbox.ucp.g08.bks.cvg/sg2_110_cif.got.tgz:218914.got - 2010.06.11 11:32:03.
