data_PCOD9072479
_publ_section_title
;
Structure prediction by ZEFSAII (Michael W. Deem and Ramdas Pophale) SiO2 
 PCOD9072479
Probable space group: P -1
;
_chemical_formula_sum "Si O2"
_cell_formula_units_Z 14
_cell_length_a 9.000000
_cell_length_b 21.000000
_cell_length_c 9.000000
_cell_angle_alpha 50.000000
_cell_angle_beta 120.000000
_cell_angle_gamma 150.000000
_cell_volume 644.350134
_symmetry_space_group_name_H-M "P -1"
_symmetry_group_IT_number 2
_symmetry_cell_setting 'triclinic'
loop_
_space_group_symop_operation_xyz
x,y,z
-x,-y,-z
loop_
_atom_site_type_symbol
_atom_site_label
_atom_site_fract_x
_atom_site_fract_y
_atom_site_fract_z
Si Si1 0.846619 0.225319 0.015555
Si Si2 0.741646 0.044723 0.456938
Si Si3 0.361590 0.728461 0.762500
Si Si4 0.352685 0.155761 0.955710
Si Si5 0.685287 0.694468 0.431778
Si Si6 0.233046 0.365988 0.743317
Si Si7 0.235813 0.496875 0.007964
O O1 0.825659 0.126921 0.226590
O O2 0.539180 0.149139 0.016153
O O3 0.918533 0.250743 0.840855
O O4 0.111692 0.386076 0.985159
O O5 0.047252 0.176359 0.512485
O O6 0.500000 0.000000 0.500000
O O7 0.568115 0.888015 0.571411
O O8 0.287528 0.613631 0.810003
O O9 0.549353 0.779828 0.926976
O O10 0.029574 0.619398 0.825132
O O11 0.447274 0.269367 0.730681
O O12 0.000000 0.000000 0.000000
O O13 0.412717 0.524455 0.588664
O O14 0.806553 0.696780 0.338894
O O15 0.454742 0.404524 0.907155
#
# Coordination Sequence:
#
# PCOD9072479 Si02
#       7
#     2   2   2   2   2   2   2
#     4  11  24  40  70  92 131 167 219 264 319 368
#     4  12  20  40  66  97 120 171 216 263 309 387
#     4  10  20  34  65  96 124 163 223 250 321 382
#     4  11  20  39  64  90 127 170 207 262 320 384
#     4  11  23  38  69  91 129 170 215 258 327 379
#     4  11  23  41  63  98 129 167 216 270 314 380
#     4  10  19  37  64  92 125 167 206 268 307 379
#
# _framework density 21.727318
#
# number of rings (size 3 to 8) (size 9 to 14) (size 15 to 20)
#    0.000    1.143    7.143    0.429    0.000    0.571 
#    0.000    3.571    3.143    0.000    0.000    0.000 
#    0.000    0.000    0.000    0.000    0.000    0.000 
#
# Total GULP energy -78108.931876 kJ/mol
# GULP energy per Si atom -5579.209420 kJ/mol
# Density = 2.167787 g / cm^3
# Si number density = 21.727318 Si / 1000 Ang^3
#
#
#
# Elastic Constant Matrix: (Units=GPa)
#
#
# Indices 1 2 3 4 5 6 
#
# 1 18.9549 28.7444 52.1350 -15.5653 9.0996 -9.9604
# 2 28.7444 83.1789 13.3683 -21.1542 5.2305 3.7005
# 3 52.1350 13.3683 97.8689 -26.7904 9.1548 -12.1300
# 4 -15.5653 -21.1542 -26.7904 30.8686 -4.0014 15.0825
# 5 9.0996 5.2305 9.1548 -4.0014 28.9063 -5.4083
# 6 -9.9604 3.7005 -12.1300 15.0825 -5.4083 19.1943
#
#
#
# Elastic Compliance Matrix: (Units=1/GPa)
#
#
# Indices 1 2 3 4 5 6 
#
# 1 -0.048032 0.022442 0.026861 0.033228 -0.000032 -0.038395
# 2 0.022442 0.009653 -0.010470 0.011913 -0.005284 -0.007682
# 3 0.026861 -0.010470 -0.001154 -0.003319 -0.003503 0.016849
# 4 0.033228 0.011913 -0.003319 0.078303 -0.010381 -0.051605
# 5 -0.000032 -0.005284 -0.003503 -0.010381 0.038566 0.017812
# 6 -0.038395 -0.007682 0.016849 -0.051605 0.017812 0.089872
#
#
# Mechanical properties :
#
#
# Convention : Reuss Voigt Hill
#
# Bulk Modulus (GPa) = 26.22324 43.16646 34.69485
# Shear Modulus (GPa) = 48.89789 22.84419 35.87104
#
# Velocity S-wave (km/s) = 4.74912 3.24605 4.06761
# Velocity P-wave (km/s) = 6.49366 5.82749 6.16957
#
# Compressibility (1/GPa) = 0.03813411
#
# Stress axis : x y z
#
# Youngs Moduli (GPa) = -20.81945 103.59043 -866.87735
#
# Poissons Ratio (x) = -2.32481 23.28545
# Poissons Ratio (y) = 0.46724 -9.07658
# Poissons Ratio (z) = 0.55924 1.08464
#
# Static dielectric constant tensor:
#      x y z
#    x 1.822360 0.015140 0.033200 
#    y 0.015140 1.754830 0.013190 
#    z 0.033200 0.013190 1.867180 
# 
# From -- ./inp_files/223273.got.cif
#   From: 2010.05.17/outbox.ucp.g08.bks.cvg/sg2_112_cif.got.tgz:223273.got - 2010.06.11 11:32:03.
