data_PCOD9072841
_publ_section_title
;
Structure prediction by ZEFSAII (Michael W. Deem and Ramdas Pophale) SiO2 
 PCOD9072841
Probable space group: P -1
;
_chemical_formula_sum "Si O2"
_cell_formula_units_Z 16
_cell_length_a 15.000000
_cell_length_b 12.000000
_cell_length_c 9.000000
_cell_angle_alpha 100.000000
_cell_angle_beta 90.000000
_cell_angle_gamma 150.000000
_cell_volume 759.581896
_symmetry_space_group_name_H-M "P -1"
_symmetry_group_IT_number 2
_symmetry_cell_setting 'triclinic'
loop_
_space_group_symop_operation_xyz
x,y,z
-x,-y,-z
loop_
_atom_site_type_symbol
_atom_site_label
_atom_site_fract_x
_atom_site_fract_y
_atom_site_fract_z
Si Si1 0.333534 0.509267 0.839428
Si Si2 0.420582 0.971763 0.680481
Si Si3 0.417585 0.380324 0.312029
Si Si4 0.030782 0.033730 0.327517
Si Si5 0.553227 0.745271 0.201621
Si Si6 0.999154 0.743292 0.662907
Si Si7 0.116469 0.489390 0.713427
Si Si8 0.798575 0.310014 0.696400
O O1 0.479447 0.618956 0.744324
O O2 0.226109 0.507111 0.797029
O O3 0.453644 0.645950 0.020339
O O4 0.166674 0.231653 0.793599
O O5 0.268365 0.759028 0.749805
O O6 0.305672 0.819616 0.493429
O O7 0.478835 0.167213 0.706614
O O8 0.613329 0.120860 0.750725
O O9 0.500000 0.500000 0.500000
O O10 0.194606 0.135665 0.287302
O O11 0.475410 0.548350 0.241398
O O12 0.080221 0.217531 0.323293
O O13 0.000000 0.000000 0.500000
O O14 0.779093 0.992567 0.252286
O O15 0.954470 0.643051 0.475112
O O16 0.916685 0.558275 0.734060
O O17 0.933755 0.354580 0.742113
#
# Coordination Sequence:
#
# PCOD9072841 Si02
#       8
#     2   2   2   2   2   2   2   2
#     4  12  28  43  65 104 140 179 216 278 344 402
#     4  10  21  39  66  98 132 172 226 281 323 389
#     4  12  25  45  73  99 129 179 232 273 334 399
#     4  12  23  44  70  98 131 174 225 281 328 401
#     4  12  24  45  68 100 145 172 215 284 349 390
#     4  11  19  40  69  91 129 175 222 274 331 391
#     4  11  21  41  64  95 129 178 230 266 325 392
#     4  10  20  37  68 100 122 176 235 276 317 388
#
# _framework density 21.064219999999999
#
# number of rings (size 3 to 8) (size 9 to 14) (size 15 to 20)
#    0.000    0.750    6.250    1.875    0.000    4.000 
#    2.250    0.625    0.000    0.000    0.000    0.000 
#    0.000    0.000    0.000    0.000    0.000    0.000 
#
# Total GULP energy -89292.096513 kJ/mol
# GULP energy per Si atom -5580.756032 kJ/mol
# Density = 2.101628 g / cm^3
# Si number density = 21.064220 Si / 1000 Ang^3
#
#
#
# Elastic Constant Matrix: (Units=GPa)
#
#
# Indices 1 2 3 4 5 6 
#
# 1 145.2633 31.9607 -8.8097 2.2562 19.9583 23.2419
# 2 31.9607 78.0992 26.4400 5.8765 3.7248 25.1916
# 3 -8.8097 26.4400 42.0999 21.6729 30.0902 7.5212
# 4 2.2562 5.8765 21.6729 7.5416 -0.9044 2.0546
# 5 19.9583 3.7248 30.0902 -0.9044 26.2074 3.7598
# 6 23.2419 25.1916 7.5212 2.0546 3.7598 52.1444
#
#
#
# Elastic Compliance Matrix: (Units=1/GPa)
#
#
# Indices 1 2 3 4 5 6 
#
# 1 0.006977 -0.001601 -0.004617 0.013162 0.000993 -0.002261
# 2 -0.001601 0.016248 0.002491 -0.018000 -0.003636 -0.006524
# 3 -0.004617 0.002491 -0.013115 0.039543 0.019617 -0.000227
# 4 0.013162 -0.018000 0.039543 0.022806 -0.052078 -0.000018
# 5 0.000993 -0.003636 0.019617 -0.052078 0.013661 -0.000449
# 6 -0.002261 -0.006524 -0.000227 -0.000018 -0.000449 0.023403
#
#
# Mechanical properties :
#
#
# Convention : Reuss Voigt Hill
#
# Bulk Modulus (GPa) = 376.22043 40.51603 208.36823
# Shear Modulus (GPa) = 63.84165 31.57011 47.70588
#
# Velocity S-wave (km/s) = 5.51125 3.87558 4.76414
# Velocity P-wave (km/s) = 14.81528 6.26922 11.37532
#
# Compressibility (1/GPa) = 0.00265802
#
# Stress axis : x y z
#
# Youngs Moduli (GPa) = 143.32653 61.54558 -76.24910
#
# Poissons Ratio (x) = 0.09852 -0.35202
# Poissons Ratio (y) = 0.22944 0.18996
# Poissons Ratio (z) = 0.66169 -0.15333
#
# Static dielectric constant tensor:
#      x y z
#    x 1.839710 0.051430 -0.029890 
#    y 0.051430 1.802140 0.005030 
#    z -0.029890 0.005030 1.787060 
# 
# From -- ./inp_files/307760.got.cif
#   From: 2010.05.17/outbox.ucp.g08.bks.cvg/sg2_154_cif.got.tgz:307760.got - 2010.06.11 11:32:03.
