data_PCOD9072174
_publ_section_title
;
Structure prediction by ZEFSAII (Michael W. Deem and Ramdas Pophale) SiO2 
 PCOD9072174
Probable space group: P -1
;
_chemical_formula_sum "Si O2"
_cell_formula_units_Z 16
_cell_length_a 18.000000
_cell_length_b 15.000000
_cell_length_c 27.000000
_cell_angle_alpha 160.000000
_cell_angle_beta 20.000000
_cell_angle_gamma 160.000000
_cell_volume 746.015535
_symmetry_space_group_name_H-M "P -1"
_symmetry_group_IT_number 2
_symmetry_cell_setting 'triclinic'
loop_
_space_group_symop_operation_xyz
x,y,z
-x,-y,-z
loop_
_atom_site_type_symbol
_atom_site_label
_atom_site_fract_x
_atom_site_fract_y
_atom_site_fract_z
Si Si1 0.729240 0.302295 0.088792
Si Si2 0.278807 0.390751 0.658291
Si Si3 0.560882 0.665586 0.318673
Si Si4 0.992612 0.275527 0.680904
Si Si5 0.028509 0.262395 0.461870
Si Si6 0.219849 0.611912 0.625102
Si Si7 0.605996 0.369954 0.044394
Si Si8 0.565712 0.183320 0.652537
O O1 0.725741 0.338217 0.168930
O O2 0.588721 0.476108 0.247040
O O3 0.000000 0.500000 0.000000
O O4 0.590745 0.955688 0.981139
O O5 0.537794 0.398745 0.511206
O O6 0.213962 0.372744 0.632326
O O7 0.061404 0.088050 0.661579
O O8 0.269451 0.470034 0.387196
O O9 0.709323 0.608219 0.150859
O O10 0.603764 0.984765 0.480147
O O11 0.039573 0.516075 0.734601
O O12 0.780065 0.285063 0.855650
O O13 0.000000 0.000000 0.500000
O O14 0.088653 0.381198 0.542243
O O15 0.801637 0.285208 0.592688
O O16 0.325942 0.932995 0.701113
O O17 0.475531 0.536492 0.185498
#
# Coordination Sequence:
#
# PCOD9072174 Si02
#       8
#     2   2   2   2   2   2   2   2
#     4  12  23  42  67 103 139 172 222 285 343 401
#     4  11  20  40  69 100 127 177 226 277 340 400
#     4  11  22  45  72  97 138 181 220 281 345 407
#     4  12  24  42  72  98 140 176 227 287 337 394
#     4  10  18  41  72  93 133 181 230 269 340 403
#     4  10  21  41  71  95 130 184 230 269 340 392
#     4  12  27  43  66 109 138 175 234 277 336 412
#     4  10  24  45  71  98 140 183 224 276 340 408
#
# _framework density 21.447275000000001
#
# number of rings (size 3 to 8) (size 9 to 14) (size 15 to 20)
#    0.000    1.000    5.000    4.125    0.000    1.000 
#    9.000    0.625    0.000    0.000    0.000    0.000 
#    0.000    0.000    0.000    0.000    0.000    0.000 
#
# Total GULP energy -89126.243853 kJ/mol
# GULP energy per Si atom -5570.390241 kJ/mol
# Density = 2.139846 g / cm^3
# Si number density = 21.447275 Si / 1000 Ang^3
#
#
#
# Elastic Constant Matrix: (Units=GPa)
#
#
# Indices 1 2 3 4 5 6 
#
# 1 114.8800 17.2584 38.0629 -2.0371 12.6208 7.0910
# 2 17.2584 79.2576 35.7230 -4.2347 -3.2499 -0.5097
# 3 38.0629 35.7230 111.4451 7.1236 9.5508 -2.8503
# 4 -2.0371 -4.2347 7.1236 27.3480 -10.0567 4.6233
# 5 12.6208 -3.2499 9.5508 -10.0567 38.0747 0.6966
# 6 7.0910 -0.5097 -2.8503 4.6233 0.6966 34.4328
#
#
#
# Elastic Compliance Matrix: (Units=1/GPa)
#
#
# Indices 1 2 3 4 5 6 
#
# 1 0.010320 -0.000882 -0.003164 0.000996 -0.002394 -0.002485
# 2 -0.000882 0.015782 -0.005529 0.005635 0.004531 -0.000891
# 3 -0.003164 -0.005529 0.012675 -0.006426 -0.004347 0.002570
# 4 0.000996 0.005635 -0.006426 0.045491 0.013907 -0.007043
# 5 -0.002394 0.004531 -0.004347 0.013907 0.032251 -0.002320
# 6 -0.002485 -0.000891 0.002570 -0.007043 -0.002320 0.030746
#
#
# Mechanical properties :
#
#
# Convention : Reuss Voigt Hill
#
# Bulk Modulus (GPa) = 50.95002 54.18570 52.56786
# Shear Modulus (GPa) = 28.90895 34.27366 31.59131
#
# Velocity S-wave (km/s) = 3.67537 4.00189 3.84210
# Velocity P-wave (km/s) = 6.46673 6.83176 6.65175
#
# Compressibility (1/GPa) = 0.01962708
#
# Stress axis : x y z
#
# Youngs Moduli (GPa) = 96.90312 63.36204 78.89568
#
# Poissons Ratio (x) = 0.05588 0.24962
# Poissons Ratio (y) = 0.08546 0.43621
# Poissons Ratio (z) = 0.30660 0.35033
#
# Static dielectric constant tensor:
#      x y z
#    x 1.893010 -0.015840 -0.001760 
#    y -0.015840 1.839970 -0.044920 
#    z -0.001760 -0.044920 1.794190 
# 
# From -- ./inp_files/101238.got.cif
#   From: 2010.05.17/outbox.ucp.g08.bks.cvg/sg2_51_cif.got.tgz:101238.got - 2010.06.11 11:32:03.
