data_PCOD9072051
_publ_section_title
;
Structure prediction by ZEFSAII (Michael W. Deem and Ramdas Pophale) SiO2 
 PCOD9072051
Probable space group: P -1
;
_chemical_formula_sum "Si O2"
_cell_formula_units_Z 16
_cell_length_a 12.000000
_cell_length_b 12.000000
_cell_length_c 9.000000
_cell_angle_alpha 40.000000
_cell_angle_beta 90.000000
_cell_angle_gamma 90.000000
_cell_volume 833.052742
_symmetry_space_group_name_H-M "P -1"
_symmetry_group_IT_number 2
_symmetry_cell_setting 'triclinic'
loop_
_space_group_symop_operation_xyz
x,y,z
-x,-y,-z
loop_
_atom_site_type_symbol
_atom_site_label
_atom_site_fract_x
_atom_site_fract_y
_atom_site_fract_z
Si Si1 0.526125 0.449791 0.223038
Si Si2 0.165786 0.183004 0.487167
Si Si3 0.204911 0.131588 0.191611
Si Si4 0.795887 0.209425 0.162039
Si Si5 0.597186 0.088728 0.501008
Si Si6 0.089176 0.765243 0.562485
Si Si7 0.705575 0.518041 0.654389
Si Si8 0.757181 0.522759 0.300726
O O1 0.545490 0.242744 0.439224
O O2 0.422920 0.500725 0.275160
O O3 0.643150 0.526102 0.200827
O O4 0.500000 0.500000 0.000000
O O5 0.188539 0.196305 0.295784
O O6 0.250172 0.301192 0.459675
O O7 0.041296 0.247783 0.453998
O O8 0.175805 0.975363 0.724099
O O9 0.329625 0.050979 0.267114
O O10 0.127124 0.964930 0.333357
O O11 0.186023 0.291975 0.920257
O O12 0.685330 0.174120 0.298342
O O13 0.886668 0.260837 0.234450
O O14 0.772762 0.362863 0.892528
O O15 0.500000 0.000000 0.500000
O O16 0.165206 0.632475 0.603942
O O17 0.725656 0.507035 0.489632
#
# Coordination Sequence:
#
# PCOD9072051 Si02
#       8
#     2   2   2   2   2   2   2   2
#     4  12  20  42  66  88 124 160 213 258 296 361
#     4  10  22  41  67  94 118 159 217 266 303 356
#     4  10  21  39  64  91 121 156 213 261 302 358
#     4  10  20  40  63  92 120 156 211 263 303 356
#     4  10  18  34  63  91 114 151 208 255 301 344
#     4  10  21  43  67  91 119 161 218 264 303 357
#     4  12  26  39  59  95 133 165 202 247 319 384
#     4  12  25  41  59  94 133 168 197 249 319 381
#
# _framework density 19.206467
#
# number of rings (size 3 to 8) (size 9 to 14) (size 15 to 20)
#    0.000    1.500    3.750    5.625    0.000    4.500 
#    0.000    1.875    0.000    0.000    0.000    0.000 
#    0.000    0.000    0.000    0.000    0.000    0.000 
#
# Total GULP energy -89384.608969 kJ/mol
# GULP energy per Si atom -5586.538061 kJ/mol
# Density = 1.916275 g / cm^3
# Si number density = 19.206467 Si / 1000 Ang^3
#
#
#
# Elastic Constant Matrix: (Units=GPa)
#
#
# Indices 1 2 3 4 5 6 
#
# 1 75.8958 14.4048 2.7807 -4.2681 10.4788 -13.9306
# 2 14.4048 81.7336 50.5653 -3.2603 6.8503 -26.0164
# 3 2.7807 50.5653 87.7989 -1.7629 5.0830 -17.0436
# 4 -4.2681 -3.2603 -1.7629 22.1237 -3.3878 0.0558
# 5 10.4788 6.8503 5.0830 -3.3878 10.1561 -4.9860
# 6 -13.9306 -26.0164 -17.0436 0.0558 -4.9860 28.1454
#
#
#
# Elastic Compliance Matrix: (Units=1/GPa)
#
#
# Indices 1 2 3 4 5 6 
#
# 1 0.016372 -0.001089 0.002079 0.001009 -0.013976 0.005878
# 2 -0.001089 0.024068 -0.010800 0.002182 -0.001679 0.014867
# 3 0.002079 -0.010800 0.017993 -0.000263 -0.003286 0.001360
# 4 0.001009 0.002182 -0.000263 0.048164 0.016205 0.005132
# 5 -0.013976 -0.001679 -0.003286 0.016205 0.126956 0.012000
# 6 0.005878 0.014867 0.001360 0.005132 0.012000 0.055120
#
#
# Mechanical properties :
#
#
# Convention : Reuss Voigt Hill
#
# Bulk Modulus (GPa) = 25.76487 42.32553 34.04520
# Shear Modulus (GPa) = 15.56513 23.93022 19.74768
#
# Velocity S-wave (km/s) = 2.84986 3.53363 3.21000
# Velocity P-wave (km/s) = 4.92674 6.22364 5.61277
#
# Compressibility (1/GPa) = 0.03881254
#
# Stress axis : x y z
#
# Youngs Moduli (GPa) = 61.08110 41.54839 55.57803
#
# Poissons Ratio (x) = 0.04525 -0.11555
# Poissons Ratio (y) = 0.06653 0.60024
# Poissons Ratio (z) = -0.12699 0.44872
#
# Static dielectric constant tensor:
#      x y z
#    x 1.687090 0.010100 -0.000990 
#    y 0.010100 1.649660 -0.023900 
#    z -0.000990 -0.023900 1.682060 
# 
# From -- ./inp_files/255925.got.cif
#   From: 2010.05.17/outbox.ucp.g08.bks.cvg/sg2_128_cif.got.tgz:255925.got - 2010.06.11 11:32:03.
