data_PCOD9072340
_publ_section_title
;
Structure prediction by ZEFSAII (Michael W. Deem and Ramdas Pophale) SiO2 
 PCOD9072340
Probable space group: P -1
;
_chemical_formula_sum "Si O2"
_cell_formula_units_Z 16
_cell_length_a 6.000000
_cell_length_b 27.000000
_cell_length_c 18.000000
_cell_angle_alpha 160.000000
_cell_angle_beta 80.000000
_cell_angle_gamma 110.000000
_cell_volume 832.287944
_symmetry_space_group_name_H-M "P -1"
_symmetry_group_IT_number 2
_symmetry_cell_setting 'triclinic'
loop_
_space_group_symop_operation_xyz
x,y,z
-x,-y,-z
loop_
_atom_site_type_symbol
_atom_site_label
_atom_site_fract_x
_atom_site_fract_y
_atom_site_fract_z
Si Si1 0.442187 0.030799 0.292422
Si Si2 0.216867 0.952919 0.038445
Si Si3 0.604657 0.093692 0.722482
Si Si4 0.494235 0.380218 0.766650
Si Si5 0.839520 0.583369 0.906182
Si Si6 0.701178 0.855191 0.292697
Si Si7 0.206012 0.728666 0.597399
Si Si8 0.013695 0.189362 0.410004
O O1 0.255242 0.934725 0.097487
O O2 0.444299 0.203254 0.551840
O O3 0.744310 0.102358 0.350718
O O4 0.357078 0.914134 0.204460
O O5 0.506740 0.110255 0.216878
O O6 0.035510 0.033706 0.157147
O O7 0.139069 0.788995 0.762355
O O8 0.360877 0.113410 0.742352
O O9 0.544184 0.913961 0.437763
O O10 0.862313 0.257396 0.901205
O O11 0.767385 0.485186 0.850865
O O12 0.260115 0.312433 0.622673
O O13 0.500000 0.500000 0.000000
O O14 0.779594 0.439990 0.646208
O O15 0.666961 0.672881 0.043276
O O16 0.000000 0.000000 0.500000
O O17 0.006914 0.712196 0.520533
#
# Coordination Sequence:
#
# PCOD9072340 Si02
#       8
#     2   2   2   2   2   2   2   2
#     4  10  21  39  56  86 114 155 192 235 293 348
#     4   9  19  36  61  84 117 148 193 239 295 346
#     4  10  22  38  60  80 118 158 198 231 279 355
#     4  11  23  37  57  88 122 150 187 246 291 340
#     4  11  21  37  59  88 116 150 194 242 289 333
#     4   9  21  38  56  81 110 157 198 229 279 335
#     4  10  19  36  59  89 113 150 192 244 290 345
#     4  10  19  35  57  83 119 149 194 231 295 345
#
# _framework density 19.224115999999999
#
# number of rings (size 3 to 8) (size 9 to 14) (size 15 to 20)
#    0.000    2.000    3.750    1.125    1.750    7.500 
#    2.250    0.625    0.000    1.500    0.000    0.000 
#    0.000    0.000    0.000    0.000    0.000    0.000 
#
# Total GULP energy -89138.178520 kJ/mol
# GULP energy per Si atom -5571.136157 kJ/mol
# Density = 1.918036 g / cm^3
# Si number density = 19.224116 Si / 1000 Ang^3
#
#
#
# Elastic Constant Matrix: (Units=GPa)
#
#
# Indices 1 2 3 4 5 6 
#
# 1 38.3494 8.7215 14.9988 -0.6076 -2.3441 -6.8748
# 2 8.7215 68.1776 29.3305 -6.6366 5.4506 -8.0447
# 3 14.9988 29.3305 116.4580 -24.3405 -17.0663 0.1593
# 4 -0.6076 -6.6366 -24.3405 31.0142 12.0026 -7.3063
# 5 -2.3441 5.4506 -17.0663 12.0026 20.0021 1.1516
# 6 -6.8748 -8.0447 0.1593 -7.3063 1.1516 16.2171
#
#
#
# Elastic Compliance Matrix: (Units=1/GPa)
#
#
# Indices 1 2 3 4 5 6 
#
# 1 0.029913 -0.000593 -0.003634 0.000927 -0.000733 0.012892
# 2 -0.000593 0.021903 -0.005838 0.011442 -0.018873 0.017166
# 3 -0.003634 -0.005838 0.012838 0.004157 0.009819 -0.003387
# 4 0.000927 0.011442 0.004157 0.061421 -0.038416 0.036428
# 5 -0.000733 -0.018873 0.009819 -0.038416 0.088402 -0.033354
# 6 0.012892 0.017166 -0.003387 0.036428 -0.033354 0.094458
#
#
# Mechanical properties :
#
#
# Convention : Reuss Voigt Hill
#
# Bulk Modulus (GPa) = 22.46008 36.56518 29.51263
# Shear Modulus (GPa) = 14.53886 24.77564 19.65725
#
# Velocity S-wave (km/s) = 2.75304 3.59385 3.20117
# Velocity P-wave (km/s) = 4.67058 6.02352 5.38967
#
# Compressibility (1/GPa) = 0.04452343
#
# Stress axis : x y z
#
# Youngs Moduli (GPa) = 33.42981 45.65565 77.89677
#
# Poissons Ratio (x) = 0.02707 0.28311
# Poissons Ratio (y) = 0.01982 0.45475
# Poissons Ratio (z) = 0.12150 0.26653
#
# Static dielectric constant tensor:
#      x y z
#    x 1.769430 -0.001200 -0.019820 
#    y -0.001200 1.680190 -0.017150 
#    z -0.019820 -0.017150 1.652060 
# 
# From -- ./inp_files/81331.got.cif
#   From: 2010.05.17/outbox.ucp.g08.bks.cvg/sg2_41_cif.got.tgz:81331.got - 2010.06.11 11:32:03.
