data_PCOD9072162
_publ_section_title
;
Structure prediction by ZEFSAII (Michael W. Deem and Ramdas Pophale) SiO2 
 PCOD9072162
Probable space group: P -1
;
_chemical_formula_sum "Si O2"
_cell_formula_units_Z 16
_cell_length_a 21.000000
_cell_length_b 21.000000
_cell_length_c 12.000000
_cell_angle_alpha 150.000000
_cell_angle_beta 30.000000
_cell_angle_gamma 160.000000
_cell_volume 861.746745
_symmetry_space_group_name_H-M "P -1"
_symmetry_group_IT_number 2
_symmetry_cell_setting 'triclinic'
loop_
_space_group_symop_operation_xyz
x,y,z
-x,-y,-z
loop_
_atom_site_type_symbol
_atom_site_label
_atom_site_fract_x
_atom_site_fract_y
_atom_site_fract_z
Si Si1 0.724802 0.739467 0.318552
Si Si2 0.444020 0.671635 0.045910
Si Si3 0.104522 0.441617 0.593954
Si Si4 0.302539 0.543816 0.683605
Si Si5 0.885472 0.004152 0.262594
Si Si6 0.298299 0.748316 0.187729
Si Si7 0.291020 0.290417 0.452329
Si Si8 0.506743 0.823159 0.433595
O O1 0.510055 0.641027 0.478963
O O2 0.852686 0.906066 0.281788
O O3 0.801298 0.816613 0.448652
O O4 0.686890 0.557507 0.085684
O O5 0.332859 0.689147 0.158883
O O6 0.495407 0.770463 0.239760
O O7 0.637995 0.766787 0.827799
O O8 0.178058 0.507353 0.713145
O O9 0.298791 0.626420 0.507998
O O10 0.922418 0.378631 0.712965
O O11 0.017720 0.232065 0.412109
O O12 0.206461 0.349462 0.602527
O O13 0.355742 0.695376 0.920507
O O14 0.677966 0.881738 0.332942
O O15 0.000000 0.000000 0.000000
O O16 0.428502 0.977080 0.350563
O O17 0.500000 0.500000 0.500000
#
# Coordination Sequence:
#
# PCOD9072162 Si02
#       8
#     2   2   2   2   2   2   2   2
#     4  10  18  39  70  91 122 165 201 267 324 350
#     4  10  19  38  68  92 124 168 207 259 313 371
#     4  11  25  41  61  94 127 168 210 258 307 372
#     4  10  18  40  66  90 128 160 208 264 314 361
#     4  11  25  41  64  98 128 158 213 261 307 382
#     4  11  22  42  63  92 130 163 219 252 300 383
#     4   8  16  33  66  92 115 164 202 260 320 353
#     4  11  25  41  63  91 127 176 204 249 324 366
#
# _framework density 18.566939999999999
#
# number of rings (size 3 to 8) (size 9 to 14) (size 15 to 20)
#    0.000    2.000    5.000    1.500    3.500    2.000 
#    2.250    1.875    0.000    0.000    0.000    0.000 
#    0.000    0.000    0.000    0.000    0.000    0.000 
#
# Total GULP energy -89070.677870 kJ/mol
# GULP energy per Si atom -5566.917367 kJ/mol
# Density = 1.852468 g / cm^3
# Si number density = 18.566940 Si / 1000 Ang^3
#
#
#
# Elastic Constant Matrix: (Units=GPa)
#
#
# Indices 1 2 3 4 5 6 
#
# 1 176.5826 49.6004 64.5792 7.6247 12.4664 -18.6909
# 2 49.6004 107.4777 50.7483 7.1826 -0.0711 -16.5402
# 3 64.5792 50.7483 107.8145 18.0227 5.3102 -14.0802
# 4 7.6247 7.1826 18.0227 26.4629 1.7709 4.0595
# 5 12.4664 -0.0711 5.3102 1.7709 45.4452 3.4871
# 6 -18.6909 -16.5402 -14.0802 4.0595 3.4871 40.2207
#
#
#
# Elastic Compliance Matrix: (Units=1/GPa)
#
#
# Indices 1 2 3 4 5 6 
#
# 1 0.007746 -0.001619 -0.003647 0.000545 -0.001858 0.001763
# 2 -0.001619 0.012688 -0.004623 -0.000314 0.000801 0.002809
# 3 -0.003647 -0.004623 0.015466 -0.008603 -0.000690 0.002747
# 4 0.000545 -0.000314 -0.008603 0.044729 -0.000322 -0.007374
# 5 -0.001858 0.000801 -0.000690 -0.000322 0.022817 -0.002721
# 6 0.001763 0.002809 0.002747 -0.007374 -0.002721 0.028779
#
#
# Mechanical properties :
#
#
# Convention : Reuss Voigt Hill
#
# Bulk Modulus (GPa) = 62.02324 80.19231 71.10777
# Shear Modulus (GPa) = 31.77090 37.55554 34.66322
#
# Velocity S-wave (km/s) = 4.14110 4.50233 4.32549
# Velocity P-wave (km/s) = 7.50617 8.38527 7.95787
#
# Compressibility (1/GPa) = 0.01612299
#
# Stress axis : x y z
#
# Youngs Moduli (GPa) = 129.10209 78.81521 64.65660
#
# Poissons Ratio (x) = 0.12760 0.23580
# Poissons Ratio (y) = 0.20901 0.29888
# Poissons Ratio (z) = 0.47083 0.36433
#
# Static dielectric constant tensor:
#      x y z
#    x 1.677980 -0.013920 0.005690 
#    y -0.013920 1.675590 -0.013680 
#    z 0.005690 -0.013680 1.676740 
# 
# From -- ./inp_files/472677.got.cif
#   From: 2010.05.17/outbox.ucp.g08.bks.cvg/sg2_237_cif.got.tgz:472677.got - 2010.06.11 11:32:03.
