data_PCOD9072664
_publ_section_title
;
Structure prediction by ZEFSAII (Michael W. Deem and Ramdas Pophale) SiO2 
 PCOD9072664
Probable space group: P -1
;
_chemical_formula_sum "Si O2"
_cell_formula_units_Z 16
_cell_length_a 6.000000
_cell_length_b 27.000000
_cell_length_c 6.000000
_cell_angle_alpha 50.000000
_cell_angle_beta 80.000000
_cell_angle_gamma 80.000000
_cell_volume 730.800219
_symmetry_space_group_name_H-M "P -1"
_symmetry_group_IT_number 2
_symmetry_cell_setting 'triclinic'
loop_
_space_group_symop_operation_xyz
x,y,z
-x,-y,-z
loop_
_atom_site_type_symbol
_atom_site_label
_atom_site_fract_x
_atom_site_fract_y
_atom_site_fract_z
Si Si1 0.382120 0.288280 0.720471
Si Si2 0.016366 0.755958 0.764358
Si Si3 0.089222 0.071403 0.289504
Si Si4 0.089816 0.356685 0.176768
Si Si5 0.327319 0.825425 0.825084
Si Si6 0.796666 0.467290 0.753160
Si Si7 0.740855 0.889363 0.349507
Si Si8 0.475697 0.405196 0.640414
O O1 0.248036 0.321788 0.439090
O O2 0.520503 0.344641 0.642638
O O3 0.535673 0.219552 0.882145
O O4 0.179039 0.269025 0.971855
O O5 0.225987 0.773893 0.824439
O O6 0.052057 0.699736 0.739188
O O7 0.908257 0.824031 0.490489
O O8 0.195442 0.077929 0.509891
O O9 0.877371 0.126981 0.176056
O O10 0.228960 0.079673 0.999740
O O11 0.000000 0.000000 0.500000
O O12 0.271071 0.382862 0.895742
O O13 0.911104 0.419754 0.061056
O O14 0.492972 0.866595 0.525650
O O15 0.674710 0.423923 0.716610
O O16 0.618144 0.528549 0.661936
O O17 0.000000 0.500000 0.500000
#
# Coordination Sequence:
#
# PCOD9072664 Si02
#       8
#     2   2   2   2   2   2   2   2
#     4  10  21  38  58  93 124 163 223 274 332 412
#     4   9  21  39  59  90 129 169 214 273 333 404
#     4  11  25  47  71 104 143 183 234 286 341 415
#     4  10  20  34  59  86 119 163 216 272 329 402
#     4  10  23  43  67  98 136 185 216 288 351 398
#     4   9  18  35  56  79 116 168 207 268 337 396
#     4  10  24  43  70 103 140 179 237 284 340 421
#     4   9  19  37  55  81 123 160 215 269 330 405
#
# _framework density 21.893808
#
# number of rings (size 3 to 8) (size 9 to 14) (size 15 to 20)
#    0.000    2.250    0.000    1.125    5.250    4.500 
#    9.000    5.625    0.000    0.000    0.000    0.000 
#    0.000    0.000    0.000    0.000    0.000    0.000 
#
# Total GULP energy -89214.901555 kJ/mol
# GULP energy per Si atom -5575.931347 kJ/mol
# Density = 2.184398 g / cm^3
# Si number density = 21.893808 Si / 1000 Ang^3
#
#
#
# Elastic Constant Matrix: (Units=GPa)
#
#
# Indices 1 2 3 4 5 6 
#
# 1 89.1042 31.7200 17.5466 -7.5945 -4.4854 22.7471
# 2 31.7200 99.5956 31.2040 -12.7823 -4.9681 25.0809
# 3 17.5466 31.2040 102.9033 1.3201 -1.3794 19.3594
# 4 -7.5945 -12.7823 1.3201 26.3277 -1.4467 -11.0944
# 5 -4.4854 -4.9681 -1.3794 -1.4467 31.8786 -7.9018
# 6 22.7471 25.0809 19.3594 -11.0944 -7.9018 30.3895
#
#
#
# Elastic Compliance Matrix: (Units=1/GPa)
#
#
# Indices 1 2 3 4 5 6 
#
# 1 0.014326 -0.002390 0.000040 -0.000999 -0.000712 -0.009325
# 2 -0.002390 0.013705 -0.002537 0.003299 0.000191 -0.006652
# 3 0.000040 -0.002537 0.012049 -0.005364 -0.002125 -0.008123
# 4 -0.000999 0.003299 -0.005364 0.048963 0.007644 0.021305
# 5 -0.000712 0.000191 -0.002125 0.007644 0.034925 0.013601
# 6 -0.009325 -0.006652 -0.008123 0.021305 0.013601 0.061865
#
#
# Mechanical properties :
#
#
# Convention : Reuss Voigt Hill
#
# Bulk Modulus (GPa) = 32.99825 50.28270 41.64048
# Shear Modulus (GPa) = 24.30640 31.79468 28.05054
#
# Velocity S-wave (km/s) = 3.33557 3.81494 3.58328
# Velocity P-wave (km/s) = 5.47169 6.51318 6.01502
#
# Compressibility (1/GPa) = 0.03030464
#
# Stress axis : x y z
#
# Youngs Moduli (GPa) = 69.80538 72.96851 82.99648
#
# Poissons Ratio (x) = 0.17442 -0.00330
# Poissons Ratio (y) = 0.16686 0.21052
# Poissons Ratio (z) = -0.00278 0.18509
#
# Static dielectric constant tensor:
#      x y z
#    x 1.826570 0.005620 0.031610 
#    y 0.005620 1.819020 0.011020 
#    z 0.031610 0.011020 1.824650 
# 
# From -- ./inp_files/10689.got.cif
#   From: 2010.05.17/outbox.ucp.g08.bks.cvg/sg2_6_cif.got.tgz:10689.got - 2010.06.11 11:32:03.
