data_PCOD9072766
_publ_section_title
;
Structure prediction by ZEFSAII (Michael W. Deem and Ramdas Pophale) SiO2 
 PCOD9072766
Probable space group: P -1
;
_chemical_formula_sum "Si O2"
_cell_formula_units_Z 16
_cell_length_a 24.000000
_cell_length_b 15.000000
_cell_length_c 9.000000
_cell_angle_alpha 30.000000
_cell_angle_beta 50.000000
_cell_angle_gamma 30.000000
_cell_volume 731.734496
_symmetry_space_group_name_H-M "P -1"
_symmetry_group_IT_number 2
_symmetry_cell_setting 'triclinic'
loop_
_space_group_symop_operation_xyz
x,y,z
-x,-y,-z
loop_
_atom_site_type_symbol
_atom_site_label
_atom_site_fract_x
_atom_site_fract_y
_atom_site_fract_z
Si Si1 0.342221 0.289853 0.692241
Si Si2 0.089826 0.697194 0.379145
Si Si3 0.358140 0.664359 0.146191
Si Si4 0.020696 0.200969 0.252137
Si Si5 0.586868 0.793993 0.806377
Si Si6 0.095212 0.336329 0.711990
Si Si7 0.207302 0.513288 0.883245
Si Si8 0.458325 0.404039 0.025242
O O1 0.221417 0.523517 0.454779
O O2 0.368255 0.437241 0.495110
O O3 0.295665 0.282743 0.928187
O O4 0.467487 0.983708 0.839631
O O5 0.023790 0.761373 0.557013
O O6 0.116503 0.493007 0.506436
O O7 0.000000 0.000000 0.000000
O O8 0.388515 0.602592 0.006873
O O9 0.454563 0.603127 0.151860
O O10 0.222269 0.001102 0.922192
O O11 0.903587 0.404102 0.050858
O O12 0.129176 0.852016 0.517292
O O13 0.062397 0.309787 0.966689
O O14 0.626229 0.528352 0.046840
O O15 0.541234 0.062852 0.409763
O O16 0.704535 0.636605 0.915187
O O17 0.000000 0.500000 0.500000
#
# Coordination Sequence:
#
# PCOD9072766 Si02
#       8
#     2   2   2   2   2   2   2   2
#     4  10  20  40  62  92 125 163 217 260 322 387
#     4  11  25  43  69  97 130 172 215 271 330 390
#     4  10  20  39  60  85 130 159 209 267 316 373
#     4  10  24  43  62  95 135 171 216 274 316 391
#     4  10  20  36  63  91 123 168 210 262 327 381
#     4  12  25  40  67  96 127 176 218 264 329 383
#     4  10  21  38  65  87 130 166 215 259 334 373
#     4   9  21  37  59  93 125 161 210 271 312 383
#
# _framework density 21.865853999999999
#
# number of rings (size 3 to 8) (size 9 to 14) (size 15 to 20)
#    0.000    1.750    1.250    2.250    5.250    4.000 
#    0.000    0.625    5.500    0.000    0.000    0.000 
#    0.000    0.000    0.000    0.000    0.000    0.000 
#
# Total GULP energy -89138.809155 kJ/mol
# GULP energy per Si atom -5571.175572 kJ/mol
# Density = 2.181609 g / cm^3
# Si number density = 21.865854 Si / 1000 Ang^3
#
#
#
# Elastic Constant Matrix: (Units=GPa)
#
#
# Indices 1 2 3 4 5 6 
#
# 1 101.3181 -1.0499 17.2615 -0.6139 -8.7090 13.3011
# 2 -1.0499 54.4241 17.4167 -0.4848 2.7852 9.9393
# 3 17.2615 17.4167 21.2355 3.9153 -7.9112 -5.9208
# 4 -0.6139 -0.4848 3.9153 17.2754 4.0013 -4.6182
# 5 -8.7090 2.7852 -7.9112 4.0013 25.7412 -2.8207
# 6 13.3011 9.9393 -5.9208 -4.6182 -2.8207 25.6984
#
#
#
# Elastic Compliance Matrix: (Units=1/GPa)
#
#
# Indices 1 2 3 4 5 6 
#
# 1 0.025023 0.030285 -0.066392 0.010945 -0.021337 -0.040336
# 2 0.030285 0.080473 -0.137462 0.025544 -0.053417 -0.079743
# 3 -0.066392 -0.137462 0.313187 -0.060860 0.115818 0.161461
# 4 0.010945 0.025544 -0.060860 0.074858 -0.031547 -0.019577
# 5 -0.021337 -0.053417 0.115818 -0.031547 0.084703 0.062015
# 6 -0.040336 -0.079743 0.161461 -0.019577 0.062015 0.131121
#
#
# Mechanical properties :
#
#
# Convention : Reuss Voigt Hill
#
# Bulk Modulus (GPa) = 13.97744 27.13714 20.55729
# Shear Modulus (GPa) = 4.62812 23.29962 13.96387
#
# Velocity S-wave (km/s) = 1.45643 3.26785 2.52983
# Velocity P-wave (km/s) = 3.03883 5.16489 4.23737
#
# Compressibility (1/GPa) = 0.07154386
#
# Stress axis : x y z
#
# Youngs Moduli (GPa) = 39.96403 12.42650 3.19298
#
# Poissons Ratio (x) = -0.37634 0.21199
# Poissons Ratio (y) = -1.21032 0.43892
# Poissons Ratio (z) = 2.65329 1.70818
#
# Static dielectric constant tensor:
#      x y z
#    x 1.912070 -0.006910 0.053530 
#    y -0.006910 1.830330 0.063010 
#    z 0.053530 0.063010 1.906290 
# 
# From -- ./inp_files/354488.got.cif
#   From: 2010.05.17/outbox.ucp.g08.bks.cvg/sg2_178_cif.got.tgz:354488.got - 2010.06.11 11:32:03.
