data_PCOD9072680
_publ_section_title
;
Structure prediction by ZEFSAII (Michael W. Deem and Ramdas Pophale) SiO2 
 PCOD9072680
Probable space group: P -1
;
_chemical_formula_sum "Si O2"
_cell_formula_units_Z 14
_cell_length_a 12.879176
_cell_length_b 11.844647
_cell_length_c 12.045043
_cell_angle_alpha 37.637427
_cell_angle_beta 111.302302
_cell_angle_gamma 79.920317
_cell_volume 608.305887
_symmetry_space_group_name_H-M "P -1"
_symmetry_group_IT_number 2
_symmetry_cell_setting 'triclinic'
loop_
_space_group_symop_operation_xyz
x,y,z
-x,-y,-z
loop_
_atom_site_type_symbol
_atom_site_label
_atom_site_fract_x
_atom_site_fract_y
_atom_site_fract_z
Si Si1 0.389325 0.143357 0.597439
Si Si2 0.821032 0.105009 0.139445
Si Si3 0.044781 0.342896 0.292331
Si Si4 0.741404 0.559086 0.899089
Si Si5 0.716180 0.269191 0.284041
Si Si6 0.671318 0.415600 0.625669
Si Si7 0.597755 0.512551 0.273924
O O1 0.173232 0.350182 0.347272
O O2 0.424419 0.158066 0.471830
O O3 0.393423 0.309671 0.552367
O O4 0.521190 0.805376 0.961206
O O5 0.952535 0.765851 0.503597
O O6 0.850831 0.258021 0.096768
O O7 0.833392 0.118041 0.002705
O O8 0.599161 0.341388 0.897198
O O9 0.158581 0.043602 0.491977
O O10 0.843742 0.607281 0.945593
O O11 0.724851 0.455739 0.082187
O O12 0.735693 0.242201 0.444885
O O13 0.500000 0.500000 0.000000
O O14 0.500000 0.500000 0.500000
O O15 0.700808 0.402096 0.517277
#
# Coordination Sequence:
#
# PCOD9072680 Si02
#       7
#     2   2   2   2   2   2   2
#     4  10  19  32  52  74 104 135 172 214 242 303
#     4   8  15  29  49  70  97 131 167 208 235 298
#     4  10  19  33  53  76 104 140 168 204 254 304
#     4  10  19  31  51  76 103 141 172 196 252 313
#     4  11  18  33  52  75 111 132 162 215 259 298
#     4   9  18  31  50  74 101 134 174 208 255 300
#     4  10  18  31  49  78 107 132 161 212 264 289
#
# _framework density 23.014737
#
# number of rings (size 3 to 8) (size 9 to 14) (size 15 to 20)
#    0.000    2.286    4.286    2.571    0.000    0.571 
#    0.000    0.000    0.000    8.571    0.000    0.000 
#    0.000    0.000    0.000    0.000    0.000    0.000 
#
# Total GULP energy -78101.109243 kJ/mol
# GULP energy per Si atom -5578.650660 kJ/mol
# Density = 2.296235 g / cm^3
# Si number density = 23.014737 Si / 1000 Ang^3
#
#
#
# Elastic Constant Matrix: (Units=GPa)
#
#
# Indices 1 2 3 4 5 6 
#
# 1 87.7380 41.5457 22.8496 11.4241 -12.3081 17.0446
# 2 41.5457 131.0089 37.4825 43.6565 -2.8839 -2.7916
# 3 22.8496 37.4825 45.4717 27.3703 -15.3679 -13.5109
# 4 11.4241 43.6565 27.3703 43.6353 -3.4639 -12.1867
# 5 -12.3081 -2.8839 -15.3679 -3.4639 33.0185 10.2901
# 6 17.0446 -2.7916 -13.5109 -12.1867 10.2901 48.3543
#
#
#
# Elastic Compliance Matrix: (Units=1/GPa)
#
#
# Indices 1 2 3 4 5 6 
#
# 1 0.017707 -0.004284 -0.007467 0.002212 0.005871 -0.009267
# 2 -0.004284 0.013503 -0.004075 -0.010299 -0.003153 -0.000773
# 3 -0.007467 -0.004075 0.049628 -0.021783 0.015333 0.007511
# 4 0.002212 -0.010299 -0.021783 0.047417 -0.007110 0.006003
# 5 0.005871 -0.003153 0.015333 -0.007110 0.041250 -0.008537
# 6 -0.009267 -0.000773 0.007511 0.006003 -0.008537 0.029331
#
#
# Mechanical properties :
#
#
# Convention : Reuss Voigt Hill
#
# Bulk Modulus (GPa) = 20.33083 51.99715 36.16399
# Shear Modulus (GPa) = 20.25243 35.82432 28.03838
#
# Velocity S-wave (km/s) = 2.96966 3.94963 3.49417
# Velocity P-wave (km/s) = 4.53999 6.59102 5.65920
#
# Compressibility (1/GPa) = 0.04918637
#
# Stress axis : x y z
#
# Youngs Moduli (GPa) = 56.47570 74.05491 20.15000
#
# Poissons Ratio (x) = 0.31727 0.15046
# Poissons Ratio (y) = 0.24195 0.08210
# Poissons Ratio (z) = 0.42171 0.30174
#
# Static dielectric constant tensor:
#      x y z
#    x 1.953280 -0.036870 0.017550 
#    y -0.036870 1.849260 0.009790 
#    z 0.017550 0.009790 1.987260 
# 
# From -- ./inp_files/181315.got.cif
#   From: 2010.05.17/outbox.cif.g08.bks.cpg/sg2_91_cif.got.tgz:181315.got - 2010.06.03 11:33:40.
