data_PCOD9072033
_publ_section_title
;
Structure prediction by ZEFSAII (Michael W. Deem and Ramdas Pophale) SiO2 
 PCOD9072033
Probable space group: P -1
;
_chemical_formula_sum "Si O2"
_cell_formula_units_Z 15
_cell_length_a 11.669685
_cell_length_b 10.227315
_cell_length_c 8.123451
_cell_angle_alpha 115.255735
_cell_angle_beta 83.700926
_cell_angle_gamma 50.962725
_cell_volume 573.807878
_symmetry_space_group_name_H-M "P -1"
_symmetry_group_IT_number 2
_symmetry_cell_setting 'triclinic'
loop_
_space_group_symop_operation_xyz
x,y,z
-x,-y,-z
loop_
_atom_site_type_symbol
_atom_site_label
_atom_site_fract_x
_atom_site_fract_y
_atom_site_fract_z
Si Si1 0.738488 0.575109 0.292204
Si Si2 0.090519 0.105955 0.467176
Si Si3 0.596007 0.022713 0.840891
Si Si4 0.638061 0.198687 0.468793
Si Si5 0.892657 0.149550 0.933753
Si Si6 0.540574 0.338811 0.201908
Si Si7 0.837716 0.557824 0.624757
Si Si8 0.500000 0.000000 0.500000
O O1 0.523893 0.744701 0.399352
O O2 0.864424 0.349073 0.054762
O O3 0.776028 0.526935 0.454712
O O4 0.720407 0.756908 0.342509
O O5 0.238194 0.044587 0.297026
O O6 0.920004 0.366930 0.634766
O O7 0.188707 0.997544 0.566081
O O8 0.053297 0.991705 0.311730
O O9 0.689270 0.815401 0.830222
O O10 0.502868 0.026909 0.712777
O O11 0.483120 0.259463 0.060175
O O12 0.626321 0.189683 0.271751
O O13 0.600642 0.405344 0.602870
O O14 0.692833 0.287311 0.066642
O O15 0.000000 0.000000 0.000000
O O16 0.000000 0.500000 0.500000
#
# Coordination Sequence:
#
# PCOD9072033 Si02
#       8
#     2   2   2   2   2   2   2   1
#     4  10  19  32  54  79 112 134 177 222 268 314
#     4  10  18  32  56  80 102 137 181 224 261 313
#     4   9  18  32  53  77 106 140 175 218 260 309
#     4  10  20  36  56  79 109 143 175 219 273 320
#     4  10  19  33  57  83 103 136 180 224 269 315
#     4   9  21  36  54  77 113 142 172 219 277 315
#     4   9  18  32  50  79 109 141 171 220 271 305
#     4  10  18  30  50  84 106 134 178 226 250 306
#
# _framework density 26.141155000000001
#
# number of rings (size 3 to 8) (size 9 to 14) (size 15 to 20)
#    0.000    2.400    2.667    0.000    1.867    1.600 
#    0.000    4.000    0.000    0.000    0.000    0.000 
#    0.000    0.000    0.000    0.000    0.000    0.000 
#
# Total GULP energy -83636.977642 kJ/mol
# GULP energy per Si atom -5575.798509 kJ/mol
# Density = 2.608166 g / cm^3
# Si number density = 26.141155 Si / 1000 Ang^3
#
#
#
# Elastic Constant Matrix: (Units=GPa)
#
#
# Indices 1 2 3 4 5 6 
#
# 1 87.9230 3.8103 8.3776 0.2841 7.4439 -2.5592
# 2 3.8103 173.3551 52.5273 11.7582 28.9316 -31.5371
# 3 8.3776 52.5273 107.0513 10.2325 45.1929 -7.2415
# 4 0.2841 11.7582 10.2325 29.6555 3.0653 -0.7242
# 5 7.4439 28.9316 45.1929 3.0653 42.3225 -4.8119
# 6 -2.5592 -31.5371 -7.2415 -0.7242 -4.8119 29.2505
#
#
#
# Elastic Compliance Matrix: (Units=1/GPa)
#
#
# Indices 1 2 3 4 5 6 
#
# 1 0.011570 0.000294 -0.000164 0.000055 -0.001954 0.000969
# 2 0.000294 0.008515 -0.002597 -0.002074 -0.002019 0.008180
# 3 -0.000164 -0.002597 0.018334 -0.003500 -0.017664 -0.001268
# 4 0.000055 -0.002074 -0.003500 0.035461 0.002369 -0.001830
# 5 -0.001954 -0.002019 -0.017664 0.002369 0.044110 0.000594
# 6 0.000969 0.008180 -0.001268 -0.001830 0.000594 0.042830
#
#
# Mechanical properties :
#
#
# Convention : Reuss Voigt Hill
#
# Bulk Modulus (GPa) = 29.86468 55.30666 42.58567
# Shear Modulus (GPa) = 28.26203 40.48663 34.37433
#
# Velocity S-wave (km/s) = 3.29162 3.93971 3.63016
# Velocity P-wave (km/s) = 5.08877 6.47286 5.82209
#
# Compressibility (1/GPa) = 0.03348437
#
# Stress axis : x y z
#
# Youngs Moduli (GPa) = 86.43048 117.44500 54.54213
#
# Poissons Ratio (x) = -0.03455 0.00897
# Poissons Ratio (y) = -0.02543 0.14165
# Poissons Ratio (z) = 0.01422 0.30501
#
# Static dielectric constant tensor:
#      x y z
#    x 1.639370 -0.378020 -0.292460 
#    y -0.378020 1.674260 -0.189530 
#    z -0.292460 -0.189530 1.914640 
# 
# From -- ./inp_files/172691.got.cif
#   From: 2010.05.17/outbox.cif.g08.bks.cpg/sg2_87_cif.got.tgz:172691.got - 2010.06.03 11:33:40.
