data_PCOD9072147
_publ_section_title
;
Structure prediction by ZEFSAII (Michael W. Deem and Ramdas Pophale) SiO2 
 PCOD9072147
Probable space group: P -1
;
_chemical_formula_sum "Si O2"
_cell_formula_units_Z 16
_cell_length_a 5.411654
_cell_length_b 7.356249
_cell_length_c 22.928300
_cell_angle_alpha 54.014444
_cell_angle_beta 106.531391
_cell_angle_gamma 97.202537
_cell_volume 707.017282
_symmetry_space_group_name_H-M "P -1"
_symmetry_group_IT_number 2
_symmetry_cell_setting 'triclinic'
loop_
_space_group_symop_operation_xyz
x,y,z
-x,-y,-z
loop_
_atom_site_type_symbol
_atom_site_label
_atom_site_fract_x
_atom_site_fract_y
_atom_site_fract_z
Si Si1 0.399276 0.622002 0.912256
Si Si2 0.714399 0.110518 0.698197
Si Si3 0.560839 0.760759 0.456007
Si Si4 0.595850 0.848267 0.153872
Si Si5 0.236406 0.365255 0.682287
Si Si6 0.138083 0.297287 0.129433
Si Si7 0.975932 0.032959 0.923160
Si Si8 0.130386 0.790105 0.514703
O O1 0.611046 0.566098 0.888747
O O2 0.111135 0.558376 0.894181
O O3 0.384483 0.897230 0.864549
O O4 0.500000 0.500000 0.000000
O O5 0.565585 0.084797 0.632495
O O6 0.500314 0.252502 0.694777
O O7 0.974584 0.236272 0.678244
O O8 0.797247 0.895665 0.782888
O O9 0.500000 0.500000 0.500000
O O10 0.870843 0.738656 0.471289
O O11 0.387210 0.832089 0.487493
O O12 0.721170 0.661061 0.240664
O O13 0.292709 0.824655 0.131504
O O14 0.767819 0.865858 0.104625
O O15 0.196260 0.602005 0.603178
O O16 0.065470 0.185673 0.081946
O O17 0.000000 0.000000 0.000000
O O18 0.000000 0.000000 0.500000
#
# Coordination Sequence:
#
# PCOD9072147 Si02
#       8
#     2   2   2   2   2   2   2   2
#     4  10  18  30  52  76 111 140 178 238 304 363
#     4  12  20  35  64  91 121 151 215 279 300 359
#     4  12  23  40  67 101 127 167 229 272 312 387
#     4  10  19  33  52  83 104 143 209 232 300 363
#     4  12  19  37  63  88 118 164 207 263 316 381
#     4  10  19  34  50  85 108 147 197 240 314 354
#     4  10  18  31  52  77 110 141 183 250 293 351
#     4  12  26  43  64  96 139 175 208 268 346 391
#
# _framework density 22.630282000000001
#
# number of rings (size 3 to 8) (size 9 to 14) (size 15 to 20)
#    0.000    1.000    7.500    2.250    0.000    0.000 
#    0.000    0.000    0.000   18.000    0.000    0.000 
#    0.000    0.000    0.000    0.000    0.000    0.000 
#
# Total GULP energy -89272.152985 kJ/mol
# GULP energy per Si atom -5579.509562 kJ/mol
# Density = 2.257877 g / cm^3
# Si number density = 22.630282 Si / 1000 Ang^3
#
#
#
# Elastic Constant Matrix: (Units=GPa)
#
#
# Indices 1 2 3 4 5 6 
#
# 1 169.4022 8.0679 19.1466 -4.4499 9.7965 -10.8673
# 2 8.0679 28.7099 -0.3314 6.1465 -1.5885 -10.3454
# 3 19.1466 -0.3314 135.4523 -4.5555 2.6844 -0.0962
# 4 -4.4499 6.1465 -4.5555 13.1395 -6.1232 3.0931
# 5 9.7965 -1.5885 2.6844 -6.1232 46.9492 6.0719
# 6 -10.8673 -10.3454 -0.0962 3.0931 6.0719 18.4938
#
#
#
# Elastic Compliance Matrix: (Units=1/GPa)
#
#
# Indices 1 2 3 4 5 6 
#
# 1 0.006392 -0.000559 -0.000854 0.000375 -0.001767 0.003957
# 2 -0.000559 0.058856 -0.000991 -0.042203 -0.008843 0.042552
# 3 -0.000854 -0.000991 0.007606 0.003386 0.000372 -0.001705
# 4 0.000375 -0.042203 0.003386 0.118261 0.020161 -0.049768
# 5 -0.001767 -0.008843 0.000372 0.020161 0.026304 -0.017991
# 6 0.003957 0.042552 -0.001705 -0.049768 -0.017991 0.094422
#
#
# Mechanical properties :
#
#
# Convention : Reuss Voigt Hill
#
# Bulk Modulus (GPa) = 14.69585 43.03675 28.86630
# Shear Modulus (GPa) = 14.73487 36.16190 25.44839
#
# Velocity S-wave (km/s) = 2.55446 4.00176 3.35704
# Velocity P-wave (km/s) = 3.89979 6.35695 5.27348
#
# Compressibility (1/GPa) = 0.06804644
#
# Stress axis : x y z
#
# Youngs Moduli (GPa) = 156.44264 16.99067 131.46943
#
# Poissons Ratio (x) = 0.00949 0.11234
# Poissons Ratio (y) = 0.08737 0.13028
# Poissons Ratio (z) = 0.13368 0.01684
#
# Static dielectric constant tensor:
#      x y z
#    x 1.815880 -0.058270 -0.031680 
#    y -0.058270 1.853470 0.025870 
#    z -0.031680 0.025870 1.797870 
# 
# From -- ./inp_files/581660.got.cif
#   From: 2010.05.17/outbox.cif.g08.bks.cpg/sg2_291_cif.got.tgz:581660.got - 2010.06.03 11:33:40.
