data_PCOD9072559
_publ_section_title
;
Structure prediction by ZEFSAII (Michael W. Deem and Ramdas Pophale) SiO2 
 PCOD9072559
Probable space group: P -1
;
_chemical_formula_sum "Si O2"
_cell_formula_units_Z 10
_cell_length_a 12.000000
_cell_length_b 9.000000
_cell_length_c 9.000000
_cell_angle_alpha 110.000000
_cell_angle_beta 130.000000
_cell_angle_gamma 40.000000
_cell_volume 455.749138
_symmetry_space_group_name_H-M "P -1"
_symmetry_group_IT_number 2
_symmetry_cell_setting 'triclinic'
loop_
_space_group_symop_operation_xyz
x,y,z
-x,-y,-z
loop_
_atom_site_type_symbol
_atom_site_label
_atom_site_fract_x
_atom_site_fract_y
_atom_site_fract_z
Si Si1 0.934031 0.305895 0.826734
Si Si2 0.700071 0.539309 0.388117
Si Si3 0.561855 0.065420 0.934411
Si Si4 0.935338 0.972326 0.591767
Si Si5 0.476327 0.391358 0.210499
O O1 0.813115 0.464209 0.623443
O O2 0.760123 0.462128 0.868391
O O3 0.972815 0.082721 0.776190
O O4 0.183764 0.171882 0.985556
O O5 0.524970 0.537867 0.270339
O O6 0.898263 0.312571 0.368907
O O7 0.588765 0.780352 0.290238
O O8 0.532885 0.256955 0.059884
O O9 0.500000 0.000000 0.000000
O O10 0.669189 0.170164 0.415397
O O11 0.000000 0.000000 0.500000
#
# Coordination Sequence:
#
# PCOD9072559 Si02
#       5
#     2   2   2   2   2
#     4  10  20  39  61  88 115 143 192 245 280 333
#     4  10  19  39  65  85 110 152 189 238 295 325
#     4  12  25  39  55  84 122 157 190 227 281 349
#     4   8  14  33  62  84 106 141 183 238 284 322
#     4  10  19  39  64  86 114 144 192 244 283 335
#
# _framework density 21.941896
#
# number of rings (size 3 to 8) (size 9 to 14) (size 15 to 20)
#    0.000    2.400    6.000    3.000    0.000    2.400 
#    3.600    1.000    0.000    0.000    0.000    0.000 
#    0.000    0.000    0.000    0.000    0.000    0.000 
#
# Total GULP energy -55714.869407 kJ/mol
# GULP energy per Si atom -5571.486941 kJ/mol
# Density = 2.189195 g / cm^3
# Si number density = 21.941896 Si / 1000 Ang^3
#
#
#
# Elastic Constant Matrix: (Units=GPa)
#
#
# Indices 1 2 3 4 5 6 
#
# 1 92.6342 39.0469 9.2617 -30.6015 -1.7754 -28.7955
# 2 39.0469 57.3212 14.6542 -30.3354 3.3349 -22.3506
# 3 9.2617 14.6542 44.9709 -28.5386 -9.0959 4.8921
# 4 -30.6015 -30.3354 -28.5386 39.2034 -0.3364 -1.7408
# 5 -1.7754 3.3349 -9.0959 -0.3364 25.2594 -17.1174
# 6 -28.7955 -22.3506 4.8921 -1.7408 -17.1174 47.0979
#
#
#
# Elastic Compliance Matrix: (Units=1/GPa)
#
#
# Indices 1 2 3 4 5 6 
#
# 1 0.045390 0.026126 0.045887 0.092209 0.058086 0.059903
# 2 0.026126 0.073167 0.048909 0.116312 0.059920 0.071691
# 3 0.045887 0.048909 0.103797 0.153488 0.089515 0.078691
# 4 0.092209 0.116312 0.153488 0.308006 0.163215 0.166334
# 5 0.058086 0.059920 0.089515 0.163215 0.147659 0.114349
# 6 0.059903 0.071691 0.078691 0.166334 0.114349 0.131412
#
#
# Mechanical properties :
#
#
# Convention : Reuss Voigt Hill
#
# Bulk Modulus (GPa) = 2.15425 35.65023 18.90224
# Shear Modulus (GPa) = 6.92215 31.10970 19.01593
#
# Velocity S-wave (km/s) = 1.77809 3.76948 2.94708
# Velocity P-wave (km/s) = 2.28022 5.93533 4.49597
#
# Compressibility (1/GPa) = 0.46419903
#
# Stress axis : x y z
#
# Youngs Moduli (GPa) = 22.03130 13.66742 9.63417
#
# Poissons Ratio (x) = -0.35708 -0.44208
# Poissons Ratio (y) = -0.57559 -0.47120
# Poissons Ratio (z) = -1.01095 -0.66847
#
# Static dielectric constant tensor:
#      x y z
#    x 1.784860 0.013910 0.049750 
#    y 0.013910 1.904520 -0.006130 
#    z 0.049750 -0.006130 1.916380 
# 
# From -- ./inp_files/146864.got.cif
#   From: 2010.05.17/outbox.ucp.g08.bks.cvg/sg2_74_cif.got.tgz:146864.got - 2010.06.11 11:32:03.
