data_PCOD9072532
_publ_section_title
;
Structure prediction by ZEFSAII (Michael W. Deem and Ramdas Pophale) SiO2 
 PCOD9072532
Probable space group: P -1
;
_chemical_formula_sum "Si O2"
_cell_formula_units_Z 12
_cell_length_a 12.000000
_cell_length_b 9.000000
_cell_length_c 9.000000
_cell_angle_alpha 80.000000
_cell_angle_beta 60.000000
_cell_angle_gamma 40.000000
_cell_volume 501.352703
_symmetry_space_group_name_H-M "P -1"
_symmetry_group_IT_number 2
_symmetry_cell_setting 'triclinic'
loop_
_space_group_symop_operation_xyz
x,y,z
-x,-y,-z
loop_
_atom_site_type_symbol
_atom_site_label
_atom_site_fract_x
_atom_site_fract_y
_atom_site_fract_z
Si Si1 0.313795 0.518405 0.526890
Si Si2 0.767628 0.143870 0.655227
Si Si3 0.101789 0.010641 0.087251
Si Si4 0.137636 0.630403 0.042637
Si Si5 0.798918 0.585534 0.645482
Si Si6 0.523886 0.122534 0.690740
O O1 0.393675 0.591250 0.369941
O O2 0.209185 0.522656 0.464517
O O3 0.466795 0.253451 0.548365
O O4 0.135280 0.748056 0.721445
O O5 0.730072 0.022733 0.621671
O O6 0.743326 0.129383 0.848413
O O7 0.000000 0.000000 0.500000
O O8 0.154294 0.796229 0.025569
O O9 0.080834 0.160305 0.948579
O O10 0.156971 0.540662 0.207700
O O11 0.322568 0.367015 0.879316
O O12 0.000000 0.500000 0.500000
O O13 0.588893 0.889076 0.717024
#
# Coordination Sequence:
#
# PCOD9072532 Si02
#       6
#     2   2   2   2   2   2
#     4  10  21  40  65  93 127 163 215 257 303 374
#     4  10  19  38  65  93 120 161 213 258 304 366
#     4   9  19  39  66  89 126 159 211 254 312 363
#     4  10  22  41  63  93 129 164 208 260 312 376
#     4  12  24  42  65  93 127 172 208 257 318 374
#     4  11  24  40  63  93 129 168 207 258 319 370
#
# _framework density 23.935244999999998
#
# number of rings (size 3 to 8) (size 9 to 14) (size 15 to 20)
#    0.000    1.667    1.667    3.500    2.333    0.667 
#    3.000    9.167    0.000    0.000    0.000    0.000 
#    0.000    0.000    0.000    0.000    0.000    0.000 
#
# Total GULP energy -66848.952762 kJ/mol
# GULP energy per Si atom -5570.746064 kJ/mol
# Density = 2.388077 g / cm^3
# Si number density = 23.935245 Si / 1000 Ang^3
#
#
#
# Elastic Constant Matrix: (Units=GPa)
#
#
# Indices 1 2 3 4 5 6 
#
# 1 38.3833 19.0256 49.2403 -18.5305 23.4033 17.0939
# 2 19.0256 217.8031 59.5052 -21.8425 33.0777 11.2529
# 3 49.2403 59.5052 62.2253 1.4350 29.1454 -11.5871
# 4 -18.5305 -21.8425 1.4350 36.3731 -10.8347 28.2112
# 5 23.4033 33.0777 29.1454 -10.8347 24.9096 -6.1820
# 6 17.0939 11.2529 -11.5871 28.2112 -6.1820 34.3855
#
#
#
# Elastic Compliance Matrix: (Units=1/GPa)
#
#
# Indices 1 2 3 4 5 6 
#
# 1 0.003502 -0.004328 0.013754 -0.020855 -0.018204 0.018148
# 2 -0.004328 0.004793 0.001789 -0.003064 -0.005030 0.002796
# 3 0.013754 0.001789 0.014535 0.012312 -0.031488 -0.018287
# 4 -0.020855 -0.003064 0.012312 0.014384 0.017204 0.006812
# 5 -0.018204 -0.005030 -0.031488 0.017204 0.109665 0.005686
# 6 0.018148 0.002796 -0.018287 0.006812 0.005686 0.008416
#
#
# Mechanical properties :
#
#
# Convention : Reuss Voigt Hill
#
# Bulk Modulus (GPa) = 22.09443 63.77267 42.93355
# Shear Modulus (GPa) = 33.79475 31.84301 32.81888
#
# Velocity S-wave (km/s) = 3.76163 3.65140 3.70693
# Velocity P-wave (km/s) = 5.30259 6.66923 6.02479
#
# Compressibility (1/GPa) = 0.04526029
#
# Stress axis : x y z
#
# Youngs Moduli (GPa) = 285.51175 208.64725 68.79862
#
# Poissons Ratio (x) = 0.90307 -0.94626
# Poissons Ratio (y) = 1.23575 -0.12309
# Poissons Ratio (z) = -3.92694 -0.37329
#
# Static dielectric constant tensor:
#      x y z
#    x 1.934860 -0.097020 0.044390 
#    y -0.097020 2.001730 -0.038240 
#    z 0.044390 -0.038240 1.978640 
# 
# From -- ./inp_files/157053.got.cif
#   From: 2010.05.17/outbox.ucp.g08.bks.cvg/sg2_79_cif.got.tgz:157053.got - 2010.06.11 11:32:03.
