data_PCOD9072858
_publ_section_title
;
Structure prediction by ZEFSAII (Michael W. Deem and Ramdas Pophale) SiO2 
 PCOD9072858
Probable space group: P -1
;
_chemical_formula_sum "Si O2"
_cell_formula_units_Z 12
_cell_length_a 9.000000
_cell_length_b 9.000000
_cell_length_c 21.000000
_cell_angle_alpha 150.000000
_cell_angle_beta 120.000000
_cell_angle_gamma 50.000000
_cell_volume 644.350134
_symmetry_space_group_name_H-M "P -1"
_symmetry_group_IT_number 2
_symmetry_cell_setting 'triclinic'
loop_
_space_group_symop_operation_xyz
x,y,z
-x,-y,-z
loop_
_atom_site_type_symbol
_atom_site_label
_atom_site_fract_x
_atom_site_fract_y
_atom_site_fract_z
Si Si1 0.253590 0.855879 0.744215
Si Si2 0.808534 0.168006 0.774216
Si Si3 0.626073 0.687517 0.543894
Si Si4 0.767943 0.264734 0.546519
Si Si5 0.419381 0.344994 0.977748
Si Si6 0.646602 0.618674 0.788777
O O1 0.292004 0.627785 0.604918
O O2 0.429433 0.648337 0.755046
O O3 0.287155 0.182400 0.861116
O O4 0.038736 0.961689 0.761483
O O5 0.777394 0.413723 0.799207
O O6 0.719949 0.929435 0.643708
O O7 0.694962 0.385757 0.891941
O O8 0.698413 0.534338 0.573363
O O9 0.390180 0.870255 0.549388
O O10 0.725316 0.450509 0.674556
O O11 0.000000 0.000000 0.500000
O O12 0.599226 0.007396 0.921330
O O13 0.500000 0.500000 0.000000
#
# Coordination Sequence:
#
# PCOD9072858 Si02
#       6
#     2   2   2   2   2   2
#     4   9  22  39  61  86 124 150 198 242 293 347
#     4  12  21  38  66  87 117 161 195 236 304 348
#     4  10  22  36  62  90 120 154 195 246 290 347
#     4  10  20  38  59  86 125 154 194 239 296 345
#     4  10  22  42  61  82 122 160 193 246 293 344
#     4   9  22  38  58  87 121 148 200 245 283 349
#
# _framework density 18.623415000000001
#
# number of rings (size 3 to 8) (size 9 to 14) (size 15 to 20)
#    1.000    1.000    0.000    3.500    2.333    4.000 
#    0.000    0.833    0.000    0.000    0.000    0.000 
#    0.000    0.000    0.000    0.000    0.000    0.000 
#
# Total GULP energy -66823.281126 kJ/mol
# GULP energy per Si atom -5568.606760 kJ/mol
# Density = 1.858103 g / cm^3
# Si number density = 18.623415 Si / 1000 Ang^3
#
#
#
# Elastic Constant Matrix: (Units=GPa)
#
#
# Indices 1 2 3 4 5 6 
#
# 1 45.9236 -1.5431 30.3931 0.9878 -6.3143 -14.1538
# 2 -1.5431 43.1727 0.4771 -3.5635 -18.3683 -11.7574
# 3 30.3931 0.4771 99.6671 -11.8462 -3.3269 0.0878
# 4 0.9878 -3.5635 -11.8462 16.9302 3.7219 -3.1578
# 5 -6.3143 -18.3683 -3.3269 3.7219 39.4492 2.0116
# 6 -14.1538 -11.7574 0.0878 -3.1578 2.0116 37.0172
#
#
#
# Elastic Compliance Matrix: (Units=1/GPa)
#
#
# Indices 1 2 3 4 5 6 
#
# 1 0.035822 0.008697 -0.011568 -0.007402 0.008722 0.015381
# 2 0.008697 0.034511 -0.001748 0.004550 0.016181 0.013800
# 3 -0.011568 -0.001748 0.014729 0.010348 -0.002195 -0.004011
# 4 -0.007402 0.004550 0.010348 0.069695 -0.005014 0.004808
# 5 0.008722 0.016181 -0.002195 -0.005014 0.034251 0.006190
# 6 0.015381 0.013800 -0.004011 0.004808 0.006190 0.037362
#
#
# Mechanical properties :
#
#
# Convention : Reuss Voigt Hill
#
# Bulk Modulus (GPa) = 13.18852 27.49084 20.33968
# Shear Modulus (GPa) = 19.16562 29.30840 24.23701
#
# Velocity S-wave (km/s) = 3.21146 3.97134 3.61144
# Velocity P-wave (km/s) = 4.56600 5.98517 5.32309
#
# Compressibility (1/GPa) = 0.07582353
#
# Stress axis : x y z
#
# Youngs Moduli (GPa) = 27.91576 28.97642 67.89133
#
# Poissons Ratio (x) = -0.25200 0.78534
# Poissons Ratio (y) = -0.24278 0.11871
# Poissons Ratio (z) = 0.32292 0.05066
#
# Static dielectric constant tensor:
#      x y z
#    x 1.668560 -0.002880 -0.000010 
#    y -0.002880 1.631300 0.030870 
#    z -0.000010 0.030870 1.649020 
# 
# From -- ./inp_files/151120.got.cif
#   From: 2010.05.17/outbox.ucp.g08.bks.cvg/sg2_76_cif.got.tgz:151120.got - 2010.06.11 11:32:03.
