data_PCOD9072367
_publ_section_title
;
Structure prediction by ZEFSAII (Michael W. Deem and Ramdas Pophale) SiO2 
 PCOD9072367
Probable space group: P -1
;
_chemical_formula_sum "Si O2"
_cell_formula_units_Z 14
_cell_length_a 15.000000
_cell_length_b 9.000000
_cell_length_c 15.000000
_cell_angle_alpha 110.000000
_cell_angle_beta 150.000000
_cell_angle_gamma 50.000000
_cell_volume 642.379314
_symmetry_space_group_name_H-M "P -1"
_symmetry_group_IT_number 2
_symmetry_cell_setting 'triclinic'
loop_
_space_group_symop_operation_xyz
x,y,z
-x,-y,-z
loop_
_atom_site_type_symbol
_atom_site_label
_atom_site_fract_x
_atom_site_fract_y
_atom_site_fract_z
Si Si1 0.664022 0.370719 0.479771
Si Si2 0.303844 0.740307 0.705165
Si Si3 0.324386 0.207380 0.961619
Si Si4 0.942043 0.602262 0.572464
Si Si5 0.852582 0.427865 0.829310
Si Si6 0.344156 0.960553 0.097125
Si Si7 0.171004 0.800879 0.802636
O O1 0.656693 0.407826 0.373513
O O2 0.734158 0.464475 0.632692
O O3 0.392549 0.463742 0.297768
O O4 0.904792 0.085454 0.630794
O O5 0.326772 0.694031 0.821519
O O6 0.507364 0.747452 0.859528
O O7 0.000000 0.000000 0.500000
O O8 0.069117 0.419171 0.725546
O O9 0.295535 0.114268 0.003339
O O10 0.500000 0.000000 0.000000
O O11 0.000000 0.500000 0.500000
O O12 0.070053 0.691402 0.710347
O O13 0.627896 0.815436 0.351870
O O14 0.000000 0.500000 0.000000
O O15 0.100496 0.145847 0.990287
O O16 0.340092 0.787486 0.018211
#
# Coordination Sequence:
#
# PCOD9072367 Si02
#       7
#     2   2   2   2   2   2   2
#     4   9  20  34  61  95 122 166 216 261 312 374
#     4  10  19  35  61  88 130 161 203 257 315 374
#     4  12  23  40  59  95 131 164 211 259 313 382
#     4  12  25  38  61  93 134 170 208 258 318 379
#     4  10  19  36  62  91 123 165 219 261 312 373
#     4  11  23  43  64  92 131 169 213 262 316 380
#     4  10  21  39  60  93 131 166 208 257 318 384
#
# _framework density 21.793977000000002
#
# number of rings (size 3 to 8) (size 9 to 14) (size 15 to 20)
#    0.000    1.429    2.857    3.429    0.000    2.286 
#    0.000    0.000    0.000    7.714    0.000   21.000 
#    0.000    0.000    0.000    0.000    0.000    0.000 
#
# Total GULP energy -78145.822278 kJ/mol
# GULP energy per Si atom -5581.844448 kJ/mol
# Density = 2.174437 g / cm^3
# Si number density = 21.793977 Si / 1000 Ang^3
#
#
#
# Elastic Constant Matrix: (Units=GPa)
#
#
# Indices 1 2 3 4 5 6 
#
# 1 85.4487 38.0207 52.0712 4.3590 10.7878 -23.2638
# 2 38.0207 117.4838 45.9349 30.1000 3.6894 -8.9290
# 3 52.0712 45.9349 161.1171 16.2876 15.0682 3.8979
# 4 4.3590 30.1000 16.2876 53.3203 0.5378 4.3329
# 5 10.7878 3.6894 15.0682 0.5378 48.4538 0.1695
# 6 -23.2638 -8.9290 3.8979 4.3329 0.1695 42.9663
#
#
#
# Elastic Compliance Matrix: (Units=1/GPa)
#
#
# Indices 1 2 3 4 5 6 
#
# 1 0.019740 -0.003739 -0.005469 0.001357 -0.002460 0.010280
# 2 -0.003739 0.012011 -0.001680 -0.006067 0.000503 0.001234
# 3 -0.005469 -0.001680 0.008773 -0.000945 -0.001358 -0.004006
# 4 0.001357 -0.006067 -0.000945 0.022576 0.000213 -0.002718
# 5 -0.002460 0.000503 -0.001358 0.000213 0.021572 -0.001211
# 6 0.010280 0.001234 -0.004006 -0.002718 -0.001211 0.029739
#
#
# Mechanical properties :
#
#
# Convention : Reuss Voigt Hill
#
# Bulk Modulus (GPa) = 53.34085 70.67815 62.00950
# Shear Modulus (GPa) = 35.10377 44.14959 39.62668
#
# Velocity S-wave (km/s) = 4.01772 4.50574 4.26871
# Velocity P-wave (km/s) = 6.78608 7.71812 7.26706
#
# Compressibility (1/GPa) = 0.01874736
#
# Stress axis : x y z
#
# Youngs Moduli (GPa) = 50.65921 83.25797 113.99039
#
# Poissons Ratio (x) = 0.31129 0.62347
# Poissons Ratio (y) = 0.18941 0.19145
# Poissons Ratio (z) = 0.27708 0.13984
#
# Static dielectric constant tensor:
#      x y z
#    x 1.814550 0.029020 -0.041740 
#    y 0.029020 1.841210 -0.013790 
#    z -0.041740 -0.013790 1.692040 
# 
# From -- ./inp_files/498228.got.cif
#   From: 2010.05.17/outbox.ucp.g08.bks.cvg/sg2_250_cif.got.tgz:498228.got - 2010.06.11 11:32:03.
