data_PCOD9072991
_publ_section_title
;
Structure prediction by ZEFSAII (Michael W. Deem and Ramdas Pophale) SiO2 
 PCOD9072991
Probable space group: P -1
;
_chemical_formula_sum "Si O2"
_cell_formula_units_Z 16
_cell_length_a 18.000000
_cell_length_b 21.000000
_cell_length_c 12.000000
_cell_angle_alpha 30.000000
_cell_angle_beta 40.000000
_cell_angle_gamma 20.000000
_cell_volume 744.844803
_symmetry_space_group_name_H-M "P -1"
_symmetry_group_IT_number 2
_symmetry_cell_setting 'triclinic'
loop_
_space_group_symop_operation_xyz
x,y,z
-x,-y,-z
loop_
_atom_site_type_symbol
_atom_site_label
_atom_site_fract_x
_atom_site_fract_y
_atom_site_fract_z
Si Si1 0.717478 0.508225 0.082881
Si Si2 0.398978 0.013029 0.921737
Si Si3 0.794276 0.202094 0.342860
Si Si4 0.095989 0.542545 0.516039
Si Si5 0.853688 0.218215 0.574661
Si Si6 0.394328 0.389875 0.558762
Si Si7 0.765140 0.006919 0.039788
Si Si8 0.858491 0.623355 0.860737
O O1 0.758125 0.388247 0.106291
O O2 0.718475 0.403909 0.341915
O O3 0.876495 0.470329 0.004642
O O4 0.466559 0.799123 0.921630
O O5 0.226873 0.289604 0.718696
O O6 0.276661 0.009736 0.008862
O O7 0.600751 0.870642 0.825696
O O8 0.512862 0.835283 0.165820
O O9 0.583461 0.319217 0.446628
O O10 0.000000 0.000000 0.500000
O O11 0.889478 0.043626 0.364042
O O12 0.280576 0.470910 0.449835
O O13 0.954391 0.742775 0.279369
O O14 0.939878 0.651537 0.636431
O O15 0.797201 0.374119 0.496639
O O16 0.794078 0.131277 0.811495
O O17 0.000000 0.500000 0.000000
#
# Coordination Sequence:
#
# PCOD9072991 Si02
#       8
#     2   2   2   2   2   2   2   2
#     4  10  20  39  68  97 127 169 223 273 317 389
#     4  11  24  42  69  94 133 176 225 267 314 405
#     4  10  23  35  67 102 119 163 219 277 322 376
#     4  12  28  42  65  99 139 180 211 267 337 395
#     4  11  21  41  69  95 129 165 222 274 325 377
#     4  12  23  43  67  99 132 166 223 277 325 384
#     4  11  23  44  66  97 138 174 216 274 330 387
#     4  11  23  42  67  98 130 175 221 271 327 385
#
# _framework density 21.480985
#
# number of rings (size 3 to 8) (size 9 to 14) (size 15 to 20)
#    0.000    1.000    5.000    2.625    5.250    3.500 
#    2.250    0.625    0.000    0.000    0.000    0.000 
#    0.000    0.000    0.000    0.000    0.000    0.000 
#
# Total GULP energy -89210.308906 kJ/mol
# GULP energy per Si atom -5575.644307 kJ/mol
# Density = 2.143209 g / cm^3
# Si number density = 21.480985 Si / 1000 Ang^3
#
#
#
# Elastic Constant Matrix: (Units=GPa)
#
#
# Indices 1 2 3 4 5 6 
#
# 1 26.6982 24.3881 32.2138 -22.1304 -12.5537 -16.3260
# 2 24.3881 70.7529 25.4257 -10.1738 -8.6907 0.7703
# 3 32.2138 25.4257 56.5924 -10.3306 -12.3773 -3.3365
# 4 -22.1304 -10.1738 -10.3306 38.0525 4.5078 -16.5729
# 5 -12.5537 -8.6907 -12.3773 4.5078 28.1138 2.6416
# 6 -16.3260 0.7703 -3.3365 -16.5729 2.6416 16.2189
#
#
#
# Elastic Compliance Matrix: (Units=1/GPa)
#
#
# Indices 1 2 3 4 5 6 
#
# 1 -0.015928 0.001874 0.000867 -0.028826 0.002779 -0.045851
# 2 0.001874 0.016969 -0.006943 0.005937 0.001560 0.005465
# 3 0.000867 -0.006943 0.024926 0.012882 0.005400 0.018614
# 4 -0.028826 0.005937 0.012882 0.007009 -0.004730 -0.018715
# 5 0.002779 0.001560 0.005400 -0.004730 0.041152 -0.007702
# 6 -0.045851 0.005465 0.018614 -0.018715 -0.007702 0.001203
#
#
# Mechanical properties :
#
#
# Convention : Reuss Voigt Hill
#
# Bulk Modulus (GPa) = 56.93733 35.34431 46.14082
# Shear Modulus (GPa) = 55.81021 21.27810 38.54415
#
# Velocity S-wave (km/s) = 5.10271 3.15072 4.24056
# Velocity P-wave (km/s) = 7.82817 5.45212 6.74559
#
# Compressibility (1/GPa) = 0.01756317
#
# Stress axis : x y z
#
# Youngs Moduli (GPa) = -62.78201 58.93234 40.11849
#
# Poissons Ratio (x) = -0.11046 -0.03479
# Poissons Ratio (y) = 0.11767 0.27856
# Poissons Ratio (z) = 0.05445 0.40919
#
# Static dielectric constant tensor:
#      x y z
#    x 1.824830 0.050970 -0.038260 
#    y 0.050970 1.877860 -0.019560 
#    z -0.038260 -0.019560 1.747000 
# 
# From -- ./inp_files/467051.got.cif
#   From: 2010.05.17/outbox.ucp.g08.bks.cvg/sg2_234_cif.got.tgz:467051.got - 2010.06.11 11:32:03.
