data_PCOD9072575
_publ_section_title
;
Structure prediction by ZEFSAII (Michael W. Deem and Ramdas Pophale) SiO2 
 PCOD9072575
Probable space group: P -1
;
_chemical_formula_sum "Si O2"
_cell_formula_units_Z 16
_cell_length_a 9.000000
_cell_length_b 21.000000
_cell_length_c 18.000000
_cell_angle_alpha 30.000000
_cell_angle_beta 30.000000
_cell_angle_gamma 30.000000
_cell_volume 753.357562
_symmetry_space_group_name_H-M "P -1"
_symmetry_group_IT_number 2
_symmetry_cell_setting 'triclinic'
loop_
_space_group_symop_operation_xyz
x,y,z
-x,-y,-z
loop_
_atom_site_type_symbol
_atom_site_label
_atom_site_fract_x
_atom_site_fract_y
_atom_site_fract_z
Si Si1 0.702773 0.508401 0.712527
Si Si2 0.690635 0.972266 0.697642
Si Si3 0.036608 0.279923 0.675660
Si Si4 0.957678 0.698309 0.106771
Si Si5 0.340224 0.860927 0.841977
Si Si6 0.675433 0.825904 0.588461
Si Si7 0.794350 0.191540 0.722900
Si Si8 0.205147 0.720819 0.820519
O O1 0.780783 0.625997 0.521130
O O2 0.349276 0.600337 0.815386
O O3 0.777274 0.380213 0.750533
O O4 0.962896 0.438353 0.738702
O O5 0.543620 0.887734 0.794168
O O6 0.871078 0.862088 0.797662
O O7 0.356536 0.121352 0.713417
O O8 0.000000 0.000000 0.500000
O O9 0.832536 0.259552 0.715420
O O10 0.569605 0.783232 0.167955
O O11 0.110922 0.781517 0.006902
O O12 0.145295 0.661062 0.984148
O O13 0.625758 0.780983 0.736928
O O14 0.059033 0.024225 0.783708
O O15 0.467986 0.782263 0.663755
O O16 0.047144 0.760531 0.462339
O O17 0.500000 0.000000 0.500000
#
# Coordination Sequence:
#
# PCOD9072575 Si02
#       8
#     2   2   2   2   2   2   2   2
#     4  11  23  44  62  91 138 171 210 258 323 386
#     4  11  20  40  72  97 122 162 221 273 312 365
#     4  10  23  41  67  96 126 166 220 272 310 370
#     4  11  25  39  63  92 134 174 204 257 329 391
#     4   9  21  37  61  97 130 163 211 269 321 372
#     4   9  17  35  61  91 126 159 211 269 307 367
#     4  10  19  40  62  92 127 167 221 265 311 373
#     4  11  22  43  66  95 127 167 215 264 323 379
#
# _framework density 21.238254999999999
#
# number of rings (size 3 to 8) (size 9 to 14) (size 15 to 20)
#    0.000    1.750    2.500    2.250    0.000    6.500 
#    0.000    6.250    0.000    0.000    0.000    0.000 
#    0.000    0.000    0.000    0.000    0.000    0.000 
#
# Total GULP energy -89104.607653 kJ/mol
# GULP energy per Si atom -5569.037978 kJ/mol
# Density = 2.118992 g / cm^3
# Si number density = 21.238255 Si / 1000 Ang^3
#
#
#
# Elastic Constant Matrix: (Units=GPa)
#
#
# Indices 1 2 3 4 5 6 
#
# 1 94.3544 52.8963 43.6575 2.5124 -10.0005 18.2723
# 2 52.8963 101.3558 33.1318 5.5928 7.0049 32.0837
# 3 43.6575 33.1318 37.9087 24.0474 -9.4205 12.0986
# 4 2.5124 5.5928 24.0474 13.1106 -14.2923 -4.5761
# 5 -10.0005 7.0049 -9.4205 -14.2923 25.0936 -0.9682
# 6 18.2723 32.0837 12.0986 -4.5761 -0.9682 34.0024
#
#
#
# Elastic Compliance Matrix: (Units=1/GPa)
#
#
# Indices 1 2 3 4 5 6 
#
# 1 0.010620 -0.003553 0.007875 -0.024913 -0.006344 -0.008690
# 2 -0.003553 0.021549 -0.016114 0.003843 -0.011774 -0.012508
# 3 0.007875 -0.016114 0.000350 0.054757 0.039702 0.019348
# 4 -0.024913 0.003843 0.054757 -0.044707 -0.016533 -0.016209
# 5 -0.006344 -0.011774 0.039702 -0.016533 0.046077 -0.000520
# 6 -0.008690 -0.012508 0.019348 -0.016209 -0.000520 0.036802
#
#
# Mechanical properties :
#
#
# Convention : Reuss Voigt Hill
#
# Bulk Modulus (GPa) = 111.91595 54.77668 83.34631
# Shear Modulus (GPa) = 51.41249 21.37018 36.39134
#
# Velocity S-wave (km/s) = 4.92545 3.17553 4.14391
# Velocity P-wave (km/s) = 9.22803 6.26840 7.88826
#
# Compressibility (1/GPa) = 0.00893528
#
# Stress axis : x y z
#
# Youngs Moduli (GPa) = 94.15996 46.40610 2859.93936
#
# Poissons Ratio (x) = 0.16487 -22.52183
# Poissons Ratio (y) = 0.33452 46.08502
# Poissons Ratio (z) = -0.74150 0.74779
#
# Static dielectric constant tensor:
#      x y z
#    x 1.750280 0.026640 0.060280 
#    y 0.026640 1.751410 -0.007010 
#    z 0.060280 -0.007010 1.912210 
# 
# From -- ./inp_files/218329.got.cif
#   From: 2010.05.17/outbox.ucp.g08.bks.cvg/sg2_110_cif.got.tgz:218329.got - 2010.06.11 11:32:03.
