data_PCOD9072590
_publ_section_title
;
Structure prediction by ZEFSAII (Michael W. Deem and Ramdas Pophale) SiO2 
 PCOD9072590
Probable space group: P -1
;
_chemical_formula_sum "Si O2"
_cell_formula_units_Z 16
_cell_length_a 9.000000
_cell_length_b 18.000000
_cell_length_c 15.000000
_cell_angle_alpha 40.000000
_cell_angle_beta 40.000000
_cell_angle_gamma 30.000000
_cell_volume 740.097418
_symmetry_space_group_name_H-M "P -1"
_symmetry_group_IT_number 2
_symmetry_cell_setting 'triclinic'
loop_
_space_group_symop_operation_xyz
x,y,z
-x,-y,-z
loop_
_atom_site_type_symbol
_atom_site_label
_atom_site_fract_x
_atom_site_fract_y
_atom_site_fract_z
Si Si1 0.056210 0.790188 0.548415
Si Si2 0.658316 0.883287 0.947135
Si Si3 0.214292 0.475175 0.505829
Si Si4 0.830439 0.802673 0.437562
Si Si5 0.467603 0.902045 0.822758
Si Si6 0.032414 0.593736 0.153986
Si Si7 0.365332 0.718932 0.933402
Si Si8 0.816447 0.112680 0.315191
O O1 0.408953 0.653951 0.546388
O O2 0.934587 0.794431 0.499871
O O3 0.816090 0.811228 0.707482
O O4 0.018142 0.941105 0.420133
O O5 0.451337 0.938623 0.901964
O O6 0.976008 0.842496 0.803945
O O7 0.775775 0.723221 0.081892
O O8 0.500000 0.000000 0.000000
O O9 0.108720 0.439212 0.674924
O O10 0.000000 0.500000 0.500000
O O11 0.116079 0.640399 0.411178
O O12 0.535270 0.810412 0.565813
O O13 0.733006 0.943665 0.290821
O O14 0.400203 0.788921 0.938877
O O15 0.307728 0.434435 0.120608
O O16 0.166788 0.666661 0.071633
O O17 0.217302 0.858464 0.801710
#
# Coordination Sequence:
#
# PCOD9072590 Si02
#       8
#     2   2   2   2   2   2   2   2
#     4  11  22  40  71 102 140 176 231 296 346 408
#     4  11  26  42  65 101 145 186 232 288 349 419
#     4  12  27  41  67 103 143 181 230 288 354 416
#     4  11  22  42  71 103 140 181 228 297 347 411
#     4  11  23  42  75 107 133 184 243 282 351 421
#     4  10  23  43  68  95 142 188 222 284 353 408
#     4  10  19  42  72  98 132 184 233 279 337 429
#     4  10  19  40  69  94 136 177 225 279 353 406
#
# _framework density 21.618776
#
# number of rings (size 3 to 8) (size 9 to 14) (size 15 to 20)
#    0.000    1.250    3.750    1.875    5.250    1.500 
#    0.000    6.250    0.000    0.000    0.000    0.000 
#    0.000    0.000    0.000    0.000    0.000    0.000 
#
# Total GULP energy -89254.894589 kJ/mol
# GULP energy per Si atom -5578.430912 kJ/mol
# Density = 2.156957 g / cm^3
# Si number density = 21.618776 Si / 1000 Ang^3
#
#
#
# Elastic Constant Matrix: (Units=GPa)
#
#
# Indices 1 2 3 4 5 6 
#
# 1 121.6508 36.6008 19.8781 -9.7688 27.9304 1.9401
# 2 36.6008 106.4533 27.0872 -9.8607 5.6426 -24.9266
# 3 19.8781 27.0872 49.3809 -15.9894 -1.3482 1.8819
# 4 -9.7688 -9.8607 -15.9894 19.6057 4.5341 -0.6643
# 5 27.9304 5.6426 -1.3482 4.5341 24.7343 1.2238
# 6 1.9401 -24.9266 1.8819 -0.6643 1.2238 37.8450
#
#
#
# Elastic Compliance Matrix: (Units=1/GPa)
#
#
# Indices 1 2 3 4 5 6 
#
# 1 0.013860 -0.003264 -0.001702 0.007571 -0.016283 -0.002116
# 2 -0.003264 0.014809 -0.007026 0.000602 -0.000696 0.010304
# 3 -0.001702 -0.007026 0.031862 0.021014 0.001697 -0.005811
# 4 0.007571 0.000602 0.021014 0.077285 -0.021759 0.001024
# 5 -0.016283 -0.000696 0.001697 -0.021759 0.063162 -0.002133
# 6 -0.002116 0.010304 -0.005811 0.001024 -0.002133 0.033695
#
#
# Mechanical properties :
#
#
# Convention : Reuss Voigt Hill
#
# Bulk Modulus (GPa) = 27.36124 49.40190 38.38157
# Shear Modulus (GPa) = 18.46114 29.36493 23.91303
#
# Velocity S-wave (km/s) = 2.92540 3.68952 3.32945
# Velocity P-wave (km/s) = 4.90859 6.40711 5.70725
#
# Compressibility (1/GPa) = 0.03654805
#
# Stress axis : x y z
#
# Youngs Moduli (GPa) = 72.14818 67.52614 31.38532
#
# Poissons Ratio (x) = 0.22038 0.05341
# Poissons Ratio (y) = 0.23546 0.22052
# Poissons Ratio (z) = 0.12278 0.47446
#
# Static dielectric constant tensor:
#      x y z
#    x 1.864720 -0.010140 -0.026910 
#    y -0.010140 1.859320 0.019840 
#    z -0.026910 0.019840 1.744560 
# 
# From -- ./inp_files/403642.got.cif
#   From: 2010.05.17/outbox.ucp.g08.bks.cvg/sg2_202_cif.got.tgz:403642.got - 2010.06.11 11:32:03.
