data_PCOD9072889
_publ_section_title
;
Structure prediction by ZEFSAII (Michael W. Deem and Ramdas Pophale) SiO2 
 PCOD9072889
Probable space group: P -1
;
_chemical_formula_sum "Si O2"
_cell_formula_units_Z 16
_cell_length_a 16.231202
_cell_length_b 11.191896
_cell_length_c 13.648525
_cell_angle_alpha 45.909494
_cell_angle_beta 24.896866
_cell_angle_gamma 59.339459
_cell_volume 686.844625
_symmetry_space_group_name_H-M "P -1"
_symmetry_group_IT_number 2
_symmetry_cell_setting 'triclinic'
loop_
_space_group_symop_operation_xyz
x,y,z
-x,-y,-z
loop_
_atom_site_type_symbol
_atom_site_label
_atom_site_fract_x
_atom_site_fract_y
_atom_site_fract_z
Si Si1 0.466134 0.398167 0.701531
Si Si2 0.291475 0.616753 0.070921
Si Si3 0.110186 0.646879 0.713802
Si Si4 0.768830 0.789426 0.404909
Si Si5 0.565803 0.787126 0.435610
Si Si6 0.108943 0.643443 0.042009
Si Si7 0.997926 0.786968 0.344825
Si Si8 0.896931 0.903323 0.829205
O O1 0.500000 0.500000 0.500000
O O2 0.649427 0.329497 0.564008
O O3 0.500618 0.567730 0.637822
O O4 0.252523 0.216181 0.028110
O O5 0.188504 0.606331 0.081385
O O6 0.228266 0.773420 0.096753
O O7 0.164724 0.422556 0.366481
O O8 0.539814 0.662278 0.769505
O O9 0.987238 0.540582 0.811286
O O10 0.000000 0.500000 0.000000
O O11 0.075066 0.822415 0.684334
O O12 0.678675 0.877792 0.364014
O O13 0.920954 0.711900 0.225805
O O14 0.914915 0.875239 0.294099
O O15 0.734955 0.853906 0.126413
O O16 0.330951 0.787338 0.671954
O O17 0.993259 0.882075 0.398361
#
# Coordination Sequence:
#
# PCOD9072889 Si02
#       8
#     2   2   2   2   2   2   2   2
#     4  10  18  31  51  79 115 152 180 212 266 333
#     4   9  21  41  63  78 106 149 198 246 279 327
#     4  12  18  32  56  83 117 153 186 217 275 344
#     4  10  19  36  62  82 107 149 191 239 279 340
#     4  10  18  33  54  86 117 148 185 223 277 339
#     4  10  19  33  59  87 107 149 197 224 277 337
#     4  10  22  40  59  85 108 149 195 237 291 327
#     4  11  22  34  55  87 124 149 183 231 279 339
#
# _framework density 23.294934000000001
#
# number of rings (size 3 to 8) (size 9 to 14) (size 15 to 20)
#    0.000    1.750    5.000    1.125    0.000    1.500 
#    0.000    6.250    0.000    1.500    0.000    0.000 
#    0.000    0.000    0.000    0.000    0.000    0.000 
#
# Total GULP energy -89158.975873 kJ/mol
# GULP energy per Si atom -5572.435992 kJ/mol
# Density = 2.324191 g / cm^3
# Si number density = 23.294934 Si / 1000 Ang^3
#
#
#
# Elastic Constant Matrix: (Units=GPa)
#
#
# Indices 1 2 3 4 5 6 
#
# 1 37.8353 10.4975 12.0692 -4.7287 -26.2163 -4.0774
# 2 10.4975 127.3024 35.9309 14.0719 -20.8886 4.1649
# 3 12.0692 35.9309 99.6816 28.2669 -28.6777 -9.8712
# 4 -4.7287 14.0719 28.2669 38.2753 -0.0641 -11.9937
# 5 -26.2163 -20.8886 -28.6777 -0.0641 30.8479 7.1908
# 6 -4.0774 4.1649 -9.8712 -11.9937 7.1908 20.2403
#
#
#
# Elastic Compliance Matrix: (Units=1/GPa)
#
#
# Indices 1 2 3 4 5 6 
#
# 1 0.077063 0.004662 0.013721 -0.006021 0.084247 -0.012241
# 2 0.004662 0.010717 0.000609 -0.006959 0.014128 -0.010112
# 3 0.013721 0.000609 0.022414 -0.018026 0.035107 -0.009584
# 4 -0.006021 -0.006959 -0.018026 0.052010 -0.034524 0.034513
# 5 0.084247 0.014128 0.035107 -0.034524 0.156616 -0.044913
# 6 -0.012241 -0.010112 -0.009584 0.034513 -0.044913 0.080754
#
#
# Mechanical properties :
#
#
# Convention : Reuss Voigt Hill
#
# Bulk Modulus (GPa) = 6.74859 42.42385 24.58622
# Shear Modulus (GPa) = 12.16597 31.62749 21.89673
#
# Velocity S-wave (km/s) = 2.28778 3.68869 3.06923
# Velocity P-wave (km/s) = 3.14354 6.03267 4.81014
#
# Compressibility (1/GPa) = 0.14817906
#
# Stress axis : x y z
#
# Youngs Moduli (GPa) = 12.97640 93.30691 44.61575
#
# Poissons Ratio (x) = -0.43503 -0.61218
# Poissons Ratio (y) = -0.06050 -0.02717
# Poissons Ratio (z) = -0.17805 -0.05682
#
# Static dielectric constant tensor:
#      x y z
#    x 1.915830 0.007160 0.053280 
#    y 0.007160 1.907670 -0.018430 
#    z 0.053280 -0.018430 1.986990 
# 
# From -- ./inp_files/577693.got.cif
#   From: 2010.05.17/outbox.cif.g08.bks.cpg/sg2_289_cif.got.tgz:577693.got - 2010.06.03 11:33:40.
