data_PCOD9072523
_publ_section_title
;
Structure prediction by ZEFSAII (Michael W. Deem and Ramdas Pophale) SiO2 
 PCOD9072523
Probable space group: P -1
;
_chemical_formula_sum "Si O2"
_cell_formula_units_Z 16
_cell_length_a 12.491405
_cell_length_b 5.589667
_cell_length_c 16.752815
_cell_angle_alpha 100.963841
_cell_angle_beta 145.515502
_cell_angle_gamma 72.353607
_cell_volume 627.244040
_symmetry_space_group_name_H-M "P -1"
_symmetry_group_IT_number 2
_symmetry_cell_setting 'triclinic'
loop_
_space_group_symop_operation_xyz
x,y,z
-x,-y,-z
loop_
_atom_site_type_symbol
_atom_site_label
_atom_site_fract_x
_atom_site_fract_y
_atom_site_fract_z
Si Si1 0.656199 0.700298 0.629831
Si Si2 0.399760 0.248781 0.841384
Si Si3 0.927238 0.290170 0.119107
Si Si4 0.281552 0.595641 0.206171
Si Si5 0.844097 0.781588 0.986804
Si Si6 0.054145 0.668270 0.676084
Si Si7 0.618905 0.818308 0.438867
Si Si8 0.555490 0.251932 0.119010
O O1 0.695849 0.444325 0.687436
O O2 0.663459 0.654214 0.537360
O O3 0.842022 0.812413 0.766839
O O4 0.465978 0.902685 0.559088
O O5 0.168006 0.384292 0.700275
O O6 0.492440 0.454535 0.870080
O O7 0.475893 0.954810 0.852023
O O8 0.455300 0.250980 0.970603
O O9 0.865770 0.568626 0.057538
O O10 0.924330 0.325020 0.214659
O O11 0.828426 0.065085 0.023366
O O12 0.443830 0.728041 0.284274
O O13 0.052418 0.726100 0.062195
O O14 0.304944 0.313783 0.168113
O O15 0.208059 0.820856 0.751414
O O16 0.827317 0.769438 0.520354
#
# Coordination Sequence:
#
# PCOD9072523 Si02
#       8
#     2   2   2   2   2   2   2   2
#     4   9  19  31  45  64  91 120 158 194 236 277
#     4   8  15  28  45  67  94 124 147 173 216 283
#     4  10  20  33  47  69  90 120 160 199 233 266
#     4  10  20  32  49  58  88 122 169 199 236 265
#     4  10  22  33  50  63  84 124 168 205 228 264
#     4   9  19  28  48  71 102 122 146 187 235 277
#     4  10  18  31  44  69  90 124 153 192 234 282
#     4   8  15  28  45  66  96 122 147 173 219 282
#
# _framework density 25.508413999999998
#
# number of rings (size 3 to 8) (size 9 to 14) (size 15 to 20)
#    0.750    2.000    1.250    0.375    3.500    2.500 
#    0.000    0.000    0.000    0.000    0.000    0.000 
#    0.000    8.000    0.000    0.500    0.000    0.000 
#
# Total GULP energy -89197.387473 kJ/mol
# GULP energy per Si atom -5574.836717 kJ/mol
# Density = 2.545036 g / cm^3
# Si number density = 25.508414 Si / 1000 Ang^3
#
#
#
# Elastic Constant Matrix: (Units=GPa)
#
#
# Indices 1 2 3 4 5 6 
#
# 1 55.2621 29.8512 21.2731 6.2001 14.1483 -1.1191
# 2 29.8512 141.7128 15.5208 5.2641 19.5801 -2.1670
# 3 21.2731 15.5208 78.0523 18.2995 36.9216 -1.4735
# 4 6.2001 5.2641 18.2995 31.3507 2.6107 6.0523
# 5 14.1483 19.5801 36.9216 2.6107 49.2267 -2.6819
# 6 -1.1191 -2.1670 -1.4735 6.0523 -2.6819 37.0425
#
#
#
# Elastic Compliance Matrix: (Units=1/GPa)
#
#
# Indices 1 2 3 4 5 6 
#
# 1 0.022448 -0.003993 -0.004301 -0.001198 -0.001555 0.000357
# 2 -0.003993 0.008218 0.001040 -0.001033 -0.002827 0.000366
# 3 -0.004301 0.001040 0.024873 -0.012764 -0.017060 0.001771
# 4 -0.001198 -0.001033 -0.012764 0.040387 0.007825 -0.006637
# 5 -0.001555 -0.002827 -0.017060 0.007825 0.034283 0.000313
# 6 0.000357 0.000366 0.001771 -0.006637 0.000313 0.028206
#
#
# Mechanical properties :
#
#
# Convention : Reuss Voigt Hill
#
# Bulk Modulus (GPa) = 24.37147 45.36859 34.87003
# Shear Modulus (GPa) = 26.79534 37.41612 32.10573
#
# Velocity S-wave (km/s) = 3.24458 3.83406 3.55157
# Velocity P-wave (km/s) = 4.85916 6.11754 5.52430
#
# Compressibility (1/GPa) = 0.04103159
#
# Stress axis : x y z
#
# Youngs Moduli (GPa) = 44.54799 121.68173 40.20383
#
# Poissons Ratio (x) = 0.48584 0.17293
# Poissons Ratio (y) = 0.17787 -0.04182
# Poissons Ratio (z) = 0.19161 -0.12657
#
# Static dielectric constant tensor:
#      x y z
#    x 2.038490 0.012500 0.027170 
#    y 0.012500 2.046190 -0.029840 
#    z 0.027170 -0.029840 2.160630 
# 
# From -- ./inp_files/473067.got.cif
#   From: 2010.05.17/outbox.cif.g08.bks.cpg/sg2_237_cif.got.tgz:473067.got - 2010.06.03 11:33:40.
