data_PCOD9072796
_publ_section_title
;
Structure prediction by ZEFSAII (Michael W. Deem and Ramdas Pophale) SiO2 
 PCOD9072796
Probable space group: P -1
;
_chemical_formula_sum "Si O2"
_cell_formula_units_Z 12
_cell_length_a 14.791894
_cell_length_b 6.925299
_cell_length_c 5.198507
_cell_angle_alpha 75.316579
_cell_angle_beta 67.422879
_cell_angle_gamma 94.635309
_cell_volume 466.101703
_symmetry_space_group_name_H-M "P -1"
_symmetry_group_IT_number 2
_symmetry_cell_setting 'triclinic'
loop_
_space_group_symop_operation_xyz
x,y,z
-x,-y,-z
loop_
_atom_site_type_symbol
_atom_site_label
_atom_site_fract_x
_atom_site_fract_y
_atom_site_fract_z
Si Si1 0.899327 0.067868 0.182669
Si Si2 0.557090 0.236338 0.798319
Si Si3 0.354105 0.282492 0.784332
Si Si4 0.248984 0.357334 0.384564
Si Si5 0.611493 0.128695 0.274181
Si Si6 0.898782 0.338149 0.600624
O O1 0.913336 0.198229 0.387551
O O2 0.820887 0.859575 0.390567
O O3 0.871594 0.205702 0.933525
O O4 0.000000 0.000000 0.000000
O O5 0.362398 0.777486 0.507424
O O6 0.466220 0.331679 0.761033
O O7 0.500000 0.000000 0.000000
O O8 0.602809 0.290745 0.010059
O O9 0.338276 0.376941 0.492211
O O10 0.332923 0.039499 0.838230
O O11 0.281438 0.331872 0.065032
O O12 0.184740 0.531265 0.416439
O O13 0.500000 0.000000 0.500000
O O14 0.000000 0.500000 0.500000
#
# Coordination Sequence:
#
# PCOD9072796 Si02
#       6
#     2   2   2   2   2   2
#     4  12  26  44  67  89 119 157 210 252 301 371
#     4   8  13  24  44  72 116 152 188 242 280 336
#     4  10  18  31  50  86 124 154 192 248 304 347
#     4  12  24  37  62  90 124 156 198 254 308 349
#     4   8  13  24  44  72 116 152 188 242 280 336
#     4  12  26  44  67  89 119 157 210 252 301 371
#
# _framework density 25.745450999999999
#
# number of rings (size 3 to 8) (size 9 to 14) (size 15 to 20)
#    0.000    2.000    1.667    7.000    2.333    0.000 
#    0.000    0.000    0.000    0.000    0.000    0.000 
#    0.000  840.000    0.000    0.000    0.000    0.000 
#
# Total GULP energy -67216.912065 kJ/mol
# GULP energy per Si atom -5601.409339 kJ/mol
# Density = 2.568685 g / cm^3
# Si number density = 25.745451 Si / 1000 Ang^3
#
#
#
# Elastic Constant Matrix: (Units=GPa)
#
#
# Indices 1 2 3 4 5 6 
#
# 1 120.3637 42.9948 35.0284 1.9377 16.5650 -8.4266
# 2 42.9948 149.6498 59.7417 18.6025 6.6482 -1.5948
# 3 35.0284 59.7417 205.2226 13.6688 44.9959 -5.1849
# 4 1.9377 18.6025 13.6688 63.8977 -8.1056 4.0415
# 5 16.5650 6.6482 44.9959 -8.1056 51.6413 -10.8584
# 6 -8.4266 -1.5948 -5.1849 4.0415 -10.8584 42.7614
#
#
#
# Elastic Compliance Matrix: (Units=1/GPa)
#
#
# Indices 1 2 3 4 5 6 
#
# 1 0.009714 -0.002533 -0.000437 0.000190 -0.002125 0.001209
# 2 -0.002533 0.008449 -0.002216 -0.001736 0.001397 0.000066
# 3 -0.000437 -0.002216 0.007012 -0.001568 -0.006081 -0.000714
# 4 0.000190 -0.001736 -0.001568 0.017048 0.004035 -0.000804
# 5 -0.002125 0.001397 -0.006081 0.004035 0.026923 0.005351
# 6 0.001209 0.000066 -0.000714 -0.000804 0.005351 0.024974
#
#
# Mechanical properties :
#
#
# Convention : Reuss Voigt Hill
#
# Bulk Modulus (GPa) = 67.55329 83.41842 75.48586
# Shear Modulus (GPa) = 45.69264 54.15815 49.92540
#
# Velocity S-wave (km/s) = 4.21739 4.59148 4.40840
# Velocity P-wave (km/s) = 7.07185 7.78335 7.43611
#
# Compressibility (1/GPa) = 0.01480313
#
# Stress axis : x y z
#
# Youngs Moduli (GPa) = 102.94298 118.35500 142.61103
#
# Poissons Ratio (x) = 0.29977 0.06231
# Poissons Ratio (y) = 0.26074 0.31608
# Poissons Ratio (z) = 0.04498 0.26232
#
# Static dielectric constant tensor:
#      x y z
#    x 2.136410 0.125550 0.037020 
#    y 0.125550 2.221590 -0.017060 
#    z 0.037020 -0.017060 2.039320 
# 
# From -- ./inp_files/102387.got.cif
#   From: 2010.05.17/outbox.cif.g08.bks.cpg/sg2_52_cif.got.tgz:102387.got - 2010.06.03 11:33:40.
