data_PCOD9072633
_publ_section_title
;
Structure prediction by ZEFSAII (Michael W. Deem and Ramdas Pophale) SiO2 
 PCOD9072633
Probable space group: P -1
;
_chemical_formula_sum "Si O2"
_cell_formula_units_Z 16
_cell_length_a 15.000000
_cell_length_b 15.000000
_cell_length_c 24.000000
_cell_angle_alpha 150.000000
_cell_angle_beta 150.000000
_cell_angle_gamma 20.000000
_cell_volume 879.333414
_symmetry_space_group_name_H-M "P -1"
_symmetry_group_IT_number 2
_symmetry_cell_setting 'triclinic'
loop_
_space_group_symop_operation_xyz
x,y,z
-x,-y,-z
loop_
_atom_site_type_symbol
_atom_site_label
_atom_site_fract_x
_atom_site_fract_y
_atom_site_fract_z
Si Si1 0.448274 0.104859 0.241848
Si Si2 0.224390 0.542358 0.823868
Si Si3 0.212809 0.430118 0.403653
Si Si4 0.205238 0.884597 0.161513
Si Si5 0.336061 0.935356 0.378803
Si Si6 0.141744 0.530667 0.548122
Si Si7 0.264279 0.762297 0.552230
Si Si8 0.175846 0.527573 0.912425
O O1 0.421190 0.184429 0.336769
O O2 0.604669 0.142788 0.312988
O O3 0.130537 0.320089 0.170017
O O4 0.608891 0.799125 0.150506
O O5 0.509920 0.294316 0.813392
O O6 0.236117 0.584342 0.917581
O O7 0.060975 0.478713 0.703448
O O8 0.044061 0.829737 0.850936
O O9 0.238283 0.391489 0.463917
O O10 0.199187 0.651722 0.500918
O O11 0.217290 0.969675 0.274026
O O12 0.187689 0.682611 0.046100
O O13 0.578028 0.616626 0.352445
O O14 0.500000 0.000000 0.500000
O O15 0.096438 0.141833 0.405835
O O16 0.000000 0.500000 0.500000
O O17 0.500000 0.500000 0.500000
O O18 0.000000 0.000000 0.500000
#
# Coordination Sequence:
#
# PCOD9072633 Si02
#       8
#     2   2   2   2   2   2   2   2
#     4  10  21  37  55  81 111 140 183 226 265 329
#     4  11  20  32  50  77 109 142 179 217 263 335
#     4  10  21  35  57  82 113 148 172 222 283 320
#     4  12  22  35  52  74 109 150 182 221 266 317
#     4  10  20  34  49  71 100 136 179 222 257 305
#     4  10  20  33  50  75 106 139 178 212 259 322
#     4  10  20  35  56  83 111 141 179 223 277 331
#     4  11  22  35  52  77 107 146 184 219 268 325
#
# _framework density 18.195601
#
# number of rings (size 3 to 8) (size 9 to 14) (size 15 to 20)
#    0.000    1.500    0.000    9.000    0.000    5.000 
#    0.000    0.000    0.000    0.000    0.000    5.250 
#    0.000    0.000    0.000    0.000    0.000    0.000 
#
# Total GULP energy -89071.582903 kJ/mol
# GULP energy per Si atom -5566.973931 kJ/mol
# Density = 1.815419 g / cm^3
# Si number density = 18.195601 Si / 1000 Ang^3
#
#
#
# Elastic Constant Matrix: (Units=GPa)
#
#
# Indices 1 2 3 4 5 6 
#
# 1 61.3812 2.0709 26.0378 4.8226 9.1087 0.8449
# 2 2.0709 101.7587 2.9069 11.4625 5.4232 -13.5333
# 3 26.0378 2.9069 87.9096 15.3306 5.6450 2.2826
# 4 4.8226 11.4625 15.3306 18.7446 -3.6825 3.1737
# 5 9.1087 5.4232 5.6450 -3.6825 31.8425 -0.4203
# 6 0.8449 -13.5333 2.2826 3.1737 -0.4203 24.6191
#
#
#
# Elastic Compliance Matrix: (Units=1/GPa)
#
#
# Indices 1 2 3 4 5 6 
#
# 1 0.019315 0.000247 -0.005078 -0.001946 -0.004890 0.000111
# 2 0.000247 0.012232 0.001417 -0.010737 -0.003542 0.007908
# 3 -0.005078 0.001417 0.015221 -0.012782 -0.002950 0.001139
# 4 -0.001946 -0.010737 -0.012782 0.075875 0.013239 -0.014206
# 5 -0.004890 -0.003542 -0.002950 0.013239 0.035426 -0.002608
# 6 0.000111 0.007908 0.001139 -0.014206 -0.002608 0.046643
#
#
# Mechanical properties :
#
#
# Convention : Reuss Voigt Hill
#
# Bulk Modulus (GPa) = 25.03866 34.78676 29.91271
# Shear Modulus (GPa) = 22.23660 29.71015 25.97338
#
# Velocity S-wave (km/s) = 3.49963 4.04520 3.78226
# Velocity P-wave (km/s) = 5.48822 6.40140 5.96232
#
# Compressibility (1/GPa) = 0.03993824
#
# Stress axis : x y z
#
# Youngs Moduli (GPa) = 51.77414 81.75559 65.69669
#
# Poissons Ratio (x) = -0.02016 0.33363
# Poissons Ratio (y) = -0.01277 -0.09310
# Poissons Ratio (z) = 0.26293 -0.11585
#
# Static dielectric constant tensor:
#      x y z
#    x 1.666750 0.082870 0.007780 
#    y 0.082870 1.812290 0.043860 
#    z 0.007780 0.043860 1.728730 
# 
# From -- ./inp_files/485769.got.cif
#   From: 2010.05.17/outbox.ucp.g08.bks.cvg/sg2_243_cif.got.tgz:485769.got - 2010.06.11 11:32:03.
