data_PCOD9072487
_publ_section_title
;
Structure prediction by ZEFSAII (Michael W. Deem and Ramdas Pophale) SiO2 
 PCOD9072487
Probable space group: P -1
;
_chemical_formula_sum "Si O2"
_cell_formula_units_Z 14
_cell_length_a 12.000000
_cell_length_b 9.000000
_cell_length_c 24.000000
_cell_angle_alpha 30.000000
_cell_angle_beta 150.000000
_cell_angle_gamma 140.000000
_cell_volume 646.664136
_symmetry_space_group_name_H-M "P -1"
_symmetry_group_IT_number 2
_symmetry_cell_setting 'triclinic'
loop_
_space_group_symop_operation_xyz
x,y,z
-x,-y,-z
loop_
_atom_site_type_symbol
_atom_site_label
_atom_site_fract_x
_atom_site_fract_y
_atom_site_fract_z
Si Si1 0.731605 0.862200 0.275232
Si Si2 0.859013 0.463661 0.178000
Si Si3 0.755672 0.666040 0.943836
Si Si4 0.637509 0.365688 0.653956
Si Si5 0.644146 0.287118 0.493104
Si Si6 0.023762 0.895127 0.803712
Si Si7 0.377265 0.167988 0.953207
O O1 0.742476 0.528429 0.411060
O O2 0.747620 0.127803 0.241630
O O3 0.924282 0.985991 0.275267
O O4 0.510026 0.925616 0.123585
O O5 0.775333 0.668117 0.123398
O O6 0.122209 0.460412 0.296683
O O7 0.794682 0.624274 0.040400
O O8 0.542716 0.437744 0.913944
O O9 0.696748 0.009599 0.794119
O O10 0.960953 0.469830 0.071524
O O11 0.500000 0.500000 0.500000
O O12 0.502222 0.486958 0.608746
O O13 0.500000 0.000000 0.500000
O O14 0.821279 0.100734 0.665447
O O15 0.226604 0.014800 0.890869
#
# Coordination Sequence:
#
# PCOD9072487 Si02
#       7
#     2   2   2   2   2   2   2
#     4  10  21  40  63  88 119 159 201 246 298 363
#     4  10  20  39  63  88 119 164 203 239 296 364
#     4  10  21  41  63  87 121 161 201 245 297 362
#     4  12  26  41  59  91 127 160 199 250 300 350
#     4  12  25  42  61  90 124 161 200 246 300 358
#     4  10  22  40  64  92 120 157 200 250 302 350
#     4  10  19  37  65  94 117 154 204 252 296 349
#
# _framework density 21.649569
#
# number of rings (size 3 to 8) (size 9 to 14) (size 15 to 20)
#    0.000    1.714    0.000    8.571    0.000    4.571 
#    0.000    5.000    0.000    0.000    0.000    0.000 
#    0.000    0.000    0.000    0.000    0.000    0.000 
#
# Total GULP energy -77975.418233 kJ/mol
# GULP energy per Si atom -5569.672731 kJ/mol
# Density = 2.160029 g / cm^3
# Si number density = 21.649569 Si / 1000 Ang^3
#
#
#
# Elastic Constant Matrix: (Units=GPa)
#
#
# Indices 1 2 3 4 5 6 
#
# 1 20.4002 21.8604 28.6320 0.5168 10.4465 -18.6209
# 2 21.8604 113.1525 79.8691 -9.1249 -13.6902 -16.5137
# 3 28.6320 79.8691 176.4286 -34.4561 16.4034 2.4307
# 4 0.5168 -9.1249 -34.4561 44.1248 5.7391 9.6486
# 5 10.4465 -13.6902 16.4034 5.7391 32.6135 -6.0920
# 6 -18.6209 -16.5137 2.4307 9.6486 -6.0920 27.2572
#
#
#
# Elastic Compliance Matrix: (Units=1/GPa)
#
#
# Indices 1 2 3 4 5 6 
#
# 1 -0.159439 -0.058031 0.083148 0.109447 -0.072950 -0.206541
# 2 -0.058031 0.016345 0.003048 0.010923 0.016348 -0.030226
# 3 0.083148 0.003048 -0.015689 -0.027991 0.000553 0.070081
# 4 0.109447 0.010923 -0.027991 -0.018720 0.003973 0.091398
# 5 -0.072950 0.016348 0.000553 0.003973 0.054457 -0.029216
# 6 -0.206541 -0.030226 0.070081 0.091398 -0.029216 -0.167857
#
#
# Mechanical properties :
#
#
# Convention : Reuss Voigt Hill
#
# Bulk Modulus (GPa) = -9.76060 63.41160 26.82550
# Shear Modulus (GPa) = -13.11007 32.77376 9.83184
#
# Velocity S-wave (km/s) = -2.46348 3.89502 2.13336
# Velocity P-wave (km/s) = 3.55104 7.04143 4.29953
#
# Compressibility (1/GPa) = -0.10245268
#
# Stress axis : x y z
#
# Youngs Moduli (GPa) = -6.27198 61.18074 -63.73810
#
# Poissons Ratio (x) = 3.55036 5.29970
# Poissons Ratio (y) = -0.36397 0.19427
# Poissons Ratio (z) = 0.52150 -0.18647
#
# Static dielectric constant tensor:
#      x y z
#    x 1.932900 -0.009640 0.061360 
#    y -0.009640 1.815200 0.050460 
#    z 0.061360 0.050460 1.806310 
# 
# From -- ./inp_files/189573.got.cif
#   From: 2010.05.17/outbox.ucp.g08.bks.cvg/sg2_95_cif.got.tgz:189573.got - 2010.06.11 11:32:03.
