data_PCOD9072732
_publ_section_title
;
Structure prediction by ZEFSAII (Michael W. Deem and Ramdas Pophale) SiO2 
 PCOD9072732
Probable space group: P -1
;
_chemical_formula_sum "Si O2"
_cell_formula_units_Z 16
_cell_length_a 8.135445
_cell_length_b 12.006939
_cell_length_c 18.212842
_cell_angle_alpha 151.212429
_cell_angle_beta 40.849149
_cell_angle_gamma 130.572412
_cell_volume 559.918232
_symmetry_space_group_name_H-M "P -1"
_symmetry_group_IT_number 2
_symmetry_cell_setting 'triclinic'
loop_
_space_group_symop_operation_xyz
x,y,z
-x,-y,-z
loop_
_atom_site_type_symbol
_atom_site_label
_atom_site_fract_x
_atom_site_fract_y
_atom_site_fract_z
Si Si1 0.369156 0.044901 0.869782
Si Si2 0.243971 0.131885 0.198061
Si Si3 0.654271 0.377451 0.273037
Si Si4 0.794480 0.538559 0.721257
Si Si5 0.895480 0.780327 0.083907
Si Si6 0.814728 0.181593 0.623072
Si Si7 0.826523 0.306298 0.845323
Si Si8 0.599844 0.759754 0.410519
O O1 0.664684 0.092882 0.798515
O O2 0.277421 0.794648 0.782223
O O3 0.288536 0.253920 0.074248
O O4 0.268573 0.099580 0.854770
O O5 0.375373 0.288082 0.302224
O O6 0.105128 0.305148 0.287609
O O7 0.500000 0.000000 0.000000
O O8 0.035161 0.957676 0.190956
O O9 0.616368 0.647637 0.422794
O O10 0.860378 0.310401 0.101413
O O11 0.923348 0.342940 0.616470
O O12 0.584793 0.391536 0.662683
O O13 0.781078 0.564947 0.039921
O O14 0.752567 0.348553 0.808691
O O15 0.582755 0.036617 0.586908
O O16 0.000000 0.000000 0.500000
O O17 0.120643 0.258282 0.727819
#
# Coordination Sequence:
#
# PCOD9072732 Si02
#       8
#     2   2   2   2   2   2   2   2
#     4  12  21  31  53  90 121 135 173 227 296 337
#     4   9  17  32  52  81 114 139 181 219 269 336
#     4   9  19  34  54  80 110 144 181 227 268 329
#     4  11  20  33  60  88 109 138 186 234 274 326
#     4  10  18  31  50  75 116 145 176 212 274 337
#     4  10  21  39  56  76 109 150 196 227 256 317
#     4  10  22  35  51  83 117 147 174 228 279 331
#     4   9  21  39  59  76 104 154 192 222 262 318
#
# _framework density 28.575600999999999
#
# number of rings (size 3 to 8) (size 9 to 14) (size 15 to 20)
#    0.000    2.000    3.750    1.875    0.000    0.500 
#    0.000    0.625    0.000    0.000    0.000    9.625 
#    0.000    0.000    0.000    0.000    0.000    0.000 
#
# Total GULP energy -89269.311533 kJ/mol
# GULP energy per Si atom -5579.331971 kJ/mol
# Density = 2.851056 g / cm^3
# Si number density = 28.575601 Si / 1000 Ang^3
#
#
#
# Elastic Constant Matrix: (Units=GPa)
#
#
# Indices 1 2 3 4 5 6 
#
# 1 115.3079 19.0982 20.1200 2.3001 2.8802 1.7473
# 2 19.0982 132.7377 36.6108 44.4561 -0.6532 1.7617
# 3 20.1200 36.6108 94.3858 20.6686 -9.2642 -6.7282
# 4 2.3001 44.4561 20.6686 44.5583 -2.6667 1.9653
# 5 2.8802 -0.6532 -9.2642 -2.6667 30.1847 19.6263
# 6 1.7473 1.7617 -6.7282 1.9653 19.6263 50.8345
#
#
#
# Elastic Compliance Matrix: (Units=1/GPa)
#
#
# Indices 1 2 3 4 5 6 
#
# 1 0.009239 -0.001375 -0.001948 0.001725 -0.001296 -0.000094
# 2 -0.001375 0.011981 -0.002055 -0.011030 -0.001437 0.000341
# 3 -0.001948 -0.002055 0.012998 -0.003710 0.003340 0.000713
# 4 0.001725 -0.011030 -0.003710 0.035412 0.003453 -0.002870
# 5 -0.001296 -0.001437 0.003340 0.003453 0.045783 -0.017273
# 6 -0.000094 0.000341 0.000713 -0.002870 -0.017273 0.026537
#
#
# Mechanical properties :
#
#
# Convention : Reuss Voigt Hill
#
# Bulk Modulus (GPa) = 42.62200 54.89883 48.76042
# Shear Modulus (GPa) = 31.14716 42.88899 37.01807
#
# Velocity S-wave (km/s) = 3.30508 3.87834 3.60313
# Velocity P-wave (km/s) = 5.43256 6.26968 5.86607
#
# Compressibility (1/GPa) = 0.02346206
#
# Stress axis : x y z
#
# Youngs Moduli (GPa) = 108.23181 83.46566 76.93352
#
# Poissons Ratio (x) = 0.11477 0.14985
# Poissons Ratio (y) = 0.14882 0.15813
# Poissons Ratio (z) = 0.21082 0.17156
#
# Static dielectric constant tensor:
#      x y z
#    x 2.298310 -0.050300 -0.021310 
#    y -0.050300 2.262310 -0.048390 
#    z -0.021310 -0.048390 2.577180 
# 
# From -- ./inp_files/213307.got.cif
#   From: 2010.05.17/outbox.cif.g08.bks.cpg/sg2_107_cif.got.tgz:213307.got - 2010.06.03 11:33:40.
