data_PCOD9072754
_publ_section_title
;
Structure prediction by ZEFSAII (Michael W. Deem and Ramdas Pophale) SiO2 
 PCOD9072754
Probable space group: P -1
;
_chemical_formula_sum "Si O2"
_cell_formula_units_Z 14
_cell_length_a 12.000000
_cell_length_b 9.000000
_cell_length_c 21.000000
_cell_angle_alpha 40.000000
_cell_angle_beta 150.000000
_cell_angle_gamma 120.000000
_cell_volume 627.666119
_symmetry_space_group_name_H-M "P -1"
_symmetry_group_IT_number 2
_symmetry_cell_setting 'triclinic'
loop_
_space_group_symop_operation_xyz
x,y,z
-x,-y,-z
loop_
_atom_site_type_symbol
_atom_site_label
_atom_site_fract_x
_atom_site_fract_y
_atom_site_fract_z
Si Si1 0.981311 0.008695 0.582031
Si Si2 0.272166 0.754990 0.044779
Si Si3 0.095681 0.439335 0.849044
Si Si4 0.498039 0.461870 0.136289
Si Si5 0.254152 0.452439 0.248360
Si Si6 0.826509 0.054133 0.638346
Si Si7 0.516129 0.050586 0.102022
O O1 0.782966 0.220005 0.365525
O O2 0.886021 0.076650 0.586720
O O3 0.005025 0.721849 0.677590
O O4 0.251054 0.001798 0.719554
O O5 0.367714 0.504912 0.126446
O O6 0.162414 0.687524 0.074506
O O7 0.521293 0.789033 0.165355
O O8 0.057762 0.000511 0.816784
O O9 0.874771 0.446669 0.780253
O O10 0.320259 0.418258 0.013820
O O11 0.241594 0.194502 0.954740
O O12 0.493405 0.731316 0.023484
O O13 0.562774 0.306941 0.447279
O O14 0.198502 0.212975 0.281785
#
# Coordination Sequence:
#
# PCOD9072754 Si02
#       7
#     2   2   2   2   2   2   2
#     4  10  20  38  64  87 112 150 201 241 283 333
#     4  12  22  37  61  91 116 153 189 242 294 337
#     4  10  23  41  59  85 121 155 190 239 283 349
#     4  11  21  38  65  87 111 154 202 237 284 335
#     4  10  21  37  61  85 117 148 199 236 287 336
#     4  10  20  36  61  92 112 142 197 254 280 327
#     4  11  25  39  55  88 129 151 184 236 296 351
#
# _framework density 22.304852
#
# number of rings (size 3 to 8) (size 9 to 14) (size 15 to 20)
#    0.000    1.429    5.714    2.571    0.000    4.571 
#    0.000    0.714    0.000    0.000    0.000    0.000 
#    0.000    0.000    0.000    0.000    0.000    0.000 
#
# Total GULP energy -78128.015373 kJ/mol
# GULP energy per Si atom -5580.572527 kJ/mol
# Density = 2.225409 g / cm^3
# Si number density = 22.304852 Si / 1000 Ang^3
#
#
#
# Elastic Constant Matrix: (Units=GPa)
#
#
# Indices 1 2 3 4 5 6 
#
# 1 75.1296 -6.8271 31.3737 0.6877 19.5199 -3.8814
# 2 -6.8271 17.1772 -3.7301 -1.5459 -3.2187 1.0843
# 3 31.3737 -3.7301 101.2383 -7.2671 2.6632 -0.7465
# 4 0.6877 -1.5459 -7.2671 -1.0557 4.5278 2.0599
# 5 19.5199 -3.2187 2.6632 4.5278 34.0036 -2.7283
# 6 -3.8814 1.0843 -0.7465 2.0599 -2.7283 11.2816
#
#
#
# Elastic Compliance Matrix: (Units=1/GPa)
#
#
# Indices 1 2 3 4 5 6 
#
# 1 0.018555 0.004487 -0.005094 0.002899 -0.010000 0.002668
# 2 0.004487 0.057992 -0.001686 -0.031485 0.007513 0.003424
# 3 -0.005094 -0.001686 0.009293 -0.027587 0.006155 0.005550
# 4 0.002899 -0.031485 -0.027587 -0.345362 0.049703 0.077279
# 5 -0.010000 0.007513 0.006155 0.049703 0.028279 -0.005992
# 6 0.002668 0.003424 0.005550 0.077279 -0.005992 0.074037
#
#
# Mechanical properties :
#
#
# Convention : Reuss Voigt Hill
#
# Bulk Modulus (GPa) = 12.30720 26.13088 19.21904
# Shear Modulus (GPa) = -39.82888 20.36114 -9.73387
#
# Velocity S-wave (km/s) = -4.23029 3.02463 -2.09129
# Velocity P-wave (km/s) = 4.28145 4.89271 1.67449
#
# Compressibility (1/GPa) = 0.08125325
#
# Stress axis : x y z
#
# Youngs Moduli (GPa) = 53.89492 17.24379 107.60952
#
# Poissons Ratio (x) = -0.07738 0.54815
# Poissons Ratio (y) = -0.24184 0.18147
# Poissons Ratio (z) = 0.27454 0.02908
#
# Static dielectric constant tensor:
#      x y z
#    x 1.843370 -0.038830 0.052080 
#    y -0.038830 1.776090 -0.003240 
#    z 0.052080 -0.003240 1.870010 
# 
# From -- ./inp_files/255732.got.cif
#   From: 2010.05.17/outbox.ucp.g08.bks.cvg/sg2_128_cif.got.tgz:255732.got - 2010.06.11 11:32:03.
