data_PCOD9072536
_publ_section_title
;
Structure prediction by ZEFSAII (Michael W. Deem and Ramdas Pophale) SiO2 
 PCOD9072536
Probable space group: P -1
;
_chemical_formula_sum "Si O2"
_cell_formula_units_Z 16
_cell_length_a 15.000000
_cell_length_b 15.000000
_cell_length_c 15.000000
_cell_angle_alpha 30.000000
_cell_angle_beta 50.000000
_cell_angle_gamma 30.000000
_cell_volume 762.223433
_symmetry_space_group_name_H-M "P -1"
_symmetry_group_IT_number 2
_symmetry_cell_setting 'triclinic'
loop_
_space_group_symop_operation_xyz
x,y,z
-x,-y,-z
loop_
_atom_site_type_symbol
_atom_site_label
_atom_site_fract_x
_atom_site_fract_y
_atom_site_fract_z
Si Si1 0.292214 0.769625 0.709888
Si Si2 0.279230 0.324073 0.829045
Si Si3 0.175126 0.547446 0.899169
Si Si4 0.897754 0.175829 0.043457
Si Si5 0.688179 0.465977 0.745560
Si Si6 0.862500 0.877641 0.950350
Si Si7 0.597941 0.498051 0.513731
Si Si8 0.623302 0.001849 0.635536
O O1 0.189697 0.835744 0.810400
O O2 0.526870 0.506510 0.803784
O O3 0.232802 0.039226 0.475781
O O4 0.245208 0.664871 0.764119
O O5 0.274050 0.506576 0.613061
O O6 0.176436 0.487011 0.848633
O O7 0.208236 0.235576 0.900313
O O8 0.500000 0.000000 0.000000
O O9 0.301911 0.268299 0.129406
O O10 0.957921 0.788644 0.868735
O O11 0.976976 0.262299 0.959540
O O12 0.739620 0.414977 0.861306
O O13 0.095694 0.835929 0.173210
O O14 0.567204 0.771257 0.505580
O O15 0.701183 0.232987 0.744231
O O16 0.500000 0.500000 0.500000
O O17 0.442486 0.797531 0.412421
#
# Coordination Sequence:
#
# PCOD9072536 Si02
#       8
#     2   2   2   2   2   2   2   2
#     4   9  21  37  65  87 127 162 200 246 313 361
#     4  12  24  37  65  86 122 162 203 249 311 364
#     4  11  23  41  59  93 123 159 202 256 306 358
#     4  10  19  38  66  93 118 165 204 253 306 361
#     4   9  20  37  67  89 124 161 206 248 306 369
#     4  11  24  40  60  90 124 154 208 258 299 367
#     4  12  22  38  63  88 118 164 206 249 309 371
#     4  10  21  38  61  88 124 159 203 246 306 366
#
# _framework density 20.991219999999998
#
# number of rings (size 3 to 8) (size 9 to 14) (size 15 to 20)
#    0.750    0.750    3.750    1.500    1.750    2.500 
#    0.000    2.500    2.750    2.250    0.000    0.000 
#    0.000    0.000    0.000    0.000    0.000    0.000 
#
# Total GULP energy -89201.280996 kJ/mol
# GULP energy per Si atom -5575.080062 kJ/mol
# Density = 2.094344 g / cm^3
# Si number density = 20.991220 Si / 1000 Ang^3
#
#
#
# Elastic Constant Matrix: (Units=GPa)
#
#
# Indices 1 2 3 4 5 6 
#
# 1 80.3944 12.3673 29.3907 21.1442 -3.8413 -8.9852
# 2 12.3673 67.4780 3.6752 12.6987 -6.0148 0.2317
# 3 29.3907 3.6752 75.9709 19.8272 -4.0609 -8.9928
# 4 21.1442 12.6987 19.8272 35.9494 -0.6706 -0.3578
# 5 -3.8413 -6.0148 -4.0609 -0.6706 27.0326 10.1594
# 6 -8.9852 0.2317 -8.9928 -0.3578 10.1594 31.2733
#
#
#
# Elastic Compliance Matrix: (Units=1/GPa)
#
#
# Indices 1 2 3 4 5 6 
#
# 1 0.016329 -0.001514 -0.004063 -0.006796 -0.000108 0.003492
# 2 -0.001514 0.016444 0.001272 -0.005559 0.004092 -0.001584
# 3 -0.004063 0.001272 0.017052 -0.007416 0.000814 0.003377
# 4 -0.006796 -0.005559 -0.007416 0.037814 -0.001163 -0.003233
# 5 -0.000108 0.004092 0.000814 -0.001163 0.043195 -0.013873
# 6 0.003492 -0.001584 0.003377 -0.003233 -0.013873 0.038432
#
#
# Mechanical properties :
#
#
# Convention : Reuss Voigt Hill
#
# Bulk Modulus (GPa) = 24.26222 34.96773 29.61498
# Shear Modulus (GPa) = 26.09409 30.74507 28.41958
#
# Velocity S-wave (km/s) = 3.52958 3.83124 3.68350
# Velocity P-wave (km/s) = 5.30980 6.02210 5.67713
#
# Compressibility (1/GPa) = 0.04121634
#
# Stress axis : x y z
#
# Youngs Moduli (GPa) = 61.23912 60.81138 58.64473
#
# Poissons Ratio (x) = 0.09208 0.23826
# Poissons Ratio (y) = 0.09273 -0.07462
# Poissons Ratio (z) = 0.24881 -0.07738
#
# Static dielectric constant tensor:
#      x y z
#    x 1.766120 0.020250 0.000050 
#    y 0.020250 1.863170 -0.081260 
#    z 0.000050 -0.081260 1.849730 
# 
# From -- ./inp_files/534124.got.cif
#   From: 2010.05.17/outbox.ucp.g08.bks.cvg/sg2_268_cif.got.tgz:534124.got - 2010.06.11 11:32:03.
