data_PCOD9072677
_publ_section_title
;
Structure prediction by ZEFSAII (Michael W. Deem and Ramdas Pophale) SiO2 
 PCOD9072677
Probable space group: P -1
;
_chemical_formula_sum "Si O2"
_cell_formula_units_Z 16
_cell_length_a 27.000000
_cell_length_b 18.000000
_cell_length_c 27.000000
_cell_angle_alpha 160.000000
_cell_angle_beta 170.000000
_cell_angle_gamma 20.000000
_cell_volume 756.481449
_symmetry_space_group_name_H-M "P -1"
_symmetry_group_IT_number 2
_symmetry_cell_setting 'triclinic'
loop_
_space_group_symop_operation_xyz
x,y,z
-x,-y,-z
loop_
_atom_site_type_symbol
_atom_site_label
_atom_site_fract_x
_atom_site_fract_y
_atom_site_fract_z
Si Si1 0.794567 0.749917 0.954477
Si Si2 0.189156 0.136576 0.337279
Si Si3 0.294562 0.707933 0.106881
Si Si4 0.431282 0.560890 0.702761
Si Si5 0.271721 0.273002 0.232931
Si Si6 0.831402 0.863308 0.283301
Si Si7 0.230836 0.775957 0.472956
Si Si8 0.762275 0.147878 0.705810
O O1 0.798980 0.827921 0.951915
O O2 0.472921 0.736059 0.643956
O O3 0.000000 0.500000 0.000000
O O4 0.923847 0.866353 0.199340
O O5 0.492846 0.184963 0.650313
O O6 0.160355 0.903040 0.136923
O O7 0.173314 0.082661 0.345260
O O8 0.949278 0.327190 0.193241
O O9 0.457809 0.501587 0.171424
O O10 0.541250 0.339067 0.639719
O O11 0.085438 0.652932 0.419532
O O12 0.580965 0.749762 0.946049
O O13 0.241888 0.539394 0.362688
O O14 0.594971 0.151410 0.491899
O O15 0.050891 0.230549 0.030371
O O16 0.709740 0.038763 0.316029
O O17 0.000000 0.000000 0.500000
#
# Coordination Sequence:
#
# PCOD9072677 Si02
#       8
#     2   2   2   2   2   2   2   2
#     4  10  20  35  54  73  95 131 174 214 258 299
#     4   9  17  29  47  71  97 131 160 201 253 299
#     4   9  17  31  48  66  97 133 170 201 239 294
#     4  11  22  35  50  73 104 144 177 203 238 292
#     4  11  20  33  51  75 102 133 166 207 260 306
#     4  12  24  36  51  74 106 141 178 208 239 282
#     4  11  21  36  52  71 102 138 175 211 244 288
#     4  11  20  31  50  77 109 133 163 203 256 311
#
# _framework density 21.150552000000001
#
# number of rings (size 3 to 8) (size 9 to 14) (size 15 to 20)
#    0.000    1.500    0.000    8.625    0.000    4.000 
#    0.000    0.000    0.000    0.000    0.000    0.000 
#    0.000   70.000    0.000    0.000    0.000    0.000 
#
# Total GULP energy -89203.404132 kJ/mol
# GULP energy per Si atom -5575.212758 kJ/mol
# Density = 2.110241 g / cm^3
# Si number density = 21.150552 Si / 1000 Ang^3
#
#
#
# Elastic Constant Matrix: (Units=GPa)
#
#
# Indices 1 2 3 4 5 6 
#
# 1 68.1412 15.6041 30.7088 0.6682 11.9516 9.0721
# 2 15.6041 13.8999 11.9070 -5.1022 10.0257 4.4352
# 3 30.7088 11.9070 84.6369 -34.1095 0.4546 15.8157
# 4 0.6682 -5.1022 -34.1095 1.1151 -7.0079 11.2300
# 5 11.9516 10.0257 0.4546 -7.0079 27.4882 1.7006
# 6 9.0721 4.4352 15.8157 11.2300 1.7006 16.6858
#
#
#
# Elastic Compliance Matrix: (Units=1/GPa)
#
#
# Indices 1 2 3 4 5 6 
#
# 1 0.019927 -0.015868 -0.000391 0.006519 -0.000554 -0.010576
# 2 -0.015868 0.131389 -0.013474 -0.005114 -0.041742 -0.005829
# 3 -0.000391 -0.013474 0.004955 -0.017145 -0.000026 0.010639
# 4 0.006519 -0.005114 -0.017145 -0.024114 -0.008763 0.031188
# 5 -0.000554 -0.041742 -0.000026 -0.008763 0.048848 0.012341
# 6 -0.010576 -0.005829 0.010639 0.031188 0.012341 0.034899
#
#
# Mechanical properties :
#
#
# Convention : Reuss Voigt Hill
#
# Bulk Modulus (GPa) = 10.33014 31.45754 20.89384
# Shear Modulus (GPa) = 16.25286 16.28835 16.27061
#
# Velocity S-wave (km/s) = 2.77508 2.77810 2.77659
# Velocity P-wave (km/s) = 3.89394 5.01955 4.49214
#
# Compressibility (1/GPa) = 0.09680412
#
# Stress axis : x y z
#
# Youngs Moduli (GPa) = 50.18386 7.61101 201.79816
#
# Poissons Ratio (x) = 0.12077 0.07897
# Poissons Ratio (y) = 0.79630 2.71911
# Poissons Ratio (z) = 0.01964 0.10255
#
# Static dielectric constant tensor:
#      x y z
#    x 1.406920 -0.073510 -0.265350 
#    y -0.073510 1.725940 -0.070940 
#    z -0.265350 -0.070940 1.753550 
# 
# From -- ./inp_files/110305.got.cif
#   From: 2010.05.17/outbox.ucp.g08.bks.cvg/sg2_56_cif.got.tgz:110305.got - 2010.06.11 11:32:03.
