data_PCOD9072052
_publ_section_title
;
Structure prediction by ZEFSAII (Michael W. Deem and Ramdas Pophale) SiO2 
 PCOD9072052
Probable space group: P -1
;
_chemical_formula_sum "Si O2"
_cell_formula_units_Z 16
_cell_length_a 12.000000
_cell_length_b 9.000000
_cell_length_c 18.000000
_cell_angle_alpha 50.000000
_cell_angle_beta 30.000000
_cell_angle_gamma 50.000000
_cell_volume 725.531033
_symmetry_space_group_name_H-M "P -1"
_symmetry_group_IT_number 2
_symmetry_cell_setting 'triclinic'
loop_
_space_group_symop_operation_xyz
x,y,z
-x,-y,-z
loop_
_atom_site_type_symbol
_atom_site_label
_atom_site_fract_x
_atom_site_fract_y
_atom_site_fract_z
Si Si1 0.541727 0.043462 0.285969
Si Si2 0.361639 0.570835 0.867362
Si Si3 0.854547 0.787806 0.315068
Si Si4 0.876122 0.681089 0.067951
Si Si5 0.295148 0.910041 0.981454
Si Si6 0.474740 0.555534 0.635593
Si Si7 0.148685 0.938847 0.628125
Si Si8 0.334400 0.164497 0.091899
O O1 0.488151 0.283009 0.236477
O O2 0.681021 0.003989 0.142027
O O3 0.696875 0.947946 0.298143
O O4 0.306845 0.975249 0.456169
O O5 0.460762 0.531414 0.739848
O O6 0.350248 0.373637 0.980083
O O7 0.098038 0.695731 0.982664
O O8 0.721394 0.604044 0.454970
O O9 0.864191 0.881009 0.362450
O O10 0.115396 0.769831 0.140485
O O11 0.659942 0.617578 0.253540
O O12 0.815160 0.874116 0.988253
O O13 0.000000 0.500000 0.000000
O O14 0.542144 0.836570 0.898980
O O15 0.296625 0.750735 0.647301
O O16 0.913554 0.888614 0.751740
O O17 0.500000 0.000000 0.000000
#
# Coordination Sequence:
#
# PCOD9072052 Si02
#       8
#     2   2   2   2   2   2   2   2
#     4  11  23  40  66  93 128 164 208 257 318 373
#     4  11  20  37  64  92 122 166 205 253 314 372
#     4  11  19  38  64  96 122 156 211 263 305 358
#     4  10  19  36  62  91 121 160 211 252 305 365
#     4  12  25  41  62  96 129 166 205 262 313 369
#     4  10  18  34  63  94 116 154 213 257 298 361
#     4  11  20  40  65  95 123 166 207 258 313 369
#     4  12  25  40  63  93 129 165 213 256 306 376
#
# _framework density 22.052813
#
# number of rings (size 3 to 8) (size 9 to 14) (size 15 to 20)
#    0.000    1.000    6.250    3.375    0.000    1.000 
#    0.000    7.500    0.000    0.000    0.000    0.000 
#    0.000    0.000    0.000    0.000    0.000    0.000 
#
# Total GULP energy -89143.424530 kJ/mol
# GULP energy per Si atom -5571.464033 kJ/mol
# Density = 2.200262 g / cm^3
# Si number density = 22.052813 Si / 1000 Ang^3
#
#
#
# Elastic Constant Matrix: (Units=GPa)
#
#
# Indices 1 2 3 4 5 6 
#
# 1 68.8692 9.6190 47.0095 -3.9714 -12.7833 -16.9531
# 2 9.6190 32.3616 12.8968 -22.7776 1.2553 -15.4205
# 3 47.0095 12.8968 175.4590 -28.4508 -14.9842 -6.3947
# 4 -3.9714 -22.7776 -28.4508 35.3902 4.3070 -1.1563
# 5 -12.7833 1.2553 -14.9842 4.3070 29.0595 2.5853
# 6 -16.9531 -15.4205 -6.3947 -1.1563 2.5853 18.6214
#
#
#
# Elastic Compliance Matrix: (Units=1/GPa)
#
#
# Indices 1 2 3 4 5 6 
#
# 1 0.029181 0.063051 -0.002625 0.045032 -0.005156 0.081390
# 2 0.063051 0.769747 0.035208 0.572738 -0.140033 0.761933
# 3 -0.002625 0.035208 0.009732 0.031908 -0.005307 0.032827
# 4 0.045032 0.572738 0.031908 0.459245 -0.107223 0.569647
# 5 -0.005156 -0.140033 -0.005307 -0.107223 0.063623 -0.137970
# 6 0.081390 0.761933 0.032827 0.569647 -0.137970 0.824564
#
#
# Mechanical properties :
#
#
# Convention : Reuss Voigt Hill
#
# Bulk Modulus (GPa) = 1.00007 46.19335 23.59671
# Shear Modulus (GPa) = 2.17568 30.42519 16.30044
#
# Velocity S-wave (km/s) = 0.99434 3.71840 2.72169
# Velocity P-wave (km/s) = 1.33145 6.27913 4.53873
#
# Compressibility (1/GPa) = 0.99992927
#
# Stress axis : x y z
#
# Youngs Moduli (GPa) = 34.26935 1.29913 102.75737
#
# Poissons Ratio (x) = -0.08191 0.26970
# Poissons Ratio (y) = -2.16073 -3.61790
# Poissons Ratio (z) = 0.08994 -0.04574
#
# Static dielectric constant tensor:
#      x y z
#    x 2.091430 0.232820 0.037590 
#    y 0.232820 2.152240 0.076030 
#    z 0.037590 0.076030 1.841540 
# 
# From -- ./inp_files/566484.got.cif
#   From: 2010.05.17/outbox.ucp.g08.bks.cvg/sg2_284_cif.got.tgz:566484.got - 2010.06.11 11:32:03.
