data_PCOD9072195
_publ_section_title
;
Structure prediction by ZEFSAII (Michael W. Deem and Ramdas Pophale) SiO2 
 PCOD9072195
Probable space group: P -1
;
_chemical_formula_sum "Si O2"
_cell_formula_units_Z 16
_cell_length_a 17.618180
_cell_length_b 18.906956
_cell_length_c 5.444705
_cell_angle_alpha 61.114878
_cell_angle_beta 118.734871
_cell_angle_gamma 149.084835
_cell_volume 806.959930
_symmetry_space_group_name_H-M "P -1"
_symmetry_group_IT_number 2
_symmetry_cell_setting 'triclinic'
loop_
_space_group_symop_operation_xyz
x,y,z
-x,-y,-z
loop_
_atom_site_type_symbol
_atom_site_label
_atom_site_fract_x
_atom_site_fract_y
_atom_site_fract_z
Si Si1 0.573481 0.616367 0.723038
Si Si2 0.443259 0.662688 0.666716
Si Si3 0.694630 0.566306 0.770328
Si Si4 0.843640 0.234630 0.365574
Si Si5 0.124835 0.568222 0.767377
Si Si6 0.340193 0.919004 0.150677
Si Si7 0.554368 0.171073 0.385849
Si Si8 0.859608 0.579331 0.682265
O O1 0.575847 0.706259 0.697970
O O2 0.710009 0.666476 0.749674
O O3 0.449287 0.534146 0.459202
O O4 0.500000 0.500000 0.000000
O O5 0.505639 0.795693 0.627989
O O6 0.305000 0.570804 0.418419
O O7 0.356724 0.542223 0.937887
O O8 0.830113 0.636848 0.698656
O O9 0.857822 0.342776 0.172885
O O10 0.765034 0.164552 0.626882
O O11 0.006376 0.316030 0.480291
O O12 0.747196 0.132532 0.151486
O O13 0.280031 0.677594 0.685707
O O14 0.000000 0.500000 0.500000
O O15 0.087609 0.454296 0.012135
O O16 0.424660 0.896073 0.316208
O O17 0.461832 0.077477 0.155987
#
# Coordination Sequence:
#
# PCOD9072195 Si02
#       8
#     2   2   2   2   2   2   2   2
#     4   8  16  30  48  75 116 137 165 209 277 358
#     4  10  18  30  52  84 107 139 176 228 286 334
#     4   9  17  30  48  79 112 139 168 213 283 351
#     4  11  23  38  53  74 111 150 193 231 269 321
#     4  11  21  35  55  81 113 146 183 237 287 327
#     4  10  24  39  54  74 106 158 199 235 265 305
#     4  10  20  36  56  75 108 145 195 231 271 325
#     4  11  20  30  54  78 109 145 180 227 286 340
#
# _framework density 19.827504000000001
#
# number of rings (size 3 to 8) (size 9 to 14) (size 15 to 20)
#    0.000    2.000    1.250    3.375    1.750    5.500 
#    0.000    0.000    0.000    0.000    0.000    1.750 
#    0.000    0.000    0.000    0.000    0.000    0.000 
#
# Total GULP energy -89208.174830 kJ/mol
# GULP energy per Si atom -5575.510927 kJ/mol
# Density = 1.978238 g / cm^3
# Si number density = 19.827504 Si / 1000 Ang^3
#
#
#
# Elastic Constant Matrix: (Units=GPa)
#
#
# Indices 1 2 3 4 5 6 
#
# 1 168.5408 25.7454 12.7871 -10.3338 10.7224 -23.9693
# 2 25.7454 56.5660 8.2162 9.1497 0.8831 -14.2244
# 3 12.7871 8.2162 65.3602 12.8087 5.3562 -5.5275
# 4 -10.3338 9.1497 12.8087 18.9096 -1.9059 -6.1420
# 5 10.7224 0.8831 5.3562 -1.9059 20.3991 -3.0676
# 6 -23.9693 -14.2244 -5.5275 -6.1420 -3.0676 31.7362
#
#
#
# Elastic Compliance Matrix: (Units=1/GPa)
#
#
# Indices 1 2 3 4 5 6 
#
# 1 0.008159 -0.003388 -0.002380 0.009447 -0.001749 0.005889
# 2 -0.003388 0.022310 0.000464 -0.011158 0.000464 0.005407
# 3 -0.002380 0.000464 0.019057 -0.015579 -0.005502 -0.001817
# 4 0.009447 -0.011158 -0.015579 0.080096 0.009473 0.015837
# 5 -0.001749 0.000464 -0.005502 0.009473 0.052985 0.004884
# 6 0.005889 0.005407 -0.001817 0.015837 0.004884 0.041601
#
#
# Mechanical properties :
#
#
# Convention : Reuss Voigt Hill
#
# Bulk Modulus (GPa) = 25.69455 42.66272 34.17864
# Shear Modulus (GPa) = 20.17828 30.45686 25.31757
#
# Velocity S-wave (km/s) = 3.19359 3.92355 3.57724
# Velocity P-wave (km/s) = 5.15615 6.48763 5.85983
#
# Compressibility (1/GPa) = 0.03891875
#
# Stress axis : x y z
#
# Youngs Moduli (GPa) = 122.55854 44.82238 52.47303
#
# Poissons Ratio (x) = 0.15185 0.12491
# Poissons Ratio (y) = 0.41521 -0.02436
# Poissons Ratio (z) = 0.29174 -0.02081
#
# Static dielectric constant tensor:
#      x y z
#    x 1.808060 -0.032030 -0.099510 
#    y -0.032030 1.712420 -0.022480 
#    z -0.099510 -0.022480 1.628620 
# 
# From -- ./inp_files/51692.got.cif
#   From: 2010.05.17/outbox.cif.g08.bks.cpg/sg2_26_cif.got.tgz:51692.got - 2010.06.03 11:33:40.
