data_PCOD9072266
_publ_section_title
;
Structure prediction by ZEFSAII (Michael W. Deem and Ramdas Pophale) SiO2 
 PCOD9072266
Probable space group: P -1
;
_chemical_formula_sum "Si O2"
_cell_formula_units_Z 12
_cell_length_a 9.000000
_cell_length_b 15.000000
_cell_length_c 12.000000
_cell_angle_alpha 150.000000
_cell_angle_beta 50.000000
_cell_angle_gamma 140.000000
_cell_volume 519.584618
_symmetry_space_group_name_H-M "P -1"
_symmetry_group_IT_number 2
_symmetry_cell_setting 'triclinic'
loop_
_space_group_symop_operation_xyz
x,y,z
-x,-y,-z
loop_
_atom_site_type_symbol
_atom_site_label
_atom_site_fract_x
_atom_site_fract_y
_atom_site_fract_z
Si Si1 0.092652 0.789703 0.882355
Si Si2 0.315336 0.669696 0.988657
Si Si3 0.546480 0.528798 0.877505
Si Si4 0.415477 0.849291 0.581897
Si Si5 0.682121 0.742301 0.712035
Si Si6 0.018298 0.609080 0.350088
O O1 0.219805 0.802039 0.718208
O O2 0.082821 0.607563 0.764340
O O3 0.820283 0.708400 0.915933
O O4 0.241719 0.025545 0.121197
O O5 0.355568 0.568282 0.966330
O O6 0.550715 0.735378 0.878970
O O7 0.095072 0.494685 0.830018
O O8 0.371144 0.904242 0.245307
O O9 0.506080 0.313875 0.610282
O O10 0.500000 0.500000 0.000000
O O11 0.284088 0.766949 0.435709
O O12 0.500000 0.500000 0.500000
O O13 0.911078 0.740138 0.588446
#
# Coordination Sequence:
#
# PCOD9072266 Si02
#       6
#     2   2   2   2   2   2
#     4  10  20  37  60  88 119 153 193 239 295 346
#     4  10  21  35  57  87 115 152 197 238 292 347
#     4  11  23  39  59  84 119 159 195 237 293 352
#     4  10  21  39  62  86 118 153 192 246 294 342
#     4   9  18  31  57  90 118 144 188 246 291 337
#     4  10  19  33  57  88 118 149 190 241 289 344
#
# _framework density 23.095372000000001
#
# number of rings (size 3 to 8) (size 9 to 14) (size 15 to 20)
#    0.000    2.000    0.000    5.000    0.000   12.000 
#    0.000    3.333    0.000   17.000    0.000    3.500 
#    0.000    0.000    0.000    0.000    0.000    0.000 
#
# Total GULP energy -66869.608003 kJ/mol
# GULP energy per Si atom -5572.467334 kJ/mol
# Density = 2.304281 g / cm^3
# Si number density = 23.095372 Si / 1000 Ang^3
#
#
#
# Elastic Constant Matrix: (Units=GPa)
#
#
# Indices 1 2 3 4 5 6 
#
# 1 73.7854 25.2182 20.5560 1.5899 12.9981 -13.0569
# 2 25.2182 45.6533 31.9728 8.5153 2.3984 7.1114
# 3 20.5560 31.9728 147.0022 31.8176 1.4731 -5.7688
# 4 1.5899 8.5153 31.8176 42.0160 1.9897 -6.1005
# 5 12.9981 2.3984 1.4731 1.9897 38.3320 -6.1536
# 6 -13.0569 7.1114 -5.7688 -6.1005 -6.1536 23.2186
#
#
#
# Elastic Compliance Matrix: (Units=1/GPa)
#
#
# Indices 1 2 3 4 5 6 
#
# 1 0.022942 -0.016221 -0.000075 0.005307 -0.004123 0.018153
# 2 -0.016221 0.040180 -0.006022 -0.006544 -0.000416 -0.024754
# 3 -0.000075 -0.006022 0.009426 -0.005531 0.000793 0.002901
# 4 0.005307 -0.006544 -0.005531 0.030823 -0.000937 0.011465
# 5 -0.004123 -0.000416 0.000793 -0.000937 0.028378 0.005281
# 6 0.018153 -0.024754 0.002901 0.011465 0.005281 0.065991
#
#
# Mechanical properties :
#
#
# Convention : Reuss Voigt Hill
#
# Bulk Modulus (GPa) = 35.82668 46.88164 41.35416
# Shear Modulus (GPa) = 19.86650 33.29292 26.57971
#
# Velocity S-wave (km/s) = 2.93609 3.80088 3.39612
# Velocity P-wave (km/s) = 5.20003 6.29329 5.77260
#
# Compressibility (1/GPa) = 0.02791216
#
# Stress axis : x y z
#
# Youngs Moduli (GPa) = 43.58836 24.88797 106.09078
#
# Poissons Ratio (x) = 0.40371 0.00796
# Poissons Ratio (y) = 0.70705 0.63885
# Poissons Ratio (z) = 0.00327 0.14987
#
# Static dielectric constant tensor:
#      x y z
#    x 1.961010 -0.006520 -0.016150 
#    y -0.006520 1.920550 -0.019340 
#    z -0.016150 -0.019340 1.906100 
# 
# From -- ./inp_files/306690.got.cif
#   From: 2010.05.17/outbox.ucp.g08.bks.cvg/sg2_154_cif.got.tgz:306690.got - 2010.06.11 11:32:03.
