data_PCOD9072981
_publ_section_title
;
Structure prediction by ZEFSAII (Michael W. Deem and Ramdas Pophale) SiO2 
 PCOD9072981
Probable space group: P -1
;
_chemical_formula_sum "Si O2"
_cell_formula_units_Z 16
_cell_length_a 15.000000
_cell_length_b 9.000000
_cell_length_c 9.000000
_cell_angle_alpha 130.000000
_cell_angle_beta 110.000000
_cell_angle_gamma 100.000000
_cell_volume 732.374747
_symmetry_space_group_name_H-M "P -1"
_symmetry_group_IT_number 2
_symmetry_cell_setting 'triclinic'
loop_
_space_group_symop_operation_xyz
x,y,z
-x,-y,-z
loop_
_atom_site_type_symbol
_atom_site_label
_atom_site_fract_x
_atom_site_fract_y
_atom_site_fract_z
Si Si1 0.122159 0.737031 0.898128
Si Si2 0.769983 0.540593 0.212702
Si Si3 0.415205 0.482050 0.308422
Si Si4 0.538411 0.326526 0.097136
Si Si5 0.056825 0.021713 0.207122
Si Si6 0.362422 0.794502 0.637068
Si Si7 0.875364 0.286629 0.470019
Si Si8 0.168136 0.172375 0.860550
O O1 0.214451 0.672632 0.922012
O O2 0.122224 0.771370 0.741724
O O3 0.995450 0.517122 0.718562
O O4 0.135136 0.926808 0.143258
O O5 0.643424 0.457914 0.131352
O O6 0.799139 0.647445 0.135490
O O7 0.861556 0.728594 0.506391
O O8 0.500000 0.500000 0.500000
O O9 0.482116 0.468621 0.198570
O O10 0.393745 0.685173 0.450749
O O11 0.283053 0.262995 0.082776
O O12 0.594062 0.277212 0.240157
O O13 0.434382 0.069355 0.832881
O O14 0.944110 0.876406 0.150894
O O15 0.000000 0.000000 0.000000
O O16 0.231287 0.701421 0.534962
O O17 0.863391 0.063253 0.391986
#
# Coordination Sequence:
#
# PCOD9072981 Si02
#       8
#     2   2   2   2   2   2   2   2
#     4  11  23  40  69  98 131 178 225 271 327 408
#     4  12  27  45  64 101 145 174 215 281 344 399
#     4  10  23  40  68  98 126 172 229 273 320 398
#     4  10  22  39  65  92 132 173 218 275 334 382
#     4  12  25  43  73 101 132 178 231 274 324 404
#     4  10  20  39  67  96 124 172 227 279 314 393
#     4  11  20  41  69  97 132 175 224 273 335 392
#     4  12  25  45  68 100 141 174 216 283 348 389
#
# _framework density 21.846738999999999
#
# number of rings (size 3 to 8) (size 9 to 14) (size 15 to 20)
#    0.000    1.000    5.000    1.875    3.500    2.000 
#    2.250    0.625    0.000    0.000    0.000    0.000 
#    0.000    0.000    0.000    0.000    0.000    0.000 
#
# Total GULP energy -89315.392654 kJ/mol
# GULP energy per Si atom -5582.212041 kJ/mol
# Density = 2.179701 g / cm^3
# Si number density = 21.846739 Si / 1000 Ang^3
#
#
#
# Elastic Constant Matrix: (Units=GPa)
#
#
# Indices 1 2 3 4 5 6 
#
# 1 179.8859 -11.6599 23.3006 2.7412 -29.1584 17.1633
# 2 -11.6599 19.1403 -9.8763 -7.3335 -11.3857 13.6544
# 3 23.3006 -9.8763 48.6804 -2.9985 -6.7859 -1.3496
# 4 2.7412 -7.3335 -2.9985 8.3328 -6.3082 2.5539
# 5 -29.1584 -11.3857 -6.7859 -6.3082 44.2824 10.8324
# 6 17.1633 13.6544 -1.3496 2.5539 10.8324 31.7594
#
#
#
# Elastic Compliance Matrix: (Units=1/GPa)
#
#
# Indices 1 2 3 4 5 6 
#
# 1 0.005162 -0.009327 -0.005580 -0.014952 -0.002748 0.003123
# 2 -0.009327 -0.035634 -0.011220 -0.071689 -0.036560 0.038118
# 3 -0.005580 -0.011220 0.019464 -0.010992 -0.008160 0.012334
# 4 -0.014952 -0.071689 -0.010992 0.011054 -0.040993 0.051528
# 5 -0.002748 -0.036560 -0.008160 -0.040993 -0.000706 0.020394
# 6 0.003123 0.038118 0.012334 0.051528 0.020394 0.002835
#
#
# Mechanical properties :
#
#
# Convention : Reuss Voigt Hill
#
# Bulk Modulus (GPa) = -15.80692 27.91503 6.05405
# Shear Modulus (GPa) = 149.95543 33.27107 91.61325
#
# Velocity S-wave (km/s) = 8.29390 3.90671 6.48271
# Velocity P-wave (km/s) = 9.19061 5.75806 7.66885
#
# Compressibility (1/GPa) = -0.06326342
#
# Stress axis : x y z
#
# Youngs Moduli (GPa) = 193.73443 -28.06326 51.37630
#
# Poissons Ratio (x) = -0.26175 0.28670
# Poissons Ratio (y) = 1.80696 0.57646
# Poissons Ratio (z) = 1.08112 -0.31488
#
# Static dielectric constant tensor:
#      x y z
#    x 1.778860 -0.056430 -0.028590 
#    y -0.056430 1.904310 0.031100 
#    z -0.028590 0.031100 1.839660 
# 
# From -- ./inp_files/299782.got.cif
#   From: 2010.05.17/outbox.ucp.g08.bks.cvg/sg2_150_cif.got.tgz:299782.got - 2010.06.11 11:32:03.
