data_PCOD9072007
_publ_section_title
;
Structure prediction by ZEFSAII (Michael W. Deem and Ramdas Pophale) SiO2 
 PCOD9072007
Probable space group: P -1
;
_chemical_formula_sum "Si O2"
_cell_formula_units_Z 14
_cell_length_a 11.739975
_cell_length_b 20.350521
_cell_length_c 20.926141
_cell_angle_alpha 19.344656
_cell_angle_beta 29.145805
_cell_angle_gamma 24.975748
_cell_volume 693.401308
_symmetry_space_group_name_H-M "P -1"
_symmetry_group_IT_number 2
_symmetry_cell_setting 'triclinic'
loop_
_space_group_symop_operation_xyz
x,y,z
-x,-y,-z
loop_
_atom_site_type_symbol
_atom_site_label
_atom_site_fract_x
_atom_site_fract_y
_atom_site_fract_z
Si Si1 0.492971 0.272959 0.730949
Si Si2 0.562610 0.190993 0.319553
Si Si3 0.324683 0.994543 0.317133
Si Si4 0.718937 0.227990 0.348495
Si Si5 0.823896 0.578367 0.915291
Si Si6 0.866447 0.411252 0.911048
Si Si7 0.588687 0.867092 0.974320
O O1 0.500000 0.500000 0.500000
O O2 0.180366 0.332641 0.823270
O O3 0.649188 0.049442 0.814315
O O4 0.570899 0.194065 0.838964
O O5 0.638752 0.151331 0.393170
O O6 0.298703 0.441029 0.204431
O O7 0.500000 0.000000 0.500000
O O8 0.794063 0.216222 0.144488
O O9 0.240074 0.188940 0.234290
O O10 0.513600 0.013469 0.153816
O O11 0.042032 0.061934 0.357867
O O12 0.427824 0.769883 0.515978
O O13 0.676970 0.473985 0.124599
O O14 0.758592 0.580827 0.870502
O O15 0.141918 0.379119 0.945869
#
# Coordination Sequence:
#
# PCOD9072007 Si02
#       7
#     2   2   2   2   2   2   2
#     4  10  21  35  52  74 106 143 174 215 260 306
#     4  10  19  33  53  75 104 139 171 217 261 301
#     4  10  18  30  50  77 109 134 162 218 268 306
#     4   9  18  28  46  76 102 132 170 204 261 319
#     4   9  17  31  50  76 107 132 162 216 268 306
#     4   9  20  34  51  79 106 133 177 213 255 316
#     4   9  19  31  46  74 103 132 171 204 253 316
#
# _framework density 20.190328000000001
#
# number of rings (size 3 to 8) (size 9 to 14) (size 15 to 20)
#    0.000    2.571    0.000    3.429    0.000   13.714 
#    0.000    0.000    0.000    0.857    0.000   22.000 
#    0.000    0.000    0.000    0.000    0.000    0.000 
#
# Total GULP energy -77941.942145 kJ/mol
# GULP energy per Si atom -5567.281582 kJ/mol
# Density = 2.014437 g / cm^3
# Si number density = 20.190328 Si / 1000 Ang^3
#
#
#
# Elastic Constant Matrix: (Units=GPa)
#
#
# Indices 1 2 3 4 5 6 
#
# 1 107.9089 5.6246 34.3759 4.7124 11.0336 0.9718
# 2 5.6246 33.8679 13.4364 6.2882 -0.6268 3.5229
# 3 34.3759 13.4364 119.0809 6.1264 5.6881 8.4820
# 4 4.7124 6.2882 6.1264 18.6906 4.4003 -1.2111
# 5 11.0336 -0.6268 5.6881 4.4003 43.8516 4.1776
# 6 0.9718 3.5229 8.4820 -1.2111 4.1776 28.1048
#
#
#
# Elastic Compliance Matrix: (Units=1/GPa)
#
#
# Indices 1 2 3 4 5 6 
#
# 1 0.010473 -0.000563 -0.002866 -0.000923 -0.002262 0.000870
# 2 -0.000563 0.033263 -0.002851 -0.010966 0.002481 -0.004131
# 3 -0.002866 -0.002851 0.009823 -0.001660 -0.000184 -0.002552
# 4 -0.000923 -0.010966 -0.001660 0.059785 -0.006224 0.005409
# 5 -0.002262 0.002481 -0.000184 -0.006224 0.024446 -0.004079
# 6 0.000870 -0.004131 -0.002552 0.005409 -0.004079 0.037679
#
#
# Mechanical properties :
#
#
# Convention : Reuss Voigt Hill
#
# Bulk Modulus (GPa) = 24.39125 40.85905 32.62515
# Shear Modulus (GPa) = 24.79004 31.95745 28.37375
#
# Velocity S-wave (km/s) = 3.50782 3.98277 3.75282
# Velocity P-wave (km/s) = 5.33979 6.43668 5.91372
#
# Compressibility (1/GPa) = 0.04099831
#
# Stress axis : x y z
#
# Youngs Moduli (GPa) = 95.48128 30.06373 101.80482
#
# Poissons Ratio (x) = 0.01693 0.29180
# Poissons Ratio (y) = 0.05378 0.29021
# Poissons Ratio (z) = 0.27368 0.08570
#
# Static dielectric constant tensor:
#      x y z
#    x 1.760790 0.004230 0.021990 
#    y 0.004230 1.752520 0.027200 
#    z 0.021990 0.027200 1.804940 
# 
# From -- ./inp_files/518462.got.cif
#   From: 2010.05.17/outbox.cif.g08.bks.cpg/sg2_260_cif.got.tgz:518462.got - 2010.06.03 11:33:40.
