data_PCOD9072407
_publ_section_title
;
Structure prediction by ZEFSAII (Michael W. Deem and Ramdas Pophale) SiO2 
 PCOD9072407
Probable space group: P -1
;
_chemical_formula_sum "Si O2"
_cell_formula_units_Z 16
_cell_length_a 5.433321
_cell_length_b 9.099763
_cell_length_c 27.964553
_cell_angle_alpha 140.004144
_cell_angle_beta 57.515154
_cell_angle_gamma 103.409618
_cell_volume 707.316221
_symmetry_space_group_name_H-M "P -1"
_symmetry_group_IT_number 2
_symmetry_cell_setting 'triclinic'
loop_
_space_group_symop_operation_xyz
x,y,z
-x,-y,-z
loop_
_atom_site_type_symbol
_atom_site_label
_atom_site_fract_x
_atom_site_fract_y
_atom_site_fract_z
Si Si1 0.038234 0.761851 0.718785
Si Si2 0.055829 0.494164 0.142051
Si Si3 0.806639 0.825541 0.862529
Si Si4 0.360863 0.352969 0.516968
Si Si5 0.856900 0.864206 0.034713
Si Si6 0.008252 0.227514 0.445883
Si Si7 0.515249 0.746044 0.123635
Si Si8 0.438498 0.079745 0.737377
O O1 0.093053 0.532742 0.622064
O O2 0.012885 0.727688 0.769462
O O3 0.324684 0.850917 0.698123
O O4 0.737881 0.988509 0.793219
O O5 0.172009 0.382497 0.153369
O O6 0.330498 0.560423 0.103503
O O7 0.762123 0.736873 0.235334
O O8 0.977050 0.299258 0.067858
O O9 0.462401 0.958881 0.911525
O O10 0.943600 0.005991 0.923257
O O11 0.500000 0.500000 0.500000
O O12 0.216835 0.182334 0.460145
O O13 0.662486 0.227439 0.485850
O O14 0.751509 0.705355 0.045692
O O15 0.000000 0.500000 0.500000
O O16 0.199948 0.029482 0.338193
O O17 0.651521 0.774724 0.167745
#
# Coordination Sequence:
#
# PCOD9072407 Si02
#       8
#     2   2   2   2   2   2   2   2
#     4  10  20  37  59  91 118 159 203 256 293 365
#     4  11  26  39  61  91 125 166 201 256 311 363
#     4  11  25  43  64  88 123 167 210 247 302 369
#     4  10  18  30  56  86 116 144 199 247 296 340
#     4  11  24  44  65  87 121 165 216 251 295 363
#     4  10  19  31  55  87 117 150 193 247 295 356
#     4  10  22  38  61  92 123 160 203 260 308 352
#     4  11  21  36  60  89 126 154 200 255 311 354
#
# _framework density 22.620716999999999
#
# number of rings (size 3 to 8) (size 9 to 14) (size 15 to 20)
#    0.000    1.500    3.750    2.625    5.250    0.500 
#    0.000    0.000    0.000    1.500    0.000    0.000 
#    0.000    0.000    0.000    0.000    0.000    0.000 
#
# Total GULP energy -89410.856337 kJ/mol
# GULP energy per Si atom -5588.178521 kJ/mol
# Density = 2.256923 g / cm^3
# Si number density = 22.620717 Si / 1000 Ang^3
#
#
#
# Elastic Constant Matrix: (Units=GPa)
#
#
# Indices 1 2 3 4 5 6 
#
# 1 109.4000 28.3720 5.7398 0.8325 9.2174 -11.0657
# 2 28.3720 94.4609 35.9405 -5.6120 -7.9023 -20.0157
# 3 5.7398 35.9405 86.9262 -19.1342 7.7870 -9.0332
# 4 0.8325 -5.6120 -19.1342 10.8352 -5.4090 3.4654
# 5 9.2174 -7.9023 7.7870 -5.4090 25.6505 -8.5901
# 6 -11.0657 -20.0157 -9.0332 3.4654 -8.5901 23.5542
#
#
#
# Elastic Compliance Matrix: (Units=1/GPa)
#
#
# Indices 1 2 3 4 5 6 
#
# 1 0.010820 -0.004262 0.000409 -0.005574 -0.006475 0.000077
# 2 -0.004262 0.019804 -0.007627 -0.000701 0.015744 0.017746
# 3 0.000409 -0.007627 0.022168 0.034854 -0.003250 -0.004101
# 4 -0.005574 -0.000701 0.034854 0.168051 0.024792 -0.005531
# 5 -0.006475 0.015744 -0.003250 0.024792 0.061740 0.027959
# 6 0.000077 0.017746 -0.004101 -0.005531 0.027959 0.067009
#
#
# Mechanical properties :
#
#
# Convention : Reuss Voigt Hill
#
# Bulk Modulus (GPa) = 33.52183 47.87686 40.69934
# Shear Modulus (GPa) = 13.07196 26.72363 19.89779
#
# Velocity S-wave (km/s) = 2.40651 3.44085 2.96907
# Velocity P-wave (km/s) = 4.75110 6.08251 5.45756
#
# Compressibility (1/GPa) = 0.02983130
#
# Stress axis : x y z
#
# Youngs Moduli (GPa) = 92.41813 50.49394 45.11100
#
# Poissons Ratio (x) = 0.21521 -0.01844
# Poissons Ratio (y) = 0.39389 0.34408
# Poissons Ratio (z) = -0.03778 0.38513
#
# Static dielectric constant tensor:
#      x y z
#    x 1.906740 0.002300 -0.007870 
#    y 0.002300 1.844060 0.032480 
#    z -0.007870 0.032480 1.833050 
# 
# From -- ./inp_files/37448.got.cif
#   From: 2010.05.17/outbox.cif.g08.bks.cpg/sg2_19_cif.got.tgz:37448.got - 2010.06.03 11:33:40.
