data_PCOD9072302
_publ_section_title
;
Structure prediction by ZEFSAII (Michael W. Deem and Ramdas Pophale) SiO2 
 PCOD9072302
Probable space group: P -1
;
_chemical_formula_sum "Si O2"
_cell_formula_units_Z 16
_cell_length_a 9.275562
_cell_length_b 7.062094
_cell_length_c 16.584378
_cell_angle_alpha 106.764452
_cell_angle_beta 136.034470
_cell_angle_gamma 75.678440
_cell_volume 720.830894
_symmetry_space_group_name_H-M "P -1"
_symmetry_group_IT_number 2
_symmetry_cell_setting 'triclinic'
loop_
_space_group_symop_operation_xyz
x,y,z
-x,-y,-z
loop_
_atom_site_type_symbol
_atom_site_label
_atom_site_fract_x
_atom_site_fract_y
_atom_site_fract_z
Si Si1 0.493641 0.592094 0.242023
Si Si2 0.799865 0.910689 0.817615
Si Si3 0.919051 0.439469 0.372834
Si Si4 0.104168 0.675450 0.017527
Si Si5 0.970589 0.164358 0.621086
Si Si6 0.309976 0.653804 0.348189
Si Si7 0.726491 0.743127 0.606123
Si Si8 0.661640 0.020568 0.344491
O O1 0.674440 0.421201 0.284560
O O2 0.353138 0.589464 0.265609
O O3 0.606980 0.798258 0.320220
O O4 0.347198 0.605182 0.105893
O O5 0.753699 0.906458 0.704299
O O6 0.568973 0.888113 0.759371
O O7 0.971309 0.741697 0.893974
O O8 0.887349 0.118893 0.904070
O O9 0.000000 0.500000 0.500000
O O10 0.946124 0.627501 0.348987
O O11 0.076836 0.276725 0.376424
O O12 0.000000 0.500000 0.000000
O O13 0.883986 0.205919 0.680689
O O14 0.159925 0.006811 0.655467
O O15 0.775908 0.122371 0.477868
O O16 0.518232 0.755719 0.472249
O O17 0.293665 0.454988 0.371285
#
# Coordination Sequence:
#
# PCOD9072302 Si02
#       8
#     2   2   2   2   2   2   2   2
#     4  10  20  34  54  82 111 153 195 234 289 344
#     4  10  20  38  61  83 113 154 200 242 283 344
#     4  10  19  32  52  82 120 153 184 226 289 354
#     4  10  22  39  61  83 108 151 205 250 289 333
#     4   9  18  31  48  80 117 152 182 221 288 348
#     4  10  18  30  54  84 121 153 186 231 283 354
#     4  10  19  32  54  86 118 154 190 230 291 345
#     4   9  18  33  51  77 114 150 189 227 286 348
#
# _framework density 22.196607
#
# number of rings (size 3 to 8) (size 9 to 14) (size 15 to 20)
#    0.000    2.250    2.500    0.750    0.000    1.500 
#    0.000    0.625    0.000    4.500    0.000    0.000 
#    0.000    0.000    0.000    0.000    0.000    0.000 
#
# Total GULP energy -89289.829255 kJ/mol
# GULP energy per Si atom -5580.614328 kJ/mol
# Density = 2.214609 g / cm^3
# Si number density = 22.196607 Si / 1000 Ang^3
#
#
#
# Elastic Constant Matrix: (Units=GPa)
#
#
# Indices 1 2 3 4 5 6 
#
# 1 151.7052 32.9158 33.3612 -9.4196 18.4503 -14.3442
# 2 32.9158 50.4571 16.8542 -4.0974 10.3282 -0.8558
# 3 33.3612 16.8542 100.3244 -9.8647 8.7034 -10.9927
# 4 -9.4196 -4.0974 -9.8647 41.1837 -0.2325 9.1599
# 5 18.4503 10.3282 8.7034 -0.2325 16.5049 -6.2965
# 6 -14.3442 -0.8558 -10.9927 9.1599 -6.2965 41.4035
#
#
#
# Elastic Compliance Matrix: (Units=1/GPa)
#
#
# Indices 1 2 3 4 5 6 
#
# 1 0.008664 -0.003846 -0.001475 0.000894 -0.005943 0.001429
# 2 -0.003846 0.025590 -0.002199 0.001876 -0.011907 -0.003613
# 3 -0.001475 -0.002199 0.011391 0.001776 -0.002299 0.001725
# 4 0.000894 0.001876 0.001776 0.026351 -0.004936 -0.005760
# 5 -0.005943 -0.011907 -0.002299 -0.004936 0.079756 0.010306
# 6 0.001429 -0.003613 0.001725 -0.005760 0.010306 0.027873
#
#
# Mechanical properties :
#
#
# Convention : Reuss Voigt Hill
#
# Bulk Modulus (GPa) = 32.67337 52.08325 42.37831
# Shear Modulus (GPa) = 24.40616 34.44212 29.42414
#
# Velocity S-wave (km/s) = 3.31954 3.94342 3.64485
# Velocity P-wave (km/s) = 5.42627 6.65203 6.07017
#
# Compressibility (1/GPa) = 0.03060597
#
# Stress axis : x y z
#
# Youngs Moduli (GPa) = 115.42078 39.07706 87.79219
#
# Poissons Ratio (x) = 0.15029 0.12948
# Poissons Ratio (y) = 0.44390 0.19303
# Poissons Ratio (z) = 0.17023 0.08592
#
# Static dielectric constant tensor:
#      x y z
#    x 1.833790 0.009120 0.027500 
#    y 0.009120 1.952730 -0.034200 
#    z 0.027500 -0.034200 1.819430 
# 
# From -- ./inp_files/469360.got.cif
#   From: 2010.05.17/outbox.cif.g08.bks.cpg/sg2_235_cif.got.tgz:469360.got - 2010.06.03 11:33:40.
