data_PCOD9072274
_publ_section_title
;
Structure prediction by ZEFSAII (Michael W. Deem and Ramdas Pophale) SiO2 
 PCOD9072274
Probable space group: P -1
;
_chemical_formula_sum "Si O2"
_cell_formula_units_Z 14
_cell_length_a 13.471636
_cell_length_b 8.170617
_cell_length_c 7.601028
_cell_angle_alpha 50.277187
_cell_angle_beta 121.465825
_cell_angle_gamma 105.202798
_cell_volume 545.627408
_symmetry_space_group_name_H-M "P -1"
_symmetry_group_IT_number 2
_symmetry_cell_setting 'triclinic'
loop_
_space_group_symop_operation_xyz
x,y,z
-x,-y,-z
loop_
_atom_site_type_symbol
_atom_site_label
_atom_site_fract_x
_atom_site_fract_y
_atom_site_fract_z
Si Si1 0.288278 0.589269 0.469171
Si Si2 0.416203 0.704569 0.205360
Si Si3 0.699904 0.968580 0.717738
Si Si4 0.063627 0.063170 0.840576
Si Si5 0.554064 0.815494 0.958862
Si Si6 0.948246 0.527311 0.647790
Si Si7 0.110341 0.223114 0.238194
O O1 0.298200 0.646271 0.230900
O O2 0.351511 0.359162 0.740249
O O3 0.155088 0.614968 0.390116
O O4 0.344237 0.779837 0.492835
O O5 0.500000 0.500000 0.500000
O O6 0.437066 0.736744 0.994445
O O7 0.443171 0.935893 0.148945
O O8 0.771496 0.892601 0.660570
O O9 0.800043 0.949706 0.977311
O O10 0.599880 0.828408 0.791023
O O11 0.026995 0.306664 0.590328
O O12 0.000052 0.916577 0.749522
O O13 0.000000 0.000000 0.000000
O O14 0.877873 0.678322 0.629085
O O15 0.060531 0.409194 0.928568
#
# Coordination Sequence:
#
# PCOD9072274 Si02
#       7
#     2   2   2   2   2   2   2
#     4  10  18  30  54  78 102 136 178 221 257 313
#     4   8  16  29  49  81 108 128 164 217 268 316
#     4  10  19  32  51  77 104 135 183 218 259 310
#     4  10  20  34  51  72  99 136 183 220 257 305
#     4   9  16  30  51  78 107 133 166 219 267 307
#     4  11  21  36  54  73 109 145 180 222 266 309
#     4  10  23  36  49  76 108 147 180 219 265 314
#
# _framework density 25.658532999999998
#
# number of rings (size 3 to 8) (size 9 to 14) (size 15 to 20)
#    0.000    2.286    2.857    0.429    0.000    4.571 
#    0.000    0.000    0.000    0.857    0.000   34.000 
#    0.000    0.000    0.000    0.000    0.000    0.000 
#
# Total GULP energy -78056.703267 kJ/mol
# GULP energy per Si atom -5575.478805 kJ/mol
# Density = 2.560013 g / cm^3
# Si number density = 25.658533 Si / 1000 Ang^3
#
#
#
# Elastic Constant Matrix: (Units=GPa)
#
#
# Indices 1 2 3 4 5 6 
#
# 1 158.2028 13.1814 46.1596 -1.0445 -28.3043 2.4308
# 2 13.1814 28.6161 30.8325 -21.0340 5.6694 -2.1779
# 3 46.1596 30.8325 139.4227 -32.4040 -10.0496 10.2383
# 4 -1.0445 -21.0340 -32.4040 37.7042 -3.1578 1.7255
# 5 -28.3043 5.6694 -10.0496 -3.1578 45.4014 -13.7047
# 6 2.4308 -2.1779 10.2383 1.7255 -13.7047 26.2285
#
#
#
# Elastic Compliance Matrix: (Units=1/GPa)
#
#
# Indices 1 2 3 4 5 6 
#
# 1 0.008525 -0.005705 -0.002441 -0.004678 0.006127 0.003198
# 2 -0.005705 0.071788 -0.007335 0.032567 -0.011520 0.001191
# 3 -0.002441 -0.007335 0.011393 0.005924 0.000893 -0.004753
# 4 -0.004678 0.032567 0.005924 0.049553 -0.003514 -0.004271
# 5 0.006127 -0.011520 0.000893 -0.003514 0.031749 0.014947
# 6 0.003198 0.001191 -0.004753 -0.004271 0.014947 0.047876
#
#
# Mechanical properties :
#
#
# Convention : Reuss Voigt Hill
#
# Bulk Modulus (GPa) = 16.46315 56.28763 36.37539
# Shear Modulus (GPa) = 18.37599 37.60468 27.99033
#
# Velocity S-wave (km/s) = 2.67905 3.83245 3.30643
# Velocity P-wave (km/s) = 3.99999 6.44735 5.36508
#
# Compressibility (1/GPa) = 0.06074172
#
# Stress axis : x y z
#
# Youngs Moduli (GPa) = 117.30589 13.92996 87.77289
#
# Poissons Ratio (x) = 0.07948 0.21426
# Poissons Ratio (y) = 0.66928 0.64384
# Poissons Ratio (z) = 0.28635 0.10218
#
# Static dielectric constant tensor:
#      x y z
#    x 2.104450 -0.088330 -0.021520 
#    y -0.088330 2.242340 -0.032030 
#    z -0.021520 -0.032030 2.002940 
# 
# From -- ./inp_files/37886.got.cif
#   From: 2010.05.17/outbox.cif.g08.bks.cpg/sg2_19_cif.got.tgz:37886.got - 2010.06.03 11:33:40.
