data_PCOD9072466
_publ_section_title
;
Structure prediction by ZEFSAII (Michael W. Deem and Ramdas Pophale) SiO2 
 PCOD9072466
Probable space group: P -1
;
_chemical_formula_sum "Si O2"
_cell_formula_units_Z 16
_cell_length_a 9.000000
_cell_length_b 15.000000
_cell_length_c 12.000000
_cell_angle_alpha 150.000000
_cell_angle_beta 70.000000
_cell_angle_gamma 100.000000
_cell_volume 734.803614
_symmetry_space_group_name_H-M "P -1"
_symmetry_group_IT_number 2
_symmetry_cell_setting 'triclinic'
loop_
_space_group_symop_operation_xyz
x,y,z
-x,-y,-z
loop_
_atom_site_type_symbol
_atom_site_label
_atom_site_fract_x
_atom_site_fract_y
_atom_site_fract_z
Si Si1 0.564847 0.867722 0.592689
Si Si2 0.351594 0.598621 0.379716
Si Si3 0.898875 0.396755 0.993271
Si Si4 0.286715 0.235440 0.019248
Si Si5 0.775704 0.264613 0.680203
Si Si6 0.867945 0.742865 0.513112
Si Si7 0.774791 0.863518 0.312743
Si Si8 0.008334 0.210734 0.230211
O O1 0.489969 0.703961 0.477844
O O2 0.707000 0.884126 0.658988
O O3 0.661702 0.836066 0.415014
O O4 0.408271 0.040407 0.808347
O O5 0.385436 0.387891 0.178807
O O6 0.317411 0.632092 0.291338
O O7 0.179554 0.682395 0.579799
O O8 0.855273 0.538210 0.259345
O O9 0.759216 0.367605 0.914889
O O10 0.000000 0.500000 0.000000
O O11 0.032059 0.207337 0.784133
O O12 0.112619 0.258952 0.152300
O O13 0.250522 0.248010 0.910344
O O14 0.967182 0.225123 0.551196
O O15 0.732165 0.074253 0.511525
O O16 0.889979 0.759058 0.655126
O O17 0.000000 0.000000 0.000000
#
# Coordination Sequence:
#
# PCOD9072466 Si02
#       8
#     2   2   2   2   2   2   2   2
#     4  12  25  43  62 105 145 167 218 279 345 394
#     4  11  25  44  69 100 132 179 228 274 333 395
#     4  10  19  37  61  94 132 173 223 267 321 392
#     4  12  25  43  69  99 134 183 221 273 335 397
#     4  10  20  40  64  95 135 179 227 265 323 401
#     4  10  23  42  68  98 132 177 221 281 330 390
#     4  12  22  40  66 102 138 175 227 271 334 403
#     4  11  22  49  77  92 126 177 236 274 321 404
#
# _framework density 21.774525000000001
#
# number of rings (size 3 to 8) (size 9 to 14) (size 15 to 20)
#    0.000    1.000    5.000    4.125    0.000    2.000 
#    0.000    0.625    0.000    0.000    0.000    0.000 
#    0.000    0.000    0.000    0.000    0.000    0.000 
#
# Total GULP energy -89365.979802 kJ/mol
# GULP energy per Si atom -5585.373738 kJ/mol
# Density = 2.172497 g / cm^3
# Si number density = 21.774525 Si / 1000 Ang^3
#
#
#
# Elastic Constant Matrix: (Units=GPa)
#
#
# Indices 1 2 3 4 5 6 
#
# 1 68.2294 -0.1843 1.0938 -8.7987 -6.7772 5.2525
# 2 -0.1843 56.4929 25.7834 4.0072 -7.2135 34.2021
# 3 1.0938 25.7834 70.1691 -4.3140 11.2128 1.3508
# 4 -8.7987 4.0072 -4.3140 36.2110 7.3847 5.0727
# 5 -6.7772 -7.2135 11.2128 7.3847 21.7573 3.4744
# 6 5.2525 34.2021 1.3508 5.0727 3.4744 28.5287
#
#
#
# Elastic Compliance Matrix: (Units=1/GPa)
#
#
# Indices 1 2 3 4 5 6 
#
# 1 0.011488 -0.024103 0.011217 0.006398 -0.016700 0.027146
# 2 -0.024103 -0.131782 0.065355 0.016617 -0.117783 0.170722
# 3 0.011217 0.065355 -0.016358 -0.004504 0.048657 -0.084767
# 4 0.006398 0.016617 -0.004504 0.029715 0.003994 -0.026656
# 5 -0.016700 -0.117783 0.048657 0.003994 -0.048218 0.147138
# 6 0.027146 0.170722 -0.084767 -0.026656 0.147138 -0.183784
#
#
# Mechanical properties :
#
#
# Convention : Reuss Voigt Hill
#
# Bulk Modulus (GPa) = -31.53117 27.58637 -1.97240
# Shear Modulus (GPa) = -11.00232 28.51264 8.75516
#
# Velocity S-wave (km/s) = -2.25029 3.62256 2.00738
# Velocity P-wave (km/s) = 4.61128 5.49489 2.11304
#
# Compressibility (1/GPa) = -0.03171465
#
# Stress axis : x y z
#
# Youngs Moduli (GPa) = 87.04710 -7.58827 -61.13062
#
# Poissons Ratio (x) = -0.18290 0.68568
# Poissons Ratio (y) = 2.09808 3.99520
# Poissons Ratio (z) = -0.97638 0.49593
#
# Static dielectric constant tensor:
#      x y z
#    x 1.827880 -0.038010 0.017290 
#    y -0.038010 1.752190 0.002960 
#    z 0.017290 0.002960 1.899640 
# 
# From -- ./inp_files/398069.got.cif
#   From: 2010.05.17/outbox.ucp.g08.bks.cvg/sg2_200_cif.got.tgz:398069.got - 2010.06.11 11:32:03.
