data_PCOD9072278
_publ_section_title
;
Structure prediction by ZEFSAII (Michael W. Deem and Ramdas Pophale) SiO2 
 PCOD9072278
Probable space group: P -1
;
_chemical_formula_sum "Si O2"
_cell_formula_units_Z 12
_cell_length_a 15.000000
_cell_length_b 24.000000
_cell_length_c 9.000000
_cell_angle_alpha 30.000000
_cell_angle_beta 150.000000
_cell_angle_gamma 160.000000
_cell_volume 527.600048
_symmetry_space_group_name_H-M "P -1"
_symmetry_group_IT_number 2
_symmetry_cell_setting 'triclinic'
loop_
_space_group_symop_operation_xyz
x,y,z
-x,-y,-z
loop_
_atom_site_type_symbol
_atom_site_label
_atom_site_fract_x
_atom_site_fract_y
_atom_site_fract_z
Si Si1 0.433203 0.675738 0.175657
Si Si2 0.884963 0.297388 0.155318
Si Si3 0.168828 0.988036 0.179454
Si Si4 0.887743 0.778550 0.771396
Si Si5 0.265382 0.157385 0.346040
Si Si6 0.290660 0.798496 0.200843
O O1 0.688511 0.714599 0.492548
O O2 0.176522 0.476827 0.223684
O O3 0.333914 0.717117 0.062722
O O4 0.541080 0.815244 0.886172
O O5 0.817940 0.134485 0.467173
O O6 0.879808 0.306417 0.951037
O O7 0.983846 0.903526 0.961016
O O8 0.000000 0.000000 0.000000
O O9 0.684738 0.720555 0.745239
O O10 0.129402 0.985781 0.627581
O O11 0.057445 0.742788 0.101058
O O12 0.510592 0.217195 0.464934
O O13 0.500000 0.000000 0.000000
#
# Coordination Sequence:
#
# PCOD9072278 Si02
#       6
#     2   2   2   2   2   2
#     4  10  22  40  64  90 126 165 205 255 311 364
#     4  11  22  40  65  91 125 163 208 256 307 370
#     4  11  23  39  61  94 123 163 207 257 308 367
#     4   9  17  33  59  85 113 166 200 244 308 360
#     4   9  18  35  55  85 124 151 203 254 299 369
#     4  10  19  33  62  88 117 162 207 249 305 369
#
# _framework density 22.744501
#
# number of rings (size 3 to 8) (size 9 to 14) (size 15 to 20)
#    0.000    2.000    1.667    3.500    2.333    2.667 
#    3.000    0.833    0.000    5.000    0.000    0.000 
#    0.000    0.000    0.000    0.000    0.000    0.000 
#
# Total GULP energy -66809.805031 kJ/mol
# GULP energy per Si atom -5567.483753 kJ/mol
# Density = 2.269273 g / cm^3
# Si number density = 22.744501 Si / 1000 Ang^3
#
#
#
# Elastic Constant Matrix: (Units=GPa)
#
#
# Indices 1 2 3 4 5 6 
#
# 1 101.5811 14.1144 13.8637 9.6027 36.6684 7.5083
# 2 14.1144 57.8182 7.3353 1.1615 11.4057 8.2830
# 3 13.8637 7.3353 58.8380 12.6226 22.5224 10.1560
# 4 9.6027 1.1615 12.6226 29.2155 6.0928 9.0896
# 5 36.6684 11.4057 22.5224 6.0928 40.8877 14.1187
# 6 7.5083 8.2830 10.1560 9.0896 14.1187 25.9312
#
#
#
# Elastic Compliance Matrix: (Units=1/GPa)
#
#
# Indices 1 2 3 4 5 6 
#
# 1 0.015581 -0.001631 0.002796 -0.004542 -0.016226 0.005341
# 2 -0.001631 0.018843 -0.000812 0.002067 -0.001968 -0.004881
# 3 0.002796 -0.000812 0.023559 -0.008375 -0.014344 0.000969
# 4 -0.004542 0.002067 -0.008375 0.042388 0.006854 -0.014655
# 5 -0.016226 -0.001968 -0.014344 0.006854 0.053557 -0.020618
# 6 0.005341 -0.004881 0.000969 -0.014655 -0.020618 0.054560
#
#
# Mechanical properties :
#
#
# Convention : Reuss Voigt Hill
#
# Bulk Modulus (GPa) = 17.03975 32.09602 24.56789
# Shear Modulus (GPa) = 21.99298 31.40181 26.69740
#
# Velocity S-wave (km/s) = 3.11297 3.71972 3.42979
# Velocity P-wave (km/s) = 4.51983 5.70882 5.14876
#
# Compressibility (1/GPa) = 0.05868629
#
# Stress axis : x y z
#
# Youngs Moduli (GPa) = 64.18004 53.07029 42.44747
#
# Poissons Ratio (x) = 0.08658 -0.11866
# Poissons Ratio (y) = 0.10471 0.03448
# Poissons Ratio (z) = -0.17942 0.04311
#
# Static dielectric constant tensor:
#      x y z
#    x 2.075080 -0.074050 -0.110610 
#    y -0.074050 1.864220 0.060680 
#    z -0.110610 0.060680 1.887510 
# 
# From -- ./inp_files/155904.got.cif
#   From: 2010.05.17/outbox.ucp.g08.bks.cvg/sg2_78_cif.got.tgz:155904.got - 2010.06.11 11:32:03.
