data_PCOD9072004
_publ_section_title
;
Structure prediction by ZEFSAII (Michael W. Deem and Ramdas Pophale) SiO2 
 PCOD9072004
Probable space group: P -1
;
_chemical_formula_sum "Si O2"
_cell_formula_units_Z 16
_cell_length_a 14.738629
_cell_length_b 7.427688
_cell_length_c 12.820659
_cell_angle_alpha 62.371501
_cell_angle_beta 139.867092
_cell_angle_gamma 138.434888
_cell_volume 580.650172
_symmetry_space_group_name_H-M "P -1"
_symmetry_group_IT_number 2
_symmetry_cell_setting 'triclinic'
loop_
_space_group_symop_operation_xyz
x,y,z
-x,-y,-z
loop_
_atom_site_type_symbol
_atom_site_label
_atom_site_fract_x
_atom_site_fract_y
_atom_site_fract_z
Si Si1 0.940916 0.703158 0.015300
Si Si2 0.766450 0.026590 0.976799
Si Si3 0.567351 0.676689 0.241704
Si Si4 0.129223 0.303291 0.617498
Si Si5 0.487756 0.875311 0.288395
Si Si6 0.769063 0.537839 0.118415
Si Si7 0.058019 0.294680 0.336907
Si Si8 0.519523 0.344623 0.469771
O O1 0.920994 0.625177 0.140126
O O2 0.731252 0.443314 0.845315
O O3 0.110764 0.791297 0.066706
O O4 0.000000 0.000000 0.000000
O O5 0.891909 0.211781 0.138558
O O6 0.760075 0.777640 0.047238
O O7 0.564247 0.942583 0.823154
O O8 0.706489 0.687729 0.286302
O O9 0.626551 0.893324 0.326699
O O10 0.461026 0.393465 0.296171
O O11 0.442156 0.701848 0.051865
O O12 0.189476 0.485796 0.722728
O O13 0.061948 0.362653 0.442471
O O14 0.973512 0.981862 0.605837
O O15 0.561801 0.919426 0.460385
O O16 0.263494 0.512778 0.402858
O O17 0.500000 0.500000 0.500000
#
# Coordination Sequence:
#
# PCOD9072004 Si02
#       8
#     2   2   2   2   2   2   2   2
#     4   9  17  28  46  72 101 125 158 201 243 294
#     4  10  18  30  50  79 102 129 159 206 257 296
#     4   9  18  32  50  73  97 131 171 205 242 289
#     4   9  17  31  51  72  96 132 173 207 234 284
#     4  10  18  30  50  77 103 128 163 202 256 297
#     4   9  18  31  48  73 101 131 169 201 244 294
#     4   9  17  29  48  76  98 122 169 210 242 284
#     4   9  17  29  48  74 100 126 160 205 246 293
#
# _framework density 27.555318
#
# number of rings (size 3 to 8) (size 9 to 14) (size 15 to 20)
#    0.000    2.750    1.250    0.750    0.000    0.000 
#    0.000    3.125    0.000    3.000    3.250    0.000 
#    0.000    0.000    0.000    0.000    0.000    0.000 
#
# Total GULP energy -89305.769350 kJ/mol
# GULP energy per Si atom -5581.610584 kJ/mol
# Density = 2.749260 g / cm^3
# Si number density = 27.555318 Si / 1000 Ang^3
#
#
#
# Elastic Constant Matrix: (Units=GPa)
#
#
# Indices 1 2 3 4 5 6 
#
# 1 151.0743 32.1598 57.5397 -10.6030 -28.8738 -0.4034
# 2 32.1598 78.8409 -1.2895 -0.4940 -0.7387 -18.5694
# 3 57.5397 -1.2895 149.7545 -24.5760 -36.9484 3.2804
# 4 -10.6030 -0.4940 -24.5760 16.6902 -2.2293 7.4754
# 5 -28.8738 -0.7387 -36.9484 -2.2293 51.8783 -8.2543
# 6 -0.4034 -18.5694 3.2804 7.4754 -8.2543 24.7098
#
#
#
# Elastic Compliance Matrix: (Units=1/GPa)
#
#
# Indices 1 2 3 4 5 6 
#
# 1 0.009304 -0.004559 -0.001863 0.005012 0.003463 -0.003387
# 2 -0.004559 0.018438 -0.000157 -0.010135 -0.000146 0.016820
# 3 -0.001863 -0.000157 0.013178 0.021899 0.008377 -0.005725
# 4 0.005012 -0.010135 0.021899 0.115039 0.016884 -0.039604
# 5 0.003463 -0.000146 0.008377 0.016884 0.028404 0.003215
# 6 -0.003387 0.016820 -0.005725 -0.039604 0.003215 0.066870
#
#
# Mechanical properties :
#
#
# Convention : Reuss Voigt Hill
#
# Bulk Modulus (GPa) = 36.02256 61.83217 48.92736
# Shear Modulus (GPa) = 18.27184 38.07298 28.17241
#
# Velocity S-wave (km/s) = 2.57786 3.72115 3.20096
# Velocity P-wave (km/s) = 4.68633 6.39926 5.60858
#
# Compressibility (1/GPa) = 0.02776038
#
# Stress axis : x y z
#
# Youngs Moduli (GPa) = 107.48083 54.23676 75.88403
#
# Poissons Ratio (x) = 0.24729 0.14137
# Poissons Ratio (y) = 0.49005 0.01193
# Poissons Ratio (z) = 0.20024 0.00853
#
# Static dielectric constant tensor:
#      x y z
#    x 2.052640 -0.008070 -0.004590 
#    y -0.008070 2.331900 0.090350 
#    z -0.004590 0.090350 2.234230 
# 
# From -- ./inp_files/254074.got.cif
#   From: 2010.05.17/outbox.cif.g08.bks.cpg/sg2_128_cif.got.tgz:254074.got - 2010.06.03 11:33:40.
