data_PCOD9072399
_publ_section_title
;
Structure prediction by ZEFSAII (Michael W. Deem and Ramdas Pophale) SiO2 
 PCOD9072399
Probable space group: P -1
;
_chemical_formula_sum "Si O2"
_cell_formula_units_Z 14
_cell_length_a 12.164934
_cell_length_b 10.872001
_cell_length_c 10.085325
_cell_angle_alpha 133.157032
_cell_angle_beta 129.456251
_cell_angle_gamma 36.087255
_cell_volume 562.402602
_symmetry_space_group_name_H-M "P -1"
_symmetry_group_IT_number 2
_symmetry_cell_setting 'triclinic'
loop_
_space_group_symop_operation_xyz
x,y,z
-x,-y,-z
loop_
_atom_site_type_symbol
_atom_site_label
_atom_site_fract_x
_atom_site_fract_y
_atom_site_fract_z
Si Si1 0.509042 0.374472 0.264898
Si Si2 0.692349 0.834534 0.614090
Si Si3 0.241065 0.841106 0.112897
Si Si4 0.679085 0.479797 0.282635
Si Si5 0.526368 0.924905 0.118209
Si Si6 0.186544 0.058874 0.670234
Si Si7 0.097156 0.825293 0.261517
O O1 0.633031 0.433780 0.355475
O O2 0.619958 0.194915 0.334503
O O3 0.292686 0.587388 0.285187
O O4 0.497757 0.255990 0.042719
O O5 0.773628 0.588773 0.452571
O O6 0.500000 0.000000 0.500000
O O7 0.804520 0.923151 0.754203
O O8 0.618640 0.887179 0.748516
O O9 0.465313 0.668490 0.197903
O O10 0.130915 0.830483 0.137530
O O11 0.222973 0.737327 0.893923
O O12 0.738689 0.822859 0.239331
O O13 0.500000 0.000000 0.000000
O O14 0.078340 0.026644 0.460093
O O15 0.072735 0.150060 0.788546
#
# Coordination Sequence:
#
# PCOD9072399 Si02
#       7
#     2   2   2   2   2   2   2
#     4  10  19  35  59  81 115 152 194 238 292 352
#     4  10  18  30  56  85 113 151 197 245 288 348
#     4   9  17  32  52  84 110 145 193 241 288 340
#     4   9  17  30  55  83 110 144 197 234 287 348
#     4  10  20  34  55  85 120 151 193 244 295 348
#     4  10  21  37  55  84 117 154 192 239 296 347
#     4  10  21  36  57  84 115 150 199 239 287 356
#
# _framework density 24.893198999999999
#
# number of rings (size 3 to 8) (size 9 to 14) (size 15 to 20)
#    0.000    2.286    1.429    3.000    2.000    1.714 
#    0.000    0.714    0.000    0.857    0.000    0.000 
#    0.000    1.143    0.000    0.000    0.000    0.000 
#
# Total GULP energy -78182.077802 kJ/mol
# GULP energy per Si atom -5584.434129 kJ/mol
# Density = 2.483654 g / cm^3
# Si number density = 24.893199 Si / 1000 Ang^3
#
#
#
# Elastic Constant Matrix: (Units=GPa)
#
#
# Indices 1 2 3 4 5 6 
#
# 1 108.9574 15.7245 29.8027 9.8111 -7.0695 -5.1932
# 2 15.7245 68.1576 14.2899 3.6295 5.8653 -13.5860
# 3 29.8027 14.2899 140.7850 26.5489 5.6602 1.1512
# 4 9.8111 3.6295 26.5489 22.7290 5.8480 3.8210
# 5 -7.0695 5.8653 5.6602 5.8480 41.1342 1.8504
# 6 -5.1932 -13.5860 1.1512 3.8210 1.8504 26.8257
#
#
#
# Elastic Compliance Matrix: (Units=1/GPa)
#
#
# Indices 1 2 3 4 5 6 
#
# 1 0.010400 -0.001849 -0.001497 -0.003375 0.002672 0.001437
# 2 -0.001849 0.017423 -0.001047 -0.001530 -0.002842 0.008925
# 3 -0.001497 -0.001047 0.009463 -0.010291 0.000042 0.000237
# 4 -0.003375 -0.001530 -0.010291 0.061122 -0.007222 -0.009195
# 5 0.002672 -0.002842 0.000042 -0.007222 0.026273 -0.001708
# 6 0.001437 0.008925 0.000237 -0.009195 -0.001708 0.043493
#
#
# Mechanical properties :
#
#
# Convention : Reuss Voigt Hill
#
# Bulk Modulus (GPa) = 35.08768 48.61492 41.85130
# Shear Modulus (GPa) = 26.81529 35.34329 31.07929
#
# Velocity S-wave (km/s) = 3.28565 3.77211 3.53725
# Velocity P-wave (km/s) = 5.34040 6.20834 5.79066
#
# Compressibility (1/GPa) = 0.02850003
#
# Stress axis : x y z
#
# Youngs Moduli (GPa) = 96.15456 57.39487 105.67308
#
# Poissons Ratio (x) = 0.10614 0.15815
# Poissons Ratio (y) = 0.17782 0.11066
# Poissons Ratio (z) = 0.14391 0.06010
#
# Static dielectric constant tensor:
#      x y z
#    x 1.975000 0.023110 0.060840 
#    y 0.023110 2.009530 0.009320 
#    z 0.060840 0.009320 2.101120 
# 
# From -- ./inp_files/172330.got.cif
#   From: 2010.05.17/outbox.cif.g08.bks.cpg/sg2_87_cif.got.tgz:172330.got - 2010.06.03 11:33:40.
