data_PCOD9072301
_publ_section_title
;
Structure prediction by ZEFSAII (Michael W. Deem and Ramdas Pophale) SiO2 
 PCOD9072301
Probable space group: P -1
;
_chemical_formula_sum "Si O2"
_cell_formula_units_Z 14
_cell_length_a 12.000000
_cell_length_b 12.000000
_cell_length_c 18.000000
_cell_angle_alpha 30.000000
_cell_angle_beta 40.000000
_cell_angle_gamma 60.000000
_cell_volume 717.332707
_symmetry_space_group_name_H-M "P -1"
_symmetry_group_IT_number 2
_symmetry_cell_setting 'triclinic'
loop_
_space_group_symop_operation_xyz
x,y,z
-x,-y,-z
loop_
_atom_site_type_symbol
_atom_site_label
_atom_site_fract_x
_atom_site_fract_y
_atom_site_fract_z
Si Si1 0.825396 0.208719 0.676705
Si Si2 0.702002 0.818012 0.834695
Si Si3 0.141470 0.930181 0.091475
Si Si4 0.753440 0.417314 0.838297
Si Si5 0.996980 0.314593 0.296369
Si Si6 0.686878 0.474738 0.351415
Si Si7 0.703488 0.575708 0.459095
O O1 0.851258 0.169650 0.772260
O O2 0.700389 0.356294 0.641156
O O3 0.054832 0.381728 0.426831
O O4 0.715481 0.955712 0.826629
O O5 0.851142 0.703852 0.827553
O O6 0.469428 0.627785 0.037575
O O7 0.826886 0.044869 0.578190
O O8 0.268449 0.855343 0.015167
O O9 0.922752 0.810019 0.234182
O O10 0.235918 0.230507 0.876297
O O11 0.849783 0.509584 0.817382
O O12 0.855691 0.410623 0.278105
O O13 0.688677 0.466712 0.445659
O O14 0.465743 0.341890 0.503837
#
# Coordination Sequence:
#
# PCOD9072301 Si02
#       7
#     2   2   2   2   2   2   2
#     4  10  21  39  54  84 112 143 187 219 264 334
#     4  10  20  36  58  77 107 150 184 226 264 314
#     4  11  22  34  58  83 116 143 173 228 278 324
#     4  10  19  34  58  81 107 142 185 225 271 319
#     4  10  21  36  53  83 112 138 188 228 264 321
#     4  11  21  34  55  84 114 141 177 226 281 321
#     4  10  20  35  55  82 114 141 180 224 273 327
#
# _framework density 19.516746000000001
#
# number of rings (size 3 to 8) (size 9 to 14) (size 15 to 20)
#    0.000    1.714    4.286    3.429    2.000    3.429 
#    0.000    0.714    0.000    1.714    0.000    0.000 
#    0.000    0.000    0.000    0.000    0.000    0.000 
#
# Total GULP energy -78023.495199 kJ/mol
# GULP energy per Si atom -5573.106800 kJ/mol
# Density = 1.947232 g / cm^3
# Si number density = 19.516746 Si / 1000 Ang^3
#
#
#
# Elastic Constant Matrix: (Units=GPa)
#
#
# Indices 1 2 3 4 5 6 
#
# 1 122.9985 10.7390 32.4936 16.7034 -18.3236 -20.8928
# 2 10.7390 43.9266 3.3560 15.4570 -0.3726 -21.6731
# 3 32.4936 3.3560 39.8769 3.1763 -6.4653 -7.9601
# 4 16.7034 15.4570 3.1763 9.2780 -15.1123 -11.0428
# 5 -18.3236 -0.3726 -6.4653 -15.1123 33.0172 4.9482
# 6 -20.8928 -21.6731 -7.9601 -11.0428 4.9482 39.3234
#
#
#
# Elastic Compliance Matrix: (Units=1/GPa)
#
#
# Indices 1 2 3 4 5 6 
#
# 1 0.010585 -0.005761 -0.006738 0.016890 0.011565 0.004373
# 2 -0.005761 -0.000093 0.007532 0.097399 0.039746 0.020763
# 3 -0.006738 0.007532 0.030756 -0.020992 -0.007517 0.001848
# 4 0.016890 0.097399 -0.020992 -0.300704 -0.129819 -0.009703
# 5 0.011565 0.039746 -0.007517 -0.129819 -0.022677 -0.007073
# 6 0.004373 0.020763 0.001848 -0.009703 -0.007073 0.037736
#
#
# Mechanical properties :
#
#
# Convention : Reuss Voigt Hill
#
# Bulk Modulus (GPa) = 31.93327 33.33102 32.63214
# Shear Modulus (GPa) = -22.31878 27.00462 2.34292
#
# Velocity S-wave (km/s) = -3.38534 3.72380 1.09685
# Velocity P-wave (km/s) = 1.05678 5.96692 4.28491
#
# Compressibility (1/GPa) = 0.03131531
#
# Stress axis : x y z
#
# Youngs Moduli (GPa) = 94.47154 -10699.75950 32.51411
#
# Poissons Ratio (x) = -61.63863 0.21908
# Poissons Ratio (y) = 0.54423 -0.24491
# Poissons Ratio (z) = 0.63654 80.59532
#
# Static dielectric constant tensor:
#      x y z
#    x 1.655080 -0.035380 0.009450 
#    y -0.035380 1.755900 -0.022800 
#    z 0.009450 -0.022800 1.758570 
# 
# From -- ./inp_files/272496.got.cif
#   From: 2010.05.17/outbox.ucp.g08.bks.cvg/sg2_137_cif.got.tgz:272496.got - 2010.06.11 11:32:03.
