data_PCOD9072181
_publ_section_title
;
Structure prediction by ZEFSAII (Michael W. Deem and Ramdas Pophale) SiO2 
 PCOD9072181
Probable space group: P -1
;
_chemical_formula_sum "Si O2"
_cell_formula_units_Z 14
_cell_length_a 18.238992
_cell_length_b 15.370787
_cell_length_c 12.530677
_cell_angle_alpha 140.424215
_cell_angle_beta 37.753483
_cell_angle_gamma 161.328923
_cell_volume 684.314852
_symmetry_space_group_name_H-M "P -1"
_symmetry_group_IT_number 2
_symmetry_cell_setting 'triclinic'
loop_
_space_group_symop_operation_xyz
x,y,z
-x,-y,-z
loop_
_atom_site_type_symbol
_atom_site_label
_atom_site_fract_x
_atom_site_fract_y
_atom_site_fract_z
Si Si1 0.058752 0.264741 0.421806
Si Si2 0.869959 0.684409 0.845419
Si Si3 0.315525 0.321576 0.639612
Si Si4 0.715829 0.239657 0.569845
Si Si5 0.748391 0.256605 0.302458
Si Si6 0.934905 0.152628 0.985390
Si Si7 0.473644 0.474694 0.175334
O O1 0.978773 0.174365 0.304132
O O2 0.092837 0.451080 0.601953
O O3 0.325085 0.461090 0.300586
O O4 0.878899 0.993080 0.438310
O O5 0.692921 0.380153 0.744988
O O6 0.999722 0.790697 0.909760
O O7 0.713275 0.667800 0.018457
O O8 0.500000 0.500000 0.500000
O O9 0.161663 0.308809 0.812652
O O10 0.455231 0.446397 0.708478
O O11 0.698363 0.170973 0.403334
O O12 0.000000 0.500000 0.500000
O O13 0.534279 0.996409 0.636454
O O14 0.872640 0.243792 0.104459
O O15 0.713343 0.833572 0.917412
#
# Coordination Sequence:
#
# PCOD9072181 Si02
#       7
#     2   2   2   2   2   2   2
#     4  10  23  35  58  89 123 156 192 241 286 351
#     4  10  19  33  55  89 123 157 190 222 287 355
#     4  10  24  45  62  80 107 155 209 255 300 337
#     4  10  18  30  52  80 127 164 181 219 271 354
#     4  10  20  34  53  90 120 159 196 223 286 345
#     4  10  20  36  62  87 120 158 193 234 286 358
#     4  10  21  38  58  84 114 155 190 246 294 353
#
# _framework density 20.458418000000002
#
# number of rings (size 3 to 8) (size 9 to 14) (size 15 to 20)
#    0.000    2.000    2.857    0.429    0.000   10.857 
#    0.000    0.714    0.000    1.714    0.000    0.000 
#    0.000    0.000    0.000    0.000    0.000    0.000 
#
# Total GULP energy -78017.375464 kJ/mol
# GULP energy per Si atom -5572.669676 kJ/mol
# Density = 2.041185 g / cm^3
# Si number density = 20.458418 Si / 1000 Ang^3
#
#
#
# Elastic Constant Matrix: (Units=GPa)
#
#
# Indices 1 2 3 4 5 6 
#
# 1 31.9639 23.8098 35.0631 -5.3992 -14.8626 0.7030
# 2 23.8098 88.5742 47.6474 1.0957 -6.8597 -13.4533
# 3 35.0631 47.6474 99.4364 2.3106 -27.3545 -12.8476
# 4 -5.3992 1.0957 2.3106 41.6587 -3.0252 -0.9212
# 5 -14.8626 -6.8597 -27.3545 -3.0252 32.6150 -0.3808
# 6 0.7030 -13.4533 -12.8476 -0.9212 -0.3808 24.5420
#
#
#
# Elastic Compliance Matrix: (Units=1/GPa)
#
#
# Indices 1 2 3 4 5 6 
#
# 1 0.066085 -0.010179 -0.016591 0.010488 0.014850 -0.015534
# 2 -0.010179 0.017596 -0.005441 -0.001732 -0.005581 0.006937
# 3 -0.016591 -0.005441 0.022561 -0.002317 0.010112 0.009373
# 4 0.010488 -0.001732 -0.002317 0.025859 0.004854 -0.001417
# 5 0.014850 -0.005581 0.010112 0.004854 0.045217 0.002693
# 6 -0.015534 0.006937 0.009373 -0.001417 0.002693 0.049890
#
#
# Mechanical properties :
#
#
# Convention : Reuss Voigt Hill
#
# Bulk Modulus (GPa) = 23.91157 48.11279 36.01218
# Shear Modulus (GPa) = 16.36293 27.32674 21.84483
#
# Velocity S-wave (km/s) = 2.83117 3.65872 3.27122
# Velocity P-wave (km/s) = 4.73293 6.43558 5.64877
#
# Compressibility (1/GPa) = 0.04182076
#
# Stress axis : x y z
#
# Youngs Moduli (GPa) = 15.13194 56.83142 44.32492
#
# Poissons Ratio (x) = 0.57846 0.73540
# Poissons Ratio (y) = 0.15402 0.24117
# Poissons Ratio (z) = 0.25105 0.30922
#
# Static dielectric constant tensor:
#      x y z
#    x 2.348160 0.996920 -0.015950 
#    y 0.996920 3.422630 0.086630 
#    z -0.015950 0.086630 1.746580 
# 
# From -- ./inp_files/70850.got.cif
#   From: 2010.05.17/outbox.cif.g08.bks.cpg/sg2_36_cif.got.tgz:70850.got - 2010.06.03 11:33:40.
