data_PCOD9072506
_publ_section_title
;
Structure prediction by ZEFSAII (Michael W. Deem and Ramdas Pophale) SiO2 
 PCOD9072506
Probable space group: P -1
;
_chemical_formula_sum "Si O2"
_cell_formula_units_Z 12
_cell_length_a 9.000000
_cell_length_b 9.000000
_cell_length_c 12.000000
_cell_angle_alpha 60.000000
_cell_angle_beta 130.000000
_cell_angle_gamma 90.000000
_cell_volume 564.115245
_symmetry_space_group_name_H-M "P -1"
_symmetry_group_IT_number 2
_symmetry_cell_setting 'triclinic'
loop_
_space_group_symop_operation_xyz
x,y,z
-x,-y,-z
loop_
_atom_site_type_symbol
_atom_site_label
_atom_site_fract_x
_atom_site_fract_y
_atom_site_fract_z
Si Si1 0.752048 0.545295 0.001809
Si Si2 0.474707 0.722182 0.027854
Si Si3 0.213381 0.187430 0.700506
Si Si4 0.699030 0.966827 0.792140
Si Si5 0.209782 0.357002 0.406046
Si Si6 0.947578 0.207391 0.774628
O O1 0.637108 0.613798 0.042723
O O2 0.016880 0.408739 0.201396
O O3 0.650012 0.407282 0.957011
O O4 0.706669 0.756437 0.844514
O O5 0.610475 0.751612 0.184271
O O6 0.321390 0.950066 0.829000
O O7 0.127170 0.305979 0.500616
O O8 0.022295 0.240389 0.678207
O O9 0.449785 0.155719 0.588859
O O10 0.842503 0.061695 0.770770
O O11 0.827887 0.904275 0.998684
O O12 0.205301 0.569433 0.334997
#
# Coordination Sequence:
#
# PCOD9072506 Si02
#       6
#     2   2   2   2   2   2
#     4  10  21  38  58  86 112 153 188 234 277 339
#     4  10  20  37  59  84 117 148 189 231 288 330
#     4  11  19  37  59  90 112 144 189 242 281 326
#     4  10  19  38  56  82 117 152 189 227 279 344
#     4  11  20  35  61  89 111 146 196 231 281 332
#     4  10  21  34  57  85 118 148 185 235 283 334
#
# _framework density 21.272248999999999
#
# number of rings (size 3 to 8) (size 9 to 14) (size 15 to 20)
#    0.000    1.667    5.000    2.000    0.000    0.667 
#    0.000    0.833    0.000    2.000    0.000    0.000 
#    0.000    0.000    0.000    0.000    0.000    0.000 
#
# Total GULP energy -66902.507797 kJ/mol
# GULP energy per Si atom -5575.208983 kJ/mol
# Density = 2.122383 g / cm^3
# Si number density = 21.272249 Si / 1000 Ang^3
#
#
#
# Elastic Constant Matrix: (Units=GPa)
#
#
# Indices 1 2 3 4 5 6 
#
# 1 79.2764 40.3731 26.4172 -1.5560 5.5064 35.5003
# 2 40.3731 147.7452 38.5927 -26.3344 8.0640 48.7536
# 3 26.4172 38.5927 109.7295 -38.9283 16.9612 8.6534
# 4 -1.5560 -26.3344 -38.9283 35.8100 2.3206 -3.3901
# 5 5.5064 8.0640 16.9612 2.3206 33.2201 -8.4045
# 6 35.5003 48.7536 8.6534 -3.3901 -8.4045 50.5229
#
#
#
# Elastic Compliance Matrix: (Units=1/GPa)
#
#
# Indices 1 2 3 4 5 6 
#
# 1 0.021469 -0.000544 -0.005612 -0.006711 -0.003807 -0.014683
# 2 -0.000544 0.013223 0.001534 0.010631 -0.007999 -0.013257
# 3 -0.005612 0.001534 0.020152 0.023421 -0.011713 -0.001366
# 4 -0.006711 0.010631 0.023421 0.061374 -0.019928 -0.008752
# 5 -0.003807 -0.007999 -0.011713 -0.019928 0.044729 0.018504
# 6 -0.014683 -0.013257 -0.001366 -0.008752 0.018504 0.045628
#
#
# Mechanical properties :
#
#
# Convention : Reuss Voigt Hill
#
# Bulk Modulus (GPa) = 21.92985 60.83524 41.38254
# Shear Modulus (GPa) = 21.64337 39.33514 30.48925
#
# Velocity S-wave (km/s) = 3.19320 4.30482 3.78999
# Velocity P-wave (km/s) = 4.89151 7.30541 6.21675
#
# Compressibility (1/GPa) = 0.04559994
#
# Stress axis : x y z
#
# Youngs Moduli (GPa) = 46.57914 75.62785 49.62349
#
# Poissons Ratio (x) = 0.04115 0.27847
# Poissons Ratio (y) = 0.02534 -0.07612
# Poissons Ratio (z) = 0.26138 -0.11602
#
# Static dielectric constant tensor:
#      x y z
#    x 1.833150 -0.026990 0.032790 
#    y -0.026990 1.803770 -0.001860 
#    z 0.032790 -0.001860 1.763130 
# 
# From -- ./inp_files/149908.got.cif
#   From: 2010.05.17/outbox.ucp.g08.bks.cvg/sg2_75_cif.got.tgz:149908.got - 2010.06.11 11:32:03.
