data_PCOD9072629
_publ_section_title
;
Structure prediction by ZEFSAII (Michael W. Deem and Ramdas Pophale) SiO2 
 PCOD9072629
Probable space group: P -1
;
_chemical_formula_sum "Si O2"
_cell_formula_units_Z 14
_cell_length_a 10.822996
_cell_length_b 10.175493
_cell_length_c 6.536017
_cell_angle_alpha 55.406078
_cell_angle_beta 101.135093
_cell_angle_gamma 74.518886
_cell_volume 514.335037
_symmetry_space_group_name_H-M "P -1"
_symmetry_group_IT_number 2
_symmetry_cell_setting 'triclinic'
loop_
_space_group_symop_operation_xyz
x,y,z
-x,-y,-z
loop_
_atom_site_type_symbol
_atom_site_label
_atom_site_fract_x
_atom_site_fract_y
_atom_site_fract_z
Si Si1 0.736729 0.128558 0.095181
Si Si2 0.115653 0.412552 0.865374
Si Si3 0.034944 0.210293 0.739302
Si Si4 0.507649 0.203080 0.545255
Si Si5 0.436794 0.195190 0.049512
Si Si6 0.754085 0.461939 0.885966
Si Si7 0.230014 0.793372 0.533961
O O1 0.564606 0.215577 0.960220
O O2 0.782167 0.075048 0.397722
O O3 0.790193 0.277930 0.940938
O O4 0.818553 0.949385 0.151437
O O5 0.013003 0.606185 0.566757
O O6 0.055089 0.272838 0.917168
O O7 0.267570 0.323382 0.868637
O O8 0.149065 0.452460 0.071171
O O9 0.914789 0.155951 0.675290
O O10 0.468735 0.207675 0.287577
O O11 0.370872 0.380466 0.418204
O O12 0.649366 0.223339 0.566676
O O13 0.530852 0.010432 0.794047
O O14 0.717721 0.392358 0.154042
#
# Coordination Sequence:
#
# PCOD9072629 Si02
#       7
#     2   2   2   2   2   2   2
#     4   9  18  29  51  76  98 115 161 208 242 265
#     4   9  19  30  48  71  99 128 163 189 238 288
#     4  10  18  31  48  73 100 129 153 200 238 287
#     4   9  15  29  51  74  95 124 161 201 239 274
#     4   9  18  30  49  72 100 124 159 200 239 285
#     4   8  16  28  51  77  90 117 165 207 227 273
#     4   8  16  26  50  74  95 119 162 197 232 280
#
# _framework density 27.219609999999999
#
# number of rings (size 3 to 8) (size 9 to 14) (size 15 to 20)
#    0.857    2.286    0.000    0.857    4.000    0.571 
#    0.000    0.714    3.143    6.857    0.000    0.000 
#    0.000    0.000    0.000    0.000    0.000    0.000 
#
# Total GULP energy -78219.012644 kJ/mol
# GULP energy per Si atom -5587.072332 kJ/mol
# Density = 2.715766 g / cm^3
# Si number density = 27.219610 Si / 1000 Ang^3
#
#
#
# Elastic Constant Matrix: (Units=GPa)
#
#
# Indices 1 2 3 4 5 6 
#
# 1 144.7991 31.7506 37.6926 2.4357 27.4159 15.4407
# 2 31.7506 143.4643 55.8990 -9.7066 13.0789 27.9020
# 3 37.6926 55.8990 129.0191 -14.2503 30.8107 1.1460
# 4 2.4357 -9.7066 -14.2503 47.1412 5.7023 6.9998
# 5 27.4159 13.0789 30.8107 5.7023 36.3427 18.0726
# 6 15.4407 27.9020 1.1460 6.9998 18.0726 36.9906
#
#
#
# Elastic Compliance Matrix: (Units=1/GPa)
#
#
# Indices 1 2 3 4 5 6 
#
# 1 0.008333 -0.001084 -0.000750 -0.000244 -0.005195 -0.000053
# 2 -0.001084 0.011320 -0.006164 0.001362 0.007676 -0.011903
# 3 -0.000750 -0.006164 0.014760 0.003438 -0.016096 0.011719
# 4 -0.000244 0.001362 0.003438 0.023631 -0.005537 -0.002799
# 5 -0.005195 0.007676 -0.016096 -0.005537 0.058411 -0.030613
# 6 -0.000053 -0.011903 0.011719 -0.002799 -0.030613 0.051157
#
#
# Mechanical properties :
#
#
# Convention : Reuss Voigt Hill
#
# Bulk Modulus (GPa) = 54.30623 74.21854 64.26239
# Shear Modulus (GPa) = 26.35086 43.55759 34.95422
#
# Velocity S-wave (km/s) = 3.11478 4.00463 3.58740
# Velocity P-wave (km/s) = 5.73849 6.97914 6.38900
#
# Compressibility (1/GPa) = 0.01841409
#
# Stress axis : x y z
#
# Youngs Moduli (GPa) = 120.01116 88.34282 67.74880
#
# Poissons Ratio (x) = 0.09580 0.05084
# Poissons Ratio (y) = 0.13014 0.41763
# Poissons Ratio (z) = 0.09007 0.54457
#
# Static dielectric constant tensor:
#      x y z
#    x 2.178340 -0.013220 0.039660 
#    y -0.013220 2.168510 0.090970 
#    z 0.039660 0.090970 2.099010 
# 
# From -- ./inp_files/257000.got.cif
#   From: 2010.05.17/outbox.cif.g08.bks.cpg/sg2_129_cif.got.tgz:257000.got - 2010.06.03 11:33:40.
