data_PCOD9072961
_publ_section_title
;
Structure prediction by ZEFSAII (Michael W. Deem and Ramdas Pophale) SiO2 
 PCOD9072961
Probable space group: P -1
;
_chemical_formula_sum "Si O2"
_cell_formula_units_Z 16
_cell_length_a 9.000000
_cell_length_b 12.000000
_cell_length_c 18.000000
_cell_angle_alpha 130.000000
_cell_angle_beta 40.000000
_cell_angle_gamma 100.000000
_cell_volume 729.599496
_symmetry_space_group_name_H-M "P -1"
_symmetry_group_IT_number 2
_symmetry_cell_setting 'triclinic'
loop_
_space_group_symop_operation_xyz
x,y,z
-x,-y,-z
loop_
_atom_site_type_symbol
_atom_site_label
_atom_site_fract_x
_atom_site_fract_y
_atom_site_fract_z
Si Si1 0.462361 0.237906 0.565000
Si Si2 0.806143 0.729444 0.975844
Si Si3 0.817664 0.330832 0.561711
Si Si4 0.794630 0.805091 0.232453
Si Si5 0.291754 0.441853 0.563629
Si Si6 0.479791 0.152906 0.236630
Si Si7 0.658169 0.196836 0.699439
Si Si8 0.269623 0.706695 0.889342
O O1 0.662881 0.275756 0.544287
O O2 0.171427 0.315057 0.761161
O O3 0.397761 0.300856 0.532169
O O4 0.660277 0.012942 0.395939
O O5 0.562765 0.722276 0.107811
O O6 0.642373 0.951228 0.126854
O O7 0.945076 0.620130 0.797007
O O8 0.116013 0.651817 0.867987
O O9 0.736261 0.308198 0.667019
O O10 0.620707 0.550134 0.709790
O O11 0.164611 0.210858 0.354886
O O12 0.543755 0.826471 0.286348
O O13 0.087519 0.731719 0.042770
O O14 0.500000 0.500000 0.500000
O O15 0.354183 0.323481 0.415807
O O16 0.723644 0.136510 0.083512
O O17 0.000000 0.000000 0.500000
#
# Coordination Sequence:
#
# PCOD9072961 Si02
#       8
#     2   2   2   2   2   2   2   2
#     4  10  21  42  62  96 127 164 222 267 321 389
#     4  11  23  41  69  96 126 181 217 265 326 394
#     4  11  23  41  66  91 134 174 205 278 334 376
#     4   9  22  38  69  89 124 175 220 267 321 390
#     4  12  24  40  68  99 131 169 226 270 318 393
#     4  12  25  44  65  98 139 170 216 275 334 380
#     4  10  20  39  64  97 131 170 216 270 340 380
#     4  11  22  41  66  94 125 175 224 261 324 395
#
# _framework density 21.929839999999999
#
# number of rings (size 3 to 8) (size 9 to 14) (size 15 to 20)
#    0.000    1.250    3.750    2.250    3.500    1.500 
#    2.250    1.250    0.000    0.000    0.000    0.000 
#    0.000    0.000    0.000    0.000    0.000    0.000 
#
# Total GULP energy -89143.346999 kJ/mol
# GULP energy per Si atom -5571.459187 kJ/mol
# Density = 2.187993 g / cm^3
# Si number density = 21.929840 Si / 1000 Ang^3
#
#
#
# Elastic Constant Matrix: (Units=GPa)
#
#
# Indices 1 2 3 4 5 6 
#
# 1 7.8799 10.8728 17.6069 -2.8117 -10.6692 -4.1700
# 2 10.8728 95.4082 1.6868 -24.4721 -11.4191 -3.8229
# 3 17.6069 1.6868 78.6533 -13.8048 -18.5575 0.3304
# 4 -2.8117 -24.4721 -13.8048 46.3609 4.9430 -1.5327
# 5 -10.6692 -11.4191 -18.5575 4.9430 31.7404 -0.8294
# 6 -4.1700 -3.8229 0.3304 -1.5327 -0.8294 24.2678
#
#
#
# Elastic Compliance Matrix: (Units=1/GPa)
#
#
# Indices 1 2 3 4 5 6 
#
# 1 1.137762 -0.108042 -0.209498 -0.069536 0.236755 0.185035
# 2 -0.108042 0.023189 0.021981 0.013619 -0.017635 -0.014954
# 3 -0.209498 0.021981 0.054254 0.017619 -0.034407 -0.033338
# 4 -0.069536 0.013619 0.017619 0.030914 -0.013211 -0.008542
# 5 0.236755 -0.017635 -0.034407 -0.013211 0.087744 0.040537
# 6 0.185035 -0.014954 -0.033338 -0.008542 0.040537 0.071946
#
#
# Mechanical properties :
#
#
# Convention : Reuss Voigt Hill
#
# Bulk Modulus (GPa) = 1.60234 26.91940 14.26087
# Shear Modulus (GPa) = 2.26762 30.59213 16.42988
#
# Velocity S-wave (km/s) = 1.01798 3.73902 2.74012
# Velocity P-wave (km/s) = 1.45395 5.56258 4.06548
#
# Compressibility (1/GPa) = 0.62408543
#
# Stress axis : x y z
#
# Youngs Moduli (GPa) = 0.87892 43.12452 18.43176
#
# Poissons Ratio (x) = 4.65927 3.86142
# Poissons Ratio (y) = 0.09496 -0.40514
# Poissons Ratio (z) = 0.18413 -0.94791
#
# Static dielectric constant tensor:
#      x y z
#    x 1.824710 -0.061650 0.034390 
#    y -0.061650 1.901870 0.016760 
#    z 0.034390 0.016760 1.925920 
# 
# From -- ./inp_files/347199.got.cif
#   From: 2010.05.17/outbox.ucp.g08.bks.cvg/sg2_174_cif.got.tgz:347199.got - 2010.06.11 11:32:03.
