data_PCOD9072604
_publ_section_title
;
Structure prediction by ZEFSAII (Michael W. Deem and Ramdas Pophale) SiO2 
 PCOD9072604
Probable space group: P -1
;
_chemical_formula_sum "Si O2"
_cell_formula_units_Z 14
_cell_length_a 11.762952
_cell_length_b 5.490782
_cell_length_c 11.363656
_cell_angle_alpha 117.820655
_cell_angle_beta 121.008159
_cell_angle_gamma 71.461749
_cell_volume 553.438941
_symmetry_space_group_name_H-M "P -1"
_symmetry_group_IT_number 2
_symmetry_cell_setting 'triclinic'
loop_
_space_group_symop_operation_xyz
x,y,z
-x,-y,-z
loop_
_atom_site_type_symbol
_atom_site_label
_atom_site_fract_x
_atom_site_fract_y
_atom_site_fract_z
Si Si1 0.137566 0.245743 0.220331
Si Si2 0.919196 0.269675 0.566037
Si Si3 0.697905 0.383428 0.283475
Si Si4 0.259068 0.119602 0.951816
Si Si5 0.426546 0.300755 0.501905
Si Si6 0.945984 0.247344 0.824359
Si Si7 0.349670 0.587430 0.981678
O O1 0.037137 0.435972 0.298700
O O2 0.284116 0.268524 0.355330
O O3 0.100706 0.422509 0.121947
O O4 0.102206 0.936919 0.139670
O O5 0.822073 0.356309 0.428363
O O6 0.865911 0.177085 0.645107
O O7 0.000000 0.000000 0.500000
O O8 0.590440 0.552830 0.345810
O O9 0.726674 0.504800 0.198013
O O10 0.671410 0.073748 0.160429
O O11 0.313301 0.413401 0.034008
O O12 0.100321 0.154511 0.855684
O O13 0.306700 0.917417 0.040080
O O14 0.500000 0.500000 0.500000
O O15 0.500000 0.000000 0.500000
O O16 0.500000 0.500000 0.000000
#
# Coordination Sequence:
#
# PCOD9072604 Si02
#       7
#     2   2   2   2   2   2   2
#     4   9  20  31  46  66 103 135 171 205 246 286
#     4   9  16  28  44  69 103 135 160 189 242 312
#     4   9  21  32  53  74 104 145 174 205 257 291
#     4  10  20  32  54  76 107 138 170 200 267 314
#     4  11  23  36  50  70 105 146 187 214 242 291
#     4  10  18  31  47  74 103 135 165 197 251 328
#     4  10  21  36  52  74 109 139 172 211 253 310
#
# _framework density 25.296379000000002
#
# number of rings (size 3 to 8) (size 9 to 14) (size 15 to 20)
#    1.714    0.571    1.429    2.143    2.000    1.714 
#    0.000    0.000    0.000    0.000    0.000    0.000 
#    0.000   22.857    0.000    0.000    0.000    0.000 
#
# Total GULP energy -78021.910758 kJ/mol
# GULP energy per Si atom -5572.993626 kJ/mol
# Density = 2.523880 g / cm^3
# Si number density = 25.296379 Si / 1000 Ang^3
#
#
#
# Elastic Constant Matrix: (Units=GPa)
#
#
# Indices 1 2 3 4 5 6 
#
# 1 112.9630 77.2078 16.8954 -11.6024 13.6261 6.8615
# 2 77.2078 237.1595 24.7374 -20.7578 11.7603 10.2305
# 3 16.8954 24.7374 73.5875 5.2219 -14.0148 -9.3288
# 4 -11.6024 -20.7578 5.2219 34.6243 -11.7745 3.4926
# 5 13.6261 11.7603 -14.0148 -11.7745 37.3027 -0.4937
# 6 6.8615 10.2305 -9.3288 3.4926 -0.4937 47.0132
#
#
#
# Elastic Compliance Matrix: (Units=1/GPa)
#
#
# Indices 1 2 3 4 5 6 
#
# 1 0.012270 -0.003305 -0.002805 0.001339 -0.004095 -0.001771
# 2 -0.003305 0.005761 -0.001603 0.002577 -0.000415 -0.001285
# 3 -0.002805 -0.001603 0.016860 -0.002453 0.007148 0.004361
# 4 0.001339 0.002577 -0.002453 0.034557 0.008635 -0.003719
# 5 -0.004095 -0.000415 0.007148 0.008635 0.033870 0.001820
# 6 -0.001771 -0.001285 0.004361 -0.003719 0.001820 0.022970
#
#
# Mechanical properties :
#
#
# Convention : Reuss Voigt Hill
#
# Bulk Modulus (GPa) = 51.37370 73.48792 62.43081
# Shear Modulus (GPa) = 33.73754 44.11265 38.92510
#
# Velocity S-wave (km/s) = 3.65593 4.18045 3.92696
# Velocity P-wave (km/s) = 6.17851 7.23985 6.73013
#
# Compressibility (1/GPa) = 0.01946521
#
# Stress axis : x y z
#
# Youngs Moduli (GPa) = 81.49823 173.57145 59.31053
#
# Poissons Ratio (x) = 0.57371 0.16639
# Poissons Ratio (y) = 0.26938 0.09505
# Poissons Ratio (z) = 0.22864 0.27817
#
# Static dielectric constant tensor:
#      x y z
#    x 2.087710 0.034690 0.021150 
#    y 0.034690 2.115230 -0.014120 
#    z 0.021150 -0.014120 2.067740 
# 
# From -- ./inp_files/411108.got.cif
#   From: 2010.05.17/outbox.cif.g08.bks.cpg/sg2_206_cif.got.tgz:411108.got - 2010.06.03 11:33:40.
