data_PCOD9072560
_publ_section_title
;
Structure prediction by ZEFSAII (Michael W. Deem and Ramdas Pophale) SiO2 
 PCOD9072560
Probable space group: P -1
;
_chemical_formula_sum "Si O2"
_cell_formula_units_Z 16
_cell_length_a 21.000000
_cell_length_b 9.000000
_cell_length_c 12.000000
_cell_angle_alpha 130.000000
_cell_angle_beta 150.000000
_cell_angle_gamma 40.000000
_cell_volume 727.418465
_symmetry_space_group_name_H-M "P -1"
_symmetry_group_IT_number 2
_symmetry_cell_setting 'triclinic'
loop_
_space_group_symop_operation_xyz
x,y,z
-x,-y,-z
loop_
_atom_site_type_symbol
_atom_site_label
_atom_site_fract_x
_atom_site_fract_y
_atom_site_fract_z
Si Si1 0.724358 0.439188 0.624288
Si Si2 0.079905 0.095758 0.591607
Si Si3 0.941850 0.011541 0.138869
Si Si4 0.785507 0.417629 0.953755
Si Si5 0.654084 0.747747 0.128803
Si Si6 0.096060 0.367130 0.364740
Si Si7 0.833303 0.719439 0.825929
Si Si8 0.573600 0.335283 0.139963
O O1 0.692360 0.473600 0.724809
O O2 0.720778 0.662772 0.683595
O O3 0.629671 0.402702 0.369390
O O4 0.897860 0.209229 0.768521
O O5 0.008876 0.352510 0.654233
O O6 0.264393 0.910075 0.768400
O O7 0.000000 0.000000 0.500000
O O8 0.998541 0.130072 0.364995
O O9 0.845718 0.915535 0.999682
O O10 0.817036 0.187315 0.947521
O O11 0.718087 0.617193 0.043679
O O12 0.961684 0.324281 0.150327
O O13 0.785715 0.731611 0.399468
O O14 0.578607 0.643287 0.037033
O O15 0.500000 0.000000 0.000000
O O16 0.176989 0.275785 0.322634
O O17 0.000000 0.500000 0.000000
O O18 0.500000 0.500000 0.000000
#
# Coordination Sequence:
#
# PCOD9072560 Si02
#       8
#     2   2   2   2   2   2   2   2
#     4  10  22  40  70 101 134 177 227 285 346 396
#     4  11  22  39  73 103 126 178 239 284 331 397
#     4  10  21  37  64 107 131 165 220 298 335 388
#     4  12  24  41  71 101 135 174 239 286 336 410
#     4  12  28  45  64  98 144 188 222 277 356 415
#     4  12  23  42  72 100 133 179 240 286 331 403
#     4  10  19  39  65 102 133 158 220 298 340 375
#     4  11  25  46  68  97 146 181 223 281 348 415
#
# _framework density 21.995591999999998
#
# number of rings (size 3 to 8) (size 9 to 14) (size 15 to 20)
#    0.000    1.000    3.750    5.250    3.500    0.500 
#    0.000    0.000    0.000    3.000    0.000    0.000 
#    0.000    0.000    0.000    0.000    0.000    0.000 
#
# Total GULP energy -89128.462465 kJ/mol
# GULP energy per Si atom -5570.528904 kJ/mol
# Density = 2.194553 g / cm^3
# Si number density = 21.995592 Si / 1000 Ang^3
#
#
#
# Elastic Constant Matrix: (Units=GPa)
#
#
# Indices 1 2 3 4 5 6 
#
# 1 86.1786 -0.7302 21.7897 -9.3841 -26.9640 1.3538
# 2 -0.7302 45.1015 19.1690 -10.6915 -11.9096 5.0249
# 3 21.7897 19.1690 105.4323 -10.8105 -28.9982 0.1900
# 4 -9.3841 -10.6915 -10.8105 24.5065 4.3388 2.2406
# 5 -26.9640 -11.9096 -28.9982 4.3388 46.5997 0.1326
# 6 1.3538 5.0249 0.1900 2.2406 0.1326 28.3318
#
#
#
# Elastic Compliance Matrix: (Units=1/GPa)
#
#
# Indices 1 2 3 4 5 6 
#
# 1 0.015383 0.004698 -0.000938 0.006132 0.008953 -0.002089
# 2 0.004698 0.029079 -0.003004 0.012480 0.007137 -0.006382
# 3 -0.000938 -0.003004 0.012142 0.002600 0.006002 0.000262
# 4 0.006132 0.012480 0.002600 0.049673 0.003749 -0.006470
# 5 0.008953 0.007137 0.006002 0.003749 0.031856 -0.002179
# 6 -0.002089 -0.006382 0.000262 -0.006470 -0.002179 0.037048
#
#
# Mechanical properties :
#
#
# Convention : Reuss Voigt Hill
#
# Bulk Modulus (GPa) = 17.20707 35.24105 26.22406
# Shear Modulus (GPa) = 25.90138 32.98654 29.44396
#
# Velocity S-wave (km/s) = 3.43530 3.87678 3.66270
# Velocity P-wave (km/s) = 4.85541 6.00799 5.46218
#
# Compressibility (1/GPa) = 0.05811563
#
# Stress axis : x y z
#
# Youngs Moduli (GPa) = 65.00863 34.38882 82.36057
#
# Poissons Ratio (x) = -0.16157 0.07729
# Poissons Ratio (y) = -0.30543 0.24739
# Poissons Ratio (z) = 0.06101 0.10330
#
# Static dielectric constant tensor:
#      x y z
#    x 1.715510 -0.094140 0.017980 
#    y -0.094140 1.718000 0.073400 
#    z 0.017980 0.073400 1.848560 
# 
# From -- ./inp_files/470161.got.cif
#   From: 2010.05.17/outbox.ucp.g08.bks.cvg/sg2_236_cif.got.tgz:470161.got - 2010.06.11 11:32:03.
