data_PCOD9072834
_publ_section_title
;
Structure prediction by ZEFSAII (Michael W. Deem and Ramdas Pophale) SiO2 
 PCOD9072834
Probable space group: P -1
;
_chemical_formula_sum "Si O2"
_cell_formula_units_Z 16
_cell_length_a 9.000000
_cell_length_b 15.000000
_cell_length_c 30.000000
_cell_angle_alpha 160.000000
_cell_angle_beta 40.000000
_cell_angle_gamma 130.000000
_cell_volume 833.890543
_symmetry_space_group_name_H-M "P -1"
_symmetry_group_IT_number 2
_symmetry_cell_setting 'triclinic'
loop_
_space_group_symop_operation_xyz
x,y,z
-x,-y,-z
loop_
_atom_site_type_symbol
_atom_site_label
_atom_site_fract_x
_atom_site_fract_y
_atom_site_fract_z
Si Si1 0.703655 0.979982 0.104911
Si Si2 0.775341 0.430605 0.233945
Si Si3 0.285314 0.959947 0.428727
Si Si4 0.193539 0.176588 0.806055
Si Si5 0.184965 0.093915 0.268974
Si Si6 0.949684 0.487197 0.584127
Si Si7 0.737058 0.213802 0.305416
Si Si8 0.572765 0.274876 0.620271
O O1 0.686701 0.242346 0.200060
O O2 0.465005 0.888696 0.111321
O O3 0.734678 0.073914 0.192388
O O4 0.939466 0.730902 0.916833
O O5 0.726526 0.733156 0.408406
O O6 0.645283 0.477708 0.237312
O O7 0.529598 0.860699 0.293256
O O8 0.364107 0.745475 0.351608
O O9 0.000000 0.000000 0.500000
O O10 0.233763 0.013474 0.768192
O O11 0.042064 0.016693 0.736854
O O12 0.000000 0.500000 0.000000
O O13 0.180830 0.287374 0.318133
O O14 0.155147 0.269819 0.403902
O O15 0.802600 0.309425 0.557143
O O16 0.043811 0.660947 0.679696
O O17 0.500000 0.500000 0.500000
O O18 0.500000 0.000000 0.500000
#
# Coordination Sequence:
#
# PCOD9072834 Si02
#       8
#     2   2   2   2   2   2   2   2
#     4  11  22  39  67  96 130 169 220 286 328 387
#     4  10  23  42  62  93 134 171 226 265 332 405
#     4  11  26  43  69  92 134 180 220 271 335 406
#     4  11  27  46  67 100 140 175 224 281 343 401
#     4  10  20  39  68  91 131 175 218 276 332 400
#     4  10  20  37  65  96 123 172 227 265 337 398
#     4  11  23  41  69 100 134 166 229 290 334 394
#     4  10  21  40  64  90 129 169 218 261 329 404
#
# _framework density 19.187169999999998
#
# number of rings (size 3 to 8) (size 9 to 14) (size 15 to 20)
#    0.000    1.500    2.500    2.250    8.750    0.000 
#    0.000    1.250    0.000    0.000    0.000    0.000 
#    0.000    0.000    0.000    0.000    0.000    0.000 
#
# Total GULP energy -89125.188080 kJ/mol
# GULP energy per Si atom -5570.324255 kJ/mol
# Density = 1.914350 g / cm^3
# Si number density = 19.187170 Si / 1000 Ang^3
#
#
#
# Elastic Constant Matrix: (Units=GPa)
#
#
# Indices 1 2 3 4 5 6 
#
# 1 69.5692 60.1684 20.8868 -10.4514 -24.2933 8.3706
# 2 60.1684 120.9407 22.2299 -3.1706 -9.3255 -4.6464
# 3 20.8868 22.2299 82.1150 0.4319 -14.9209 -1.1167
# 4 -10.4514 -3.1706 0.4319 27.4237 -0.5310 -15.8908
# 5 -24.2933 -9.3255 -14.9209 -0.5310 26.9763 0.4482
# 6 8.3706 -4.6464 -1.1167 -15.8908 0.4482 31.6159
#
#
#
# Elastic Compliance Matrix: (Units=1/GPa)
#
#
# Indices 1 2 3 4 5 6 
#
# 1 0.048968 -0.021675 -0.000084 0.010172 0.036951 -0.011564
# 2 -0.021675 0.018554 -0.002009 -0.001947 -0.014381 0.007620
# 3 -0.000084 -0.002009 0.014011 -0.000393 0.006973 -0.000075
# 4 0.010172 -0.001947 -0.000393 0.054304 0.008937 0.024174
# 5 0.036951 -0.014381 0.006973 0.008937 0.069542 -0.008144
# 6 -0.011564 0.007620 -0.000075 0.024174 -0.008144 0.048074
#
#
# Mechanical properties :
#
#
# Convention : Reuss Voigt Hill
#
# Bulk Modulus (GPa) = 29.41417 53.24391 41.32904
# Shear Modulus (GPa) = 16.00917 28.49250 22.25083
#
# Velocity S-wave (km/s) = 2.89168 3.85772 3.40909
# Velocity P-wave (km/s) = 5.14903 6.90309 6.08955
#
# Compressibility (1/GPa) = 0.03399722
#
# Stress axis : x y z
#
# Youngs Moduli (GPa) = 20.42155 53.89741 71.37028
#
# Poissons Ratio (x) = 1.16821 0.00602
# Poissons Ratio (y) = 0.44263 0.14338
# Poissons Ratio (z) = 0.00172 0.10828
#
# Static dielectric constant tensor:
#      x y z
#    x 1.718320 0.023220 -0.029550 
#    y 0.023220 1.668650 -0.021370 
#    z -0.029550 -0.021370 1.676180 
# 
# From -- ./inp_files/499172.got.cif
#   From: 2010.05.17/outbox.ucp.g08.bks.cvg/sg2_250_cif.got.tgz:499172.got - 2010.06.11 11:32:03.
