data_PCOD9072492
_publ_section_title
;
Structure prediction by ZEFSAII (Michael W. Deem and Ramdas Pophale) SiO2 
 PCOD9072492
Probable space group: P -1
;
_chemical_formula_sum "Si O2"
_cell_formula_units_Z 16
_cell_length_a 18.000000
_cell_length_b 9.000000
_cell_length_c 21.000000
_cell_angle_alpha 120.000000
_cell_angle_beta 160.000000
_cell_angle_gamma 50.000000
_cell_volume 818.070593
_symmetry_space_group_name_H-M "P -1"
_symmetry_group_IT_number 2
_symmetry_cell_setting 'triclinic'
loop_
_space_group_symop_operation_xyz
x,y,z
-x,-y,-z
loop_
_atom_site_type_symbol
_atom_site_label
_atom_site_fract_x
_atom_site_fract_y
_atom_site_fract_z
Si Si1 0.663460 0.179905 0.200708
Si Si2 0.839607 0.723596 0.255119
Si Si3 0.183825 0.790649 0.060143
Si Si4 0.750068 0.771913 0.634529
Si Si5 0.581666 0.658056 0.832420
Si Si6 0.271908 0.282209 0.544720
Si Si7 0.051365 0.666967 0.271150
Si Si8 0.848872 0.010703 0.541233
O O1 0.573805 0.318516 0.221885
O O2 0.737112 0.958144 0.242127
O O3 0.414651 0.269755 0.971282
O O4 0.903663 0.128276 0.338265
O O5 0.039094 0.532010 0.421059
O O6 0.984413 0.695249 0.298590
O O7 0.306888 0.575064 0.153244
O O8 0.427225 0.782201 0.222068
O O9 0.004851 0.763563 0.861122
O O10 0.000000 0.000000 0.000000
O O11 0.759455 0.745537 0.561216
O O12 0.738837 0.587962 0.618851
O O13 0.500000 0.000000 0.500000
O O14 0.394591 0.822850 0.664106
O O15 0.801966 0.698620 0.039080
O O16 0.216188 0.135770 0.507228
O O17 0.104189 0.845268 0.342833
#
# Coordination Sequence:
#
# PCOD9072492 Si02
#       8
#     2   2   2   2   2   2   2   2
#     4   9  17  35  60  86 109 160 201 229 277 342
#     4   8  16  34  59  82 114 151 198 234 273 344
#     4  11  22  39  66  85 109 152 205 245 284 342
#     4  10  19  37  66  83 104 146 202 243 278 340
#     4  10  20  37  61  84 113 155 206 235 273 347
#     4  11  23  38  55  93 123 149 186 240 301 342
#     4   8  18  35  57  82 109 150 193 235 279 336
#     4  11  22  35  58  86 129 155 179 238 299 345
#
# _framework density 19.558214
#
# number of rings (size 3 to 8) (size 9 to 14) (size 15 to 20)
#    0.000    2.250    1.250    4.125    0.000    1.500 
#    0.000    3.750    0.000    0.000    0.000    0.000 
#    0.000    0.000    0.000    0.000    0.000    0.000 
#
# Total GULP energy -89157.622127 kJ/mol
# GULP energy per Si atom -5572.351383 kJ/mol
# Density = 1.951370 g / cm^3
# Si number density = 19.558214 Si / 1000 Ang^3
#
#
#
# Elastic Constant Matrix: (Units=GPa)
#
#
# Indices 1 2 3 4 5 6 
#
# 1 30.9561 26.5483 25.6806 -1.3977 3.8257 15.2396
# 2 26.5483 117.1113 55.8602 -2.0862 16.3900 5.9469
# 3 25.6806 55.8602 96.8885 -3.1454 5.8661 23.0369
# 4 -1.3977 -2.0862 -3.1454 37.1153 -6.5899 5.5964
# 5 3.8257 16.3900 5.8661 -6.5899 9.8261 8.3915
# 6 15.2396 5.9469 23.0369 5.5964 8.3915 34.6409
#
#
#
# Elastic Compliance Matrix: (Units=1/GPa)
#
#
# Indices 1 2 3 4 5 6 
#
# 1 0.062989 -0.021300 0.002882 0.018257 0.058283 -0.043039
# 2 -0.021300 0.029230 -0.015897 -0.019220 -0.074715 0.036129
# 3 0.002882 -0.015897 0.022738 0.012597 0.042454 -0.025980
# 4 0.018257 -0.019220 0.012597 0.049277 0.086332 -0.041984
# 5 0.058283 -0.074715 0.042454 0.086332 0.357095 -0.141498
# 6 -0.043039 0.036129 -0.025980 -0.041984 -0.141498 0.099936
#
#
# Mechanical properties :
#
#
# Convention : Reuss Voigt Hill
#
# Bulk Modulus (GPa) = 21.58557 51.23712 36.41135
# Shear Modulus (GPa) = 7.08881 25.44092 16.26486
#
# Velocity S-wave (km/s) = 1.90587 3.61054 2.88690
# Velocity P-wave (km/s) = 3.98794 6.60572 5.45615
#
# Compressibility (1/GPa) = 0.04632724
#
# Stress axis : x y z
#
# Youngs Moduli (GPa) = 15.87568 34.21181 43.97883
#
# Poissons Ratio (x) = 0.72871 -0.12674
# Poissons Ratio (y) = 0.33815 0.69913
# Poissons Ratio (z) = -0.04575 0.54387
#
# Static dielectric constant tensor:
#      x y z
#    x 1.602190 0.032520 0.008490 
#    y 0.032520 1.675780 -0.018090 
#    z 0.008490 -0.018090 1.785270 
# 
# From -- ./inp_files/390056.got.cif
#   From: 2010.05.17/outbox.ucp.g08.bks.cvg/sg2_196_cif.got.tgz:390056.got - 2010.06.11 11:32:03.
