data_PCOD9072197
_publ_section_title
;
Structure prediction by ZEFSAII (Michael W. Deem and Ramdas Pophale) SiO2 
 PCOD9072197
Probable space group: P -1
;
_chemical_formula_sum "Si O2"
_cell_formula_units_Z 16
_cell_length_a 11.324160
_cell_length_b 11.119952
_cell_length_c 8.665965
_cell_angle_alpha 135.434569
_cell_angle_beta 126.802775
_cell_angle_gamma 65.527990
_cell_volume 612.991494
_symmetry_space_group_name_H-M "P -1"
_symmetry_group_IT_number 2
_symmetry_cell_setting 'triclinic'
loop_
_space_group_symop_operation_xyz
x,y,z
-x,-y,-z
loop_
_atom_site_type_symbol
_atom_site_label
_atom_site_fract_x
_atom_site_fract_y
_atom_site_fract_z
Si Si1 0.628727 0.287816 0.065105
Si Si2 0.370620 0.814704 0.353975
Si Si3 0.953345 0.559200 0.780196
Si Si4 0.898239 0.984988 0.756923
Si Si5 0.592080 0.893342 0.098061
Si Si6 0.788634 0.364398 0.710076
Si Si7 0.186137 0.953788 0.778634
Si Si8 0.172860 0.370612 0.549976
O O1 0.734036 0.142498 0.098954
O O2 0.718306 0.466025 0.254897
O O3 0.557535 0.232312 0.793538
O O4 0.492975 0.278765 0.071950
O O5 0.352857 0.653237 0.307113
O O6 0.207437 0.857802 0.202769
O O7 0.412932 0.977560 0.640307
O O8 0.811917 0.487625 0.696844
O O9 0.890985 0.683376 0.717099
O O10 0.043347 0.430667 0.620111
O O11 0.071767 0.607411 0.044602
O O12 0.792515 0.814282 0.522136
O O13 0.016753 0.975306 0.705153
O O14 0.000000 0.000000 0.000000
O O15 0.741101 0.880403 0.100912
O O16 0.500000 0.000000 0.000000
O O17 0.798623 0.182101 0.469831
#
# Coordination Sequence:
#
# PCOD9072197 Si02
#       8
#     2   2   2   2   2   2   2   2
#     4  11  19  39  61  88 112 158 213 246 279 344
#     4  11  22  36  60  92 119 156 197 241 305 360
#     4  10  18  31  53  82 118 152 198 244 292 342
#     4  12  23  37  58  93 130 160 183 237 317 376
#     4   9  22  38  63  87 114 155 206 260 284 329
#     4  10  18  30  52  84 117 148 188 249 288 343
#     4  10  19  37  58  89 122 154 194 246 301 352
#     4  11  20  35  58  84 117 162 195 246 296 348
#
# _framework density 26.101503000000001
#
# number of rings (size 3 to 8) (size 9 to 14) (size 15 to 20)
#    0.000    1.500    5.000    1.875    0.000    2.000 
#    0.000    0.625    0.000    0.750    0.000    0.000 
#    0.000    0.000    0.000    0.000    0.000    0.000 
#
# Total GULP energy -89172.642997 kJ/mol
# GULP energy per Si atom -5573.290187 kJ/mol
# Density = 2.604209 g / cm^3
# Si number density = 26.101503 Si / 1000 Ang^3
#
#
#
# Elastic Constant Matrix: (Units=GPa)
#
#
# Indices 1 2 3 4 5 6 
#
# 1 103.9112 70.6324 31.7648 13.0963 10.6651 60.7445
# 2 70.6324 106.5163 31.6239 25.7590 -0.5467 46.7350
# 3 31.7648 31.6239 83.2157 -15.2634 -1.5001 22.9302
# 4 13.0963 25.7590 -15.2634 46.1453 18.7700 7.6310
# 5 10.6651 -0.5467 -1.5001 18.7700 28.9126 -0.3309
# 6 60.7445 46.7350 22.9302 7.6310 -0.3309 52.9610
#
#
#
# Elastic Compliance Matrix: (Units=1/GPa)
#
#
# Indices 1 2 3 4 5 6 
#
# 1 0.043357 -0.016060 0.002450 0.014479 -0.026015 -0.038867
# 2 -0.016060 0.027393 -0.008222 -0.021855 0.020216 0.001083
# 3 0.002450 -0.008222 0.018335 0.014910 -0.009852 -0.005702
# 4 0.014479 -0.021855 0.014910 0.052574 -0.039244 -0.011597
# 5 -0.026015 0.020216 -0.009852 -0.039244 0.069787 0.022355
# 6 -0.038867 0.001083 -0.005702 -0.011597 0.022355 0.066785
#
#
# Mechanical properties :
#
#
# Convention : Reuss Voigt Hill
#
# Bulk Modulus (GPa) = 22.01673 62.40949 42.21311
# Shear Modulus (GPa) = 14.83522 36.24526 25.54024
#
# Velocity S-wave (km/s) = 2.38663 3.73047 3.13149
# Velocity P-wave (km/s) = 4.00600 6.52054 5.41135
#
# Compressibility (1/GPa) = 0.04542001
#
# Stress axis : x y z
#
# Youngs Moduli (GPa) = 23.06408 36.50606 54.54080
#
# Poissons Ratio (x) = 0.58629 -0.13360
# Poissons Ratio (y) = 0.37041 0.44844
# Poissons Ratio (z) = -0.05650 0.30016
#
# Static dielectric constant tensor:
#      x y z
#    x 2.185770 0.099710 0.119230 
#    y 0.099710 2.079690 0.068640 
#    z 0.119230 0.068640 2.144010 
# 
# From -- ./inp_files/186670.got.cif
#   From: 2010.05.17/outbox.cif.g08.bks.cpg/sg2_94_cif.got.tgz:186670.got - 2010.06.03 11:33:40.
