data_PCOD9072222
_publ_section_title
;
Structure prediction by ZEFSAII (Michael W. Deem and Ramdas Pophale) SiO2 
 PCOD9072222
Probable space group: P -1
;
_chemical_formula_sum "Si O2"
_cell_formula_units_Z 16
_cell_length_a 7.615755
_cell_length_b 19.551058
_cell_length_c 9.331113
_cell_angle_alpha 30.061204
_cell_angle_beta 72.092511
_cell_angle_gamma 64.373758
_cell_volume 620.598530
_symmetry_space_group_name_H-M "P -1"
_symmetry_group_IT_number 2
_symmetry_cell_setting 'triclinic'
loop_
_space_group_symop_operation_xyz
x,y,z
-x,-y,-z
loop_
_atom_site_type_symbol
_atom_site_label
_atom_site_fract_x
_atom_site_fract_y
_atom_site_fract_z
Si Si1 0.622146 0.647404 0.297526
Si Si2 0.492438 0.860697 0.532113
Si Si3 0.865346 0.921289 0.107667
Si Si4 0.294911 0.687009 0.088290
Si Si5 0.847552 0.647363 0.958991
Si Si6 0.463043 0.800908 0.319578
Si Si7 0.851737 0.361312 0.316221
Si Si8 0.108564 0.087928 0.218921
O O1 0.406650 0.717969 0.146492
O O2 0.639961 0.484744 0.626231
O O3 0.633760 0.727836 0.295675
O O4 0.785696 0.638560 0.153425
O O5 0.703208 0.805733 0.655078
O O6 0.521093 0.812044 0.447399
O O7 0.339722 0.020509 0.324299
O O8 0.381573 0.756724 0.814579
O O9 0.651493 0.033371 0.003873
O O10 0.874192 0.947451 0.889434
O O11 0.000000 0.000000 0.000000
O O12 0.966946 0.753842 0.431034
O O13 0.059519 0.753868 0.024744
O O14 0.063696 0.631237 0.878141
O O15 0.801364 0.517464 0.121568
O O16 0.321142 0.705005 0.523279
O O17 0.000000 0.000000 0.500000
#
# Coordination Sequence:
#
# PCOD9072222 Si02
#       8
#     2   2   2   2   2   2   2   2
#     4  10  18  30  53  79 103 135 179 219 253 305
#     4   9  19  32  51  79 106 136 174 218 264 310
#     4   9  17  31  52  75  98 134 177 210 248 306
#     4   9  16  28  49  77 103 133 176 220 254 298
#     4  10  21  36  54  78 108 140 174 216 265 311
#     4  10  19  33  56  81 105 135 175 218 260 310
#     4  10  20  35  57  78 104 141 179 215 259 314
#     4   9  16  28  47  74 104 129 167 218 259 296
#
# _framework density 25.781562000000001
#
# number of rings (size 3 to 8) (size 9 to 14) (size 15 to 20)
#    0.000    2.500    0.000    4.500    0.000    2.000 
#    0.000    3.125    0.000   15.750    0.000    0.000 
#    0.000    0.000    0.000    0.000    0.000    0.000 
#
# Total GULP energy -89453.932993 kJ/mol
# GULP energy per Si atom -5590.870812 kJ/mol
# Density = 2.572288 g / cm^3
# Si number density = 25.781562 Si / 1000 Ang^3
#
#
#
# Elastic Constant Matrix: (Units=GPa)
#
#
# Indices 1 2 3 4 5 6 
#
# 1 83.4481 27.8829 12.0125 -3.4107 -21.4757 -6.2270
# 2 27.8829 141.8454 35.3779 19.5357 -5.6954 -21.6654
# 3 12.0125 35.3779 78.2343 -3.3599 -9.3526 1.5837
# 4 -3.4107 19.5357 -3.3599 41.1215 -16.0583 0.7852
# 5 -21.4757 -5.6954 -9.3526 -16.0583 25.1565 2.3018
# 6 -6.2270 -21.6654 1.5837 0.7852 2.3018 34.0752
#
#
#
# Elastic Compliance Matrix: (Units=1/GPa)
#
#
# Indices 1 2 3 4 5 6 
#
# 1 0.021896 -0.006981 0.004175 0.017223 0.029937 -0.003051
# 2 -0.006981 0.012738 -0.007219 -0.013233 -0.014983 0.008476
# 3 0.004175 -0.007219 0.018051 0.011933 0.016814 -0.006077
# 4 0.017223 -0.013233 0.011933 0.053132 0.051019 -0.010492
# 5 0.029937 -0.014983 0.016814 0.051019 0.101914 -0.012897
# 6 -0.003051 0.008476 -0.006077 -0.010492 -0.012897 0.035574
#
#
# Mechanical properties :
#
#
# Convention : Reuss Voigt Hill
#
# Bulk Modulus (GPa) = 30.64265 50.45270 40.54767
# Shear Modulus (GPa) = 18.23257 35.28763 26.76010
#
# Velocity S-wave (km/s) = 2.66220 3.70363 3.22523
# Velocity P-wave (km/s) = 4.62180 6.15637 5.44343
#
# Compressibility (1/GPa) = 0.03263426
#
# Stress axis : x y z
#
# Youngs Moduli (GPa) = 45.67105 78.50229 55.39771
#
# Poissons Ratio (x) = 0.54805 -0.23130
# Poissons Ratio (y) = 0.31884 0.39994
# Poissons Ratio (z) = -0.19069 0.56675
#
# Static dielectric constant tensor:
#      x y z
#    x 2.112350 -0.041140 0.002920 
#    y -0.041140 2.021960 0.056460 
#    z 0.002920 0.056460 1.897840 
# 
# From -- ./inp_files/284566.got.cif
#   From: 2010.05.17/outbox.cif.g08.bks.cpg/sg2_143_cif.got.tgz:284566.got - 2010.06.03 11:33:40.
