data_PCOD9072940
_publ_section_title
;
Structure prediction by ZEFSAII (Michael W. Deem and Ramdas Pophale) SiO2 
 PCOD9072940
Probable space group: P -1
;
_chemical_formula_sum "Si O2"
_cell_formula_units_Z 16
_cell_length_a 20.926123
_cell_length_b 10.834452
_cell_length_c 20.376744
_cell_angle_alpha 151.779035
_cell_angle_beta 18.908082
_cell_angle_gamma 144.751644
_cell_volume 703.594820
_symmetry_space_group_name_H-M "P -1"
_symmetry_group_IT_number 2
_symmetry_cell_setting 'triclinic'
loop_
_space_group_symop_operation_xyz
x,y,z
-x,-y,-z
loop_
_atom_site_type_symbol
_atom_site_label
_atom_site_fract_x
_atom_site_fract_y
_atom_site_fract_z
Si Si1 0.561775 0.476251 0.852978
Si Si2 0.780847 0.729823 0.124758
Si Si3 0.859253 0.504866 0.076668
Si Si4 0.678486 0.010865 0.996037
Si Si5 0.499723 0.090096 0.351685
Si Si6 0.310879 0.690275 0.080298
Si Si7 0.311822 0.791566 0.649359
Si Si8 0.348543 0.235847 0.316561
O O1 0.712999 0.698708 0.801378
O O2 0.386180 0.832491 0.357298
O O3 0.500000 0.500000 0.000000
O O4 0.372857 0.565957 0.032020
O O5 0.892546 0.676438 0.059981
O O6 0.806635 0.492149 0.936333
O O7 0.546607 0.750010 0.382131
O O8 0.793181 0.996425 0.198491
O O9 0.846718 0.207413 0.924259
O O10 0.648272 0.645121 0.373908
O O11 0.000000 0.500000 0.000000
O O12 0.586847 0.046298 0.174343
O O13 0.512704 0.132536 0.162990
O O14 0.674992 0.108625 0.242585
O O15 0.524230 0.706995 0.844515
O O16 0.224333 0.992788 0.312025
O O17 0.242652 0.508031 0.572318
#
# Coordination Sequence:
#
# PCOD9072940 Si02
#       8
#     2   2   2   2   2   2   2   2
#     4   9  18  28  47  79 103 123 157 207 258 295
#     4   9  16  28  44  66  95 125 159 198 243 287
#     4  11  22  34  48  72 103 136 169 198 237 298
#     4  10  18  32  49  75 103 126 165 205 247 293
#     4  10  18  31  52  75 100 130 158 208 256 284
#     4   9  14  25  42  67 103 120 147 202 256 279
#     4   9  15  25  44  72  94 116 156 203 247 284
#     4   9  16  23  42  73  98 118 151 203 250 287
#
# _framework density 22.740359999999999
#
# number of rings (size 3 to 8) (size 9 to 14) (size 15 to 20)
#    0.000    2.500    5.000    0.375    1.750    0.000 
#    0.000    0.625    0.000    0.750    0.000    7.875 
#    0.000    0.000    0.000    0.000    0.000    0.000 
#
# Total GULP energy -89258.306438 kJ/mol
# GULP energy per Si atom -5578.644152 kJ/mol
# Density = 2.268860 g / cm^3
# Si number density = 22.740360 Si / 1000 Ang^3
#
#
#
# Elastic Constant Matrix: (Units=GPa)
#
#
# Indices 1 2 3 4 5 6 
#
# 1 190.3472 33.2608 29.5929 13.2399 -12.6337 3.4910
# 2 33.2608 60.3678 50.1466 43.6844 -19.5515 18.1354
# 3 29.5929 50.1466 41.2171 17.4091 2.3175 3.6502
# 4 13.2399 43.6844 17.4091 46.8214 2.6864 3.0887
# 5 -12.6337 -19.5515 2.3175 2.6864 26.8723 6.4228
# 6 3.4910 18.1354 3.6502 3.0887 6.4228 32.7422
#
#
#
# Elastic Compliance Matrix: (Units=1/GPa)
#
#
# Indices 1 2 3 4 5 6 
#
# 1 0.005945 -0.002418 -0.001942 0.001202 0.000933 0.000626
# 2 -0.002418 -0.021432 0.022575 0.012756 -0.023043 0.012929
# 3 -0.001942 0.022575 0.008428 -0.023845 0.020768 -0.015061
# 4 0.001202 0.012756 -0.023845 0.017852 0.012175 -0.008607
# 5 0.000933 -0.023043 0.020768 0.012175 0.016451 0.005973
# 6 0.000626 0.012929 -0.015061 -0.008607 0.005973 0.024633
#
#
# Mechanical properties :
#
#
# Convention : Reuss Voigt Hill
#
# Bulk Modulus (GPa) = 34.04845 57.54805 45.79825
# Shear Modulus (GPa) = 198.12088 33.21598 115.66843
#
# Velocity S-wave (km/s) = 9.34410 3.82601 7.13969
# Velocity P-wave (km/s) = 11.46392 6.69920 9.38884
#
# Compressibility (1/GPa) = 0.02936992
#
# Stress axis : x y z
#
# Youngs Moduli (GPa) = 168.21343 -46.65852 118.65222
#
# Poissons Ratio (x) = -0.11284 0.23039
# Poissons Ratio (y) = 0.40680 -2.67855
# Poissons Ratio (z) = 0.32662 1.05331
#
# Static dielectric constant tensor:
#      x y z
#    x 1.839250 -0.001340 0.013750 
#    y -0.001340 1.951650 0.010530 
#    z 0.013750 0.010530 1.852450 
# 
# From -- ./inp_files/594579.got.cif
#   From: 2010.05.17/outbox.cif.g08.bks.cpg/sg2_298_cif.got.tgz:594579.got - 2010.06.03 11:33:40.
