data_PCOD9072776
_publ_section_title
;
Structure prediction by ZEFSAII (Michael W. Deem and Ramdas Pophale) SiO2 
 PCOD9072776
Probable space group: P -1
;
_chemical_formula_sum "Si O2"
_cell_formula_units_Z 16
_cell_length_a 12.000000
_cell_length_b 21.000000
_cell_length_c 9.000000
_cell_angle_alpha 100.000000
_cell_angle_beta 100.000000
_cell_angle_gamma 150.000000
_cell_volume 840.889555
_symmetry_space_group_name_H-M "P -1"
_symmetry_group_IT_number 2
_symmetry_cell_setting 'triclinic'
loop_
_space_group_symop_operation_xyz
x,y,z
-x,-y,-z
loop_
_atom_site_type_symbol
_atom_site_label
_atom_site_fract_x
_atom_site_fract_y
_atom_site_fract_z
Si Si1 0.954570 0.385595 0.077141
Si Si2 0.295924 0.310464 0.226987
Si Si3 0.252001 0.681971 0.328307
Si Si4 0.446303 0.540542 0.329708
Si Si5 0.220977 0.985808 0.220417
Si Si6 0.924366 0.622486 0.388342
Si Si7 0.181273 0.312864 0.780447
Si Si8 0.342959 0.853683 0.837515
O O1 0.116280 0.537751 0.228499
O O2 0.213435 0.467423 0.172591
O O3 0.728302 0.236311 0.086839
O O4 0.793451 0.314179 0.851121
O O5 0.286744 0.385090 0.245198
O O6 0.405182 0.357031 0.440416
O O7 0.572620 0.435012 0.242079
O O8 0.014684 0.124590 0.015095
O O9 0.048232 0.620295 0.358897
O O10 0.575276 0.860391 0.560428
O O11 0.721377 0.674213 0.338054
O O12 0.019948 0.835921 0.220306
O O13 0.453804 0.066894 0.213983
O O14 0.992132 0.714668 0.323236
O O15 0.042878 0.706168 0.612817
O O16 0.500000 0.500000 0.000000
O O17 0.500000 0.000000 0.000000
#
# Coordination Sequence:
#
# PCOD9072776 Si02
#       8
#     2   2   2   2   2   2   2   2
#     4  11  23  46  65  90 126 177 211 253 324 380
#     4  10  20  38  62  96 125 161 209 260 323 376
#     4  10  26  42  66  89 129 173 217 254 308 388
#     4  10  20  36  67  89 123 167 210 252 317 380
#     4  11  24  39  59 100 127 163 215 265 314 368
#     4  10  21  38  61  93 124 172 201 254 319 376
#     4  11  21  35  62  94 130 162 201 266 321 367
#     4  11  25  37  65  95 128 161 209 271 315 372
#
# _framework density 19.027469
#
# number of rings (size 3 to 8) (size 9 to 14) (size 15 to 20)
#    0.000    1.500    3.750    1.500    7.000    3.000 
#    0.000    1.250    0.000    0.000    0.000    0.000 
#    0.000    0.000    0.000    0.000    0.000    0.000 
#
# Total GULP energy -89109.709383 kJ/mol
# GULP energy per Si atom -5569.356836 kJ/mol
# Density = 1.898416 g / cm^3
# Si number density = 19.027469 Si / 1000 Ang^3
#
#
#
# Elastic Constant Matrix: (Units=GPa)
#
#
# Indices 1 2 3 4 5 6 
#
# 1 61.5259 20.1908 17.2986 7.2105 -4.4649 -4.0506
# 2 20.1908 92.4656 27.6079 -0.8013 -12.4412 -4.0082
# 3 17.2986 27.6079 164.0689 9.8241 -15.8281 -12.4597
# 4 7.2105 -0.8013 9.8241 35.7713 -0.5098 2.4290
# 5 -4.4649 -12.4412 -15.8281 -0.5098 32.9690 0.7189
# 6 -4.0506 -4.0082 -12.4597 2.4290 0.7189 27.0093
#
#
#
# Elastic Compliance Matrix: (Units=1/GPa)
#
#
# Indices 1 2 3 4 5 6 
#
# 1 0.018292 -0.003589 -0.000888 -0.003659 0.000594 0.002114
# 2 -0.003589 0.012540 -0.001439 0.001421 0.003567 0.000436
# 3 -0.000888 -0.001439 0.007028 -0.001950 0.002615 0.003001
# 4 -0.003659 0.001421 -0.001950 0.029519 -0.000354 -0.003883
# 5 0.000594 0.003567 0.002615 -0.000354 0.032987 0.000979
# 6 0.002114 0.000436 0.003001 -0.003883 0.000979 0.039114
#
#
# Mechanical properties :
#
#
# Convention : Reuss Voigt Hill
#
# Bulk Modulus (GPa) = 38.42267 49.80610 44.11438
# Shear Modulus (GPa) = 31.25263 36.01414 33.63338
#
# Velocity S-wave (km/s) = 4.05717 4.35529 4.20887
# Velocity P-wave (km/s) = 6.49497 7.17803 6.84503
#
# Compressibility (1/GPa) = 0.02602630
#
# Stress axis : x y z
#
# Youngs Moduli (GPa) = 54.66898 79.74764 142.29332
#
# Poissons Ratio (x) = 0.28624 0.12631
# Poissons Ratio (y) = 0.19622 0.20482
# Poissons Ratio (z) = 0.04853 0.11479
#
# Static dielectric constant tensor:
#      x y z
#    x 1.679970 0.018270 0.032310 
#    y 0.018270 1.696150 -0.020540 
#    z 0.032310 -0.020540 1.727540 
# 
# From -- ./inp_files/282026.got.cif
#   From: 2010.05.17/outbox.ucp.g08.bks.cvg/sg2_142_cif.got.tgz:282026.got - 2010.06.11 11:32:03.
