data_PCOD9072072
_publ_section_title
;
Structure prediction by ZEFSAII (Michael W. Deem and Ramdas Pophale) SiO2 
 PCOD9072072
Probable space group: P -1
;
_chemical_formula_sum "Si O2"
_cell_formula_units_Z 14
_cell_length_a 19.741151
_cell_length_b 22.620330
_cell_length_c 10.689448
_cell_angle_alpha 149.143304
_cell_angle_beta 156.490041
_cell_angle_gamma 16.890957
_cell_volume 545.784156
_symmetry_space_group_name_H-M "P -1"
_symmetry_group_IT_number 2
_symmetry_cell_setting 'triclinic'
loop_
_space_group_symop_operation_xyz
x,y,z
-x,-y,-z
loop_
_atom_site_type_symbol
_atom_site_label
_atom_site_fract_x
_atom_site_fract_y
_atom_site_fract_z
Si Si1 0.122526 0.555365 0.474335
Si Si2 0.662856 0.243263 0.345186
Si Si3 0.773312 0.712585 0.385428
Si Si4 0.967129 0.881066 0.735737
Si Si5 0.438336 0.287490 0.289715
Si Si6 0.375447 0.131096 0.319420
Si Si7 0.982403 0.202559 0.613885
O O1 0.376798 0.373347 0.477366
O O2 0.085979 0.527946 0.502447
O O3 0.131872 0.688913 0.748338
O O4 0.824170 0.658675 0.092520
O O5 0.495137 0.350491 0.391196
O O6 0.725754 0.304991 0.461012
O O7 0.449172 0.269916 0.967086
O O8 0.000000 0.000000 0.500000
O O9 0.812314 0.720357 0.609392
O O10 0.578578 0.918294 0.350051
O O11 0.055233 0.775422 0.558238
O O12 0.626999 0.058468 0.536188
O O13 0.000000 0.000000 0.000000
O O14 0.748825 0.043798 0.373061
O O15 0.143672 0.219960 0.982428
#
# Coordination Sequence:
#
# PCOD9072072 Si02
#       7
#     2   2   2   2   2   2   2
#     4   9  18  35  55  81 106 142 174 217 271 312
#     4   9  15  29  49  82 106 131 175 223 262 305
#     4   9  16  30  51  78 106 132 178 222 261 303
#     4  11  22  35  52  80 112 141 176 217 268 322
#     4   9  17  33  57  82 106 133 182 222 261 312
#     4  10  18  30  51  78 104 135 178 222 256 305
#     4  11  19  33  56  83 106 137 179 221 264 316
#
# _framework density 25.651164000000001
#
# number of rings (size 3 to 8) (size 9 to 14) (size 15 to 20)
#    0.000    2.286    5.714    1.286    0.000    0.000 
#    0.000    1.429    0.000    0.857    0.000    0.000 
#    0.000    0.000    0.000    0.000    0.000    0.000 
#
# Total GULP energy -78109.436325 kJ/mol
# GULP energy per Si atom -5579.245452 kJ/mol
# Density = 2.559278 g / cm^3
# Si number density = 25.651164 Si / 1000 Ang^3
#
#
#
# Elastic Constant Matrix: (Units=GPa)
#
#
# Indices 1 2 3 4 5 6 
#
# 1 115.5079 52.6117 59.2457 1.0549 15.2822 -30.3623
# 2 52.6117 105.2573 32.3120 3.7530 6.8814 -41.0344
# 3 59.2457 32.3120 112.8383 8.4914 36.8946 -21.0288
# 4 1.0549 3.7530 8.4914 29.6285 -10.6988 -4.9322
# 5 15.2822 6.8814 36.8946 -10.6988 51.0794 4.8839
# 6 -30.3623 -41.0344 -21.0288 -4.9322 4.8839 67.7185
#
#
#
# Elastic Compliance Matrix: (Units=1/GPa)
#
#
# Indices 1 2 3 4 5 6 
#
# 1 0.014409 -0.004736 -0.006623 0.002813 0.001544 0.001628
# 2 -0.004736 0.014616 0.000174 -0.001166 -0.001573 0.006816
# 3 -0.006623 0.000174 0.017809 -0.009130 -0.013099 0.002946
# 4 0.002813 -0.001166 -0.009130 0.041660 0.014665 -0.000304
# 5 0.001544 -0.001573 -0.013099 0.014665 0.032396 -0.005597
# 6 0.001628 0.006816 0.002946 -0.000304 -0.005597 0.020923
#
#
# Mechanical properties :
#
#
# Convention : Reuss Voigt Hill
#
# Bulk Modulus (GPa) = 40.87619 69.10466 54.99043
# Shear Modulus (GPa) = 29.01273 42.31421 35.66347
#
# Velocity S-wave (km/s) = 3.36676 4.06594 3.73275
# Velocity P-wave (km/s) = 5.57525 7.00293 6.32947
#
# Compressibility (1/GPa) = 0.02446412
#
# Stress axis : x y z
#
# Youngs Moduli (GPa) = 69.39949 68.41835 56.15180
#
# Poissons Ratio (x) = 0.32403 0.37188
# Poissons Ratio (y) = 0.32867 -0.00975
# Poissons Ratio (z) = 0.45961 -0.01188
#
# Static dielectric constant tensor:
#      x y z
#    x 2.065050 0.080580 -0.026580 
#    y 0.080580 2.211920 0.030940 
#    z -0.026580 0.030940 1.999170 
# 
# From -- ./inp_files/473037.got.cif
#   From: 2010.05.17/outbox.cif.g08.bks.cpg/sg2_237_cif.got.tgz:473037.got - 2010.06.03 11:33:40.
