data_PCOD9072255
_publ_section_title
;
Structure prediction by ZEFSAII (Michael W. Deem and Ramdas Pophale) SiO2 
 PCOD9072255
Probable space group: P -1
;
_chemical_formula_sum "Si O2"
_cell_formula_units_Z 14
_cell_length_a 15.000000
_cell_length_b 15.000000
_cell_length_c 15.000000
_cell_angle_alpha 140.000000
_cell_angle_beta 40.000000
_cell_angle_gamma 160.000000
_cell_volume 725.414092
_symmetry_space_group_name_H-M "P -1"
_symmetry_group_IT_number 2
_symmetry_cell_setting 'triclinic'
loop_
_space_group_symop_operation_xyz
x,y,z
-x,-y,-z
loop_
_atom_site_type_symbol
_atom_site_label
_atom_site_fract_x
_atom_site_fract_y
_atom_site_fract_z
Si Si1 0.007698 0.949650 0.627977
Si Si2 0.740075 0.214465 0.372863
Si Si3 0.284231 0.785788 0.798255
Si Si4 0.648513 0.887301 0.789208
Si Si5 0.142831 0.812874 0.555514
Si Si6 0.770478 0.289521 0.923263
Si Si7 0.439714 0.603061 0.546432
O O1 0.836876 0.950271 0.756169
O O2 0.829986 0.709317 0.509581
O O3 0.055827 0.883180 0.625541
O O4 0.305754 0.230708 0.578317
O O5 0.812268 0.227450 0.228560
O O6 0.804538 0.153973 0.352249
O O7 0.914881 0.502322 0.476648
O O8 0.428170 0.994843 0.442644
O O9 0.365535 0.696744 0.648695
O O10 0.051724 0.579388 0.891694
O O11 0.553478 0.084876 0.855042
O O12 0.544667 0.706651 0.646727
O O13 0.788820 0.149641 0.845405
O O14 0.380603 0.725295 0.912644
#
# Coordination Sequence:
#
# PCOD9072255 Si02
#       7
#     2   2   2   2   2   2   2
#     4  12  21  36  56  82 115 139 177 223 283 320
#     4  10  19  33  56  81 113 135 173 218 274 330
#     4  11  19  37  58  78 110 141 184 226 259 325
#     4  10  24  39  54  78 111 150 189 225 256 323
#     4  10  19  33  54  85 109 140 167 218 280 332
#     4  10  24  38  55  76 106 153 192 217 260 307
#     4  11  22  34  55  83 111 144 173 226 275 327
#
# _framework density 19.299322
#
# number of rings (size 3 to 8) (size 9 to 14) (size 15 to 20)
#    0.000    1.429    2.857    3.429    0.000    9.714 
#    0.000    0.000    0.000    1.714    0.000    0.000 
#    0.000    0.000    0.000    0.000    0.000    0.000 
#
# Total GULP energy -78065.043778 kJ/mol
# GULP energy per Si atom -5576.074556 kJ/mol
# Density = 1.925540 g / cm^3
# Si number density = 19.299322 Si / 1000 Ang^3
#
#
#
# Elastic Constant Matrix: (Units=GPa)
#
#
# Indices 1 2 3 4 5 6 
#
# 1 172.1708 0.2060 34.0065 -9.0348 -5.6048 -0.8361
# 2 0.2060 55.9541 -0.1966 -9.3114 1.6112 13.7795
# 3 34.0065 -0.1966 44.1611 -5.3109 -4.6740 3.5388
# 4 -9.0348 -9.3114 -5.3109 20.7433 7.2265 -2.0802
# 5 -5.6048 1.6112 -4.6740 7.2265 28.9301 -2.6888
# 6 -0.8361 13.7795 3.5388 -2.0802 -2.6888 26.9235
#
#
#
# Elastic Compliance Matrix: (Units=1/GPa)
#
#
# Indices 1 2 3 4 5 6 
#
# 1 0.006937 -0.000023 -0.005201 0.001726 0.000172 0.001061
# 2 -0.000023 0.022709 0.001874 0.011195 -0.004830 -0.011487
# 3 -0.005201 0.001874 0.027745 0.004620 0.001823 -0.004228
# 4 0.001726 0.011195 0.004620 0.060020 -0.014826 -0.003126
# 5 0.000172 -0.004830 0.001823 -0.014826 0.039333 0.005021
# 6 0.001061 -0.011487 -0.004228 -0.003126 0.005021 0.043870
#
#
# Mechanical properties :
#
#
# Convention : Reuss Voigt Hill
#
# Bulk Modulus (GPa) = 19.72697 37.81311 28.77004
# Shear Modulus (GPa) = 22.30043 31.20405 26.75224
#
# Velocity S-wave (km/s) = 3.40296 4.02537 3.72718
# Velocity P-wave (km/s) = 5.06793 6.42186 5.78464
#
# Compressibility (1/GPa) = 0.05069202
#
# Stress axis : x y z
#
# Youngs Moduli (GPa) = 144.15766 44.03469 36.04212
#
# Poissons Ratio (x) = 0.00101 0.18746
# Poissons Ratio (y) = 0.00331 -0.06755
# Poissons Ratio (z) = 0.74978 -0.08254
#
# Static dielectric constant tensor:
#      x y z
#    x 1.739700 -0.025590 0.052060 
#    y -0.025590 1.688060 0.006860 
#    z 0.052060 0.006860 1.717770 
# 
# From -- ./inp_files/136714.got.cif
#   From: 2010.05.17/outbox.ucp.g08.bks.cvg/sg2_69_cif.got.tgz:136714.got - 2010.06.11 11:32:03.
