data_PCOD9072164
_publ_section_title
;
Structure prediction by ZEFSAII (Michael W. Deem and Ramdas Pophale) SiO2 
 PCOD9072164
Probable space group: P -1
;
_chemical_formula_sum "Si O2"
_cell_formula_units_Z 16
_cell_length_a 21.000000
_cell_length_b 9.000000
_cell_length_c 12.000000
_cell_angle_alpha 40.000000
_cell_angle_beta 140.000000
_cell_angle_gamma 140.000000
_cell_volume 844.337131
_symmetry_space_group_name_H-M "P -1"
_symmetry_group_IT_number 2
_symmetry_cell_setting 'triclinic'
loop_
_space_group_symop_operation_xyz
x,y,z
-x,-y,-z
loop_
_atom_site_type_symbol
_atom_site_label
_atom_site_fract_x
_atom_site_fract_y
_atom_site_fract_z
Si Si1 0.609440 0.790823 0.358211
Si Si2 0.236692 0.265863 0.591413
Si Si3 0.360744 0.355784 0.273416
Si Si4 0.785990 0.877078 0.104888
Si Si5 0.248868 0.830376 0.313051
Si Si6 0.975849 0.110412 0.610501
Si Si7 0.711397 0.381749 0.157339
Si Si8 0.901610 0.315029 0.589228
O O1 0.674913 0.758779 0.358511
O O2 0.483832 0.580994 0.303041
O O3 0.659317 0.729185 0.574774
O O4 0.622655 0.084142 0.210137
O O5 0.233395 0.133669 0.782659
O O6 0.260098 0.563673 0.472707
O O7 0.120167 0.108395 0.462553
O O8 0.345875 0.094972 0.339016
O O9 0.287741 0.478268 0.040391
O O10 0.705176 0.592134 0.113298
O O11 0.910973 0.915389 0.232202
O O12 0.773583 0.086176 0.887734
O O13 0.156308 0.780012 0.314588
O O14 0.943251 0.132812 0.682541
O O15 0.004376 0.395351 0.436737
O O16 0.816575 0.349294 0.366947
#
# Coordination Sequence:
#
# PCOD9072164 Si02
#       8
#     2   2   2   2   2   2   2   2
#     4  11  22  38  62  89 114 148 191 246 284 334
#     4  12  22  39  57  84 126 151 183 237 291 338
#     4  10  22  39  63  88 110 148 201 234 286 341
#     4  10  23  37  60  84 117 157 193 227 289 346
#     4  11  22  40  58  84 119 157 187 237 284 344
#     4  10  20  37  60  86 111 155 194 235 280 339
#     4  10  18  40  61  83 113 152 187 243 280 334
#     4  10  19  38  63  83 115 152 192 238 286 326
#
# _framework density 18.949777000000001
#
# number of rings (size 3 to 8) (size 9 to 14) (size 15 to 20)
#    0.000    1.500    5.000    0.750    0.000    2.500 
#    0.000    3.750    0.000    0.000    0.000    0.000 
#    0.000    0.000    0.000    0.000    0.000    0.000 
#
# Total GULP energy -89166.396353 kJ/mol
# GULP energy per Si atom -5572.899772 kJ/mol
# Density = 1.890665 g / cm^3
# Si number density = 18.949777 Si / 1000 Ang^3
#
#
#
# Elastic Constant Matrix: (Units=GPa)
#
#
# Indices 1 2 3 4 5 6 
#
# 1 89.5119 11.4650 43.2609 2.9643 -26.0420 -9.3948
# 2 11.4650 116.5593 10.3861 -15.2694 -4.3542 -1.9424
# 3 43.2609 10.3861 96.1219 -9.5841 -34.7120 -4.5691
# 4 2.9643 -15.2694 -9.5841 22.6385 2.1132 -5.6732
# 5 -26.0420 -4.3542 -34.7120 2.1132 25.9517 2.8465
# 6 -9.3948 -1.9424 -4.5691 -5.6732 2.8465 21.6809
#
#
#
# Elastic Compliance Matrix: (Units=1/GPa)
#
#
# Indices 1 2 3 4 5 6 
#
# 1 0.017172 -0.001509 -0.003390 -0.004945 0.012445 0.003664
# 2 -0.001509 0.009706 0.000422 0.007515 -0.000185 0.002295
# 3 -0.003390 0.000422 0.021797 0.008134 0.024940 0.002016
# 4 -0.004945 0.007515 0.008134 0.057021 0.000884 0.015049
# 5 0.012445 -0.000185 0.024940 0.000884 0.084300 -0.000204
# 6 0.003664 0.002295 0.002016 0.015049 -0.000204 0.052306
#
#
# Mechanical properties :
#
#
# Convention : Reuss Voigt Hill
#
# Bulk Modulus (GPa) = 25.17556 48.04635 36.61095
# Shear Modulus (GPa) = 18.90375 29.85963 24.38169
#
# Velocity S-wave (km/s) = 3.16186 3.97385 3.59088
# Velocity P-wave (km/s) = 5.16179 6.81652 6.04603
#
# Compressibility (1/GPa) = 0.03972106
#
# Stress axis : x y z
#
# Youngs Moduli (GPa) = 58.23269 103.02905 45.87777
#
# Poissons Ratio (x) = 0.15546 0.15554
# Poissons Ratio (y) = 0.08787 -0.01936
# Poissons Ratio (z) = 0.19743 -0.04348
#
# Static dielectric constant tensor:
#      x y z
#    x 1.665590 0.011690 0.001830 
#    y 0.011690 1.699630 0.014670 
#    z 0.001830 0.014670 1.672790 
# 
# From -- ./inp_files/306338.got.cif
#   From: 2010.05.17/outbox.ucp.g08.bks.cvg/sg2_154_cif.got.tgz:306338.got - 2010.06.11 11:32:03.
