data_PCOD9072983
_publ_section_title
;
Structure prediction by ZEFSAII (Michael W. Deem and Ramdas Pophale) SiO2 
 PCOD9072983
Probable space group: P -1
;
_chemical_formula_sum "Si O2"
_cell_formula_units_Z 14
_cell_length_a 15.000000
_cell_length_b 12.000000
_cell_length_c 12.000000
_cell_angle_alpha 40.000000
_cell_angle_beta 30.000000
_cell_angle_gamma 50.000000
_cell_volume 692.779491
_symmetry_space_group_name_H-M "P -1"
_symmetry_group_IT_number 2
_symmetry_cell_setting 'triclinic'
loop_
_space_group_symop_operation_xyz
x,y,z
-x,-y,-z
loop_
_atom_site_type_symbol
_atom_site_label
_atom_site_fract_x
_atom_site_fract_y
_atom_site_fract_z
Si Si1 0.010078 0.705383 0.664991
Si Si2 0.539508 0.463824 0.118510
Si Si3 0.397199 0.269361 0.941686
Si Si4 0.983936 0.016303 0.761344
Si Si5 0.078619 0.683550 0.218934
Si Si6 0.718428 0.129120 0.575565
Si Si7 0.837454 0.669509 0.275357
O O1 0.118008 0.798878 0.577814
O O2 0.095489 0.518159 0.696092
O O3 0.795241 0.673109 0.938685
O O4 0.032433 0.848587 0.429494
O O5 0.362904 0.362860 0.436299
O O6 0.500000 0.500000 0.000000
O O7 0.568014 0.622494 0.060544
O O8 0.717629 0.356149 0.002577
O O9 0.360651 0.065095 0.163045
O O10 0.561024 0.260246 0.679913
O O11 0.173723 0.921180 0.616262
O O12 0.950576 0.151424 0.795101
O O13 0.851505 0.841525 0.049777
O O14 0.000000 0.500000 0.500000
O O15 0.967048 0.712963 0.206218
#
# Coordination Sequence:
#
# PCOD9072983 Si02
#       7
#     2   2   2   2   2   2   2
#     4  11  21  45  69  91 134 174 215 266 324 382
#     4  12  23  39  69  98 127 174 218 266 327 388
#     4  10  20  39  67  97 126 167 226 259 319 391
#     4  11  24  42  66  98 132 170 217 270 323 383
#     4  12  22  45  68  91 131 174 214 269 328 379
#     4  10  22  41  68  97 129 175 219 266 320 387
#     4  12  25  42  67  98 131 171 217 271 325 386
#
# _framework density 20.208449999999999
#
# number of rings (size 3 to 8) (size 9 to 14) (size 15 to 20)
#    0.000    0.857    5.714    3.000    0.000    1.143 
#    0.000    6.429    0.000    0.000    0.000    0.000 
#    0.000    0.000    0.000    0.000    0.000    0.000 
#
# Total GULP energy -77952.547135 kJ/mol
# GULP energy per Si atom -5568.039081 kJ/mol
# Density = 2.016246 g / cm^3
# Si number density = 20.208450 Si / 1000 Ang^3
#
#
#
# Elastic Constant Matrix: (Units=GPa)
#
#
# Indices 1 2 3 4 5 6 
#
# 1 60.8008 40.7414 10.8675 5.1558 -28.2993 13.6497
# 2 40.7414 190.1138 67.4348 24.3286 -7.7896 26.7608
# 3 10.8675 67.4348 124.3957 22.3677 -20.3883 -3.8376
# 4 5.1558 24.3286 22.3677 56.0593 -9.3905 -3.4518
# 5 -28.2993 -7.7896 -20.3883 -9.3905 26.9764 1.7555
# 6 13.6497 26.7608 -3.8376 -3.4518 1.7555 38.5520
#
#
#
# Elastic Compliance Matrix: (Units=1/GPa)
#
#
# Indices 1 2 3 4 5 6 
#
# 1 0.055920 -0.012199 0.011145 0.006061 0.066500 -0.012707
# 2 -0.012199 0.010517 -0.006683 -0.003633 -0.015865 -0.003249
# 3 0.011145 -0.006683 0.014092 -0.000287 0.020238 0.001148
# 4 0.006061 -0.003633 -0.000287 0.021143 0.012343 0.001679
# 5 0.066500 -0.015865 0.020238 0.012343 0.122818 -0.015006
# 6 -0.012707 -0.003249 0.001148 0.001679 -0.015006 0.033641
#
#
# Mechanical properties :
#
#
# Convention : Reuss Voigt Hill
#
# Bulk Modulus (GPa) = 15.37139 68.15529 41.76334
# Shear Modulus (GPa) = 16.93252 41.40201 29.16726
#
# Velocity S-wave (km/s) = 2.89778 4.53122 3.80323
# Velocity P-wave (km/s) = 4.33810 7.82146 6.32433
#
# Compressibility (1/GPa) = 0.06505593
#
# Stress axis : x y z
#
# Youngs Moduli (GPa) = 17.88259 95.08464 70.96352
#
# Poissons Ratio (x) = 1.15996 -0.79091
# Poissons Ratio (y) = 0.21815 0.47422
# Poissons Ratio (z) = -0.19931 0.63541
#
# Static dielectric constant tensor:
#      x y z
#    x 1.741050 0.011530 0.014030 
#    y 0.011530 1.734060 0.033730 
#    z 0.014030 0.033730 1.783270 
# 
# From -- ./inp_files/425178.got.cif
#   From: 2010.05.17/outbox.ucp.g08.bks.cvg/sg2_213_cif.got.tgz:425178.got - 2010.06.11 11:32:03.
