data_PCOD9072447
_publ_section_title
;
Structure prediction by ZEFSAII (Michael W. Deem and Ramdas Pophale) SiO2 
 PCOD9072447
Probable space group: P -1
;
_chemical_formula_sum "Si O2"
_cell_formula_units_Z 16
_cell_length_a 15.729698
_cell_length_b 8.786269
_cell_length_c 5.400622
_cell_angle_alpha 85.087935
_cell_angle_beta 93.078823
_cell_angle_gamma 71.506062
_cell_volume 702.661368
_symmetry_space_group_name_H-M "P -1"
_symmetry_group_IT_number 2
_symmetry_cell_setting 'triclinic'
loop_
_space_group_symop_operation_xyz
x,y,z
-x,-y,-z
loop_
_atom_site_type_symbol
_atom_site_label
_atom_site_fract_x
_atom_site_fract_y
_atom_site_fract_z
Si Si1 0.264565 0.195727 0.408776
Si Si2 0.279923 0.892599 0.733608
Si Si3 0.469400 0.836550 0.006331
Si Si4 0.154913 0.147837 0.022130
Si Si5 0.456647 0.197539 0.478268
Si Si6 0.918163 0.096287 0.788727
Si Si7 0.905683 0.580824 0.342441
Si Si8 0.852208 0.275541 0.251777
O O1 0.295898 0.003910 0.501884
O O2 0.350026 0.245502 0.481898
O O3 0.173808 0.303060 0.515338
O O4 0.236518 0.206233 0.117081
O O5 0.193017 0.015814 0.837229
O O6 0.365150 0.865571 0.928478
O O7 0.244665 0.743994 0.690750
O O8 0.520069 0.742574 0.788086
O O9 0.499374 0.752523 0.283503
O O10 0.500000 0.000000 0.000000
O O11 0.079253 0.301991 0.885967
O O12 0.124708 0.047156 0.239528
O O13 0.500000 0.000000 0.500000
O O14 0.917561 0.170403 0.502510
O O15 0.866400 0.230418 0.965976
O O16 0.000000 0.000000 0.000000
O O17 0.866434 0.446245 0.255217
O O18 0.000000 0.500000 0.500000
#
# Coordination Sequence:
#
# PCOD9072447 Si02
#       8
#     2   2   2   2   2   2   2   2
#     4  11  21  37  63  91 126 163 217 265 314 376
#     4  10  20  37  61  95 125 162 208 270 316 378
#     4  10  18  30  57  92 127 149 199 257 322 366
#     4  10  22  38  63  91 121 168 216 270 316 373
#     4  10  19  31  57  94 124 153 201 264 315 364
#     4  11  23  40  66  89 122 158 219 276 321 368
#     4  11  27  43  61  89 131 179 219 260 319 392
#     4  11  25  42  62  92 128 170 211 262 331 380
#
# _framework density 22.770571
#
# number of rings (size 3 to 8) (size 9 to 14) (size 15 to 20)
#    0.000    1.500    3.750    2.625    5.250    0.500 
#    0.000    0.000    0.000    1.500    0.000    0.000 
#    0.000    0.000    0.000    0.000    0.000    0.000 
#
# Total GULP energy -89112.331139 kJ/mol
# GULP energy per Si atom -5569.520696 kJ/mol
# Density = 2.271874 g / cm^3
# Si number density = 22.770571 Si / 1000 Ang^3
#
#
#
# Elastic Constant Matrix: (Units=GPa)
#
#
# Indices 1 2 3 4 5 6 
#
# 1 79.9170 25.8400 17.7842 14.2583 23.0763 -2.1118
# 2 25.8400 68.1166 15.4566 9.3197 1.6052 16.2695
# 3 17.7842 15.4566 137.1867 9.0856 15.0709 -5.1706
# 4 14.2583 9.3197 9.0856 17.7320 7.8840 6.8510
# 5 23.0763 1.6052 15.0709 7.8840 42.4004 2.5385
# 6 -2.1118 16.2695 -5.1706 6.8510 2.5385 23.5833
#
#
#
# Elastic Compliance Matrix: (Units=1/GPa)
#
#
# Indices 1 2 3 4 5 6 
#
# 1 0.020765 -0.009184 0.000760 -0.013101 -0.009578 0.013199
# 2 -0.009184 0.022842 -0.002805 0.001174 0.006001 -0.018183
# 3 0.000760 -0.002805 0.008294 -0.004210 -0.002793 0.005345
# 4 -0.013101 0.001174 -0.004210 0.080598 -0.004860 -0.025797
# 5 -0.009578 0.006001 -0.002793 -0.004860 0.030917 -0.007526
# 6 0.013199 -0.018183 0.005345 -0.025797 -0.007526 0.065605
#
#
# Mechanical properties :
#
#
# Convention : Reuss Voigt Hill
#
# Bulk Modulus (GPa) = 33.96411 44.82019 39.39215
# Shear Modulus (GPa) = 19.13557 31.81911 25.47734
#
# Velocity S-wave (km/s) = 2.90205 3.74221 3.34858
# Velocity P-wave (km/s) = 5.11638 6.19663 5.68224
#
# Compressibility (1/GPa) = 0.02944284
#
# Stress axis : x y z
#
# Youngs Moduli (GPa) = 48.15749 43.77878 120.56959
#
# Poissons Ratio (x) = 0.40207 -0.09166
# Poissons Ratio (y) = 0.44228 0.33824
# Poissons Ratio (z) = -0.03661 0.12281
#
# Static dielectric constant tensor:
#      x y z
#    x 4.490100 2.118060 1.550120 
#    y 2.118060 3.601830 1.290390 
#    z 1.550120 1.290390 2.901070 
# 
# From -- ./inp_files/90558.got.cif
#   From: 2010.05.17/outbox.cif.g08.bks.cpg/sg2_46_cif.got.tgz:90558.got - 2010.06.03 11:33:40.
