data_PCOD9072073
_publ_section_title
;
Structure prediction by ZEFSAII (Michael W. Deem and Ramdas Pophale) SiO2 
 PCOD9072073
Probable space group: P -1
;
_chemical_formula_sum "Si O2"
_cell_formula_units_Z 12
_cell_length_a 13.929316
_cell_length_b 9.260354
_cell_length_c 6.439715
_cell_angle_alpha 135.769996
_cell_angle_beta 70.137644
_cell_angle_gamma 122.260446
_cell_volume 488.689193
_symmetry_space_group_name_H-M "P -1"
_symmetry_group_IT_number 2
_symmetry_cell_setting 'triclinic'
loop_
_space_group_symop_operation_xyz
x,y,z
-x,-y,-z
loop_
_atom_site_type_symbol
_atom_site_label
_atom_site_fract_x
_atom_site_fract_y
_atom_site_fract_z
Si Si1 0.701668 0.142939 0.292707
Si Si2 0.957055 0.814906 0.154033
Si Si3 0.665596 0.714838 0.613778
Si Si4 0.910068 0.156689 0.311699
Si Si5 0.856691 0.558424 0.319145
Si Si6 0.490306 0.797360 0.640831
O O1 0.798870 0.197212 0.447649
O O2 0.769141 0.318787 0.235964
O O3 0.590238 0.182036 0.459989
O O4 0.666901 0.885144 0.971806
O O5 0.899409 0.573851 0.067927
O O6 0.882581 0.902588 0.157741
O O7 0.000000 0.000000 0.500000
O O8 0.054759 0.829931 0.942050
O O9 0.786471 0.711353 0.510026
O O10 0.613737 0.797125 0.540373
O O11 0.583967 0.450638 0.456899
O O12 0.029686 0.327510 0.505956
O O13 0.500000 0.000000 0.000000
#
# Coordination Sequence:
#
# PCOD9072073 Si02
#       6
#     2   2   2   2   2   2
#     4  10  18  30  51  78 105 136 175 215 258 307
#     4   9  18  32  50  73 104 143 178 210 256 307
#     4   9  16  30  50  75 105 134 172 216 256 306
#     4  10  19  33  51  76 109 140 173 214 258 306
#     4  10  20  33  52  78 106 140 176 211 257 309
#     4   8  16  29  49  77 103 133 173 214 258 308
#
# _framework density 24.555484
#
# number of rings (size 3 to 8) (size 9 to 14) (size 15 to 20)
#    0.000    2.667    0.000    3.500    0.000    0.667 
#    0.000    1.667    0.000    1.000    0.000  109.667 
#    0.000    0.000    0.000    0.000    0.000    0.000 
#
# Total GULP energy -66862.819849 kJ/mol
# GULP energy per Si atom -5571.901654 kJ/mol
# Density = 2.449959 g / cm^3
# Si number density = 24.555484 Si / 1000 Ang^3
#
#
#
# Elastic Constant Matrix: (Units=GPa)
#
#
# Indices 1 2 3 4 5 6 
#
# 1 235.2461 11.0344 38.3629 11.9108 11.1112 -44.8042
# 2 11.0344 107.6572 29.1188 13.0872 -1.4005 3.2967
# 3 38.3629 29.1188 76.4292 14.6298 7.4509 -0.8511
# 4 11.9108 13.0872 14.6298 36.1361 1.4047 1.1426
# 5 11.1112 -1.4005 7.4509 1.4047 19.4019 12.9560
# 6 -44.8042 3.2967 -0.8511 1.1426 12.9560 32.6105
#
#
#
# Elastic Compliance Matrix: (Units=1/GPa)
#
#
# Indices 1 2 3 4 5 6 
#
# 1 0.009442 -0.001063 -0.001983 -0.001861 -0.018145 0.020303
# 2 -0.001063 0.010963 -0.003932 -0.002118 0.006530 -0.005191
# 3 -0.001983 -0.003932 0.017024 -0.004609 -0.005720 0.000551
# 4 -0.001861 -0.002118 -0.004609 0.030931 0.003827 -0.005067
# 5 -0.018145 0.006530 -0.005720 0.003827 0.111068 -0.070001
# 6 0.020303 -0.005191 0.000551 -0.005067 -0.070001 0.087087
#
#
# Mechanical properties :
#
#
# Convention : Reuss Voigt Hill
#
# Bulk Modulus (GPa) = 42.60422 64.04053 53.32237
# Shear Modulus (GPa) = 17.34330 40.35079 28.84704
#
# Velocity S-wave (km/s) = 2.66050 4.05810 3.43121
# Velocity P-wave (km/s) = 5.17933 6.93499 6.12044
#
# Compressibility (1/GPa) = 0.02347185
#
# Stress axis : x y z
#
# Youngs Moduli (GPa) = 105.90728 91.21914 58.74182
#
# Poissons Ratio (x) = 0.09696 0.11650
# Poissons Ratio (y) = 0.11257 0.23098
# Poissons Ratio (z) = 0.21003 0.35869
#
# Static dielectric constant tensor:
#      x y z
#    x 2.086030 -0.024740 0.029200 
#    y -0.024740 2.015590 0.028840 
#    z 0.029200 0.028840 1.960560 
# 
# From -- ./inp_files/86805.got.cif
#   From: 2010.05.17/outbox.cif.g08.bks.cpg/sg2_44_cif.got.tgz:86805.got - 2010.06.03 11:33:40.
