data_PCOD9072001
_publ_section_title
;
Structure prediction by ZEFSAII (Michael W. Deem and Ramdas Pophale) SiO2 
 PCOD9072001
Probable space group: P -1
;
_chemical_formula_sum "Si O2"
_cell_formula_units_Z 16
_cell_length_a 12.000000
_cell_length_b 12.000000
_cell_length_c 12.000000
_cell_angle_alpha 130.000000
_cell_angle_beta 120.000000
_cell_angle_gamma 40.000000
_cell_volume 850.772647
_symmetry_space_group_name_H-M "P -1"
_symmetry_group_IT_number 2
_symmetry_cell_setting 'triclinic'
loop_
_space_group_symop_operation_xyz
x,y,z
-x,-y,-z
loop_
_atom_site_type_symbol
_atom_site_label
_atom_site_fract_x
_atom_site_fract_y
_atom_site_fract_z
Si Si1 0.988687 0.274507 0.323429
Si Si2 0.107949 0.534015 0.149454
Si Si3 0.869661 0.285986 0.910139
Si Si4 0.681210 0.166001 0.808842
Si Si5 0.015863 0.448733 0.655652
Si Si6 0.515547 0.838975 0.971212
Si Si7 0.205854 0.875222 0.906233
Si Si8 0.345943 0.294590 0.808762
O O1 0.001894 0.374857 0.290212
O O2 0.852160 0.246332 0.224714
O O3 0.946893 0.398950 0.491703
O O4 0.178536 0.061446 0.297931
O O5 0.065113 0.716788 0.181641
O O6 0.311671 0.363729 0.121107
O O7 0.068522 0.528826 0.254219
O O8 0.000000 0.500000 0.000000
O O9 0.721839 0.275372 0.825576
O O10 0.781062 0.488690 0.059344
O O11 0.030621 0.099881 0.940286
O O12 0.484800 0.262538 0.776443
O O13 0.730870 0.169435 0.963411
O O14 0.221542 0.278635 0.672830
O O15 0.356045 0.846376 0.894946
O O16 0.551564 0.847009 0.125003
O O17 0.500000 0.000000 0.000000
#
# Coordination Sequence:
#
# PCOD9072001 Si02
#       8
#     2   2   2   2   2   2   2   2
#     4  10  23  39  58  80 113 159 188 228 277 329
#     4  11  21  34  57  83 113 145 185 233 284 335
#     4  10  18  33  54  84 111 141 182 233 290 323
#     4  10  20  34  58  85 110 143 189 241 278 323
#     4  11  22  39  57  80 117 154 192 222 278 342
#     4  10  21  33  57  90 111 142 184 238 285 330
#     4  10  20  35  59  84 115 144 191 234 275 333
#     4  10  20  32  57  86 111 143 185 237 276 331
#
# _framework density 18.806433999999999
#
# number of rings (size 3 to 8) (size 9 to 14) (size 15 to 20)
#    0.000    1.750    2.500    4.125    3.500    2.500 
#    0.000    3.125    0.000    0.000    0.000    0.000 
#    0.000    0.000    0.000    0.000    0.000    0.000 
#
# Total GULP energy -89180.519313 kJ/mol
# GULP energy per Si atom -5573.782457 kJ/mol
# Density = 1.876363 g / cm^3
# Si number density = 18.806434 Si / 1000 Ang^3
#
#
#
# Elastic Constant Matrix: (Units=GPa)
#
#
# Indices 1 2 3 4 5 6 
#
# 1 169.4683 24.0818 33.2739 -0.7692 -0.0054 6.7346
# 2 24.0818 28.2683 11.1414 -1.7416 9.9237 6.5676
# 3 33.2739 11.1414 47.4024 2.2165 -0.1064 16.4519
# 4 -0.7692 -1.7416 2.2165 9.7225 5.4595 -3.4745
# 5 -0.0054 9.9237 -0.1064 5.4595 22.2284 -3.9060
# 6 6.7346 6.5676 16.4519 -3.4745 -3.9060 43.7112
#
#
#
# Elastic Compliance Matrix: (Units=1/GPa)
#
#
# Indices 1 2 3 4 5 6 
#
# 1 0.007589 -0.006335 -0.004369 -0.000797 0.003296 0.001658
# 2 -0.006335 0.059825 -0.009278 0.030152 -0.035084 -0.005259
# 3 -0.004369 -0.009278 0.030654 -0.016284 0.006498 -0.010184
# 4 -0.000797 0.030152 -0.016284 0.141261 -0.046692 0.008778
# 5 0.003296 -0.035084 0.006498 -0.046692 0.073053 0.005134
# 6 0.001658 -0.005259 -0.010184 0.008778 0.005134 0.028402
#
#
# Mechanical properties :
#
#
# Convention : Reuss Voigt Hill
#
# Bulk Modulus (GPa) = 17.21039 42.45924 29.83482
# Shear Modulus (GPa) = 12.49635 26.90853 19.70244
#
# Velocity S-wave (km/s) = 2.58053 3.78672 3.24024
# Velocity P-wave (km/s) = 4.24854 6.46103 5.46786
#
# Compressibility (1/GPa) = 0.05810442
#
# Stress axis : x y z
#
# Youngs Moduli (GPa) = 131.76116 16.71550 32.62180
#
# Poissons Ratio (x) = 0.10589 0.14254
# Poissons Ratio (y) = 0.83469 0.30266
# Poissons Ratio (z) = 0.57571 0.15508
#
# Static dielectric constant tensor:
#      x y z
#    x 1.697060 0.021610 -0.004390 
#    y 0.021610 1.735990 0.007670 
#    z -0.004390 0.007670 1.662580 
# 
# From -- ./inp_files/254263.got.cif
#   From: 2010.05.17/outbox.ucp.g08.bks.cvg/sg2_128_cif.got.tgz:254263.got - 2010.06.11 11:32:03.
