data_PCOD9072688
_publ_section_title
;
Structure prediction by ZEFSAII (Michael W. Deem and Ramdas Pophale) SiO2 
 PCOD9072688
Probable space group: P -1
;
_chemical_formula_sum "Si O2"
_cell_formula_units_Z 16
_cell_length_a 23.322393
_cell_length_b 9.137445
_cell_length_c 9.459661
_cell_angle_alpha 110.444448
_cell_angle_beta 76.901374
_cell_angle_gamma 150.701432
_cell_volume 910.904809
_symmetry_space_group_name_H-M "P -1"
_symmetry_group_IT_number 2
_symmetry_cell_setting 'triclinic'
loop_
_space_group_symop_operation_xyz
x,y,z
-x,-y,-z
loop_
_atom_site_type_symbol
_atom_site_label
_atom_site_fract_x
_atom_site_fract_y
_atom_site_fract_z
Si Si1 0.540903 0.445117 0.626403
Si Si2 0.690052 0.029822 0.575974
Si Si3 0.260136 0.281917 0.902424
Si Si4 0.705334 0.416679 0.766209
Si Si5 0.291576 0.438830 0.498245
Si Si6 0.451889 0.560252 0.053040
Si Si7 0.431271 0.872071 0.803141
Si Si8 0.136553 0.855115 0.565427
O O1 0.603127 0.447434 0.509745
O O2 0.561283 0.442946 0.774275
O O3 0.612607 0.765995 0.652356
O O4 0.405859 0.157641 0.557769
O O5 0.734355 0.300037 0.696774
O O6 0.785626 0.122111 0.501827
O O7 0.356623 0.587894 0.849900
O O8 0.164012 0.987178 0.750999
O O9 0.229932 0.338891 0.060858
O O10 0.330301 0.307181 0.953344
O O11 0.728217 0.547439 0.644175
O O12 0.563704 0.113284 0.776003
O O13 0.347687 0.701255 0.654785
O O14 0.180990 0.093285 0.512762
O O15 0.544091 0.903505 0.064832
O O16 0.500000 0.500000 0.000000
O O17 0.000000 0.500000 0.500000
#
# Coordination Sequence:
#
# PCOD9072688 Si02
#       8
#     2   2   2   2   2   2   2   2
#     4  10  18  31  49  85 115 141 171 213 267 339
#     4  10  21  31  58  79 111 145 183 219 269 322
#     4  10  22  35  53  81 113 149 179 218 277 324
#     4  11  18  32  55  87 114 137 177 224 274 327
#     4  10  18  34  58  80 107 146 179 213 271 332
#     4  11  20  27  47  79 123 142 169 207 271 331
#     4  10  19  31  49  78 120 153 165 202 272 344
#     4  10  23  44  58  71 104 152 195 228 269 321
#
# _framework density 17.564952999999999
#
# number of rings (size 3 to 8) (size 9 to 14) (size 15 to 20)
#    0.000    1.750    3.750    3.375    5.250    0.000 
#    0.000    1.875    0.000    0.000    0.000    0.000 
#    0.000    0.000    0.000    0.000    0.000    0.000 
#
# Total GULP energy -89156.665371 kJ/mol
# GULP energy per Si atom -5572.291586 kJ/mol
# Density = 1.752497 g / cm^3
# Si number density = 17.564953 Si / 1000 Ang^3
#
#
#
# Elastic Constant Matrix: (Units=GPa)
#
#
# Indices 1 2 3 4 5 6 
#
# 1 64.3494 27.6765 34.4176 14.1459 -6.7190 -13.0121
# 2 27.6765 64.4917 48.1899 19.5393 9.0407 4.2680
# 3 34.4176 48.1899 123.6549 17.6409 5.9957 -2.9051
# 4 14.1459 19.5393 17.6409 27.2658 -9.3225 1.2889
# 5 -6.7190 9.0407 5.9957 -9.3225 32.3230 1.5651
# 6 -13.0121 4.2680 -2.9051 1.2889 1.5651 21.2549
#
#
#
# Elastic Compliance Matrix: (Units=1/GPa)
#
#
# Indices 1 2 3 4 5 6 
#
# 1 0.026566 -0.010760 -0.002783 -0.002556 0.007456 0.017649
# 2 -0.010760 0.034166 -0.007160 -0.018940 -0.015339 -0.012148
# 3 -0.002783 -0.007160 0.012004 -0.001739 -0.001381 0.001582
# 4 -0.002556 -0.018940 -0.001739 0.060633 0.022738 -0.003350
# 5 0.007456 -0.015339 -0.001381 0.022738 0.043453 0.002877
# 6 0.017649 -0.012148 0.001582 -0.003350 0.002877 0.060500
#
#
# Mechanical properties :
#
#
# Convention : Reuss Voigt Hill
#
# Bulk Modulus (GPa) = 31.91787 52.56267 42.24027
# Shear Modulus (GPa) = 17.29088 25.64954 21.47021
#
# Velocity S-wave (km/s) = 3.14091 3.82549 3.49998
# Velocity P-wave (km/s) = 5.60041 7.03578 6.35873
#
# Compressibility (1/GPa) = 0.03133041
#
# Stress axis : x y z
#
# Youngs Moduli (GPa) = 37.64230 29.26908 83.30518
#
# Poissons Ratio (x) = 0.31493 0.23186
# Poissons Ratio (y) = 0.40502 0.59644
# Poissons Ratio (z) = 0.10477 0.20956
#
# Static dielectric constant tensor:
#      x y z
#    x 1.517670 -0.011660 0.056010 
#    y -0.011660 1.590090 -0.029300 
#    z 0.056010 -0.029300 1.599720 
# 
# From -- ./inp_files/186560.got.cif
#   From: 2010.05.17/outbox.cif.g08.bks.cpg/sg2_94_cif.got.tgz:186560.got - 2010.06.03 11:33:40.
