data_PCOD9072520
_publ_section_title
;
Structure prediction by ZEFSAII (Michael W. Deem and Ramdas Pophale) SiO2 
 PCOD9072520
Probable space group: P -1
;
_chemical_formula_sum "Si O2"
_cell_formula_units_Z 14
_cell_length_a 12.000000
_cell_length_b 12.000000
_cell_length_c 15.000000
_cell_angle_alpha 100.000000
_cell_angle_beta 150.000000
_cell_angle_gamma 60.000000
_cell_volume 748.962810
_symmetry_space_group_name_H-M "P -1"
_symmetry_group_IT_number 2
_symmetry_cell_setting 'triclinic'
loop_
_space_group_symop_operation_xyz
x,y,z
-x,-y,-z
loop_
_atom_site_type_symbol
_atom_site_label
_atom_site_fract_x
_atom_site_fract_y
_atom_site_fract_z
Si Si1 0.227970 0.765982 0.666829
Si Si2 0.207751 0.170443 0.773306
Si Si3 0.297900 0.828380 0.922819
Si Si4 0.670710 0.422776 0.008970
Si Si5 0.255406 0.275509 0.083935
Si Si6 0.792130 0.635496 0.734344
Si Si7 0.906951 0.196481 0.738937
O O1 0.180594 0.829070 0.743520
O O2 0.423657 0.791221 0.750021
O O3 0.922283 0.840918 0.407966
O O4 0.430533 0.576094 0.796814
O O5 0.933160 0.252194 0.668610
O O6 0.350825 0.243330 0.861592
O O7 0.500000 0.000000 0.000000
O O8 0.289652 0.728244 0.975032
O O9 0.084544 0.011565 0.829655
O O10 0.002565 0.364580 0.196742
O O11 0.500000 0.500000 0.000000
O O12 0.277023 0.274143 0.206635
O O13 0.005916 0.454985 0.893764
O O14 0.112256 0.205557 0.946063
O O15 0.458557 0.702401 0.478822
#
# Coordination Sequence:
#
# PCOD9072520 Si02
#       7
#     2   2   2   2   2   2   2
#     4  10  19  38  63  85 122 160 196 246 291 346
#     4  10  21  34  56  93 121 150 193 243 300 347
#     4  10  22  38  57  88 126 158 200 236 289 358
#     4   9  21  42  62  84 116 163 203 236 290 359
#     4  10  20  36  59  90 118 148 200 246 301 348
#     4  10  21  38  60  85 118 155 196 246 295 352
#     4  11  21  35  58  91 121 152 191 252 297 344
#
# _framework density 18.692516999999999
#
# number of rings (size 3 to 8) (size 9 to 14) (size 15 to 20)
#    0.000    2.000    2.857    0.429    0.000    5.714 
#    0.000    3.571    0.000    0.000    0.000    0.000 
#    0.000    0.000    0.000    0.000    0.000    0.000 
#
# Total GULP energy -77963.472108 kJ/mol
# GULP energy per Si atom -5568.819436 kJ/mol
# Density = 1.864997 g / cm^3
# Si number density = 18.692517 Si / 1000 Ang^3
#
#
#
# Elastic Constant Matrix: (Units=GPa)
#
#
# Indices 1 2 3 4 5 6 
#
# 1 127.3806 27.4912 36.0330 11.9708 20.5113 25.3202
# 2 27.4912 84.5139 29.7794 20.6023 -5.8554 16.0149
# 3 36.0330 29.7794 109.3001 29.1142 4.5168 9.4581
# 4 11.9708 20.6023 29.1142 35.0966 -1.4204 -2.3126
# 5 20.5113 -5.8554 4.5168 -1.4204 34.9166 9.9834
# 6 25.3202 16.0149 9.4581 -2.3126 9.9834 36.5207
#
#
#
# Elastic Compliance Matrix: (Units=1/GPa)
#
#
# Indices 1 2 3 4 5 6 
#
# 1 0.010725 -0.001873 -0.002031 -0.001395 -0.005036 -0.004801
# 2 -0.001873 0.016890 -0.001282 -0.008493 0.006029 -0.007962
# 3 -0.002031 -0.001282 0.012834 -0.009342 -0.000549 -0.001795
# 4 -0.001395 -0.008493 -0.009342 0.042337 -0.000514 0.009932
# 5 -0.005036 0.006029 -0.000549 -0.000514 0.035131 -0.008647
# 6 -0.004801 -0.007962 -0.001795 0.009932 -0.008647 0.037659
#
#
# Mechanical properties :
#
#
# Convention : Reuss Voigt Hill
#
# Bulk Modulus (GPa) = 33.24606 56.42244 44.83425
# Shear Modulus (GPa) = 28.41319 36.49952 32.45636
#
# Velocity S-wave (km/s) = 3.90299 4.42365 4.17145
# Velocity P-wave (km/s) = 6.17539 7.50610 6.87303
#
# Compressibility (1/GPa) = 0.03007875
#
# Stress axis : x y z
#
# Youngs Moduli (GPa) = 93.23813 59.20574 77.91597
#
# Poissons Ratio (x) = 0.11086 0.15822
# Poissons Ratio (y) = 0.17459 0.09992
# Poissons Ratio (z) = 0.18933 0.07593
#
# Static dielectric constant tensor:
#      x y z
#    x 1.659020 -0.044700 0.036640 
#    y -0.044700 1.732580 -0.024530 
#    z 0.036640 -0.024530 1.677940 
# 
# From -- ./inp_files/67089.got.cif
#   From: 2010.05.17/outbox.ucp.g08.bks.cvg/sg2_34_cif.got.tgz:67089.got - 2010.06.11 11:32:03.
