data_PCOD9072955
_publ_section_title
;
Structure prediction by ZEFSAII (Michael W. Deem and Ramdas Pophale) SiO2 
 PCOD9072955
Probable space group: P -1
;
_chemical_formula_sum "Si O2"
_cell_formula_units_Z 16
_cell_length_a 21.000000
_cell_length_b 21.000000
_cell_length_c 9.000000
_cell_angle_alpha 140.000000
_cell_angle_beta 130.000000
_cell_angle_gamma 20.000000
_cell_volume 817.212732
_symmetry_space_group_name_H-M "P -1"
_symmetry_group_IT_number 2
_symmetry_cell_setting 'triclinic'
loop_
_space_group_symop_operation_xyz
x,y,z
-x,-y,-z
loop_
_atom_site_type_symbol
_atom_site_label
_atom_site_fract_x
_atom_site_fract_y
_atom_site_fract_z
Si Si1 0.692166 0.291092 0.653044
Si Si2 0.107049 0.903369 0.710397
Si Si3 0.621123 0.738494 0.742803
Si Si4 0.716675 0.062292 0.449330
Si Si5 0.546125 0.110721 0.793937
Si Si6 0.685365 0.154883 0.914384
Si Si7 0.175821 0.595922 0.301779
Si Si8 0.572832 0.907011 0.686597
O O1 0.776856 0.188662 0.429802
O O2 0.640141 0.240941 0.559093
O O3 0.513020 0.562628 0.867918
O O4 0.874875 0.140382 0.750039
O O5 0.178657 0.713273 0.515032
O O6 0.147715 0.946470 0.965736
O O7 0.420530 0.886943 0.690959
O O8 0.773829 0.501567 0.633719
O O9 0.683306 0.719617 0.643616
O O10 0.584327 0.868518 0.037019
O O11 0.709073 0.095576 0.673148
O O12 0.951762 0.802109 0.294079
O O13 0.662246 0.082591 0.856837
O O14 0.498341 0.093808 0.547538
O O15 0.646036 0.924458 0.730017
O O16 0.345504 0.369554 0.038588
#
# Coordination Sequence:
#
# PCOD9072955 Si02
#       8
#     2   2   2   2   2   2   2   2
#     4  10  22  38  59  89 125 158 194 238 288 351
#     4  10  22  38  59  91 124 157 195 240 284 351
#     4  10  20  40  66  85 117 158 193 244 306 350
#     4  11  24  38  59  94 121 153 199 243 286 358
#     4  10  20  39  64  88 116 155 199 248 294 349
#     4  12  22  37  63  88 121 160 198 235 293 350
#     4  10  22  40  61  87 123 157 190 242 298 348
#     4   9  20  39  64  86 115 154 198 249 302 345
#
# _framework density 19.578745000000001
#
# number of rings (size 3 to 8) (size 9 to 14) (size 15 to 20)
#    0.000    1.750    2.500    1.500    3.500    3.000 
#    0.000    6.250    0.000    0.000    0.000    0.000 
#    0.000    0.000    0.000    0.000    0.000    0.000 
#
# Total GULP energy -89238.326099 kJ/mol
# GULP energy per Si atom -5577.395381 kJ/mol
# Density = 1.953418 g / cm^3
# Si number density = 19.578745 Si / 1000 Ang^3
#
#
#
# Elastic Constant Matrix: (Units=GPa)
#
#
# Indices 1 2 3 4 5 6 
#
# 1 135.5270 14.9886 9.0752 5.0793 22.6794 32.3311
# 2 14.9886 57.8832 12.1814 -6.2450 13.4427 9.6759
# 3 9.0752 12.1814 60.2128 -20.4891 15.0973 -2.8045
# 4 5.0793 -6.2450 -20.4891 19.9196 1.4879 -3.3816
# 5 22.6794 13.4427 15.0973 1.4879 38.2799 -2.5917
# 6 32.3311 9.6759 -2.8045 -3.3816 -2.5917 39.4364
#
#
#
# Elastic Compliance Matrix: (Units=1/GPa)
#
#
# Indices 1 2 3 4 5 6 
#
# 1 0.011417 0.000068 -0.003401 -0.007762 -0.005867 -0.010670
# 2 0.000068 0.020615 -0.000672 0.005439 -0.007578 -0.005193
# 3 -0.003401 -0.000672 0.033107 0.036893 -0.011719 0.007701
# 4 -0.007762 0.005439 0.036893 0.095448 -0.014564 0.014880
# 5 -0.005867 -0.007578 -0.011719 -0.014564 0.037928 0.007080
# 6 -0.010670 -0.005193 0.007701 0.014880 0.007080 0.037668
#
#
# Mechanical properties :
#
#
# Convention : Reuss Voigt Hill
#
# Bulk Modulus (GPa) = 17.50447 36.23480 26.86964
# Shear Modulus (GPa) = 18.99441 34.01904 26.50672
#
# Velocity S-wave (km/s) = 3.11811 4.17291 3.68346
# Velocity P-wave (km/s) = 4.68225 6.46259 5.64307
#
# Compressibility (1/GPa) = 0.05712825
#
# Stress axis : x y z
#
# Youngs Moduli (GPa) = 87.58944 48.50924 30.20486
#
# Poissons Ratio (x) = -0.00331 0.10274
# Poissons Ratio (y) = -0.00598 0.02030
# Poissons Ratio (z) = 0.29794 0.03260
#
# Static dielectric constant tensor:
#      x y z
#    x 1.706970 0.028550 0.000500 
#    y 0.028550 1.717390 -0.002180 
#    z 0.000500 -0.002180 1.674170 
# 
# From -- ./inp_files/203361.got.cif
#   From: 2010.05.17/outbox.ucp.g08.bks.cvg/sg2_102_cif.got.tgz:203361.got - 2010.06.11 11:32:03.
