data_PCOD9072461
_publ_section_title
;
Structure prediction by ZEFSAII (Michael W. Deem and Ramdas Pophale) SiO2 
 PCOD9072461
Probable space group: P -1
;
_chemical_formula_sum "Si O2"
_cell_formula_units_Z 16
_cell_length_a 9.000000
_cell_length_b 12.000000
_cell_length_c 15.000000
_cell_angle_alpha 100.000000
_cell_angle_beta 40.000000
_cell_angle_gamma 120.000000
_cell_volume 835.587839
_symmetry_space_group_name_H-M "P -1"
_symmetry_group_IT_number 2
_symmetry_cell_setting 'triclinic'
loop_
_space_group_symop_operation_xyz
x,y,z
-x,-y,-z
loop_
_atom_site_type_symbol
_atom_site_label
_atom_site_fract_x
_atom_site_fract_y
_atom_site_fract_z
Si Si1 0.570968 0.065048 0.180982
Si Si2 0.450328 0.794601 0.477071
Si Si3 0.689279 0.038611 0.540041
Si Si4 0.958931 0.223068 0.693148
Si Si5 0.619268 0.511038 0.700346
Si Si6 0.014278 0.484431 0.631267
Si Si7 0.285089 0.219982 0.376466
Si Si8 0.111077 0.224731 0.828441
O O1 0.554048 0.009491 0.281052
O O2 0.494146 0.174643 0.254601
O O3 0.316433 0.928775 0.227179
O O4 0.852264 0.129899 0.001746
O O5 0.604718 0.912740 0.497025
O O6 0.257056 0.637011 0.579180
O O7 0.669964 0.812949 0.304048
O O8 0.257635 0.832024 0.520819
O O9 0.978633 0.093624 0.464277
O O10 0.926605 0.347701 0.705648
O O11 0.210327 0.246555 0.514638
O O12 0.011783 0.227991 0.774610
O O13 0.829828 0.524572 0.528097
O O14 0.622268 0.646177 0.706576
O O15 0.309217 0.376270 0.802152
O O16 0.751390 0.488677 0.723578
#
# Coordination Sequence:
#
# PCOD9072461 Si02
#       8
#     2   2   2   2   2   2   2   2
#     4  11  23  36  56  83 122 152 184 224 291 339
#     4  10  20  36  62  84 116 137 197 238 280 328
#     4  10  20  36  59  89 106 152 188 239 277 329
#     4  10  21  37  60  85 109 152 194 233 275 327
#     4   9  19  34  58  84 111 151 186 234 284 326
#     4   9  18  36  60  84 111 142 193 241 276 325
#     4  10  19  37  61  80 115 146 196 230 280 328
#     4  11  23  36  55  88 118 151 184 231 282 340
#
# _framework density 19.148195999999999
#
# number of rings (size 3 to 8) (size 9 to 14) (size 15 to 20)
#    0.000    2.000    1.250    3.375    5.250    6.500 
#    0.000    0.000    0.000    1.500    0.000    0.000 
#    0.000    0.000    0.000    0.000    0.000    0.000 
#
# Total GULP energy -89132.721043 kJ/mol
# GULP energy per Si atom -5570.795065 kJ/mol
# Density = 1.910461 g / cm^3
# Si number density = 19.148196 Si / 1000 Ang^3
#
#
#
# Elastic Constant Matrix: (Units=GPa)
#
#
# Indices 1 2 3 4 5 6 
#
# 1 25.3684 46.1231 -7.0204 -4.0665 -1.9803 -9.1516
# 2 46.1231 120.9090 36.8323 -14.5782 -3.9785 -4.7805
# 3 -7.0204 36.8323 56.6278 3.0395 -2.3519 6.0876
# 4 -4.0665 -14.5782 3.0395 11.0191 6.4035 9.6386
# 5 -1.9803 -3.9785 -2.3519 6.4035 13.0931 -1.7996
# 6 -9.1516 -4.7805 6.0876 9.6386 -1.7996 26.0000
#
#
#
# Elastic Compliance Matrix: (Units=1/GPa)
#
#
# Indices 1 2 3 4 5 6 
#
# 1 -0.039275 0.036232 -0.032743 0.130456 -0.071877 -0.052833
# 2 0.036232 -0.015057 0.015691 -0.059443 0.037045 0.030911
# 3 -0.032743 0.015691 0.002699 0.051162 -0.028878 -0.030237
# 4 0.130456 -0.059443 0.051162 0.051948 -0.014166 0.002772
# 5 -0.071877 0.037045 -0.028878 -0.014166 0.078358 -0.001052
# 6 -0.052833 0.030911 -0.030237 0.002772 -0.001052 0.031528
#
#
# Mechanical properties :
#
#
# Convention : Reuss Voigt Hill
#
# Bulk Modulus (GPa) = -75.34220 39.41944 -17.96138
# Shear Modulus (GPa) = 74.16601 18.48712 46.32656
#
# Velocity S-wave (km/s) = 6.23031 3.11058 4.92404
# Velocity P-wave (km/s) = 3.51046 5.79069 4.78829
#
# Compressibility (1/GPa) = -0.01327277
#
# Stress axis : x y z
#
# Youngs Moduli (GPa) = -25.46153 -66.41510 370.54279
#
# Poissons Ratio (x) = 2.40635 12.13278
# Poissons Ratio (y) = 0.92252 -5.81434
# Poissons Ratio (z) = -0.83369 1.04215
#
# Static dielectric constant tensor:
#      x y z
#    x 1.751400 -0.020320 -0.005670 
#    y -0.020320 1.674780 -0.011680 
#    z -0.005670 -0.011680 1.634620 
# 
# From -- ./inp_files/348910.got.cif
#   From: 2010.05.17/outbox.ucp.g08.bks.cvg/sg2_175_cif.got.tgz:348910.got - 2010.06.11 11:32:03.
