data_PCOD9072995
_publ_section_title
;
Structure prediction by ZEFSAII (Michael W. Deem and Ramdas Pophale) SiO2 
 PCOD9072995
Probable space group: P -1
;
_chemical_formula_sum "Si O2"
_cell_formula_units_Z 14
_cell_length_a 23.471000
_cell_length_b 7.226207
_cell_length_c 10.710567
_cell_angle_alpha 54.711406
_cell_angle_beta 24.026416
_cell_angle_gamma 55.966573
_cell_volume 600.917557
_symmetry_space_group_name_H-M "P -1"
_symmetry_group_IT_number 2
_symmetry_cell_setting 'triclinic'
loop_
_space_group_symop_operation_xyz
x,y,z
-x,-y,-z
loop_
_atom_site_type_symbol
_atom_site_label
_atom_site_fract_x
_atom_site_fract_y
_atom_site_fract_z
Si Si1 0.612706 0.203471 0.790891
Si Si2 0.027816 0.241022 0.993995
Si Si3 0.314529 0.387354 0.376046
Si Si4 0.088786 0.067503 0.178982
Si Si5 0.785226 0.397240 0.924042
Si Si6 0.600660 0.689168 0.022938
Si Si7 0.945724 0.453480 0.829374
O O1 0.708657 0.389694 0.578254
O O2 0.555761 0.256952 0.743078
O O3 0.468803 0.258095 0.139498
O O4 0.658634 0.938089 0.814914
O O5 0.197561 0.213604 0.675750
O O6 0.977702 0.255301 0.946101
O O7 0.992698 0.076245 0.241225
O O8 0.000000 0.500000 0.000000
O O9 0.324356 0.458897 0.183328
O O10 0.117741 0.321856 0.056619
O O11 0.215299 0.870853 0.995619
O O12 0.000000 0.000000 0.500000
O O13 0.909931 0.491373 0.551408
O O14 0.837521 0.411763 0.954492
O O15 0.643309 0.549318 0.114283
#
# Coordination Sequence:
#
# PCOD9072995 Si02
#       7
#     2   2   2   2   2   2   2
#     4   8  17  31  55  84 105 143 188 222 269 320
#     4  10  19  35  56  80 114 145 183 229 265 329
#     4   9  16  33  53  81 110 137 186 226 265 317
#     4   9  20  35  51  74 108 148 182 221 273 322
#     4  10  18  31  52  77 112 142 177 222 270 325
#     4   9  16  31  53  84 107 140 183 225 265 323
#     4   9  18  34  48  77 110 145 181 215 265 329
#
# _framework density 23.297706000000002
#
# number of rings (size 3 to 8) (size 9 to 14) (size 15 to 20)
#    0.857    2.000    1.429    0.000    0.000    1.714 
#   10.286    2.857    0.000    1.714    0.000    0.000 
#    0.000    0.000    0.000    0.286    0.000    0.000 
#
# Total GULP energy -77942.588140 kJ/mol
# GULP energy per Si atom -5567.327724 kJ/mol
# Density = 2.324468 g / cm^3
# Si number density = 23.297706 Si / 1000 Ang^3
#
#
#
# Elastic Constant Matrix: (Units=GPa)
#
#
# Indices 1 2 3 4 5 6 
#
# 1 161.3175 72.9194 26.5855 -14.1561 6.5953 -20.1706
# 2 72.9194 146.8670 9.5256 -8.0395 -2.1386 -16.4247
# 3 26.5855 9.5256 45.3841 -5.9661 5.3600 -9.3002
# 4 -14.1561 -8.0395 -5.9661 14.7982 -3.5466 5.4986
# 5 6.5953 -2.1386 5.3600 -3.5466 24.7227 -7.0584
# 6 -20.1706 -16.4247 -9.3002 5.4986 -7.0584 43.2934
#
#
#
# Elastic Compliance Matrix: (Units=1/GPa)
#
#
# Indices 1 2 3 4 5 6 
#
# 1 0.009164 -0.003946 -0.003573 0.004468 -0.001007 0.001273
# 2 -0.003946 0.009049 0.000698 0.001270 0.002432 0.001980
# 3 -0.003573 0.000698 0.025651 0.005513 -0.002919 0.002934
# 4 0.004468 0.001270 0.005513 0.078423 0.007550 -0.004982
# 5 -0.001007 0.002432 -0.002919 0.007550 0.044386 0.006104
# 6 0.001273 0.001980 0.002934 -0.004982 0.006104 0.026701
#
#
# Mechanical properties :
#
#
# Convention : Reuss Voigt Hill
#
# Bulk Modulus (GPa) = 33.08803 63.51441 48.30122
# Shear Modulus (GPa) = 23.03192 32.86539 27.94866
#
# Velocity S-wave (km/s) = 3.14760 3.75996 3.46733
# Velocity P-wave (km/s) = 5.23860 6.79493 6.06688
#
# Compressibility (1/GPa) = 0.03022241
#
# Stress axis : x y z
#
# Youngs Moduli (GPa) = 109.12538 110.50898 38.98423
#
# Poissons Ratio (x) = 0.43604 0.13928
# Poissons Ratio (y) = 0.43059 -0.02719
# Poissons Ratio (z) = 0.38987 -0.07709
#
# Static dielectric constant tensor:
#      x y z
#    x 1.940000 0.012480 0.025950 
#    y 0.012480 1.905970 0.009930 
#    z 0.025950 0.009930 2.042040 
# 
# From -- ./inp_files/473562.got.cif
#   From: 2010.05.17/outbox.cif.g08.bks.cpg/sg2_237_cif.got.tgz:473562.got - 2010.06.03 11:33:40.
