data_PCOD9072901
_publ_section_title
;
Structure prediction by ZEFSAII (Michael W. Deem and Ramdas Pophale) SiO2 
 PCOD9072901
Probable space group: P -1
;
_chemical_formula_sum "Si O2"
_cell_formula_units_Z 14
_cell_length_a 20.733756
_cell_length_b 17.351143
_cell_length_c 12.530952
_cell_angle_alpha 154.987305
_cell_angle_beta 37.231988
_cell_angle_gamma 159.535674
_cell_volume 622.406078
_symmetry_space_group_name_H-M "P -1"
_symmetry_group_IT_number 2
_symmetry_cell_setting 'triclinic'
loop_
_space_group_symop_operation_xyz
x,y,z
-x,-y,-z
loop_
_atom_site_type_symbol
_atom_site_label
_atom_site_fract_x
_atom_site_fract_y
_atom_site_fract_z
Si Si1 0.240320 0.255242 0.435425
Si Si2 0.366185 0.892460 0.880503
Si Si3 0.048253 0.433893 0.157680
Si Si4 0.755956 0.313177 0.995797
Si Si5 0.762891 0.336763 0.463142
Si Si6 0.316641 0.574362 0.124726
Si Si7 0.379539 0.397736 0.653268
O O1 0.194153 0.400304 0.692863
O O2 0.239310 0.173411 0.454917
O O3 0.465115 0.539926 0.458094
O O4 0.101092 0.946152 0.151047
O O5 0.236429 0.756136 0.983037
O O6 0.259509 0.649994 0.615925
O O7 0.535695 0.009616 0.854381
O O8 0.479114 0.230286 0.106717
O O9 0.224378 0.599281 0.201475
O O10 0.934785 0.434034 0.364786
O O11 0.119875 0.595429 0.148120
O O12 0.778799 0.528077 0.763009
O O13 0.553894 0.942497 0.278943
O O14 0.280611 0.331987 0.807429
#
# Coordination Sequence:
#
# PCOD9072901 Si02
#       7
#     2   2   2   2   2   2   2
#     4  10  18  31  51  81 107 129 167 214 258 308
#     4   9  17  37  49  74 106 140 166 211 253 306
#     4  12  19  32  53  85 101 133 171 216 259 304
#     4  10  20  30  54  77 111 132 165 213 261 306
#     4  10  20  34  53  75 104 137 176 209 252 300
#     4  10  19  34  51  78 104 135 170 223 244 294
#     4   9  17  34  54  75 104 134 174 206 257 303
#
# _framework density 22.493354
#
# number of rings (size 3 to 8) (size 9 to 14) (size 15 to 20)
#    0.000    2.000    7.143    0.857    0.000    0.571 
#    0.000    0.000    0.000    1.714    0.000    0.000 
#    0.000    0.000    0.000    0.000    0.000    0.000 
#
# Total GULP energy -78111.406065 kJ/mol
# GULP energy per Si atom -5579.386148 kJ/mol
# Density = 2.244216 g / cm^3
# Si number density = 22.493354 Si / 1000 Ang^3
#
#
#
# Elastic Constant Matrix: (Units=GPa)
#
#
# Indices 1 2 3 4 5 6 
#
# 1 62.2813 26.5102 25.3265 -10.1329 7.2001 -6.3463
# 2 26.5102 106.1387 28.9771 -40.5304 4.4310 15.1107
# 3 25.3265 28.9771 68.2413 -37.1531 11.9229 -1.7050
# 4 -10.1329 -40.5304 -37.1531 41.0868 -6.6260 4.6156
# 5 7.2001 4.4310 11.9229 -6.6260 31.1088 -10.1257
# 6 -6.3463 15.1107 -1.7050 4.6156 -10.1257 31.3373
#
#
#
# Elastic Compliance Matrix: (Units=1/GPa)
#
#
# Indices 1 2 3 4 5 6 
#
# 1 0.025488 -0.012324 -0.015955 -0.021562 0.001949 0.014042
# 2 -0.012324 0.026006 0.013949 0.036773 -0.005337 -0.021417
# 3 -0.015955 0.013949 0.042410 0.048578 -0.010080 -0.018062
# 4 -0.021562 0.036773 0.048578 0.101926 -0.009359 -0.037492
# 5 0.001949 -0.005337 -0.010080 -0.009359 0.039740 0.016639
# 6 0.014042 -0.021417 -0.018062 -0.037492 0.016639 0.054998
#
#
# Mechanical properties :
#
#
# Convention : Reuss Voigt Hill
#
# Bulk Modulus (GPa) = 15.32739 44.25431 29.79085
# Shear Modulus (GPa) = 14.66383 31.09642 22.88012
#
# Velocity S-wave (km/s) = 2.55604 3.72219 3.19281
# Velocity P-wave (km/s) = 3.94209 6.17981 5.18315
#
# Compressibility (1/GPa) = 0.06524268
#
# Stress axis : x y z
#
# Youngs Moduli (GPa) = 39.23478 38.45288 23.57947
#
# Poissons Ratio (x) = 0.47391 0.37621
# Poissons Ratio (y) = 0.48355 -0.32891
# Poissons Ratio (z) = 0.62599 -0.53639
#
# Static dielectric constant tensor:
#      x y z
#    x 1.850010 -0.022630 0.004610 
#    y -0.022630 1.938250 0.013060 
#    z 0.004610 0.013060 1.886900 
# 
# From -- ./inp_files/472478.got.cif
#   From: 2010.05.17/outbox.cif.g08.bks.cpg/sg2_237_cif.got.tgz:472478.got - 2010.06.03 11:33:40.
