data_PCOD9072749
_publ_section_title
;
Structure prediction by ZEFSAII (Michael W. Deem and Ramdas Pophale) SiO2 
 PCOD9072749
Probable space group: P -1
;
_chemical_formula_sum "Si O2"
_cell_formula_units_Z 16
_cell_length_a 14.703018
_cell_length_b 8.108323
_cell_length_c 12.491751
_cell_angle_alpha 78.566649
_cell_angle_beta 141.468928
_cell_angle_gamma 123.524662
_cell_volume 690.549463
_symmetry_space_group_name_H-M "P -1"
_symmetry_group_IT_number 2
_symmetry_cell_setting 'triclinic'
loop_
_space_group_symop_operation_xyz
x,y,z
-x,-y,-z
loop_
_atom_site_type_symbol
_atom_site_label
_atom_site_fract_x
_atom_site_fract_y
_atom_site_fract_z
Si Si1 0.803115 0.675602 0.817816
Si Si2 0.941840 0.178300 0.417143
Si Si3 0.430721 0.131327 0.162543
Si Si4 0.436681 0.611496 0.546296
Si Si5 0.332892 0.798005 0.948215
Si Si6 0.088808 0.120465 0.901440
Si Si7 0.660391 0.478264 0.148653
Si Si8 0.814568 0.858879 0.507047
O O1 0.637366 0.695241 0.672358
O O2 0.708597 0.470745 0.676230
O O3 0.857313 0.692999 0.989255
O O4 0.990011 0.893271 0.906427
O O5 0.124515 0.318150 0.644886
O O6 0.020259 0.134898 0.393335
O O7 0.860471 0.286422 0.279541
O O8 0.776558 0.956666 0.360920
O O9 0.520042 0.206959 0.353898
O O10 0.593224 0.305865 0.205154
O O11 0.272220 0.163584 0.013476
O O12 0.348469 0.897278 0.065586
O O13 0.345388 0.386490 0.560960
O O14 0.340206 0.606666 0.957409
O O15 0.500000 0.000000 0.000000
O O16 0.917546 0.036550 0.674064
O O17 0.500000 0.500000 0.000000
#
# Coordination Sequence:
#
# PCOD9072749 Si02
#       8
#     2   2   2   2   2   2   2   2
#     4   8  16  26  46  74 115 144 185 242 288 325
#     4  11  21  36  52  80 115 161 193 232 276 327
#     4  10  18  31  50  76 112 151 186 231 274 335
#     4   9  16  29  46  78 112 151 189 237 279 339
#     4  10  23  37  53  79 117 154 196 235 276 335
#     4   9  15  29  47  75 112 151 187 237 281 337
#     4  11  23  37  57  81 114 156 194 234 280 335
#     4  10  19  29  53  77 111 155 197 228 277 333
#
# _framework density 23.169955000000002
#
# number of rings (size 3 to 8) (size 9 to 14) (size 15 to 20)
#    0.000    2.250    2.500    1.125    5.250    0.000 
#    0.000    0.000    0.000    0.000    0.000    0.000 
#    0.000  438.000    0.000    0.000    0.000    5.000 
#
# Total GULP energy -89155.641545 kJ/mol
# GULP energy per Si atom -5572.227597 kJ/mol
# Density = 2.311722 g / cm^3
# Si number density = 23.169955 Si / 1000 Ang^3
#
#
#
# Elastic Constant Matrix: (Units=GPa)
#
#
# Indices 1 2 3 4 5 6 
#
# 1 105.0583 39.8462 39.9463 12.3899 -27.8391 -8.1297
# 2 39.8462 36.4232 29.3216 11.9408 -1.9227 -4.8041
# 3 39.9463 29.3216 109.8846 34.7981 -18.1702 -26.0934
# 4 12.3899 11.9408 34.7981 27.0038 -7.2185 -2.5882
# 5 -27.8391 -1.9227 -18.1702 -7.2185 34.0330 16.6905
# 6 -8.1297 -4.8041 -26.0934 -2.5882 16.6905 49.8489
#
#
#
# Elastic Compliance Matrix: (Units=1/GPa)
#
#
# Indices 1 2 3 4 5 6 
#
# 1 0.026703 -0.030165 -0.002709 0.010437 0.024678 -0.007691
# 2 -0.030165 0.070005 -0.005109 -0.018138 -0.031608 0.008794
# 3 -0.002709 -0.005109 0.020476 -0.022202 -0.000615 0.008837
# 4 0.010437 -0.018138 -0.022202 0.072302 0.017798 -0.013873
# 5 0.024678 -0.031608 -0.000615 0.017798 0.060368 -0.018632
# 6 -0.007691 0.008794 0.008837 -0.013873 -0.018632 0.029798
#
#
# Mechanical properties :
#
#
# Convention : Reuss Voigt Hill
#
# Bulk Modulus (GPa) = 24.26055 52.17713 38.21884
# Shear Modulus (GPa) = 13.53706 31.66061 22.59883
#
# Velocity S-wave (km/s) = 2.41975 3.70056 3.12645
# Velocity P-wave (km/s) = 4.27789 6.38961 5.43725
#
# Compressibility (1/GPa) = 0.04121918
#
# Stress axis : x y z
#
# Youngs Moduli (GPa) = 37.44939 14.28465 48.83773
#
# Poissons Ratio (x) = 0.43090 0.13230
# Poissons Ratio (y) = 1.12966 0.24949
# Poissons Ratio (z) = 0.10145 0.07297
#
# Static dielectric constant tensor:
#      x y z
#    x 1.882780 -0.016650 -0.070220 
#    y -0.016650 1.927460 0.038340 
#    z -0.070220 0.038340 1.954640 
# 
# From -- ./inp_files/314402.got.cif
#   From: 2010.05.17/outbox.cif.g08.bks.cpg/sg2_158_cif.got.tgz:314402.got - 2010.06.03 11:33:40.
