data_PCOD9072521
_publ_section_title
;
Structure prediction by ZEFSAII (Michael W. Deem and Ramdas Pophale) SiO2 
 PCOD9072521
Probable space group: P -1
;
_chemical_formula_sum "Si O2"
_cell_formula_units_Z 14
_cell_length_a 12.767307
_cell_length_b 15.705002
_cell_length_c 13.723005
_cell_angle_alpha 57.131947
_cell_angle_beta 21.742940
_cell_angle_gamma 60.282685
_cell_volume 855.834526
_symmetry_space_group_name_H-M "P -1"
_symmetry_group_IT_number 2
_symmetry_cell_setting 'triclinic'
loop_
_space_group_symop_operation_xyz
x,y,z
-x,-y,-z
loop_
_atom_site_type_symbol
_atom_site_label
_atom_site_fract_x
_atom_site_fract_y
_atom_site_fract_z
Si Si1 0.393281 0.434800 0.355201
Si Si2 0.421723 0.409586 0.048477
Si Si3 0.780019 0.299512 0.216824
Si Si4 0.006876 0.318864 0.605509
Si Si5 0.132997 0.888983 0.861305
Si Si6 0.780080 0.879626 0.360799
Si Si7 0.343000 0.411640 0.631561
O O1 0.549689 0.533622 0.114309
O O2 0.621578 0.347065 0.229452
O O3 0.152025 0.392021 0.517578
O O4 0.278985 0.450853 0.552773
O O5 0.673032 0.330816 0.889061
O O6 0.500000 0.500000 0.000000
O O7 0.133615 0.359211 0.368388
O O8 0.861284 0.187367 0.186623
O O9 0.556322 0.319858 0.482438
O O10 0.058171 0.368426 0.951811
O O11 0.105793 0.207131 0.614900
O O12 0.440681 0.881611 0.651168
O O13 0.105105 0.006856 0.785395
O O14 0.894452 0.857834 0.165831
O O15 0.500000 0.500000 0.500000
#
# Coordination Sequence:
#
# PCOD9072521 Si02
#       7
#     2   2   2   2   2   2   2
#     4   9  20  28  48  62  93 125 150 183 222 268
#     4  10  21  28  42  65  91 125 161 179 210 269
#     4  10  19  30  50  62  96 118 152 184 231 279
#     4  11  19  30  43  66  95 125 158 179 215 256
#     4  10  18  31  44  68  87 128 156 182 231 265
#     4  10  19  28  46  64  95 120 162 190 209 268
#     4  10  21  32  48  68  90 119 152 195 237 273
#
# _framework density 16.358301999999998
#
# number of rings (size 3 to 8) (size 9 to 14) (size 15 to 20)
#    0.857    1.143    1.429    4.714    8.000    0.000 
#    0.000    0.000    0.000    0.000    0.000    0.000 
#    0.000    6.857    0.000    0.000    0.000    0.000 
#
# Total GULP energy -77994.105255 kJ/mol
# GULP energy per Si atom -5571.007518 kJ/mol
# Density = 1.632107 g / cm^3
# Si number density = 16.358302 Si / 1000 Ang^3
#
#
#
# Elastic Constant Matrix: (Units=GPa)
#
#
# Indices 1 2 3 4 5 6 
#
# 1 13.8886 5.3092 0.7062 -0.5782 0.1294 1.7682
# 2 5.3092 67.5032 -10.4199 5.0744 3.7822 -8.2638
# 3 0.7062 -10.4199 49.0467 9.3775 -3.0825 -4.1840
# 4 -0.5782 5.0744 9.3775 22.3256 -2.8067 0.9113
# 5 0.1294 3.7822 -3.0825 -2.8067 14.4997 -5.8295
# 6 1.7682 -8.2638 -4.1840 0.9113 -5.8295 21.1846
#
#
#
# Elastic Compliance Matrix: (Units=1/GPa)
#
#
# Indices 1 2 3 4 5 6 
#
# 1 0.077435 -0.008702 -0.005408 0.006346 -0.003199 -0.012079
# 2 -0.008702 0.018169 0.006101 -0.007434 -0.001180 0.009014
# 3 -0.005408 0.006101 0.025206 -0.011827 0.005476 0.009826
# 4 0.006346 -0.007434 -0.011827 0.052759 0.007140 -0.006070
# 5 -0.003199 -0.001180 0.005476 0.007140 0.081050 0.022884
# 6 -0.012079 0.009014 0.009826 -0.006070 0.022884 0.060227
#
#
# Mechanical properties :
#
#
# Convention : Reuss Voigt Hill
#
# Bulk Modulus (GPa) = 9.54266 13.51437 11.52851
# Shear Modulus (GPa) = 13.66891 20.59153 17.13022
#
# Velocity S-wave (km/s) = 2.89380 3.55178 3.23954
# Velocity P-wave (km/s) = 4.12452 5.00995 4.58864
#
# Compressibility (1/GPa) = 0.10479262
#
# Stress axis : x y z
#
# Youngs Moduli (GPa) = 12.91414 55.03962 39.67234
#
# Poissons Ratio (x) = 0.47893 0.21456
# Poissons Ratio (y) = 0.11237 -0.24206
# Poissons Ratio (z) = 0.06984 -0.33582
#
# Static dielectric constant tensor:
#      x y z
#    x 1.541150 -0.013260 0.004960 
#    y -0.013260 1.567950 0.008490 
#    z 0.004960 0.008490 1.588930 
# 
# From -- ./inp_files/96645.got.cif
#   From: 2010.05.17/outbox.cif.g08.bks.cpg/sg2_49_cif.got.tgz:96645.got - 2010.06.03 11:33:40.
