data_PCOD9072098
_publ_section_title
;
Structure prediction by ZEFSAII (Michael W. Deem and Ramdas Pophale) SiO2 
 PCOD9072098
Probable space group: P -1
;
_chemical_formula_sum "Si O2"
_cell_formula_units_Z 16
_cell_length_a 12.057321
_cell_length_b 12.479290
_cell_length_c 8.475888
_cell_angle_alpha 122.559194
_cell_angle_beta 128.118698
_cell_angle_gamma 82.680973
_cell_volume 804.309505
_symmetry_space_group_name_H-M "P -1"
_symmetry_group_IT_number 2
_symmetry_cell_setting 'triclinic'
loop_
_space_group_symop_operation_xyz
x,y,z
-x,-y,-z
loop_
_atom_site_type_symbol
_atom_site_label
_atom_site_fract_x
_atom_site_fract_y
_atom_site_fract_z
Si Si1 0.421064 0.835047 0.186751
Si Si2 0.453663 0.125081 0.354458
Si Si3 0.080862 0.324124 0.416719
Si Si4 0.131755 0.116466 0.510420
Si Si5 0.212874 0.017175 0.815817
Si Si6 0.740050 0.232643 0.503249
Si Si7 0.796305 0.386950 0.372721
Si Si8 0.137849 0.850237 0.151013
O O1 0.531627 0.821678 0.411513
O O2 0.276050 0.843180 0.162008
O O3 0.483194 0.980075 0.276437
O O4 0.354184 0.713860 0.913513
O O5 0.584907 0.219292 0.439904
O O6 0.300335 0.093646 0.103256
O O7 0.160428 0.255330 0.557135
O O8 0.180236 0.462292 0.539708
O O9 0.939404 0.351553 0.400247
O O10 0.008517 0.219382 0.131672
O O11 0.214672 0.112916 0.744816
O O12 0.157224 0.002022 0.331576
O O13 0.956332 0.060850 0.351484
O O14 0.278766 0.900723 0.723579
O O15 0.792741 0.356879 0.531268
O O16 0.852766 0.224998 0.736105
#
# Coordination Sequence:
#
# PCOD9072098 Si02
#       8
#     2   2   2   2   2   2   2   2
#     4   9  18  32  50  83 101 125 165 213 256 293
#     4  10  18  30  53  76 104 128 165 212 261 284
#     4  10  19  33  50  74 104 141 160 200 257 300
#     4  10  19  32  53  76 105 129 167 209 243 302
#     4  10  18  30  51  81 101 127 164 215 252 291
#     4  10  18  31  51  80 102 127 165 214 251 294
#     4  10  19  32  52  73 107 131 166 206 250 306
#     4   9  19  32  52  79 103 126 166 209 252 294
#
# _framework density 19.89284
#
# number of rings (size 3 to 8) (size 9 to 14) (size 15 to 20)
#    0.000    2.250    2.500    1.500    0.000    0.500 
#    0.000    0.000    0.000    1.500    0.000    0.000 
#    0.000    0.000    0.000    0.000    0.000    0.000 
#
# Total GULP energy -89315.759769 kJ/mol
# GULP energy per Si atom -5582.234986 kJ/mol
# Density = 1.984756 g / cm^3
# Si number density = 19.892840 Si / 1000 Ang^3
#
#
#
# Elastic Constant Matrix: (Units=GPa)
#
#
# Indices 1 2 3 4 5 6 
#
# 1 33.4155 18.9080 -1.5956 1.3524 -6.7716 17.6072
# 2 18.9080 144.3197 25.9893 -9.5890 -1.4966 33.7111
# 3 -1.5956 25.9893 53.1761 -16.0828 3.4534 5.6554
# 4 1.3524 -9.5890 -16.0828 21.4456 4.6571 0.9557
# 5 -6.7716 -1.4966 3.4534 4.6571 12.6421 1.5033
# 6 17.6072 33.7111 5.6554 0.9557 1.5033 29.6768
#
#
#
# Elastic Compliance Matrix: (Units=1/GPa)
#
#
# Indices 1 2 3 4 5 6 
#
# 1 0.056754 0.000803 -0.000517 -0.010417 0.038768 -0.036114
# 2 0.000803 0.010359 -0.003460 0.001786 0.003348 -0.011812
# 3 -0.000517 -0.003460 0.029009 0.024057 -0.017331 -0.001188
# 4 -0.010417 0.001786 0.024057 0.074712 -0.039362 -0.000845
# 5 0.038768 0.003348 -0.017331 -0.039362 0.122882 -0.028459
# 6 -0.036114 -0.011812 -0.001188 -0.000845 -0.028459 0.070236
#
#
# Mechanical properties :
#
#
# Convention : Reuss Voigt Hill
#
# Bulk Modulus (GPa) = 11.13899 35.27940 23.20919
# Shear Modulus (GPa) = 12.49300 25.26020 18.87660
#
# Velocity S-wave (km/s) = 2.50874 3.56731 3.08379
# Velocity P-wave (km/s) = 3.74211 5.89413 4.93681
#
# Compressibility (1/GPa) = 0.08977477
#
# Stress axis : x y z
#
# Youngs Moduli (GPa) = 17.61982 96.53051 34.47235
#
# Poissons Ratio (x) = -0.07753 0.01782
# Poissons Ratio (y) = -0.01415 0.11928
# Poissons Ratio (z) = 0.00911 0.33400
#
# Static dielectric constant tensor:
#      x y z
#    x 1.735200 0.004970 0.001790 
#    y 0.004970 1.697570 -0.035690 
#    z 0.001790 -0.035690 1.716750 
# 
# From -- ./inp_files/248745.got.cif
#   From: 2010.05.17/outbox.cif.g08.bks.cpg/sg2_125_cif.got.tgz:248745.got - 2010.06.03 11:33:40.
