data_PCOD9072957
_publ_section_title
;
Structure prediction by ZEFSAII (Michael W. Deem and Ramdas Pophale) SiO2 
 PCOD9072957
Probable space group: P -1
;
_chemical_formula_sum "Si O2"
_cell_formula_units_Z 16
_cell_length_a 12.000000
_cell_length_b 12.000000
_cell_length_c 18.000000
_cell_angle_alpha 120.000000
_cell_angle_beta 160.000000
_cell_angle_gamma 60.000000
_cell_volume 763.756843
_symmetry_space_group_name_H-M "P -1"
_symmetry_group_IT_number 2
_symmetry_cell_setting 'triclinic'
loop_
_space_group_symop_operation_xyz
x,y,z
-x,-y,-z
loop_
_atom_site_type_symbol
_atom_site_label
_atom_site_fract_x
_atom_site_fract_y
_atom_site_fract_z
Si Si1 0.172145 0.304309 0.311373
Si Si2 0.070453 0.846978 0.024002
Si Si3 0.798073 0.465473 0.480132
Si Si4 0.126686 0.851871 0.313400
Si Si5 0.224254 0.302877 0.574229
Si Si6 0.789483 0.978282 0.288354
Si Si7 0.891310 0.129730 0.201203
Si Si8 0.649108 0.764431 0.875908
O O1 0.143115 0.447447 0.379688
O O2 0.535853 0.236498 0.503270
O O3 0.028708 0.209260 0.248278
O O4 0.999664 0.268903 0.115377
O O5 0.460114 0.805705 0.265901
O O6 0.843841 0.820783 0.945650
O O7 0.000000 0.000000 0.000000
O O8 0.707650 0.578560 0.399224
O O9 0.522267 0.366707 0.289472
O O10 0.095725 0.372144 0.594616
O O11 0.019240 0.910325 0.345789
O O12 0.089254 0.987341 0.288433
O O13 0.897357 0.756431 0.097649
O O14 0.942514 0.224072 0.334485
O O15 0.615339 0.123062 0.221571
O O16 0.477244 0.895362 0.059949
O O17 0.000000 0.000000 0.500000
#
# Coordination Sequence:
#
# PCOD9072957 Si02
#       8
#     2   2   2   2   2   2   2   2
#     4  11  24  39  60  93 129 165 211 267 320 382
#     4  12  25  42  66  98 132 166 214 277 338 375
#     4  10  23  43  64  92 127 174 224 257 315 388
#     4  11  21  38  63  90 123 166 216 264 315 379
#     4  10  22  43  69  92 126 171 219 270 312 391
#     4  11  23  39  62  96 130 160 204 274 337 377
#     4  10  20  39  64  90 120 166 220 262 318 380
#     4  11  23  41  65  92 128 174 219 264 317 392
#
# _framework density 20.949076000000002
#
# number of rings (size 3 to 8) (size 9 to 14) (size 15 to 20)
#    0.000    1.250    0.000    7.875    0.000    6.000 
#    0.000    3.750    0.000    0.000    0.000    0.000 
#    0.000    0.000    0.000    0.000    0.000    0.000 
#
# Total GULP energy -89132.399674 kJ/mol
# GULP energy per Si atom -5570.774980 kJ/mol
# Density = 2.090139 g / cm^3
# Si number density = 20.949076 Si / 1000 Ang^3
#
#
#
# Elastic Constant Matrix: (Units=GPa)
#
#
# Indices 1 2 3 4 5 6 
#
# 1 144.7900 38.7270 48.5719 18.7129 1.5610 -25.4750
# 2 38.7270 113.9491 38.7150 32.1516 14.9990 -15.3178
# 3 48.5719 38.7150 121.5626 24.1810 -1.9650 0.7638
# 4 18.7129 32.1516 24.1810 49.0048 -14.1608 -3.9206
# 5 1.5610 14.9990 -1.9650 -14.1608 26.2158 9.7560
# 6 -25.4750 -15.3178 0.7638 -3.9206 9.7560 38.8983
#
#
#
# Elastic Compliance Matrix: (Units=1/GPa)
#
#
# Indices 1 2 3 4 5 6 
#
# 1 0.009871 0.000866 -0.003629 -0.003747 -0.006395 0.008104
# 2 0.000866 0.020378 -0.003650 -0.018647 -0.027111 0.013584
# 3 -0.003629 -0.003650 0.011100 -0.000764 0.004691 -0.005286
# 4 -0.003747 -0.018647 -0.000764 0.045035 0.040932 -0.015509
# 5 -0.006395 -0.027111 0.004691 0.040932 0.088819 -0.033108
# 6 0.008104 0.013584 -0.005286 -0.015509 -0.033108 0.043209
#
#
# Mechanical properties :
#
#
# Convention : Reuss Voigt Hill
#
# Bulk Modulus (GPa) = 35.06018 70.25884 52.65951
# Shear Modulus (GPa) = 20.76885 39.77628 30.27257
#
# Velocity S-wave (km/s) = 3.15206 4.36215 3.80551
# Velocity P-wave (km/s) = 5.47901 7.67996 6.67089
#
# Compressibility (1/GPa) = 0.02852239
#
# Stress axis : x y z
#
# Youngs Moduli (GPa) = 101.30485 49.07334 90.09185
#
# Poissons Ratio (x) = -0.04252 0.32695
# Poissons Ratio (y) = -0.08777 0.32888
# Poissons Ratio (z) = 0.36765 0.17914
#
# Static dielectric constant tensor:
#      x y z
#    x 1.929780 0.209670 -0.658120 
#    y 0.209670 2.062050 -1.254550 
#    z -0.658120 -1.254550 6.303220 
# 
# From -- ./inp_files/569200.got.cif
#   From: 2010.05.17/outbox.ucp.g08.bks.cvg/sg2_285_cif.got.tgz:569200.got - 2010.06.11 11:32:03.
