data_PCOD9072639
_publ_section_title
;
Structure prediction by ZEFSAII (Michael W. Deem and Ramdas Pophale) SiO2 
 PCOD9072639
Probable space group: P -1
;
_chemical_formula_sum "Si O2"
_cell_formula_units_Z 14
_cell_length_a 15.000000
_cell_length_b 9.000000
_cell_length_c 12.000000
_cell_angle_alpha 60.000000
_cell_angle_beta 30.000000
_cell_angle_gamma 60.000000
_cell_volume 693.035739
_symmetry_space_group_name_H-M "P -1"
_symmetry_group_IT_number 2
_symmetry_cell_setting 'triclinic'
loop_
_space_group_symop_operation_xyz
x,y,z
-x,-y,-z
loop_
_atom_site_type_symbol
_atom_site_label
_atom_site_fract_x
_atom_site_fract_y
_atom_site_fract_z
Si Si1 0.872629 0.362810 0.066034
Si Si2 0.000009 0.331533 0.716900
Si Si3 0.615308 0.982426 0.233770
Si Si4 0.776334 0.995591 0.293299
Si Si5 0.637793 0.516458 0.694734
Si Si6 0.292401 0.737168 0.107100
Si Si7 0.285336 0.401153 0.668114
O O1 0.831316 0.172473 0.206849
O O2 0.731704 0.475466 0.255253
O O3 0.862582 0.423143 0.925471
O O4 0.078308 0.376381 0.873178
O O5 0.181066 0.415888 0.480234
O O6 0.893741 0.303785 0.730399
O O7 0.070375 0.153441 0.774022
O O8 0.406147 0.059952 0.440716
O O9 0.615147 0.780434 0.326804
O O10 0.726518 0.024154 0.206450
O O11 0.696621 0.063280 0.008867
O O12 0.667769 0.323359 0.787175
O O13 0.638767 0.536586 0.552865
O O14 0.455509 0.623724 0.902757
#
# Coordination Sequence:
#
# PCOD9072639 Si02
#       7
#     2   2   2   2   2   2   2
#     4  10  20  33  56  84 115 145 182 234 285 329
#     4  11  19  35  58  87 110 144 190 237 273 333
#     4  11  19  34  57  84 113 145 185 237 279 321
#     4  11  19  33  57  86 113 139 190 241 274 322
#     4  10  21  38  53  84 118 145 188 231 275 341
#     4  11  21  34  60  82 113 151 184 234 283 319
#     4  10  21  37  55  82 117 147 182 230 285 335
#
# _framework density 20.200977999999999
#
# number of rings (size 3 to 8) (size 9 to 14) (size 15 to 20)
#    0.000    1.429    5.714    2.571    0.000    0.571 
#    0.000    0.000    0.000   16.286    0.000    0.000 
#    0.000    0.000    0.000    0.000    0.000    0.000 
#
# Total GULP energy -77965.111455 kJ/mol
# GULP energy per Si atom -5568.936533 kJ/mol
# Density = 2.015500 g / cm^3
# Si number density = 20.200978 Si / 1000 Ang^3
#
#
#
# Elastic Constant Matrix: (Units=GPa)
#
#
# Indices 1 2 3 4 5 6 
#
# 1 30.5096 30.1153 7.6897 3.4125 6.7080 -19.6367
# 2 30.1153 47.1987 14.5193 -1.9799 24.5290 -13.3182
# 3 7.6897 14.5193 48.9662 1.9479 -10.5939 -9.4677
# 4 3.4125 -1.9799 1.9479 23.1519 -7.2867 6.0326
# 5 6.7080 24.5290 -10.5939 -7.2867 20.5889 -4.5597
# 6 -19.6367 -13.3182 -9.4677 6.0326 -4.5597 22.0255
#
#
#
# Elastic Compliance Matrix: (Units=1/GPa)
#
#
# Indices 1 2 3 4 5 6 
#
# 1 0.016106 0.080311 -0.049119 -0.040343 -0.134962 0.024917
# 2 0.080311 -0.058744 0.034419 -0.015458 0.071545 0.069920
# 3 -0.049119 0.034419 0.007004 0.009122 -0.024259 -0.027490
# 4 -0.040343 -0.015458 0.009122 0.076889 0.052020 -0.051684
# 5 -0.134962 0.071545 -0.024259 0.052020 -0.009745 -0.103756
# 6 0.024917 0.069920 -0.027490 -0.051684 -0.103756 0.090755
#
#
# Mechanical properties :
#
#
# Convention : Reuss Voigt Hill
#
# Bulk Modulus (GPa) = 10.46153 25.70257 18.08205
# Shear Modulus (GPa) = 218.28964 18.10994 118.19979
#
# Velocity S-wave (km/s) = 10.40642 2.99739 7.65761
# Velocity P-wave (km/s) = 12.23035 4.97294 9.33572
#
# Compressibility (1/GPa) = 0.09558832
#
# Stress axis : x y z
#
# Youngs Moduli (GPa) = 62.08684 -17.02287 142.78346
#
# Poissons Ratio (x) = 1.36713 7.01343
# Poissons Ratio (y) = -4.98627 -4.91453
# Poissons Ratio (z) = 3.04967 0.58592
#
# Static dielectric constant tensor:
#      x y z
#    x 1.705620 0.048070 0.013210 
#    y 0.048070 2.024820 0.089530 
#    z 0.013210 0.089530 1.810050 
# 
# From -- ./inp_files/239937.got.cif
#   From: 2010.05.17/outbox.ucp.g08.bks.cvg/sg2_120_cif.got.tgz:239937.got - 2010.06.11 11:32:03.
