data_PCOD9072451
_publ_section_title
;
Structure prediction by ZEFSAII (Michael W. Deem and Ramdas Pophale) SiO2 
 PCOD9072451
Probable space group: P -1
;
_chemical_formula_sum "Si O2"
_cell_formula_units_Z 16
_cell_length_a 15.000000
_cell_length_b 18.000000
_cell_length_c 24.000000
_cell_angle_alpha 160.000000
_cell_angle_beta 160.000000
_cell_angle_gamma 30.000000
_cell_volume 749.971719
_symmetry_space_group_name_H-M "P -1"
_symmetry_group_IT_number 2
_symmetry_cell_setting 'triclinic'
loop_
_space_group_symop_operation_xyz
x,y,z
-x,-y,-z
loop_
_atom_site_type_symbol
_atom_site_label
_atom_site_fract_x
_atom_site_fract_y
_atom_site_fract_z
Si Si1 0.511489 0.160165 0.030676
Si Si2 0.826026 0.367656 0.648874
Si Si3 0.073174 0.583272 0.466670
Si Si4 0.761830 0.406249 0.254296
Si Si5 0.716622 0.969318 0.523769
Si Si6 0.071596 0.735492 0.238444
Si Si7 0.412198 0.696364 0.647097
Si Si8 0.326183 0.691442 0.168952
O O1 0.207776 0.180806 0.866917
O O2 0.538792 0.927179 0.909271
O O3 0.675397 0.346646 0.296496
O O4 0.622799 0.198287 0.060022
O O5 0.831976 0.274145 0.648364
O O6 0.643479 0.556945 0.676353
O O7 0.713105 0.232565 0.433970
O O8 0.116206 0.483457 0.886117
O O9 0.191716 0.555843 0.456440
O O10 0.879849 0.396569 0.254586
O O11 0.916336 0.791876 0.516521
O O12 0.567261 0.589321 0.266177
O O13 0.000000 0.500000 0.500000
O O14 0.730428 0.102483 0.568835
O O15 0.782266 0.148706 0.737747
O O16 0.436512 0.834898 0.282173
O O17 0.000000 0.500000 0.000000
#
# Coordination Sequence:
#
# PCOD9072451 Si02
#       8
#     2   2   2   2   2   2   2   2
#     4  11  20  35  62  88 116 149 196 244 290 344
#     4  11  24  41  58  82 124 156 196 242 298 343
#     4  10  20  36  60  88 117 149 200 239 291 351
#     4   9  19  35  56  89 118 148 187 245 299 337
#     4  10  20  34  59  90 114 149 193 239 296 345
#     4  12  21  35  60  90 115 145 193 248 291 338
#     4  11  24  40  58  84 117 165 196 239 290 354
#     4  10  19  37  57  84 122 151 187 243 297 346
#
# _framework density 21.334137999999999
#
# number of rings (size 3 to 8) (size 9 to 14) (size 15 to 20)
#    0.000    1.500    3.750    1.875    0.000    2.500 
#    0.000    3.750    0.000    3.000    0.000    0.000 
#    0.000    0.000    0.000    0.000    0.000    0.000 
#
# Total GULP energy -89197.626341 kJ/mol
# GULP energy per Si atom -5574.851646 kJ/mol
# Density = 2.128558 g / cm^3
# Si number density = 21.334138 Si / 1000 Ang^3
#
#
#
# Elastic Constant Matrix: (Units=GPa)
#
#
# Indices 1 2 3 4 5 6 
#
# 1 108.2909 13.1299 40.3628 0.2079 21.8531 38.4703
# 2 13.1299 48.1350 11.0629 -4.3345 -0.7241 -3.4753
# 3 40.3628 11.0629 37.8829 7.7965 19.7085 5.9807
# 4 0.2079 -4.3345 7.7965 14.2588 10.3676 5.7555
# 5 21.8531 -0.7241 19.7085 10.3676 25.2035 8.7454
# 6 38.4703 -3.4753 5.9807 5.7555 8.7454 34.3357
#
#
#
# Elastic Compliance Matrix: (Units=1/GPa)
#
#
# Indices 1 2 3 4 5 6 
#
# 1 0.046656 -0.000639 -0.049242 0.050201 -0.004949 -0.050916
# 2 -0.000639 0.024719 -0.011926 0.008564 0.006283 0.002259
# 3 -0.049242 -0.011926 0.102958 -0.056563 -0.033657 0.054085
# 4 0.050201 0.008564 -0.056563 0.159080 -0.043262 -0.061174
# 5 -0.004949 0.006283 -0.033657 -0.043262 0.089476 -0.003495
# 6 -0.050916 0.002259 0.054085 -0.061174 -0.003495 0.088124
#
#
# Mechanical properties :
#
#
# Convention : Reuss Voigt Hill
#
# Bulk Modulus (GPa) = 19.71668 35.93556 27.82612
# Shear Modulus (GPa) = 7.67420 23.40980 15.54200
#
# Velocity S-wave (km/s) = 1.89867 3.31614 2.70201
# Velocity P-wave (km/s) = 3.75080 5.61632 4.77554
#
# Compressibility (1/GPa) = 0.05071849
#
# Stress axis : x y z
#
# Youngs Moduli (GPa) = 21.43348 40.45478 9.71270
#
# Poissons Ratio (x) = 0.02585 0.47828
# Poissons Ratio (y) = 0.01370 0.11583
# Poissons Ratio (z) = 1.05544 0.48245
#
# Static dielectric constant tensor:
#      x y z
#    x 1.638850 0.046170 0.280800 
#    y 0.046170 1.732560 -0.060310 
#    z 0.280800 -0.060310 1.421630 
# 
# From -- ./inp_files/205073.got.cif
#   From: 2010.05.17/outbox.ucp.g08.bks.cvg/sg2_103_cif.got.tgz:205073.got - 2010.06.11 11:32:03.
