data_PCOD9072133
_publ_section_title
;
Structure prediction by ZEFSAII (Michael W. Deem and Ramdas Pophale) SiO2 
 PCOD9072133
Probable space group: P -1
;
_chemical_formula_sum "Si O2"
_cell_formula_units_Z 16
_cell_length_a 12.000000
_cell_length_b 18.000000
_cell_length_c 15.000000
_cell_angle_alpha 150.000000
_cell_angle_beta 30.000000
_cell_angle_gamma 130.000000
_cell_volume 731.734496
_symmetry_space_group_name_H-M "P -1"
_symmetry_group_IT_number 2
_symmetry_cell_setting 'triclinic'
loop_
_space_group_symop_operation_xyz
x,y,z
-x,-y,-z
loop_
_atom_site_type_symbol
_atom_site_label
_atom_site_fract_x
_atom_site_fract_y
_atom_site_fract_z
Si Si1 0.610923 0.392557 0.520765
Si Si2 0.720510 0.025618 0.743939
Si Si3 0.802015 0.231159 0.036180
Si Si4 0.340762 0.901687 0.612365
Si Si5 0.588814 0.730293 0.935205
Si Si6 0.968462 0.250007 0.282025
Si Si7 0.150248 0.326540 0.764898
Si Si8 0.263636 0.991685 0.558283
O O1 0.662825 0.350915 0.337385
O O2 0.524125 0.585023 0.796938
O O3 0.864249 0.305917 0.312911
O O4 0.400250 0.335143 0.635866
O O5 0.752501 0.839497 0.535923
O O6 0.642568 0.161128 0.016540
O O7 0.529435 0.118231 0.894010
O O8 0.000000 0.000000 0.500000
O O9 0.958151 0.302720 0.941934
O O10 0.001916 0.064790 0.770493
O O11 0.277048 0.747994 0.502599
O O12 0.258583 0.975532 0.648928
O O13 0.614268 0.883056 0.417020
O O14 0.168093 0.058398 0.954728
O O15 0.879959 0.664152 0.685708
O O16 0.446068 0.813208 0.210425
O O17 0.000000 0.500000 0.000000
#
# Coordination Sequence:
#
# PCOD9072133 Si02
#       8
#     2   2   2   2   2   2   2   2
#     4  12  25  43  66 100 133 171 213 275 322 376
#     4  10  21  41  67  91 124 174 216 263 319 385
#     4  11  23  43  69  93 130 171 222 258 326 387
#     4   9  19  34  63  93 123 167 221 261 319 384
#     4  11  23  40  65  90 136 170 213 267 323 382
#     4  10  21  38  62  95 131 164 215 269 323 376
#     4  11  25  43  68  96 132 168 215 273 324 380
#     4  10  18  37  64  92 123 174 214 261 316 395
#
# _framework density 21.865853999999999
#
# number of rings (size 3 to 8) (size 9 to 14) (size 15 to 20)
#    0.000    1.500    3.750    2.625    3.500    2.500 
#    2.250    0.625    0.000    0.000    0.000    0.000 
#    0.000    0.000    0.000    0.000    0.000    0.000 
#
# Total GULP energy -89146.534423 kJ/mol
# GULP energy per Si atom -5571.658401 kJ/mol
# Density = 2.181609 g / cm^3
# Si number density = 21.865854 Si / 1000 Ang^3
#
#
#
# Elastic Constant Matrix: (Units=GPa)
#
#
# Indices 1 2 3 4 5 6 
#
# 1 104.8304 43.2083 21.1833 1.4823 -9.9109 25.7408
# 2 43.2083 90.0696 36.2859 14.7214 31.0743 18.8361
# 3 21.1833 36.2859 49.3618 10.2063 6.1629 7.9304
# 4 1.4823 14.7214 10.2063 27.7919 -2.0952 4.0193
# 5 -9.9109 31.0743 6.1629 -2.0952 28.2818 7.6109
# 6 25.7408 18.8361 7.9304 4.0193 7.6109 26.2082
#
#
#
# Elastic Compliance Matrix: (Units=1/GPa)
#
#
# Indices 1 2 3 4 5 6 
#
# 1 0.048522 -0.053607 0.006893 0.036087 0.088499 -0.042449
# 2 -0.053607 0.090258 -0.023099 -0.051822 -0.127454 0.039732
# 3 0.006893 -0.023099 0.031940 0.002867 0.022911 -0.006927
# 4 0.036087 -0.051822 0.002867 0.071713 0.083508 -0.034315
# 5 0.088499 -0.127454 0.022911 0.083508 0.229599 -0.081734
# 6 -0.042449 0.039732 -0.006927 -0.034315 -0.081734 0.082386
#
#
# Mechanical properties :
#
#
# Convention : Reuss Voigt Hill
#
# Bulk Modulus (GPa) = 32.16160 49.51299 40.83730
# Shear Modulus (GPa) = 7.09816 26.02867 16.56342
#
# Velocity S-wave (km/s) = 1.80368 3.45393 2.75526
# Velocity P-wave (km/s) = 4.36786 6.21284 5.37017
#
# Compressibility (1/GPa) = 0.03109298
#
# Stress axis : x y z
#
# Youngs Moduli (GPa) = 20.60938 11.07938 31.30884
#
# Poissons Ratio (x) = 0.59394 -0.21581
# Poissons Ratio (y) = 1.10481 0.72319
# Poissons Ratio (z) = -0.14206 0.25592
#
# Static dielectric constant tensor:
#      x y z
#    x 1.869170 0.018830 0.024190 
#    y 0.018830 1.868590 -0.022060 
#    z 0.024190 -0.022060 1.837220 
# 
# From -- ./inp_files/274419.got.cif
#   From: 2010.05.17/outbox.ucp.g08.bks.cvg/sg2_138_cif.got.tgz:274419.got - 2010.06.11 11:32:03.
