data_PCOD9072965
_publ_section_title
;
Structure prediction by ZEFSAII (Michael W. Deem and Ramdas Pophale) SiO2 
 PCOD9072965
Probable space group: P -1
;
_chemical_formula_sum "Si O2"
_cell_formula_units_Z 11
_cell_length_a 16.426639
_cell_length_b 5.526473
_cell_length_c 7.305812
_cell_angle_alpha 59.474818
_cell_angle_beta 49.517162
_cell_angle_gamma 46.161544
_cell_volume 361.803915
_symmetry_space_group_name_H-M "P -1"
_symmetry_group_IT_number 2
_symmetry_cell_setting 'triclinic'
loop_
_space_group_symop_operation_xyz
x,y,z
-x,-y,-z
loop_
_atom_site_type_symbol
_atom_site_label
_atom_site_fract_x
_atom_site_fract_y
_atom_site_fract_z
Si Si1 0.890913 0.389617 0.045554
Si Si2 0.500000 0.000000 0.000000
Si Si3 0.711901 0.228957 0.495623
Si Si4 0.927284 0.455174 0.395899
Si Si5 0.749065 0.311815 0.836655
Si Si6 0.542397 0.220396 0.253972
O O1 0.756404 0.418812 0.224671
O O2 0.908120 0.434957 0.216190
O O3 0.934582 0.589174 0.779332
O O4 0.000000 0.000000 0.000000
O O5 0.349012 0.308452 0.099206
O O6 0.517328 0.171064 0.101010
O O7 0.891178 0.242736 0.660180
O O8 0.731548 0.290939 0.652967
O O9 0.557232 0.401502 0.651734
O O10 0.813398 0.842133 0.454290
O O11 0.687223 0.128067 0.095950
O O12 0.500000 0.000000 0.500000
#
# Coordination Sequence:
#
# PCOD9072965 Si02
#       6
#     2   1   2   2   2   2
#     4   8  15  26  46  79 107 136 181 226 276 334
#     4  10  20  38  56  76 110 146 184 234 278 320
#     4   9  17  31  51  76 109 145 184 227 272 330
#     4   9  15  27  50  78 107 140 181 230 278 325
#     4  10  18  31  52  76 106 142 183 229 276 326
#     4  11  23  36  54  82 113 149 190 226 272 331
#
# _framework density 30.403209
#
# number of rings (size 3 to 8) (size 9 to 14) (size 15 to 20)
#    0.000    2.545    0.000    4.364    0.000    0.727 
#    0.000    0.000    0.000    1.091    0.000   52.182 
#    0.000   39.273    0.000    0.545    0.000    0.000 
#
# Total GULP energy -61399.008533 kJ/mol
# GULP energy per Si atom -5581.728048 kJ/mol
# Density = 3.033401 g / cm^3
# Si number density = 30.403209 Si / 1000 Ang^3
#
#
#
# Elastic Constant Matrix: (Units=GPa)
#
#
# Indices 1 2 3 4 5 6 
#
# 1 130.0549 25.2991 63.6151 19.6158 -1.8762 11.4211
# 2 25.2991 168.9706 57.7155 51.7555 28.1409 23.6082
# 3 63.6151 57.7155 314.5195 -8.0312 -82.7960 -20.7617
# 4 19.6158 51.7555 -8.0312 71.5175 1.5636 4.5141
# 5 -1.8762 28.1409 -82.7960 1.5636 61.9691 11.7617
# 6 11.4211 23.6082 -20.7617 4.5141 11.7617 43.2417
#
#
#
# Elastic Compliance Matrix: (Units=1/GPa)
#
#
# Indices 1 2 3 4 5 6 
#
# 1 0.010786 0.004049 -0.005423 -0.006017 -0.007667 -0.004950
# 2 0.004049 0.017286 -0.009910 -0.013771 -0.018975 -0.008666
# 3 -0.005423 -0.009910 0.011589 0.009151 0.018363 0.006457
# 4 -0.006017 -0.013771 0.009151 0.025867 0.016445 0.006328
# 5 -0.007667 -0.018975 0.018363 0.016445 0.047390 0.006595
# 6 -0.004950 -0.008666 0.006457 0.006328 0.006595 0.029810
#
#
# Mechanical properties :
#
#
# Convention : Reuss Voigt Hill
#
# Bulk Modulus (GPa) = 58.50520 100.75605 79.63063
# Shear Modulus (GPa) = 29.24086 66.47334 47.85710
#
# Velocity S-wave (km/s) = 3.10460 4.68096 3.97177
# Velocity P-wave (km/s) = 5.66889 7.90108 6.87617
#
# Compressibility (1/GPa) = 0.01709250
#
# Stress axis : x y z
#
# Youngs Moduli (GPa) = 92.71467 57.85069 86.29033
#
# Poissons Ratio (x) = -0.23424 0.46797
# Poissons Ratio (y) = -0.37541 0.85512
# Poissons Ratio (z) = 0.50281 0.57329
#
# Static dielectric constant tensor:
#      x y z
#    x 2.824760 -0.674610 0.565140 
#    y -0.674610 2.887520 -0.522270 
#    z 0.565140 -0.522270 2.715270 
# 
# From -- ./inp_files/338965.got.cif
#   From: 2010.05.17/outbox.cif.g08.bks.cpg/sg2_170_cif.got.tgz:338965.got - 2010.06.03 11:33:40.
