data_PCOD9072337
_publ_section_title
;
Structure prediction by ZEFSAII (Michael W. Deem and Ramdas Pophale) SiO2 
 PCOD9072337
Probable space group: P -1
;
_chemical_formula_sum "Si O2"
_cell_formula_units_Z 16
_cell_length_a 9.000000
_cell_length_b 15.000000
_cell_length_c 27.000000
_cell_angle_alpha 30.000000
_cell_angle_beta 150.000000
_cell_angle_gamma 130.000000
_cell_volume 823.201308
_symmetry_space_group_name_H-M "P -1"
_symmetry_group_IT_number 2
_symmetry_cell_setting 'triclinic'
loop_
_space_group_symop_operation_xyz
x,y,z
-x,-y,-z
loop_
_atom_site_type_symbol
_atom_site_label
_atom_site_fract_x
_atom_site_fract_y
_atom_site_fract_z
Si Si1 0.125754 0.657812 0.127940
Si Si2 0.190212 0.015597 0.207925
Si Si3 0.609758 0.482118 0.277463
Si Si4 0.558553 0.328669 0.059620
Si Si5 0.733116 0.837237 0.184143
Si Si6 0.388980 0.857674 0.174937
Si Si7 0.242604 0.094704 0.644686
Si Si8 0.843035 0.346568 0.026260
O O1 0.322228 0.485031 0.229413
O O2 0.362229 0.667488 0.234938
O O3 0.003874 0.845979 0.962960
O O4 0.806052 0.657728 0.059860
O O5 0.096917 0.153706 0.162889
O O6 0.558412 0.926334 0.338209
O O7 0.075180 0.847176 0.268734
O O8 0.738075 0.629319 0.270517
O O9 0.888063 0.267719 0.455988
O O10 0.463643 0.571967 0.139188
O O11 0.726121 0.330483 0.055226
O O12 0.756499 0.114794 0.243621
O O13 0.500000 0.500000 0.000000
O O14 0.584273 0.905166 0.163540
O O15 0.500000 0.000000 0.000000
O O16 0.567834 0.855192 0.278922
O O17 0.000000 0.000000 0.000000
O O18 0.000000 0.500000 0.000000
#
# Coordination Sequence:
#
# PCOD9072337 Si02
#       8
#     2   2   2   2   2   2   2   2
#     4   9  19  35  57  85 121 158 199 237 285 360
#     4  10  19  35  56  86 121 160 197 238 285 363
#     4  10  23  39  59  90 126 154 193 257 297 338
#     4  11  22  40  66  89 110 158 208 241 290 369
#     4  11  18  33  59  88 124 161 202 236 289 360
#     4  11  18  32  58  86 118 164 199 234 287 359
#     4  11  23  38  59  91 126 153 197 254 298 336
#     4  11  22  41  66  87 111 160 206 238 296 366
#
# _framework density 19.436315
#
# number of rings (size 3 to 8) (size 9 to 14) (size 15 to 20)
#    0.000    1.500    6.250    3.000    0.000    3.500 
#    0.000    7.500    0.000    0.000    0.000    0.000 
#    0.000    0.000    0.000    0.000    0.000    0.000 
#
# Total GULP energy -89138.682215 kJ/mol
# GULP energy per Si atom -5571.167638 kJ/mol
# Density = 1.939208 g / cm^3
# Si number density = 19.436315 Si / 1000 Ang^3
#
#
#
# Elastic Constant Matrix: (Units=GPa)
#
#
# Indices 1 2 3 4 5 6 
#
# 1 177.0017 34.4670 28.3182 -13.2174 20.6147 5.4427
# 2 34.4670 70.7774 -1.2092 -17.0763 -1.5305 -4.0042
# 3 28.3182 -1.2092 58.1018 -21.0579 31.4177 -1.8419
# 4 -13.2174 -17.0763 -21.0579 14.8315 -7.1044 0.7155
# 5 20.6147 -1.5305 31.4177 -7.1044 15.9740 0.5864
# 6 5.4427 -4.0042 -1.8419 0.7155 0.5864 38.3178
#
#
#
# Elastic Compliance Matrix: (Units=1/GPa)
#
#
# Indices 1 2 3 4 5 6 
#
# 1 0.007517 -0.006540 -0.005929 -0.010792 -0.003399 -0.001783
# 2 -0.006540 0.024312 -0.015728 0.025050 0.052790 0.001438
# 3 -0.005929 -0.015728 -0.094713 -0.082958 0.155757 -0.006189
# 4 -0.010792 0.025050 -0.082958 0.070052 0.210805 -0.004371
# 5 -0.003399 0.052790 0.155757 0.210805 -0.140973 0.011708
# 6 -0.001783 0.001438 -0.006189 -0.004371 0.011708 0.026106
#
#
# Mechanical properties :
#
#
# Convention : Reuss Voigt Hill
#
# Bulk Modulus (GPa) = -8.38377 47.67034 19.64329
# Shear Modulus (GPa) = -54.90596 30.11166 -12.39715
#
# Velocity S-wave (km/s) = -5.32076 3.94032 -2.52828
# Velocity P-wave (km/s) = 6.48615 6.72913 1.26709
#
# Compressibility (1/GPa) = -0.11927809
#
# Stress axis : x y z
#
# Youngs Moduli (GPa) = 133.03921 41.13274 -10.55827
#
# Poissons Ratio (x) = 0.26900 -0.06260
# Poissons Ratio (y) = 0.87004 -0.16606
# Poissons Ratio (z) = 0.78884 0.64692
#
# Static dielectric constant tensor:
#      x y z
#    x 1.695880 0.012640 0.024570 
#    y 0.012640 1.745490 0.003480 
#    z 0.024570 0.003480 1.696570 
# 
# From -- ./inp_files/273734.got.cif
#   From: 2010.05.17/outbox.ucp.g08.bks.cvg/sg2_137_cif.got.tgz:273734.got - 2010.06.11 11:32:03.
