data_PCOD9072930
_publ_section_title
;
Structure prediction by ZEFSAII (Michael W. Deem and Ramdas Pophale) SiO2 
 PCOD9072930
Probable space group: P -1
;
_chemical_formula_sum "Si O2"
_cell_formula_units_Z 14
_cell_length_a 7.260969
_cell_length_b 8.942462
_cell_length_c 22.211909
_cell_angle_alpha 25.138880
_cell_angle_beta 111.206137
_cell_angle_gamma 113.500374
_cell_volume 561.865013
_symmetry_space_group_name_H-M "P -1"
_symmetry_group_IT_number 2
_symmetry_cell_setting 'triclinic'
loop_
_space_group_symop_operation_xyz
x,y,z
-x,-y,-z
loop_
_atom_site_type_symbol
_atom_site_label
_atom_site_fract_x
_atom_site_fract_y
_atom_site_fract_z
Si Si1 0.608805 0.637779 0.400027
Si Si2 0.540716 0.711433 0.841826
Si Si3 0.709114 0.463987 0.841455
Si Si4 0.117061 0.843746 0.443865
Si Si5 0.076265 0.677601 0.304198
Si Si6 0.680189 0.556348 0.676485
Si Si7 0.805802 0.201061 0.068560
O O1 0.500000 0.500000 0.500000
O O2 0.796818 0.449623 0.477538
O O3 0.468988 0.511659 0.371645
O O4 0.635191 0.071017 0.244623
O O5 0.543406 0.616855 0.805770
O O6 0.608247 0.361066 0.007821
O O7 0.739712 0.012651 0.768022
O O8 0.629183 0.338489 0.812207
O O9 0.884841 0.807076 0.724299
O O10 0.785703 0.202375 0.992815
O O11 0.936023 0.659718 0.530608
O O12 0.274792 0.039018 0.441867
O O13 0.119499 0.556348 0.286538
O O14 0.871020 0.834370 0.229163
O O15 0.000000 0.500000 0.000000
#
# Coordination Sequence:
#
# PCOD9072930 Si02
#       7
#     2   2   2   2   2   2   2
#     4  11  17  33  52  72  91 133 165 193 238 296
#     4   8  17  32  49  71  94 129 162 193 230 285
#     4   8  17  32  48  72  99 128 158 200 232 284
#     4  10  20  31  48  78  99 122 160 205 243 274
#     4  10  18  31  52  72 101 127 156 202 244 278
#     4   9  20  32  47  73 101 126 159 199 239 290
#     4   8  15  32  49  72  97 129 162 193 232 286
#
# _framework density 24.917017000000001
#
# number of rings (size 3 to 8) (size 9 to 14) (size 15 to 20)
#    1.714    1.143    1.429    0.857    0.000    1.143 
#    0.000    0.714    0.000    0.857    0.000    0.000 
#    0.000    0.000    0.000    0.000    0.000    0.000 
#
# Total GULP energy -77951.914999 kJ/mol
# GULP energy per Si atom -5567.993929 kJ/mol
# Density = 2.486031 g / cm^3
# Si number density = 24.917017 Si / 1000 Ang^3
#
#
#
# Elastic Constant Matrix: (Units=GPa)
#
#
# Indices 1 2 3 4 5 6 
#
# 1 74.2362 29.5529 24.3823 -9.7833 20.8685 -5.7757
# 2 29.5529 151.1304 22.6233 19.2433 5.9825 -23.8776
# 3 24.3823 22.6233 82.8885 1.6594 -1.5619 0.3712
# 4 -9.7833 19.2433 1.6594 36.8847 -9.5375 4.5484
# 5 20.8685 5.9825 -1.5619 -9.5375 31.8194 0.7920
# 6 -5.7757 -23.8776 0.3712 4.5484 0.7920 27.9394
#
#
#
# Elastic Compliance Matrix: (Units=1/GPa)
#
#
# Indices 1 2 3 4 5 6 
#
# 1 0.020473 -0.002974 -0.005522 0.003950 -0.011992 0.001461
# 2 -0.002974 0.010029 -0.001797 -0.007756 -0.002580 0.009316
# 3 -0.005522 -0.001797 0.014276 0.000472 0.004879 -0.003083
# 4 0.003950 -0.007756 0.000472 0.036266 0.010060 -0.012008
# 5 -0.011992 -0.002580 0.004879 0.010060 0.043221 -0.007612
# 6 0.001461 0.009316 -0.003083 -0.012008 -0.007612 0.046267
#
#
# Mechanical properties :
#
#
# Convention : Reuss Voigt Hill
#
# Bulk Modulus (GPa) = 41.33893 51.26356 46.30124
# Shear Modulus (GPa) = 25.10243 34.77517 29.93880
#
# Velocity S-wave (km/s) = 3.17747 3.73988 3.47008
# Velocity P-wave (km/s) = 5.48529 6.26636 5.88879
#
# Compressibility (1/GPa) = 0.02419028
#
# Stress axis : x y z
#
# Youngs Moduli (GPa) = 48.84382 99.71065 70.04926
#
# Poissons Ratio (x) = 0.29657 0.38683
# Poissons Ratio (y) = 0.14528 0.12591
# Poissons Ratio (z) = 0.26973 0.17922
#
# Static dielectric constant tensor:
#      x y z
#    x 2.062020 0.029420 0.045500 
#    y 0.029420 1.979800 0.010990 
#    z 0.045500 0.010990 2.015000 
# 
# From -- ./inp_files/605958.got.cif
#   From: 2010.05.17/outbox.cif.g08.bks.cpg/sg2_303_cif.got.tgz:605958.got - 2010.06.03 11:33:40.
