data_PCOD9072896
_publ_section_title
;
Structure prediction by ZEFSAII (Michael W. Deem and Ramdas Pophale) SiO2 
 PCOD9072896
Probable space group: P -1
;
_chemical_formula_sum "Si O2"
_cell_formula_units_Z 16
_cell_length_a 17.180364
_cell_length_b 14.280385
_cell_length_c 13.630299
_cell_angle_alpha 128.516489
_cell_angle_beta 137.974772
_cell_angle_gamma 22.822247
_cell_volume 843.264037
_symmetry_space_group_name_H-M "P -1"
_symmetry_group_IT_number 2
_symmetry_cell_setting 'triclinic'
loop_
_space_group_symop_operation_xyz
x,y,z
-x,-y,-z
loop_
_atom_site_type_symbol
_atom_site_label
_atom_site_fract_x
_atom_site_fract_y
_atom_site_fract_z
Si Si1 0.400854 0.933433 0.410974
Si Si2 0.886707 0.607069 0.656327
Si Si3 0.699318 0.074886 0.371848
Si Si4 0.612073 0.916642 0.295664
Si Si5 0.671716 0.230814 0.650799
Si Si6 0.891288 0.227707 0.571525
Si Si7 0.083841 0.347266 0.072736
Si Si8 0.209355 0.626513 0.203189
O O1 0.684747 0.690669 0.491666
O O2 0.310377 0.883121 0.320749
O O3 0.240459 0.150547 0.325565
O O4 0.385310 0.025727 0.556979
O O5 0.940719 0.551724 0.786103
O O6 0.133619 0.374378 0.676347
O O7 0.760436 0.090320 0.539898
O O8 0.489641 0.337558 0.292712
O O9 0.593255 0.044582 0.286561
O O10 0.930076 0.848993 0.372272
O O11 0.369700 0.060312 0.146777
O O12 0.384120 0.509185 0.548317
O O13 0.794399 0.250019 0.784935
O O14 0.889784 0.252506 0.702094
O O15 0.000000 0.000000 0.500000
O O16 0.000000 0.500000 0.000000
O O17 0.932019 0.363593 0.955136
#
# Coordination Sequence:
#
# PCOD9072896 Si02
#       8
#     2   2   2   2   2   2   2   2
#     4   9  20  38  61  84 107 136 188 238 276 314
#     4  10  21  39  59  82 109 146 184 229 274 320
#     4  10  18  31  51  80 107 140 174 223 274 320
#     4  10  20  35  60  82 109 141 188 227 272 321
#     4  10  19  33  52  80 109 138 175 232 275 315
#     4  11  18  30  52  81 108 139 182 220 274 327
#     4  11  24  38  51  80 119 152 181 215 272 338
#     4  11  21  34  49  74 118 145 171 221 270 322
#
# _framework density 18.973890999999998
#
# number of rings (size 3 to 8) (size 9 to 14) (size 15 to 20)
#    0.000    1.750    3.750    1.875    3.500    1.500 
#    0.000    0.625    0.000    0.750    0.000    0.000 
#    0.000    0.000    0.000    0.000    0.000    0.000 
#
# Total GULP energy -89268.198228 kJ/mol
# GULP energy per Si atom -5579.262389 kJ/mol
# Density = 1.893071 g / cm^3
# Si number density = 18.973891 Si / 1000 Ang^3
#
#
#
# Elastic Constant Matrix: (Units=GPa)
#
#
# Indices 1 2 3 4 5 6 
#
# 1 102.6794 17.7289 21.1688 -5.8108 19.4635 12.6096
# 2 17.7289 65.7173 13.0852 -9.0012 3.7168 -11.1439
# 3 21.1688 13.0852 41.1481 -4.1580 14.5252 4.1207
# 4 -5.8108 -9.0012 -4.1580 15.5426 3.2383 10.4502
# 5 19.4635 3.7168 14.5252 3.2383 31.7146 0.6655
# 6 12.6096 -11.1439 4.1207 10.4502 0.6655 42.6554
#
#
#
# Elastic Compliance Matrix: (Units=1/GPa)
#
#
# Indices 1 2 3 4 5 6 
#
# 1 0.013373 -0.002708 -0.001641 0.009084 -0.007927 -0.006604
# 2 -0.002708 0.018329 -0.004839 0.004801 0.001138 0.004862
# 3 -0.001641 -0.004839 0.034225 0.013798 -0.015358 -0.007226
# 4 0.009084 0.004801 0.013798 0.096215 -0.021736 -0.025997
# 5 -0.007927 0.001138 -0.015358 -0.021736 0.045332 0.008742
# 6 -0.006604 0.004862 -0.007226 -0.025997 0.008742 0.033597
#
#
# Mechanical properties :
#
#
# Convention : Reuss Voigt Hill
#
# Bulk Modulus (GPa) = 21.03042 34.83452 27.93247
# Shear Modulus (GPa) = 18.16225 28.48663 23.32444
#
# Velocity S-wave (km/s) = 3.09726 3.87894 3.50993
# Velocity P-wave (km/s) = 4.88862 6.20166 5.58387
#
# Compressibility (1/GPa) = 0.04755017
#
# Stress axis : x y z
#
# Youngs Moduli (GPa) = 74.77955 54.55966 29.21869
#
# Poissons Ratio (x) = 0.14776 0.04795
# Poissons Ratio (y) = 0.20252 0.14138
# Poissons Ratio (z) = 0.12271 0.26400
#
# Static dielectric constant tensor:
#      x y z
#    x 1.716200 0.007070 0.025530 
#    y 0.007070 1.668710 -0.002360 
#    z 0.025530 -0.002360 1.649590 
# 
# From -- ./inp_files/66368.got.cif
#   From: 2010.05.17/outbox.cif.g08.bks.cpg/sg2_34_cif.got.tgz:66368.got - 2010.06.03 11:33:40.
