data_PCOD9072055
_publ_section_title
;
Structure prediction by ZEFSAII (Michael W. Deem and Ramdas Pophale) SiO2 
 PCOD9072055
Probable space group: P -1
;
_chemical_formula_sum "Si O2"
_cell_formula_units_Z 16
_cell_length_a 12.423475
_cell_length_b 13.072866
_cell_length_c 16.034852
_cell_angle_alpha 150.235972
_cell_angle_beta 138.984148
_cell_angle_gamma 33.947447
_cell_volume 716.364534
_symmetry_space_group_name_H-M "P -1"
_symmetry_group_IT_number 2
_symmetry_cell_setting 'triclinic'
loop_
_space_group_symop_operation_xyz
x,y,z
-x,-y,-z
loop_
_atom_site_type_symbol
_atom_site_label
_atom_site_fract_x
_atom_site_fract_y
_atom_site_fract_z
Si Si1 0.114302 0.143162 0.368196
Si Si2 0.703552 0.560847 0.393612
Si Si3 0.624223 0.920500 0.176347
Si Si4 0.629306 0.978996 0.408660
Si Si5 0.669707 0.557145 0.648581
Si Si6 0.549374 0.308881 0.822539
Si Si7 0.813951 0.474867 0.864931
Si Si8 0.070972 0.953718 0.605107
O O1 0.192106 0.294918 0.471800
O O2 0.881748 0.296595 0.337275
O O3 0.201946 0.108961 0.487385
O O4 0.227361 0.873200 0.202794
O O5 0.530890 0.729305 0.477115
O O6 0.584865 0.562681 0.245339
O O7 0.751060 0.002297 0.256931
O O8 0.696093 0.882029 0.286365
O O9 0.410360 0.164659 0.226340
O O10 0.659341 0.676216 0.981483
O O11 0.514729 0.864269 0.298423
O O12 0.500000 0.500000 0.500000
O O13 0.731424 0.535654 0.766028
O O14 0.841816 0.334068 0.538290
O O15 0.500000 0.500000 0.000000
O O16 0.902036 0.186165 0.721400
O O17 0.000000 0.500000 0.000000
O O18 0.000000 0.000000 0.500000
#
# Coordination Sequence:
#
# PCOD9072055 Si02
#       8
#     2   2   2   2   2   2   2   2
#     4   8  15  31  53  70  95 135 170 200 237 309
#     4   8  15  31  52  71  95 134 172 198 238 309
#     4  10  18  30  51  76 100 129 163 221 258 292
#     4   9  18  32  48  76 102 127 171 209 254 294
#     4   9  17  31  52  72  92 129 176 203 249 313
#     4   9  17  30  51  75 101 134 169 205 246 299
#     4   9  17  31  50  71  98 132 172 207 252 315
#     4   8  16  32  50  71  94 130 172 201 246 315
#
# _framework density 22.334997000000001
#
# number of rings (size 3 to 8) (size 9 to 14) (size 15 to 20)
#    0.000    3.250    0.000    1.875    0.000    0.500 
#    6.750    7.500    0.000    0.000    0.000    0.000 
#    0.000    0.000    0.000    0.000    0.000    0.000 
#
# Total GULP energy -89178.778091 kJ/mol
# GULP energy per Si atom -5573.673631 kJ/mol
# Density = 2.228416 g / cm^3
# Si number density = 22.334997 Si / 1000 Ang^3
#
#
#
# Elastic Constant Matrix: (Units=GPa)
#
#
# Indices 1 2 3 4 5 6 
#
# 1 48.2176 19.0194 18.2226 6.6992 -13.2377 -7.2073
# 2 19.0194 159.4017 75.3276 37.0271 -24.3954 -25.8407
# 3 18.2226 75.3276 153.0491 31.8823 -45.6229 -13.9588
# 4 6.6992 37.0271 31.8823 47.7748 -11.0081 -5.5337
# 5 -13.2377 -24.3954 -45.6229 -11.0081 34.2394 2.2060
# 6 -7.2073 -25.8407 -13.9588 -5.5337 2.2060 20.1889
#
#
#
# Elastic Compliance Matrix: (Units=1/GPa)
#
#
# Indices 1 2 3 4 5 6 
#
# 1 0.024459 -0.000585 0.001124 -0.000582 0.009865 0.007522
# 2 -0.000585 0.010624 -0.002845 -0.004783 0.001373 0.009961
# 3 0.001124 -0.002845 0.013104 -0.002912 0.014711 0.003414
# 4 -0.000582 -0.004783 -0.002912 0.026804 0.001177 -0.001125
# 5 0.009865 0.001373 0.014711 0.001177 0.053339 0.009945
# 6 0.007522 0.009961 0.003414 -0.001125 0.009945 0.065932
#
#
# Mechanical properties :
#
#
# Convention : Reuss Voigt Hill
#
# Bulk Modulus (GPa) = 22.94957 65.08972 44.01965
# Shear Modulus (GPa) = 23.43034 36.98056 30.20545
#
# Velocity S-wave (km/s) = 3.24240 4.07347 3.68146
# Velocity P-wave (km/s) = 4.93103 7.16449 6.15000
#
# Compressibility (1/GPa) = 0.04357380
#
# Stress axis : x y z
#
# Youngs Moduli (GPa) = 40.88469 94.13058 76.31417
#
# Poissons Ratio (x) = 0.05507 -0.08576
# Poissons Ratio (y) = 0.02392 0.21712
# Poissons Ratio (z) = -0.04595 0.26781
#
# Static dielectric constant tensor:
#      x y z
#    x 1.832380 -0.047150 -0.038420 
#    y -0.047150 1.843430 0.018650 
#    z -0.038420 0.018650 1.791980 
# 
# From -- ./inp_files/312954.got.cif
#   From: 2010.05.17/outbox.cif.g08.bks.cpg/sg2_157_cif.got.tgz:312954.got - 2010.06.03 11:33:40.
