data_PCOD9072642
_publ_section_title
;
Structure prediction by ZEFSAII (Michael W. Deem and Ramdas Pophale) SiO2 
 PCOD9072642
Probable space group: P -1
;
_chemical_formula_sum "Si O2"
_cell_formula_units_Z 14
_cell_length_a 13.406084
_cell_length_b 7.434747
_cell_length_c 16.179914
_cell_angle_alpha 70.472574
_cell_angle_beta 150.745267
_cell_angle_gamma 92.977508
_cell_volume 634.273679
_symmetry_space_group_name_H-M "P -1"
_symmetry_group_IT_number 2
_symmetry_cell_setting 'triclinic'
loop_
_space_group_symop_operation_xyz
x,y,z
-x,-y,-z
loop_
_atom_site_type_symbol
_atom_site_label
_atom_site_fract_x
_atom_site_fract_y
_atom_site_fract_z
Si Si1 0.696242 0.620475 0.551426
Si Si2 0.072109 0.097224 0.618046
Si Si3 0.167582 0.823918 0.214913
Si Si4 0.330655 0.983825 0.447050
Si Si5 0.710232 0.374985 0.103853
Si Si6 0.431915 0.739241 0.716842
Si Si7 0.226677 0.228281 0.569186
O O1 0.433560 0.714181 0.385249
O O2 0.863474 0.379325 0.749246
O O3 0.777239 0.790414 0.613791
O O4 0.676477 0.642311 0.434423
O O5 0.200720 0.215128 0.651137
O O6 0.821650 0.248143 0.459171
O O7 0.232774 0.878422 0.822543
O O8 0.000000 0.000000 0.500000
O O9 0.151017 0.948378 0.269017
O O10 0.000000 0.000000 0.000000
O O11 0.500000 0.000000 0.500000
O O12 0.469401 0.780835 0.642795
O O13 0.952339 0.348317 0.319691
O O14 0.500000 0.500000 0.000000
O O15 0.626689 0.522000 0.938575
O O16 0.384059 0.966651 0.694021
#
# Coordination Sequence:
#
# PCOD9072642 Si02
#       7
#     2   2   2   2   2   2   2
#     4   9  20  37  54  80 113 138 175 227 274 312
#     4   8  14  23  38  67 102 135 164 210 261 302
#     4  10  21  39  57  78 106 144 183 222 272 325
#     4   9  19  35  56  80 108 141 180 224 270 318
#     4  10  13  23  43  73 106 134 173 215 256 313
#     4   9  15  27  43  69 108 135 167 219 259 308
#     4   9  16  25  44  73 105 137 169 214 264 310
#
# _framework density 22.072489000000001
#
# number of rings (size 3 to 8) (size 9 to 14) (size 15 to 20)
#    0.000    3.143    4.286    0.000    0.000    4.000 
#    0.000   11.429    0.000    0.857    0.000    2.000 
#    0.000    0.000    0.000    0.000    0.000    0.000 
#
# Total GULP energy -77973.801683 kJ/mol
# GULP energy per Si atom -5569.557263 kJ/mol
# Density = 2.202225 g / cm^3
# Si number density = 22.072489 Si / 1000 Ang^3
#
#
#
# Elastic Constant Matrix: (Units=GPa)
#
#
# Indices 1 2 3 4 5 6 
#
# 1 97.6621 18.4129 22.3367 -16.8479 -28.3623 25.1779
# 2 18.4129 58.5415 39.9359 -24.9433 -23.2040 12.6737
# 3 22.3367 39.9359 131.4030 -42.0571 -41.3834 10.6677
# 4 -16.8479 -24.9433 -42.0571 25.1787 15.8808 -13.0220
# 5 -28.3623 -23.2040 -41.3834 15.8808 47.6311 -16.0872
# 6 25.1779 12.6737 10.6677 -13.0220 -16.0872 23.2348
#
#
#
# Elastic Compliance Matrix: (Units=1/GPa)
#
#
# Indices 1 2 3 4 5 6 
#
# 1 0.014911 0.000172 0.000249 0.001215 0.004538 -0.012544
# 2 0.000172 0.032102 0.004920 0.038081 0.010164 0.008425
# 3 0.000249 0.004920 0.024726 0.048739 0.015887 0.024009
# 4 0.001215 0.038081 0.048739 0.182260 0.026541 0.076060
# 5 0.004538 0.010164 0.015887 0.026541 0.042589 0.026607
# 6 -0.012544 0.008425 0.024009 0.076060 0.026607 0.102063
#
#
# Mechanical properties :
#
#
# Convention : Reuss Voigt Hill
#
# Bulk Modulus (GPa) = 12.13286 49.88639 31.00962
# Shear Modulus (GPa) = 12.03534 33.00367 22.51950
#
# Velocity S-wave (km/s) = 2.33762 3.87103 3.19760
# Velocity P-wave (km/s) = 3.57697 6.52917 5.26426
#
# Compressibility (1/GPa) = 0.08242081
#
# Stress axis : x y z
#
# Youngs Moduli (GPa) = 67.06369 31.15063 40.44280
#
# Poissons Ratio (x) = -0.00535 -0.01008
# Poissons Ratio (y) = -0.01151 -0.19897
# Poissons Ratio (z) = -0.01672 -0.15325
#
# Static dielectric constant tensor:
#      x y z
#    x 1.913920 0.021710 -0.023330 
#    y 0.021710 2.031020 -0.016120 
#    z -0.023330 -0.016120 1.797560 
# 
# From -- ./inp_files/555374.got.cif
#   From: 2010.05.17/outbox.cif.g08.bks.cpg/sg2_278_cif.got.tgz:555374.got - 2010.06.03 11:33:40.
