data_PCOD9072290
_publ_section_title
;
Structure prediction by ZEFSAII (Michael W. Deem and Ramdas Pophale) SiO2 
 PCOD9072290
Probable space group: P -1
;
_chemical_formula_sum "Si O2"
_cell_formula_units_Z 14
_cell_length_a 9.580319
_cell_length_b 20.336269
_cell_length_c 21.527681
_cell_angle_alpha 161.005846
_cell_angle_beta 26.264835
_cell_angle_gamma 155.748678
_cell_volume 541.537149
_symmetry_space_group_name_H-M "P -1"
_symmetry_group_IT_number 2
_symmetry_cell_setting 'triclinic'
loop_
_space_group_symop_operation_xyz
x,y,z
-x,-y,-z
loop_
_atom_site_type_symbol
_atom_site_label
_atom_site_fract_x
_atom_site_fract_y
_atom_site_fract_z
Si Si1 0.272857 0.641747 0.218506
Si Si2 0.208320 0.596100 0.346667
Si Si3 0.405637 0.615564 0.417186
Si Si4 0.118697 0.876369 0.981492
Si Si5 0.050871 0.058827 0.410154
Si Si6 0.242837 0.200696 0.318524
Si Si7 0.297747 0.715298 0.961858
O O1 0.314266 0.694835 0.323711
O O2 0.263173 0.863996 0.389345
O O3 0.926297 0.453328 0.153862
O O4 0.500000 0.500000 0.000000
O O5 0.410703 0.705462 0.425993
O O6 0.163782 0.341839 0.134304
O O7 0.830669 0.605055 0.509083
O O8 0.655715 0.807743 0.536083
O O9 0.552834 0.429597 0.188756
O O10 0.000000 0.500000 0.500000
O O11 0.373810 0.783361 0.828346
O O12 0.997100 0.980217 0.179444
O O13 0.361902 0.074118 0.014989
O O14 0.175924 0.159330 0.380743
O O15 0.059670 0.816295 0.182293
#
# Coordination Sequence:
#
# PCOD9072290 Si02
#       7
#     2   2   2   2   2   2   2
#     4  10  22  41  62  80 102 141 196 245 275 309
#     4  11  21  33  53  83 112 142 182 224 272 326
#     4  11  22  33  52  85 123 153 173 210 274 345
#     4  10  18  30  54  81 110 142 177 225 274 328
#     4   9  20  37  55  77 110 147 182 225 273 325
#     4   9  17  30  50  75 104 140 181 220 264 318
#     4  10  21  37  55  81 115 149 183 221 275 332
#
# _framework density 25.852336000000001
#
# number of rings (size 3 to 8) (size 9 to 14) (size 15 to 20)
#    0.000    2.000    0.000    5.571    0.000    7.429 
#    0.000    2.857    0.000    1.714    0.000    0.000 
#    0.000    0.000    0.000    0.000    0.000    0.000 
#
# Total GULP energy -78081.262626 kJ/mol
# GULP energy per Si atom -5577.233045 kJ/mol
# Density = 2.579350 g / cm^3
# Si number density = 25.852336 Si / 1000 Ang^3
#
#
#
# Elastic Constant Matrix: (Units=GPa)
#
#
# Indices 1 2 3 4 5 6 
#
# 1 173.3842 36.7742 74.3168 4.7232 4.9863 3.6218
# 2 36.7742 46.5500 39.1328 9.7598 -2.5815 11.7949
# 3 74.3168 39.1328 166.2947 19.9306 -3.9518 7.8404
# 4 4.7232 9.7598 19.9306 45.3640 8.1585 -4.3665
# 5 4.9863 -2.5815 -3.9518 8.1585 54.1158 9.7136
# 6 3.6218 11.7949 7.8404 -4.3665 9.7136 24.6164
#
#
#
# Elastic Compliance Matrix: (Units=1/GPa)
#
#
# Indices 1 2 3 4 5 6 
#
# 1 0.008073 -0.005562 -0.002805 0.002341 -0.002225 0.003664
# 2 -0.005562 0.036318 -0.003950 -0.008592 0.006755 -0.019515
# 3 -0.002805 -0.003950 0.008675 -0.003082 0.001451 -0.001577
# 4 0.002341 -0.008592 -0.003082 0.027507 -0.007240 0.012490
# 5 -0.002225 0.006755 0.001451 -0.007240 0.022643 -0.013590
# 6 0.003664 -0.019515 -0.001577 0.012490 -0.013590 0.057515
#
#
# Mechanical properties :
#
#
# Convention : Reuss Voigt Hill
#
# Bulk Modulus (GPa) = 35.17339 76.29741 55.73540
# Shear Modulus (GPa) = 25.66156 40.55290 33.10723
#
# Velocity S-wave (km/s) = 3.15401 3.96490 3.58247
# Velocity P-wave (km/s) = 5.18640 7.10897 6.22238
#
# Compressibility (1/GPa) = 0.02843058
#
# Stress axis : x y z
#
# Youngs Moduli (GPa) = 123.86418 27.53451 115.27493
#
# Poissons Ratio (x) = 0.15316 0.32338
# Poissons Ratio (y) = 0.68897 0.45537
# Poissons Ratio (z) = 0.34747 0.10877
#
# Static dielectric constant tensor:
#      x y z
#    x 1.969410 0.091040 0.026100 
#    y 0.091040 2.453250 -0.004350 
#    z 0.026100 -0.004350 2.185210 
# 
# From -- ./inp_files/591786.got.cif
#   From: 2010.05.17/outbox.cif.g08.bks.cpg/sg2_296_cif.got.tgz:591786.got - 2010.06.03 11:33:40.
