data_PCOD9072627
_publ_section_title
;
Structure prediction by ZEFSAII (Michael W. Deem and Ramdas Pophale) SiO2 
 PCOD9072627
Probable space group: P -1
;
_chemical_formula_sum "Si O2"
_cell_formula_units_Z 16
_cell_length_a 11.188393
_cell_length_b 7.451175
_cell_length_c 8.415105
_cell_angle_alpha 124.968583
_cell_angle_beta 104.369499
_cell_angle_gamma 84.893039
_cell_volume 555.649835
_symmetry_space_group_name_H-M "P -1"
_symmetry_group_IT_number 2
_symmetry_cell_setting 'triclinic'
loop_
_space_group_symop_operation_xyz
x,y,z
-x,-y,-z
loop_
_atom_site_type_symbol
_atom_site_label
_atom_site_fract_x
_atom_site_fract_y
_atom_site_fract_z
Si Si1 0.210494 0.416115 0.236966
Si Si2 0.133458 0.642549 0.814716
Si Si3 0.560495 0.785673 0.734543
Si Si4 0.152916 0.211975 0.467388
Si Si5 0.635166 0.263308 0.924288
Si Si6 0.576576 0.664788 0.323970
Si Si7 0.272023 0.820817 0.651040
Si Si8 0.934035 0.931538 0.157924
O O1 0.345848 0.342196 0.188207
O O2 0.179804 0.293795 0.335542
O O3 0.232169 0.670921 0.411812
O O4 0.098635 0.311528 0.040997
O O5 0.078240 0.398486 0.631814
O O6 0.229848 0.667560 0.710143
O O7 0.072486 0.869259 0.875044
O O8 0.221509 0.652003 0.001913
O O9 0.561672 0.652757 0.501369
O O10 0.419393 0.852896 0.736054
O O11 0.636163 0.020810 0.870770
O O12 0.289440 0.204400 0.584598
O O13 0.062612 0.995134 0.317850
O O14 0.542019 0.227557 0.729720
O O15 0.578640 0.438414 0.112657
O O16 0.183103 0.017268 0.744083
#
# Coordination Sequence:
#
# PCOD9072627 Si02
#       8
#     2   2   2   2   2   2   2   2
#     4  10  19  29  47  74 101 130 160 198 246 293
#     4   8  17  30  48  73  98 125 154 198 242 288
#     4  11  19  33  50  72 104 129 160 201 246 294
#     4   9  17  32  48  71 103 128 161 202 242 285
#     4  10  18  35  51  74  99 127 166 201 247 286
#     4   9  21  33  52  75  98 126 166 207 239 281
#     4   9  21  31  46  75 104 132 155 196 249 296
#     4  10  18  31  48  72 104 130 159 193 247 300
#
# _framework density 28.795114000000002
#
# number of rings (size 3 to 8) (size 9 to 14) (size 15 to 20)
#    0.750    1.750    1.250    2.250    0.000    3.000 
#    0.000    0.000    0.000    0.750    0.000    8.750 
#    0.000    0.000    0.000    0.000    0.000    0.000 
#
# Total GULP energy -89402.084732 kJ/mol
# GULP energy per Si atom -5587.630296 kJ/mol
# Density = 2.872957 g / cm^3
# Si number density = 28.795114 Si / 1000 Ang^3
#
#
#
# Elastic Constant Matrix: (Units=GPa)
#
#
# Indices 1 2 3 4 5 6 
#
# 1 106.9087 15.6135 47.2242 2.8385 8.7462 -7.5451
# 2 15.6135 45.1644 23.6915 -5.0071 6.8958 -5.4840
# 3 47.2242 23.6915 198.9440 15.0657 24.5956 -11.5697
# 4 2.8385 -5.0071 15.0657 32.7359 -9.7996 5.5647
# 5 8.7462 6.8958 24.5956 -9.7996 50.5812 5.7341
# 6 -7.5451 -5.4840 -11.5697 5.5647 5.7341 38.3442
#
#
#
# Elastic Compliance Matrix: (Units=1/GPa)
#
#
# Indices 1 2 3 4 5 6 
#
# 1 0.010799 -0.002470 -0.002008 -0.000900 -0.000891 0.001430
# 2 -0.002470 0.025220 -0.002518 0.004582 -0.001110 0.001862
# 3 -0.002008 -0.002518 0.006807 -0.004944 -0.003871 0.002595
# 4 -0.000900 0.004582 -0.004944 0.038030 0.010217 -0.008060
# 5 -0.000891 -0.001110 -0.003871 0.010217 0.024694 -0.006678
# 6 0.001430 0.001862 0.002595 -0.008060 -0.006678 0.029579
#
#
# Mechanical properties :
#
#
# Convention : Reuss Voigt Hill
#
# Bulk Modulus (GPa) = 34.68264 58.23062 46.45663
# Shear Modulus (GPa) = 31.49938 41.96479 36.73209
#
# Velocity S-wave (km/s) = 3.31103 3.82168 3.57548
# Velocity P-wave (km/s) = 5.16604 6.30396 5.76315
#
# Compressibility (1/GPa) = 0.02883287
#
# Stress axis : x y z
#
# Youngs Moduli (GPa) = 92.60020 39.65128 146.90719
#
# Poissons Ratio (x) = 0.09795 0.29497
# Poissons Ratio (y) = 0.22874 0.36998
# Poissons Ratio (z) = 0.18593 0.09986
#
# Static dielectric constant tensor:
#      x y z
#    x 2.354120 0.056400 -0.019310 
#    y 0.056400 2.325710 -0.068210 
#    z -0.019310 -0.068210 2.249140 
# 
# From -- ./inp_files/424503.got.cif
#   From: 2010.05.17/outbox.cif.g08.bks.cpg/sg2_213_cif.got.tgz:424503.got - 2010.06.03 11:33:40.
