data_PCOD9072705
_publ_section_title
;
Structure prediction by ZEFSAII (Michael W. Deem and Ramdas Pophale) SiO2 
 PCOD9072705
Probable space group: P -1
;
_chemical_formula_sum "Si O2"
_cell_formula_units_Z 14
_cell_length_a 15.000000
_cell_length_b 15.000000
_cell_length_c 15.000000
_cell_angle_alpha 160.000000
_cell_angle_beta 40.000000
_cell_angle_gamma 140.000000
_cell_volume 725.414092
_symmetry_space_group_name_H-M "P -1"
_symmetry_group_IT_number 2
_symmetry_cell_setting 'triclinic'
loop_
_space_group_symop_operation_xyz
x,y,z
-x,-y,-z
loop_
_atom_site_type_symbol
_atom_site_label
_atom_site_fract_x
_atom_site_fract_y
_atom_site_fract_z
Si Si1 0.661517 0.951382 0.837716
Si Si2 0.630935 0.804171 0.113281
Si Si3 0.618128 0.794427 0.529103
Si Si4 0.954317 0.374666 0.017264
Si Si5 0.697315 0.270001 0.642145
Si Si6 0.887420 0.108765 0.508514
Si Si7 0.431504 0.235701 0.082632
O O1 0.668692 0.783285 0.583100
O O2 0.665538 0.799602 0.786507
O O3 0.787882 0.217629 0.990954
O O4 0.500000 0.000000 0.000000
O O5 0.460522 0.782134 0.240125
O O6 0.694924 0.074412 0.374176
O O7 0.699543 0.570425 0.886022
O O8 0.640176 0.772766 0.968657
O O9 0.551303 0.507754 0.265624
O O10 0.749362 0.974462 0.545828
O O11 0.499851 0.974209 0.785094
O O12 0.027632 0.136377 0.777474
O O13 0.000000 0.500000 0.000000
O O14 0.011351 0.630801 0.278792
O O15 0.814889 0.204764 0.562604
#
# Coordination Sequence:
#
# PCOD9072705 Si02
#       7
#     2   2   2   2   2   2   2
#     4  10  25  44  65  93 132 168 215 260 318 385
#     4  10  20  35  61  93 128 159 220 262 318 369
#     4  11  22  37  62  95 128 170 204 260 316 382
#     4  12  26  43  65  95 129 172 214 260 314 389
#     4  10  21  36  59  94 127 165 207 272 317 369
#     4  12  24  40  66  90 137 164 212 260 333 369
#     4  11  22  38  62  94 130 167 210 261 323 367
#
# _framework density 19.299322
#
# number of rings (size 3 to 8) (size 9 to 14) (size 15 to 20)
#    0.000    1.143    2.857    3.429    6.000    2.286 
#    0.000    0.000    0.000    5.143    0.000    0.000 
#    0.000    0.000    0.000    0.000    0.000    0.000 
#
# Total GULP energy -78005.037431 kJ/mol
# GULP energy per Si atom -5571.788388 kJ/mol
# Density = 1.925540 g / cm^3
# Si number density = 19.299322 Si / 1000 Ang^3
#
#
#
# Elastic Constant Matrix: (Units=GPa)
#
#
# Indices 1 2 3 4 5 6 
#
# 1 152.5813 42.7640 50.7076 5.3281 14.3599 -17.4104
# 2 42.7640 90.7684 14.6437 11.9938 12.8204 -2.1899
# 3 50.7076 14.6437 132.2676 29.8696 8.0678 -5.5500
# 4 5.3281 11.9938 29.8696 27.3072 1.1675 6.9379
# 5 14.3599 12.8204 8.0678 1.1675 51.2917 1.0135
# 6 -17.4104 -2.1899 -5.5500 6.9379 1.0135 42.8531
#
#
#
# Elastic Compliance Matrix: (Units=1/GPa)
#
#
# Indices 1 2 3 4 5 6 
#
# 1 0.009151 -0.003944 -0.003653 0.003348 -0.001128 0.002528
# 2 -0.003944 0.013926 0.001814 -0.007375 -0.002506 0.000597
# 3 -0.003653 0.001814 0.012052 -0.013841 -0.001060 0.002435
# 4 0.003348 -0.007375 -0.013841 0.056816 0.001989 -0.010054
# 5 -0.001128 -0.002506 -0.001060 0.001989 0.020590 -0.001532
# 6 0.002528 0.000597 0.002435 -0.010054 -0.001532 0.026372
#
#
# Mechanical properties :
#
#
# Convention : Reuss Voigt Hill
#
# Bulk Modulus (GPa) = 42.44021 65.76089 54.10055
# Shear Modulus (GPa) = 31.58008 42.12387 36.85198
#
# Velocity S-wave (km/s) = 4.04955 4.67696 4.37452
# Velocity P-wave (km/s) = 6.62596 7.95698 7.32178
#
# Compressibility (1/GPa) = 0.02356256
#
# Stress axis : x y z
#
# Youngs Moduli (GPa) = 109.27879 71.81047 82.97062
#
# Poissons Ratio (x) = 0.28323 0.30308
# Poissons Ratio (y) = 0.43101 -0.15049
# Poissons Ratio (z) = 0.39918 -0.13025
#
# Static dielectric constant tensor:
#      x y z
#    x 1.702000 -0.020770 -0.016400 
#    y -0.020770 1.710020 -0.031570 
#    z -0.016400 -0.031570 1.714100 
# 
# From -- ./inp_files/534022.got.cif
#   From: 2010.05.17/outbox.ucp.g08.bks.cvg/sg2_268_cif.got.tgz:534022.got - 2010.06.11 11:32:03.
