data_PCOD9072729
_publ_section_title
;
Structure prediction by ZEFSAII (Michael W. Deem and Ramdas Pophale) SiO2 
 PCOD9072729
Probable space group: P -1
;
_chemical_formula_sum "Si O2"
_cell_formula_units_Z 16
_cell_length_a 22.617598
_cell_length_b 6.958909
_cell_length_c 6.942977
_cell_angle_alpha 112.095634
_cell_angle_beta 58.081748
_cell_angle_gamma 72.662317
_cell_volume 666.183535
_symmetry_space_group_name_H-M "P -1"
_symmetry_group_IT_number 2
_symmetry_cell_setting 'triclinic'
loop_
_space_group_symop_operation_xyz
x,y,z
-x,-y,-z
loop_
_atom_site_type_symbol
_atom_site_label
_atom_site_fract_x
_atom_site_fract_y
_atom_site_fract_z
Si Si1 0.956357 0.706171 0.838734
Si Si2 0.141208 0.277836 0.450112
Si Si3 0.384455 0.051549 0.617723
Si Si4 0.674498 0.897464 0.817751
Si Si5 0.903103 0.092015 0.761618
Si Si6 0.193688 0.309475 0.936392
Si Si7 0.407398 0.283571 0.333489
Si Si8 0.507923 0.481169 0.250551
O O1 0.873337 0.727297 0.064664
O O2 0.000000 0.500000 0.500000
O O3 0.042874 0.559336 0.770709
O O4 0.916417 0.986912 0.917675
O O5 0.227590 0.186050 0.386077
O O6 0.168492 0.316688 0.206770
O O7 0.127331 0.055145 0.363251
O O8 0.393664 0.254557 0.571474
O O9 0.479323 0.754418 0.317779
O O10 0.359316 0.087936 0.899966
O O11 0.300851 0.097205 0.672081
O O12 0.669195 0.687271 0.641453
O O13 0.602903 0.190287 0.953616
O O14 0.835090 0.406197 0.965413
O O15 0.000000 0.000000 0.500000
O O16 0.424975 0.487761 0.339224
O O17 0.500000 0.000000 0.000000
O O18 0.500000 0.500000 0.500000
#
# Coordination Sequence:
#
# PCOD9072729 Si02
#       8
#     2   2   2   2   2   2   2   2
#     4   8  14  23  42  68 105 138 173 223 269 317
#     4   9  16  27  45  73 111 139 174 229 269 319
#     4  10  21  37  59  81 117 148 187 232 280 330
#     4   9  20  37  56  84 114 147 188 232 278 331
#     4  10  13  24  46  74 110 140 182 227 271 322
#     4   9  16  27  45  77 105 143 182 224 272 325
#     4  10  22  39  59  82 111 150 189 233 281 332
#     4   9  20  38  59  81 112 146 186 229 280 330
#
# _framework density 24.017406000000001
#
# number of rings (size 3 to 8) (size 9 to 14) (size 15 to 20)
#    0.000    3.000    3.750    0.000    0.000   10.500 
#    0.000    6.250    0.000    0.750    0.000    1.750 
#    0.000    0.000    0.000    0.000    0.000    0.000 
#
# Total GULP energy -89267.967652 kJ/mol
# GULP energy per Si atom -5579.247978 kJ/mol
# Density = 2.396274 g / cm^3
# Si number density = 24.017406 Si / 1000 Ang^3
#
#
#
# Elastic Constant Matrix: (Units=GPa)
#
#
# Indices 1 2 3 4 5 6 
#
# 1 150.9564 27.3692 27.5242 8.5730 -32.0685 4.6571
# 2 27.3692 92.6148 23.4079 -0.3711 2.5871 -4.7683
# 3 27.5242 23.4079 69.8495 -20.4597 -9.0229 -11.6546
# 4 8.5730 -0.3711 -20.4597 34.6190 -3.9938 -2.4841
# 5 -32.0685 2.5871 -9.0229 -3.9938 28.4442 3.8192
# 6 4.6571 -4.7683 -11.6546 -2.4841 3.8192 25.9482
#
#
#
# Elastic Compliance Matrix: (Units=1/GPa)
#
#
# Indices 1 2 3 4 5 6 
#
# 1 0.010723 -0.002777 -0.004162 -0.004302 0.011273 -0.006375
# 2 -0.002777 0.013014 -0.004553 -0.002482 -0.006314 0.001537
# 3 -0.004162 -0.004553 0.025144 0.017234 0.004480 0.012194
# 4 -0.004302 -0.002482 0.017234 0.041513 0.005158 0.011272
# 5 0.011273 -0.006314 0.004480 0.005158 0.051699 -0.008287
# 6 -0.006375 0.001537 0.012194 0.011272 -0.008287 0.047741
#
#
# Mechanical properties :
#
#
# Convention : Reuss Voigt Hill
#
# Bulk Modulus (GPa) = 38.61635 52.22480 45.42057
# Shear Modulus (GPa) = 22.57841 33.47691 28.02766
#
# Velocity S-wave (km/s) = 3.06941 3.73749 3.41980
# Velocity P-wave (km/s) = 5.35491 6.35743 5.87758
#
# Compressibility (1/GPa) = 0.02589577
#
# Stress axis : x y z
#
# Youngs Moduli (GPa) = 93.26038 76.83772 39.77136
#
# Poissons Ratio (x) = 0.21339 0.16553
# Poissons Ratio (y) = 0.25900 0.18109
# Poissons Ratio (z) = 0.38817 0.34986
#
# Static dielectric constant tensor:
#      x y z
#    x 2.040760 -0.040640 0.013900 
#    y -0.040640 1.910560 -0.018420 
#    z 0.013900 -0.018420 1.934480 
# 
# From -- ./inp_files/356037.got.cif
#   From: 2010.05.17/outbox.cif.g08.bks.cpg/sg2_179_cif.got.tgz:356037.got - 2010.06.03 11:33:40.
