data_PCOD9072803
_publ_section_title
;
Structure prediction by ZEFSAII (Michael W. Deem and Ramdas Pophale) SiO2 
 PCOD9072803
Probable space group: P -1
;
_chemical_formula_sum "Si O2"
_cell_formula_units_Z 16
_cell_length_a 9.000000
_cell_length_b 6.000000
_cell_length_c 30.000000
_cell_angle_alpha 130.000000
_cell_angle_beta 40.000000
_cell_angle_gamma 130.000000
_cell_volume 759.581896
_symmetry_space_group_name_H-M "P -1"
_symmetry_group_IT_number 2
_symmetry_cell_setting 'triclinic'
loop_
_space_group_symop_operation_xyz
x,y,z
-x,-y,-z
loop_
_atom_site_type_symbol
_atom_site_label
_atom_site_fract_x
_atom_site_fract_y
_atom_site_fract_z
Si Si1 0.810637 0.915539 0.889830
Si Si2 0.687798 0.398620 0.785654
Si Si3 0.959161 0.915718 0.667527
Si Si4 0.212663 0.148841 0.548175
Si Si5 0.342278 0.531654 0.999214
Si Si6 0.726245 0.268219 0.655857
Si Si7 0.854159 0.756069 0.072314
Si Si8 0.406366 0.856044 0.609156
O O1 0.838265 0.719015 0.815552
O O2 0.538640 0.735318 0.945270
O O3 0.978867 0.960721 0.901181
O O4 0.824812 0.264267 0.920903
O O5 0.814167 0.152320 0.742789
O O6 0.705767 0.355388 0.723149
O O7 0.403464 0.336116 0.854342
O O8 0.113054 0.980040 0.594941
O O9 0.765442 0.586085 0.662829
O O10 0.155850 0.907383 0.658574
O O11 0.359657 0.493448 0.573373
O O12 0.383142 0.022671 0.461139
O O13 0.971460 0.172912 0.581825
O O14 0.218924 0.225867 0.960323
O O15 0.500000 0.500000 0.000000
O O16 0.504271 0.009708 0.653027
O O17 0.000000 0.500000 0.000000
#
# Coordination Sequence:
#
# PCOD9072803 Si02
#       8
#     2   2   2   2   2   2   2   2
#     4   9  19  36  55  75 108 144 176 224 282 339
#     4  10  22  38  54  78 115 150 185 235 285 336
#     4  10  22  37  54  84 118 150 191 235 281 339
#     4   9  20  38  59  85 118 150 188 239 284 332
#     4   9  18  34  56  83 107 131 175 233 283 334
#     4  10  22  37  57  85 116 152 193 233 283 340
#     4   9  19  37  58  79 103 142 188 228 282 338
#     4  10  20  37  61  87 114 151 194 233 282 339
#
# _framework density 21.064219999999999
#
# number of rings (size 3 to 8) (size 9 to 14) (size 15 to 20)
#    0.000    2.500    0.000    1.500    0.000    9.000 
#    0.000    5.000    0.000    0.000    0.000    0.000 
#    0.000    0.000    0.000    0.000    0.000    0.000 
#
# Total GULP energy -89088.574006 kJ/mol
# GULP energy per Si atom -5568.035875 kJ/mol
# Density = 2.101628 g / cm^3
# Si number density = 21.064220 Si / 1000 Ang^3
#
#
#
# Elastic Constant Matrix: (Units=GPa)
#
#
# Indices 1 2 3 4 5 6 
#
# 1 83.1950 26.7355 32.7732 22.9369 19.1516 26.4430
# 2 26.7355 44.3020 18.0747 2.2398 10.5567 15.5669
# 3 32.7732 18.0747 97.0808 3.2727 -2.2910 7.3349
# 4 22.9369 2.2398 3.2727 22.2133 12.6479 1.8348
# 5 19.1516 10.5567 -2.2910 12.6479 27.5338 8.1403
# 6 26.4430 15.5669 7.3349 1.8348 8.1403 29.2934
#
#
#
# Elastic Compliance Matrix: (Units=1/GPa)
#
#
# Indices 1 2 3 4 5 6 
#
# 1 0.032103 -0.007562 -0.006821 -0.029558 -0.000101 -0.021373
# 2 -0.007562 0.033388 -0.003749 0.011930 -0.011072 -0.007648
# 3 -0.006821 -0.003749 0.013106 0.002206 0.005296 0.003258
# 4 -0.029558 0.011930 0.002206 0.090437 -0.032195 0.023072
# 5 -0.000101 -0.011072 0.005296 -0.032195 0.058718 -0.009651
# 6 -0.021373 -0.007648 0.003258 0.023072 -0.009651 0.057916
#
#
# Mechanical properties :
#
#
# Convention : Reuss Voigt Hill
#
# Bulk Modulus (GPa) = 23.62222 42.19385 32.90803
# Shear Modulus (GPa) = 14.87910 25.60773 20.24341
#
# Velocity S-wave (km/s) = 2.66064 3.49047 3.10342
# Velocity P-wave (km/s) = 4.54724 6.02653 5.33837
#
# Compressibility (1/GPa) = 0.04233303
#
# Stress axis : x y z
#
# Youngs Moduli (GPa) = 31.15001 29.95070 76.30261
#
# Poissons Ratio (x) = 0.22649 0.52043
# Poissons Ratio (y) = 0.23556 0.28606
# Poissons Ratio (z) = 0.21246 0.11229
#
# Static dielectric constant tensor:
#      x y z
#    x 1.821990 -0.026960 0.006930 
#    y -0.026960 1.824490 -0.015650 
#    z 0.006930 -0.015650 1.754210 
# 
# From -- ./inp_files/52317.got.cif
#   From: 2010.05.17/outbox.ucp.g08.bks.cvg/sg2_27_cif.got.tgz:52317.got - 2010.06.11 11:32:03.
