data_PCOD9072903
_publ_section_title
;
Structure prediction by ZEFSAII (Michael W. Deem and Ramdas Pophale) SiO2 
 PCOD9072903
Probable space group: P -1
;
_chemical_formula_sum "Si O2"
_cell_formula_units_Z 16
_cell_length_a 18.000000
_cell_length_b 12.000000
_cell_length_c 21.000000
_cell_angle_alpha 140.000000
_cell_angle_beta 160.000000
_cell_angle_gamma 30.000000
_cell_volume 744.844803
_symmetry_space_group_name_H-M "P -1"
_symmetry_group_IT_number 2
_symmetry_cell_setting 'triclinic'
loop_
_space_group_symop_operation_xyz
x,y,z
-x,-y,-z
loop_
_atom_site_type_symbol
_atom_site_label
_atom_site_fract_x
_atom_site_fract_y
_atom_site_fract_z
Si Si1 0.267885 0.776884 0.449500
Si Si2 0.311192 0.480170 0.982467
Si Si3 0.586259 0.872039 0.679640
Si Si4 0.030129 0.997394 0.932819
Si Si5 0.619169 0.542101 0.361331
Si Si6 0.783920 0.166701 0.129808
Si Si7 0.947001 0.629502 0.578602
Si Si8 0.886865 0.398540 0.645989
O O1 0.500000 0.500000 0.500000
O O2 0.460721 0.855230 0.637795
O O3 0.099463 0.776399 0.373282
O O4 0.024485 0.956996 0.279901
O O5 0.536307 0.440661 0.198284
O O6 0.480732 0.312051 0.985060
O O7 0.137898 0.752091 0.940474
O O8 0.149132 0.396952 0.844255
O O9 0.668777 0.655867 0.613584
O O10 0.329862 0.101818 0.536798
O O11 0.832101 0.891304 0.883972
O O12 0.141822 0.948085 0.929010
O O13 0.684723 0.197652 0.753322
O O14 0.855488 0.547761 0.524102
O O15 0.755219 0.404118 0.475837
O O16 0.802197 0.363146 0.216167
O O17 0.000000 0.500000 0.500000
#
# Coordination Sequence:
#
# PCOD9072903 Si02
#       8
#     2   2   2   2   2   2   2   2
#     4   9  21  44  64  90 126 171 221 267 307 374
#     4  12  24  42  64  98 137 160 210 272 321 389
#     4  10  20  38  64  90 130 162 210 270 306 377
#     4  12  22  40  65 102 128 165 216 261 325 392
#     4  12  23  40  66  96 129 174 208 255 332 379
#     4  11  24  41  66  94 129 173 212 265 328 374
#     4  11  20  37  61  89 131 164 201 259 325 382
#     4  11  24  43  64  92 130 172 220 264 311 377
#
# _framework density 21.480985
#
# number of rings (size 3 to 8) (size 9 to 14) (size 15 to 20)
#    0.000    1.000    3.750    4.500    0.000    3.000 
#    2.250    2.500    0.000    0.000    0.000    0.000 
#    0.000    0.000    0.000    0.000    0.000    0.000 
#
# Total GULP energy -89107.408045 kJ/mol
# GULP energy per Si atom -5569.213003 kJ/mol
# Density = 2.143209 g / cm^3
# Si number density = 21.480985 Si / 1000 Ang^3
#
#
#
# Elastic Constant Matrix: (Units=GPa)
#
#
# Indices 1 2 3 4 5 6 
#
# 1 168.8294 34.1460 45.5753 4.1324 10.1921 24.8750
# 2 34.1460 17.8680 2.2212 -7.6192 2.1505 7.3410
# 3 45.5753 2.2212 69.3132 -0.0021 18.5527 19.3603
# 4 4.1324 -7.6192 -0.0021 11.3710 4.8839 3.9218
# 5 10.1921 2.1505 18.5527 4.8839 42.3543 2.7553
# 6 24.8750 7.3410 19.3603 3.9218 2.7553 43.5880
#
#
#
# Elastic Compliance Matrix: (Units=1/GPa)
#
#
# Indices 1 2 3 4 5 6 
#
# 1 0.062112 -0.220862 -0.056886 -0.203259 0.041848 0.042660
# 2 -0.220862 0.892550 0.211848 0.812433 -0.166880 -0.180924
# 3 -0.056886 0.211848 0.072064 0.200797 -0.048521 -0.050223
# 4 -0.203259 0.812433 0.200797 0.837634 -0.165504 -0.174922
# 5 0.041848 -0.166880 -0.048521 -0.165504 0.059953 0.036876
# 6 0.042660 -0.180924 -0.050223 -0.174922 0.036876 0.064782
#
#
# Mechanical properties :
#
#
# Convention : Reuss Voigt Hill
#
# Bulk Modulus (GPa) = 1.11741 46.65507 23.88624
# Shear Modulus (GPa) = 2.06679 31.06720 16.56700
#
# Velocity S-wave (km/s) = 0.98196 3.80710 2.78013
# Velocity P-wave (km/s) = 1.34424 6.41029 4.63135
#
# Compressibility (1/GPa) = 0.89492558
#
# Stress axis : x y z
#
# Youngs Moduli (GPa) = 16.09982 1.12039 13.87654
#
# Poissons Ratio (x) = 0.24745 0.78938
# Poissons Ratio (y) = 3.55584 -2.93971
# Poissons Ratio (z) = 0.91586 -0.23735
#
# Static dielectric constant tensor:
#      x y z
#    x 1.889640 -0.086830 0.006360 
#    y -0.086830 1.778940 0.002550 
#    z 0.006360 0.002550 1.881310 
# 
# From -- ./inp_files/307934.got.cif
#   From: 2010.05.17/outbox.ucp.g08.bks.cvg/sg2_154_cif.got.tgz:307934.got - 2010.06.11 11:32:03.
