data_PCOD9072054
_publ_section_title
;
Structure prediction by ZEFSAII (Michael W. Deem and Ramdas Pophale) SiO2 
 PCOD9072054
Probable space group: P -1
;
_chemical_formula_sum "Si O2"
_cell_formula_units_Z 14
_cell_length_a 19.132744
_cell_length_b 12.111855
_cell_length_c 6.808160
_cell_angle_alpha 48.416506
_cell_angle_beta 42.390268
_cell_angle_gamma 28.996832
_cell_volume 514.849068
_symmetry_space_group_name_H-M "P -1"
_symmetry_group_IT_number 2
_symmetry_cell_setting 'triclinic'
loop_
_space_group_symop_operation_xyz
x,y,z
-x,-y,-z
loop_
_atom_site_type_symbol
_atom_site_label
_atom_site_fract_x
_atom_site_fract_y
_atom_site_fract_z
Si Si1 0.330427 0.545318 0.402526
Si Si2 0.122132 0.517519 0.931442
Si Si3 0.330932 0.468876 0.024967
Si Si4 0.392902 0.020538 0.847376
Si Si5 0.309406 0.877822 0.899433
Si Si6 0.035687 0.597658 0.555670
Si Si7 0.154289 0.938848 0.767465
O O1 0.186219 0.613261 0.721789
O O2 0.320615 0.517389 0.222517
O O3 0.514358 0.305226 0.352586
O O4 0.313495 0.738210 0.209153
O O5 0.071568 0.572527 0.742212
O O6 0.286991 0.246308 0.922538
O O7 0.999090 0.535860 0.261039
O O8 0.499879 0.202967 0.977044
O O9 0.190432 0.501359 0.242147
O O10 0.298614 0.662888 0.762589
O O11 0.288542 0.042247 0.881727
O O12 0.500000 0.000000 0.500000
O O13 0.181575 0.975257 0.885983
O O14 0.889521 0.868557 0.492590
O O15 0.000000 0.000000 0.000000
#
# Coordination Sequence:
#
# PCOD9072054 Si02
#       7
#     2   2   2   2   2   2   2
#     4   8  14  27  46  71  92 119 166 203 226 278
#     4  10  18  30  51  75  99 125 161 205 247 284
#     4   8  15  29  51  72  90 125 168 200 230 281
#     4  11  17  30  52  79  98 118 163 213 245 272
#     4   9  16  27  49  74  93 124 166 203 236 278
#     4   9  17  30  49  71  97 136 160 191 243 295
#     4   9  17  31  51  71  97 132 170 194 230 297
#
# _framework density 27.192435
#
# number of rings (size 3 to 8) (size 9 to 14) (size 15 to 20)
#    0.000    2.857    4.286    1.714    0.000    0.000 
#    0.000    2.143    0.000   21.429    0.000    0.000 
#    0.000    0.000    0.000    0.000    0.000    0.000 
#
# Total GULP energy -78315.567143 kJ/mol
# GULP energy per Si atom -5593.969082 kJ/mol
# Density = 2.713054 g / cm^3
# Si number density = 27.192435 Si / 1000 Ang^3
#
#
#
# Elastic Constant Matrix: (Units=GPa)
#
#
# Indices 1 2 3 4 5 6 
#
# 1 91.0533 9.9525 60.6188 11.7855 -11.4879 -11.7467
# 2 9.9525 140.4931 29.2566 -24.5715 0.7383 -23.5251
# 3 60.6188 29.2566 145.1385 -7.8593 -18.5070 -21.7404
# 4 11.7855 -24.5715 -7.8593 45.1203 -12.1479 -5.2536
# 5 -11.4879 0.7383 -18.5070 -12.1479 59.8292 -3.2769
# 6 -11.7467 -23.5251 -21.7404 -5.2536 -3.2769 29.1149
#
#
#
# Elastic Compliance Matrix: (Units=1/GPa)
#
#
# Indices 1 2 3 4 5 6 
#
# 1 0.016562 -0.000843 -0.007203 -0.006189 -0.000323 -0.000531
# 2 -0.000843 0.009962 0.000406 0.007326 0.001851 0.009543
# 3 -0.007203 0.000406 0.011819 0.006130 0.003939 0.007796
# 4 -0.006189 0.007326 0.006130 0.032736 0.008076 0.014815
# 5 -0.000323 0.001851 0.003939 0.008076 0.019926 0.008006
# 6 -0.000531 0.009543 0.007796 0.014815 0.008006 0.051239
#
#
# Mechanical properties :
#
#
# Convention : Reuss Voigt Hill
#
# Bulk Modulus (GPa) = 43.35954 64.03786 53.69870
# Shear Modulus (GPa) = 30.26417 45.27003 37.76710
#
# Velocity S-wave (km/s) = 3.33973 4.08463 3.73081
# Velocity P-wave (km/s) = 5.55444 6.77101 6.19267
#
# Compressibility (1/GPa) = 0.02306298
#
# Stress axis : x y z
#
# Youngs Moduli (GPa) = 60.37896 100.37796 84.61134
#
# Poissons Ratio (x) = 0.08459 0.60948
# Poissons Ratio (y) = 0.05088 -0.03435
# Poissons Ratio (z) = 0.43493 -0.04075
#
# Static dielectric constant tensor:
#      x y z
#    x 2.129110 0.023260 0.037400 
#    y 0.023260 2.176980 0.048910 
#    z 0.037400 0.048910 2.106380 
# 
# From -- ./inp_files/434963.got.cif
#   From: 2010.05.17/outbox.cif.g08.bks.cpg/sg2_218_cif.got.tgz:434963.got - 2010.06.03 11:33:40.
