data_PCOD9072763
_publ_section_title
;
Structure prediction by ZEFSAII (Michael W. Deem and Ramdas Pophale) SiO2 
 PCOD9072763
Probable space group: P -1
;
_chemical_formula_sum "Si O2"
_cell_formula_units_Z 14
_cell_length_a 9.000000
_cell_length_b 18.000000
_cell_length_c 9.000000
_cell_angle_alpha 150.000000
_cell_angle_beta 110.000000
_cell_angle_gamma 60.000000
_cell_volume 617.235917
_symmetry_space_group_name_H-M "P -1"
_symmetry_group_IT_number 2
_symmetry_cell_setting 'triclinic'
loop_
_space_group_symop_operation_xyz
x,y,z
-x,-y,-z
loop_
_atom_site_type_symbol
_atom_site_label
_atom_site_fract_x
_atom_site_fract_y
_atom_site_fract_z
Si Si1 0.516560 0.822678 0.259529
Si Si2 0.343466 0.535135 0.238560
Si Si3 0.291847 0.209447 0.172498
Si Si4 0.729983 0.471472 0.137613
Si Si5 0.779824 0.166564 0.048440
Si Si6 0.356870 0.033677 0.195305
Si Si7 0.001231 0.157045 0.850271
O O1 0.560857 0.854755 0.501932
O O2 0.500000 0.000000 0.500000
O O3 0.650529 0.627493 0.956809
O O4 0.352307 0.812216 0.100498
O O5 0.537749 0.503808 0.191059
O O6 0.274710 0.688916 0.595872
O O7 0.251806 0.548884 0.069940
O O8 0.226851 0.385728 0.530559
O O9 0.312798 0.089200 0.108868
O O10 0.179296 0.178128 0.952497
O O11 0.485559 0.150751 0.070873
O O12 0.863109 0.306499 0.971730
O O13 0.947974 0.158500 0.005986
O O14 0.797492 0.994418 0.827006
O O15 0.000000 0.000000 0.500000
#
# Coordination Sequence:
#
# PCOD9072763 Si02
#       7
#     2   2   2   2   2   2   2
#     4  10  20  36  63 101 130 159 222 284 323 378
#     4  11  22  41  73 101 129 173 236 276 326 404
#     4  11  23  43  67  98 139 179 222 275 347 399
#     4  11  24  43  68  98 139 179 223 279 339 397
#     4  11  23  42  70 101 131 175 227 279 333 398
#     4  10  22  41  71 101 129 174 231 282 328 400
#     4  12  28  44  67  97 142 178 223 281 349 399
#
# _framework density 22.681764999999999
#
# number of rings (size 3 to 8) (size 9 to 14) (size 15 to 20)
#    0.000    1.143    4.286    1.714    2.000    0.571 
#    0.000    3.571    0.000    0.000    0.000    0.000 
#    0.000    0.000    0.000    0.000    0.000    0.000 
#
# Total GULP energy -77967.275936 kJ/mol
# GULP energy per Si atom -5569.091138 kJ/mol
# Density = 2.263014 g / cm^3
# Si number density = 22.681765 Si / 1000 Ang^3
#
#
#
# Elastic Constant Matrix: (Units=GPa)
#
#
# Indices 1 2 3 4 5 6 
#
# 1 37.7492 32.8217 28.1551 12.2319 6.0981 0.8980
# 2 32.8217 56.5378 36.4676 -9.3854 2.4489 3.8141
# 3 28.1551 36.4676 178.8535 -9.2871 15.0577 -15.1445
# 4 12.2319 -9.3854 -9.2871 30.7509 1.1894 12.6724
# 5 6.0981 2.4489 15.0577 1.1894 27.6088 -5.1589
# 6 0.8980 3.8141 -15.1445 12.6724 -5.1589 22.5161
#
#
#
# Elastic Compliance Matrix: (Units=1/GPa)
#
#
# Indices 1 2 3 4 5 6 
#
# 1 0.391014 -0.299326 0.001310 -0.339614 -0.003613 0.226301
# 2 -0.299326 0.253457 -0.006399 0.272124 0.000193 -0.188411
# 3 0.001310 -0.006399 0.007325 -0.003151 -0.002232 0.007221
# 4 -0.339614 0.272124 -0.003151 0.344620 -0.005196 -0.229817
# 5 -0.003613 0.000193 -0.002232 -0.005196 0.040461 0.010805
# 6 0.226301 -0.188411 0.007221 -0.229817 0.010805 0.203979
#
#
# Mechanical properties :
#
#
# Convention : Reuss Voigt Hill
#
# Bulk Modulus (GPa) = 23.27418 52.00326 37.63872
# Shear Modulus (GPa) = 2.68239 27.88823 15.28531
#
# Velocity S-wave (km/s) = 1.08866 3.51029 2.59878
# Velocity P-wave (km/s) = 3.44437 6.27747 5.06312
#
# Compressibility (1/GPa) = 0.04296607
#
# Stress axis : x y z
#
# Youngs Moduli (GPa) = 2.55745 3.94545 136.51129
#
# Poissons Ratio (x) = 1.18097 -0.17878
# Poissons Ratio (y) = 0.76551 0.87350
# Poissons Ratio (z) = -0.00335 0.02525
#
# Static dielectric constant tensor:
#      x y z
#    x 1.715690 -0.044040 -0.224360 
#    y -0.044040 1.855670 -0.018720 
#    z -0.224360 -0.018720 1.572550 
# 
# From -- ./inp_files/219063.got.cif
#   From: 2010.05.17/outbox.ucp.g08.bks.cvg/sg2_110_cif.got.tgz:219063.got - 2010.06.11 11:32:03.
