data_PCOD9072154
_publ_section_title
;
Structure prediction by ZEFSAII (Michael W. Deem and Ramdas Pophale) SiO2 
 PCOD9072154
Probable space group: P -1
;
_chemical_formula_sum "Si O2"
_cell_formula_units_Z 15
_cell_length_a 12.000000
_cell_length_b 12.000000
_cell_length_c 12.000000
_cell_angle_alpha 40.000000
_cell_angle_beta 130.000000
_cell_angle_gamma 140.000000
_cell_volume 707.388450
_symmetry_space_group_name_H-M "P -1"
_symmetry_group_IT_number 2
_symmetry_cell_setting 'triclinic'
loop_
_space_group_symop_operation_xyz
x,y,z
-x,-y,-z
loop_
_atom_site_type_symbol
_atom_site_label
_atom_site_fract_x
_atom_site_fract_y
_atom_site_fract_z
Si Si1 0.576815 0.293741 0.419527
Si Si2 0.015152 0.038384 0.111163
Si Si3 0.679700 0.549691 0.523625
Si Si4 0.772437 0.461602 0.099246
Si Si5 0.290489 0.677955 0.081751
Si Si6 0.224796 0.847341 0.495060
Si Si7 0.713478 0.928646 0.158716
Si Si8 0.500000 0.500000 0.000000
O O1 0.639488 0.420588 0.480166
O O2 0.711222 0.237215 0.500154
O O3 0.392533 0.066105 0.482927
O O4 0.548724 0.427213 0.206975
O O5 0.826960 0.968556 0.091276
O O6 0.094806 0.915075 0.314879
O O7 0.139166 0.290845 0.010414
O O8 0.000000 0.000000 0.000000
O O9 0.500000 0.500000 0.500000
O O10 0.758470 0.471513 0.727139
O O11 0.769533 0.795730 0.368833
O O12 0.833434 0.334841 0.309373
O O13 0.789734 0.435088 0.000145
O O14 0.573816 0.377265 0.072895
O O15 0.502318 0.794511 0.114726
O O16 0.246131 0.851235 0.939505
#
# Coordination Sequence:
#
# PCOD9072154 Si02
#       8
#     2   2   2   2   2   2   2   1
#     4  10  21  40  70 103 133 174 234 286 331 401
#     4  12  29  45  67 102 145 180 224 285 360 406
#     4  10  22  39  69 102 134 172 229 283 333 394
#     4  11  25  43  72  99 137 183 229 282 342 405
#     4  10  24  45  74 100 132 180 242 275 334 409
#     4  10  25  41  66 101 134 179 225 285 338 410
#     4  10  25  43  68 103 134 183 222 288 333 409
#     4  10  18  38  70 100 132 170 228 280 332 392
#
# _framework density 21.204757000000001
#
# number of rings (size 3 to 8) (size 9 to 14) (size 15 to 20)
#    0.000    1.600    1.333    1.600   13.067    2.133 
#    0.000    1.333    0.000    0.000    0.000    0.000 
#    0.000    0.000    0.000    0.000    0.000    0.000 
#
# Total GULP energy -83506.252395 kJ/mol
# GULP energy per Si atom -5567.083493 kJ/mol
# Density = 2.115649 g / cm^3
# Si number density = 21.204757 Si / 1000 Ang^3
#
#
#
# Elastic Constant Matrix: (Units=GPa)
#
#
# Indices 1 2 3 4 5 6 
#
# 1 128.1676 41.2638 63.0041 8.6731 4.3255 -38.9198
# 2 41.2638 65.8886 70.1104 -3.4866 1.3862 -36.9873
# 3 63.0041 70.1104 213.0997 -6.9348 7.6812 -43.3137
# 4 8.6731 -3.4866 -6.9348 19.3712 -20.0578 13.4820
# 5 4.3255 1.3862 7.6812 -20.0578 36.1089 15.1910
# 6 -38.9198 -36.9873 -43.3137 13.4820 15.1910 27.2347
#
#
#
# Elastic Compliance Matrix: (Units=1/GPa)
#
#
# Indices 1 2 3 4 5 6 
#
# 1 0.008037 -0.007480 -0.001456 0.006123 0.006175 -0.007464
# 2 -0.007480 0.027315 -0.006786 0.019407 0.012469 -0.000947
# 3 -0.001456 -0.006786 0.007487 0.001239 -0.000613 0.000341
# 4 0.006123 0.019407 0.001239 0.006849 -0.015822 0.042511
# 5 0.006175 0.012469 -0.000613 -0.015822 0.005351 0.029632
# 6 -0.007464 -0.000947 0.000341 0.042511 0.029632 -0.012265
#
#
# Mechanical properties :
#
#
# Convention : Reuss Voigt Hill
#
# Bulk Modulus (GPa) = 87.74659 83.99029 85.86844
# Shear Modulus (GPa) = 64.08980 32.06146 48.07563
#
# Velocity S-wave (km/s) = 5.50362 3.89265 4.76669
# Velocity P-wave (km/s) = 9.04748 7.73943 8.41890
#
# Compressibility (1/GPa) = 0.01139645
#
# Stress axis : x y z
#
# Youngs Moduli (GPa) = 124.42624 36.60992 133.56276
#
# Poissons Ratio (x) = 0.27385 0.19440
# Poissons Ratio (y) = 0.93073 0.90630
# Poissons Ratio (z) = 0.18110 0.24842
#
# Static dielectric constant tensor:
#      x y z
#    x 1.793620 0.053910 -0.028850 
#    y 0.053910 1.791080 -0.012570 
#    z -0.028850 -0.012570 1.777670 
# 
# From -- ./inp_files/425164.got.cif
#   From: 2010.05.17/outbox.ucp.g08.bks.cvg/sg2_213_cif.got.tgz:425164.got - 2010.06.11 11:32:03.
