data_PCOD9072398
_publ_section_title
;
Structure prediction by ZEFSAII (Michael W. Deem and Ramdas Pophale) SiO2 
 PCOD9072398
Probable space group: P -1
;
_chemical_formula_sum "Si O2"
_cell_formula_units_Z 16
_cell_length_a 21.000000
_cell_length_b 12.000000
_cell_length_c 12.000000
_cell_angle_alpha 60.000000
_cell_angle_beta 140.000000
_cell_angle_gamma 150.000000
_cell_volume 836.888158
_symmetry_space_group_name_H-M "P -1"
_symmetry_group_IT_number 2
_symmetry_cell_setting 'triclinic'
loop_
_space_group_symop_operation_xyz
x,y,z
-x,-y,-z
loop_
_atom_site_type_symbol
_atom_site_label
_atom_site_fract_x
_atom_site_fract_y
_atom_site_fract_z
Si Si1 0.201385 0.358103 0.295056
Si Si2 0.709022 0.051334 0.367273
Si Si3 0.426071 0.377187 0.642742
Si Si4 0.112170 0.173460 0.952297
Si Si5 0.248235 0.575625 0.025056
Si Si6 0.091263 0.307516 0.412052
Si Si7 0.298251 0.289484 0.767523
Si Si8 0.983066 0.439518 0.332208
O O1 0.384865 0.465469 0.483457
O O2 0.220537 0.471437 0.157796
O O3 0.182855 0.413796 0.357644
O O4 0.013816 0.046526 0.197407
O O5 0.835819 0.217438 0.341439
O O6 0.834485 0.273733 0.513756
O O7 0.679714 0.864440 0.435546
O O8 0.479544 0.842130 0.165188
O O9 0.659982 0.614760 0.845991
O O10 0.337403 0.294421 0.689217
O O11 0.131908 0.350680 0.893561
O O12 0.000000 0.000000 0.000000
O O13 0.150087 0.604017 0.886439
O O14 0.223333 0.352854 0.635197
O O15 0.066257 0.416705 0.381631
O O16 0.874216 0.996195 0.273838
O O17 0.500000 0.500000 0.000000
#
# Coordination Sequence:
#
# PCOD9072398 Si02
#       8
#     2   2   2   2   2   2   2   2
#     4  10  21  37  59  86 119 149 185 239 289 341
#     4  10  22  39  58  83 111 158 192 240 280 330
#     4  10  19  36  59  86 114 145 191 238 288 335
#     4   9  19  34  56  87 112 149 185 232 283 336
#     4  10  22  37  58  86 116 153 194 229 280 349
#     4  10  22  38  58  86 114 150 192 232 290 339
#     4  10  20  37  59  85 113 147 187 239 287 339
#     4  11  22  40  58  82 117 154 193 237 279 332
#
# _framework density 19.118445000000001
#
# number of rings (size 3 to 8) (size 9 to 14) (size 15 to 20)
#    0.000    2.000    1.250    1.875    0.000    8.000 
#    9.000    0.625    0.000    0.000    0.000    0.000 
#    0.000    0.000    0.000    0.000    0.000    0.000 
#
# Total GULP energy -89292.765187 kJ/mol
# GULP energy per Si atom -5580.797824 kJ/mol
# Density = 1.907493 g / cm^3
# Si number density = 19.118445 Si / 1000 Ang^3
#
#
#
# Elastic Constant Matrix: (Units=GPa)
#
#
# Indices 1 2 3 4 5 6 
#
# 1 127.9461 38.8802 38.3246 -9.4344 18.4369 -34.7067
# 2 38.8802 53.5276 18.3679 3.9258 9.1047 -10.5670
# 3 38.3246 18.3679 77.5361 8.4289 15.0790 -19.7539
# 4 -9.4344 3.9258 8.4289 28.0235 2.3688 7.6785
# 5 18.4369 9.1047 15.0790 2.3688 29.8495 -4.1712
# 6 -34.7067 -10.5670 -19.7539 7.6785 -4.1712 30.4342
#
#
#
# Elastic Compliance Matrix: (Units=1/GPa)
#
#
# Indices 1 2 3 4 5 6 
#
# 1 0.014621 -0.007183 -0.002256 0.003940 -0.004461 0.011110
# 2 -0.007183 0.025265 -0.001158 -0.005701 -0.002095 0.000980
# 3 -0.002256 -0.001158 0.019133 -0.008857 -0.005693 0.010899
# 4 0.003940 -0.005701 -0.008857 0.044671 -0.001827 -0.014756
# 5 -0.004461 -0.002095 -0.005693 -0.001827 0.039407 -0.003648
# 6 0.011110 0.000980 0.010899 -0.014756 -0.003648 0.056165
#
#
# Mechanical properties :
#
#
# Convention : Reuss Voigt Hill
#
# Bulk Modulus (GPa) = 26.43649 50.01726 38.22687
# Shear Modulus (GPa) = 21.45327 28.55724 25.00526
#
# Velocity S-wave (km/s) = 3.35345 3.86904 3.62043
# Velocity P-wave (km/s) = 5.37140 6.79543 6.12494
#
# Compressibility (1/GPa) = 0.03782651
#
# Stress axis : x y z
#
# Youngs Moduli (GPa) = 68.39284 39.58069 52.26538
#
# Poissons Ratio (x) = 0.28432 0.11789
# Poissons Ratio (y) = 0.49128 0.06050
# Poissons Ratio (z) = 0.15427 0.04582
#
# Static dielectric constant tensor:
#      x y z
#    x 1.671690 -0.011660 -0.019870 
#    y -0.011660 1.635620 -0.009310 
#    z -0.019870 -0.009310 1.714680 
# 
# From -- ./inp_files/426302.got.cif
#   From: 2010.05.17/outbox.ucp.g08.bks.cvg/sg2_214_cif.got.tgz:426302.got - 2010.06.11 11:32:03.
