data_PCOD9072431
_publ_section_title
;
Structure prediction by ZEFSAII (Michael W. Deem and Ramdas Pophale) SiO2 
 PCOD9072431
Probable space group: P -1
;
_chemical_formula_sum "Si O2"
_cell_formula_units_Z 16
_cell_length_a 21.000000
_cell_length_b 12.000000
_cell_length_c 9.000000
_cell_angle_alpha 30.000000
_cell_angle_beta 130.000000
_cell_angle_gamma 130.000000
_cell_volume 846.452872
_symmetry_space_group_name_H-M "P -1"
_symmetry_group_IT_number 2
_symmetry_cell_setting 'triclinic'
loop_
_space_group_symop_operation_xyz
x,y,z
-x,-y,-z
loop_
_atom_site_type_symbol
_atom_site_label
_atom_site_fract_x
_atom_site_fract_y
_atom_site_fract_z
Si Si1 0.098316 0.091232 0.702932
Si Si2 0.697627 0.359793 0.084625
Si Si3 0.639474 0.230250 0.599008
Si Si4 0.058957 0.746956 0.767509
Si Si5 0.754719 0.040975 0.755787
Si Si6 0.522817 0.972215 0.237877
Si Si7 0.623487 0.620530 0.909943
Si Si8 0.218450 0.545176 0.211156
O O1 0.160668 0.312846 0.462762
O O2 0.007350 0.142759 0.554996
O O3 0.076464 0.896847 0.769489
O O4 0.155122 0.007611 0.009053
O O5 0.758347 0.222065 0.419846
O O6 0.605921 0.176826 0.150558
O O7 0.678085 0.556162 0.931434
O O8 0.738629 0.463636 0.873704
O O9 0.561563 0.042965 0.769962
O O10 0.700786 0.362946 0.666307
O O11 0.706735 0.133968 0.712179
O O12 0.600166 0.398278 0.238011
O O13 0.151245 0.709983 0.900425
O O14 0.000000 0.500000 0.000000
O O15 0.688396 0.810000 0.880440
O O16 0.551825 0.738363 0.596431
O O17 0.500000 0.000000 0.000000
#
# Coordination Sequence:
#
# PCOD9072431 Si02
#       8
#     2   2   2   2   2   2   2   2
#     4  10  19  36  63  91 113 151 194 232 290 347
#     4  10  24  39  56  85 123 156 192 242 293 338
#     4  11  21  37  61  84 113 156 202 238 286 340
#     4   9  20  35  61  93 120 141 189 244 284 344
#     4  10  21  38  61  85 115 158 194 239 283 349
#     4  11  23  39  57  85 119 154 197 247 291 333
#     4  10  23  40  55  82 116 159 198 240 287 343
#     4  11  20  37  60  89 116 152 193 240 290 341
#
# _framework density 18.902411000000001
#
# number of rings (size 3 to 8) (size 9 to 14) (size 15 to 20)
#    0.000    1.750    3.750    0.375    0.000    9.000 
#    0.000    0.625    0.000    7.500    0.000    0.000 
#    0.000    0.000    0.000    0.000    0.000    0.000 
#
# Total GULP energy -89153.567848 kJ/mol
# GULP energy per Si atom -5572.097991 kJ/mol
# Density = 1.885939 g / cm^3
# Si number density = 18.902411 Si / 1000 Ang^3
#
#
#
# Elastic Constant Matrix: (Units=GPa)
#
#
# Indices 1 2 3 4 5 6 
#
# 1 34.6963 3.6733 10.9838 11.6187 -13.5733 -0.2647
# 2 3.6733 46.2281 28.6519 19.3618 -1.8394 0.7081
# 3 10.9838 28.6519 62.4150 30.1061 11.6119 -0.9481
# 4 11.6187 19.3618 30.1061 33.9184 2.8625 4.7216
# 5 -13.5733 -1.8394 11.6119 2.8625 20.7497 8.7058
# 6 -0.2647 0.7081 -0.9481 4.7216 8.7058 27.8195
#
#
#
# Elastic Compliance Matrix: (Units=1/GPa)
#
#
# Indices 1 2 3 4 5 6 
#
# 1 0.070529 0.022501 -0.031458 -0.012386 0.077092 -0.022997
# 2 0.022501 0.041878 -0.025652 -0.010459 0.039379 -0.012274
# 3 -0.031458 -0.025652 0.056250 -0.022838 -0.061884 0.025513
# 4 -0.012386 -0.010459 -0.022838 0.061512 -0.000104 -0.011037
# 5 0.077092 0.039379 -0.061884 -0.000104 0.158569 -0.051982
# 6 -0.022997 -0.012274 0.025513 -0.011037 -0.051982 0.055050
#
#
# Mechanical properties :
#
#
# Convention : Reuss Voigt Hill
#
# Bulk Modulus (GPa) = 10.05636 25.55082 17.80359
# Shear Modulus (GPa) = 9.15496 23.16622 16.16059
#
# Velocity S-wave (km/s) = 2.20313 3.50461 2.92712
# Velocity P-wave (km/s) = 3.43561 5.47019 4.56762
#
# Compressibility (1/GPa) = 0.09943957
#
# Stress axis : x y z
#
# Youngs Moduli (GPa) = 14.17853 23.87874 17.77787
#
# Poissons Ratio (x) = -0.53729 0.55926
# Poissons Ratio (y) = -0.31903 0.45603
# Poissons Ratio (z) = 0.44603 0.61253
#
# Static dielectric constant tensor:
#      x y z
#    x 1.636370 -0.002980 0.034930 
#    y -0.002980 1.687930 -0.004110 
#    z 0.034930 -0.004110 1.688220 
# 
# From -- ./inp_files/38101.got.cif
#   From: 2010.05.17/outbox.ucp.g08.bks.cvg/sg2_20_cif.got.tgz:38101.got - 2010.06.11 11:32:03.
