data_PCOD9072865
_publ_section_title
;
Structure prediction by ZEFSAII (Michael W. Deem and Ramdas Pophale) SiO2 
 PCOD9072865
Probable space group: P -1
;
_chemical_formula_sum "Si O2"
_cell_formula_units_Z 16
_cell_length_a 15.000000
_cell_length_b 15.000000
_cell_length_c 9.000000
_cell_angle_alpha 100.000000
_cell_angle_beta 110.000000
_cell_angle_gamma 140.000000
_cell_volume 847.243846
_symmetry_space_group_name_H-M "P -1"
_symmetry_group_IT_number 2
_symmetry_cell_setting 'triclinic'
loop_
_space_group_symop_operation_xyz
x,y,z
-x,-y,-z
loop_
_atom_site_type_symbol
_atom_site_label
_atom_site_fract_x
_atom_site_fract_y
_atom_site_fract_z
Si Si1 0.635091 0.523037 0.120506
Si Si2 0.716274 0.058808 0.519289
Si Si3 0.617371 0.298546 0.533273
Si Si4 0.607019 0.183355 0.955310
Si Si5 0.046919 0.818751 0.584380
Si Si6 0.569561 0.818091 0.920469
Si Si7 0.186945 0.471661 0.002469
Si Si8 0.992808 0.411563 0.356338
O O1 0.506613 0.337783 0.085645
O O2 0.849509 0.712502 0.395975
O O3 0.500000 0.500000 0.000000
O O4 0.721440 0.539108 0.031925
O O5 0.800052 0.058262 0.439108
O O6 0.555673 0.896030 0.513404
O O7 0.584056 0.010715 0.317276
O O8 0.937211 0.270852 0.781651
O O9 0.496857 0.236661 0.304511
O O10 0.734402 0.463617 0.765195
O O11 0.817220 0.419004 0.604460
O O12 0.720468 0.359502 0.975938
O O13 0.524772 0.171289 0.047818
O O14 0.766250 0.237810 0.099916
O O15 0.985184 0.663414 0.557586
O O16 0.183793 0.968805 0.843409
O O17 0.000000 0.500000 0.500000
#
# Coordination Sequence:
#
# PCOD9072865 Si02
#       8
#     2   2   2   2   2   2   2   2
#     4  10  20  41  69  91 114 153 199 247 299 363
#     4   9  20  36  55  81 115 158 195 236 293 344
#     4  11  22  36  60  85 124 162 191 248 298 345
#     4   9  19  38  56  81 117 159 201 245 279 343
#     4  10  22  40  63  87 118 159 201 245 295 359
#     4  10  20  38  60  89 120 155 202 242 294 355
#     4   9  20  40  59  85 123 157 194 243 304 353
#     4  12  21  38  61  87 121 161 209 248 287 345
#
# _framework density 18.884764000000001
#
# number of rings (size 3 to 8) (size 9 to 14) (size 15 to 20)
#    0.000    2.000    2.500    2.250    1.750    4.500 
#    2.250    3.750    0.000    3.750    0.000    0.000 
#    0.000    0.000    0.000    0.000    0.000    0.000 
#
# Total GULP energy -89123.067917 kJ/mol
# GULP energy per Si atom -5570.191745 kJ/mol
# Density = 1.884178 g / cm^3
# Si number density = 18.884764 Si / 1000 Ang^3
#
#
#
# Elastic Constant Matrix: (Units=GPa)
#
#
# Indices 1 2 3 4 5 6 
#
# 1 82.6543 38.4230 45.9400 -7.1118 25.4221 3.4051
# 2 38.4230 86.1440 36.7074 -10.0253 3.1243 10.9781
# 3 45.9400 36.7074 188.3985 -17.5685 14.8421 6.4140
# 4 -7.1118 -10.0253 -17.5685 33.5879 2.5286 4.7434
# 5 25.4221 3.1243 14.8421 2.5286 40.0918 -7.1753
# 6 3.4051 10.9781 6.4140 4.7434 -7.1753 25.5380
#
#
#
# Elastic Compliance Matrix: (Units=1/GPa)
#
#
# Indices 1 2 3 4 5 6 
#
# 1 0.020975 -0.007208 -0.002391 0.002419 -0.012556 -0.003075
# 2 -0.007208 0.016329 -0.001108 0.003389 0.002472 -0.005715
# 3 -0.002391 -0.001108 0.006545 0.002935 -0.001322 -0.001765
# 4 0.002419 0.003389 0.002935 0.034913 -0.007052 -0.010983
# 5 -0.012556 0.002472 -0.001322 -0.007052 0.035852 0.012327
# 6 -0.003075 -0.005715 -0.001765 -0.010983 0.012327 0.047970
#
#
# Mechanical properties :
#
#
# Convention : Reuss Voigt Hill
#
# Bulk Modulus (GPa) = 44.57391 66.59307 55.58349
# Shear Modulus (GPa) = 26.11296 35.58531 30.84913
#
# Velocity S-wave (km/s) = 3.72257 4.34561 4.04610
# Velocity P-wave (km/s) = 6.49085 7.77936 7.16413
#
# Compressibility (1/GPa) = 0.02243465
#
# Stress axis : x y z
#
# Youngs Moduli (GPa) = 47.67621 61.24207 152.79620
#
# Poissons Ratio (x) = 0.44143 0.36531
# Poissons Ratio (y) = 0.34365 0.16929
# Poissons Ratio (z) = 0.11398 0.06785
#
# Static dielectric constant tensor:
#      x y z
#    x 1.631480 0.017540 -0.011900 
#    y 0.017540 1.691080 0.050170 
#    z -0.011900 0.050170 1.769670 
# 
# From -- ./inp_files/315486.got.cif
#   From: 2010.05.17/outbox.ucp.g08.bks.cvg/sg2_158_cif.got.tgz:315486.got - 2010.06.11 11:32:03.
