data_PCOD9072972
_publ_section_title
;
Structure prediction by ZEFSAII (Michael W. Deem and Ramdas Pophale) SiO2 
 PCOD9072972
Probable space group: P -1
;
_chemical_formula_sum "Si O2"
_cell_formula_units_Z 15
_cell_length_a 9.000000
_cell_length_b 18.000000
_cell_length_c 9.000000
_cell_angle_alpha 30.000000
_cell_angle_beta 120.000000
_cell_angle_gamma 120.000000
_cell_volume 623.732165
_symmetry_space_group_name_H-M "P -1"
_symmetry_group_IT_number 2
_symmetry_cell_setting 'triclinic'
loop_
_space_group_symop_operation_xyz
x,y,z
-x,-y,-z
loop_
_atom_site_type_symbol
_atom_site_label
_atom_site_fract_x
_atom_site_fract_y
_atom_site_fract_z
Si Si1 0.880001 0.268874 0.872581
Si Si2 0.306875 0.030888 0.859290
Si Si3 0.887915 0.393842 0.324933
Si Si4 0.826637 0.060911 0.747420
Si Si5 0.743303 0.488046 0.647812
Si Si6 0.500000 0.000000 0.500000
Si Si7 0.234054 0.322988 0.151942
Si Si8 0.558216 0.667501 0.045384
O O1 0.895049 0.359545 0.566833
O O2 0.754379 0.350014 0.777138
O O3 0.056887 0.280208 0.038150
O O4 0.807660 0.101265 0.066809
O O5 0.260925 0.186079 0.507392
O O6 0.500000 0.000000 0.000000
O O7 0.297298 0.024706 0.042832
O O8 0.845351 0.238162 0.487124
O O9 0.078471 0.474755 0.241709
O O10 0.770833 0.522730 0.032183
O O11 0.722771 0.025811 0.603696
O O12 0.000000 0.000000 0.000000
O O13 0.717140 0.633974 0.286288
O O14 0.593615 0.449879 0.757742
O O15 0.506682 0.829630 0.757519
O O16 0.389095 0.349685 0.066158
#
# Coordination Sequence:
#
# PCOD9072972 Si02
#       8
#     2   2   2   2   2   1   2   2
#     4  10  20  40  70 102 146 192 246 297 366 443
#     4  11  26  45  65 108 149 193 246 308 363 444
#     4  10  20  45  70 107 143 190 247 302 361 447
#     4  11  27  51  78 105 151 195 243 313 374 445
#     4  10  20  39  66 109 146 188 237 306 367 429
#     4  12  28  48  72 108 148 186 250 302 384 434
#     4  11  21  43  74 105 143 192 250 295 368 442
#     4  11  23  38  69 107 144 194 236 303 363 434
#
# _framework density 24.048784000000001
#
# number of rings (size 3 to 8) (size 9 to 14) (size 15 to 20)
#    0.000    1.333    2.667    2.800    5.600    2.133 
#    2.400    3.333    0.000    0.000    0.000    0.000 
#    0.000    0.000    0.000    0.000    0.000    0.000 
#
# Total GULP energy -83538.249219 kJ/mol
# GULP energy per Si atom -5569.216615 kJ/mol
# Density = 2.399405 g / cm^3
# Si number density = 24.048784 Si / 1000 Ang^3
#
#
#
# Elastic Constant Matrix: (Units=GPa)
#
#
# Indices 1 2 3 4 5 6 
#
# 1 22.5175 -40.7551 18.2608 -21.6311 3.2585 8.8667
# 2 -40.7551 60.9110 18.0653 -9.5398 6.8502 18.7576
# 3 18.2608 18.0653 118.3318 -41.3476 36.1138 -4.3946
# 4 -21.6311 -9.5398 -41.3476 10.0339 -7.0488 7.0019
# 5 3.2585 6.8502 36.1138 -7.0488 35.1841 5.9766
# 6 8.8667 18.7576 -4.3946 7.0019 5.9766 18.9045
#
#
#
# Elastic Compliance Matrix: (Units=1/GPa)
#
#
# Indices 1 2 3 4 5 6 
#
# 1 0.032160 0.024447 -0.059535 -0.112990 0.034511 -0.022242
# 2 0.024447 0.040487 -0.061767 -0.112214 0.036903 -0.036102
# 3 -0.059535 -0.061767 0.112782 0.169554 -0.077347 0.077081
# 4 -0.112990 -0.112214 0.169554 0.276217 -0.109497 0.136063
# 5 0.034511 0.036903 -0.077347 -0.109497 0.085205 -0.057165
# 6 -0.022242 -0.036102 0.077081 0.136063 -0.057165 0.084746
#
#
# Mechanical properties :
#
#
# Convention : Reuss Voigt Hill
#
# Bulk Modulus (GPa) = -120.77562 21.43358 -49.67102
# Shear Modulus (GPa) = 6.07870 26.57049 16.32459
#
# Velocity S-wave (km/s) = 1.59158 3.32755 2.60823
# Velocity P-wave (km/s) = 6.85220 4.86778 3.41008
#
# Compressibility (1/GPa) = -0.00827982
#
# Stress axis : x y z
#
# Youngs Moduli (GPa) = 31.09432 24.69957 8.86670
#
# Poissons Ratio (x) = -0.60384 0.52788
# Poissons Ratio (y) = -0.76017 0.54767
# Poissons Ratio (z) = 1.85119 1.52561
#
# Static dielectric constant tensor:
#      x y z
#    x 2.051640 0.127460 0.099860 
#    y 0.127460 1.992120 0.187040 
#    z 0.099860 0.187040 2.125250 
# 
# From -- ./inp_files/216391.got.cif
#   From: 2010.05.17/outbox.ucp.g08.bks.cvg/sg2_109_cif.got.tgz:216391.got - 2010.06.11 11:32:03.
