data_PCOD9072380
_publ_section_title
;
Structure prediction by ZEFSAII (Michael W. Deem and Ramdas Pophale) SiO2 
 PCOD9072380
Probable space group: P -1
;
_chemical_formula_sum "Si O2"
_cell_formula_units_Z 16
_cell_length_a 18.000000
_cell_length_b 12.000000
_cell_length_c 9.000000
_cell_angle_alpha 130.000000
_cell_angle_beta 100.000000
_cell_angle_gamma 40.000000
_cell_volume 729.599496
_symmetry_space_group_name_H-M "P -1"
_symmetry_group_IT_number 2
_symmetry_cell_setting 'triclinic'
loop_
_space_group_symop_operation_xyz
x,y,z
-x,-y,-z
loop_
_atom_site_type_symbol
_atom_site_label
_atom_site_fract_x
_atom_site_fract_y
_atom_site_fract_z
Si Si1 0.318670 0.361752 0.436199
Si Si2 0.499505 0.579486 0.908915
Si Si3 0.975237 0.583126 0.734335
Si Si4 0.740026 0.217093 0.117694
Si Si5 0.209127 0.780674 0.207590
Si Si6 0.122389 0.555087 0.277793
Si Si7 0.650730 0.771540 0.167423
Si Si8 0.707922 0.834090 0.521810
O O1 0.285241 0.585662 0.647133
O O2 0.242886 0.437879 0.323078
O O3 0.239431 0.393546 0.561241
O O4 0.497517 0.028274 0.236017
O O5 0.389930 0.900755 0.175972
O O6 0.500000 0.500000 0.000000
O O7 0.416360 0.613236 0.794958
O O8 0.673949 0.330604 0.737681
O O9 0.907095 0.556901 0.767280
O O10 0.000000 0.500000 0.500000
O O11 0.145194 0.330969 0.630541
O O12 0.866771 0.904901 0.971514
O O13 0.783741 0.171266 0.918962
O O14 0.283870 0.495014 0.988923
O O15 0.037358 0.090795 0.468552
O O16 0.206826 0.402427 0.020396
O O17 0.612686 0.933934 0.436291
#
# Coordination Sequence:
#
# PCOD9072380 Si02
#       8
#     2   2   2   2   2   2   2   2
#     4  12  24  44  71  98 131 178 226 274 324 394
#     4  10  19  35  64  99 128 162 220 274 320 379
#     4  12  22  43  68  97 135 176 219 272 331 390
#     4  11  22  39  70 104 126 169 232 276 322 386
#     4  11  21  40  68  99 130 173 218 277 331 387
#     4  12  27  45  67  97 140 179 216 270 342 399
#     4  12  26  43  67 103 137 173 220 274 337 395
#     4  12  22  41  72  97 130 173 225 276 319 391
#
# _framework density 21.929839999999999
#
# number of rings (size 3 to 8) (size 9 to 14) (size 15 to 20)
#    0.000    0.500    6.250    3.375    1.750    1.500 
#    0.000    0.625    0.000    0.000    0.000    0.000 
#    0.000    0.000    0.000    0.000    0.000    0.000 
#
# Total GULP energy -89457.203136 kJ/mol
# GULP energy per Si atom -5591.075196 kJ/mol
# Density = 2.187993 g / cm^3
# Si number density = 21.929840 Si / 1000 Ang^3
#
#
#
# Elastic Constant Matrix: (Units=GPa)
#
#
# Indices 1 2 3 4 5 6 
#
# 1 100.0279 21.6648 34.6287 2.9946 22.8338 -5.3597
# 2 21.6648 53.8393 20.8813 23.3982 10.3589 -18.3952
# 3 34.6287 20.8813 65.7987 16.9748 18.3108 -0.6448
# 4 2.9946 23.3982 16.9748 38.7222 8.6324 3.9419
# 5 22.8338 10.3589 18.3108 8.6324 33.8676 9.4007
# 6 -5.3597 -18.3952 -0.6448 3.9419 9.4007 35.6307
#
#
#
# Elastic Compliance Matrix: (Units=1/GPa)
#
#
# Indices 1 2 3 4 5 6 
#
# 1 0.014361 -0.004131 -0.005642 0.005309 -0.007055 0.001199
# 2 -0.004131 0.043460 -0.001793 -0.025577 -0.010630 0.027418
# 3 -0.005642 -0.001793 0.022268 -0.006965 -0.006199 0.001035
# 4 0.005309 -0.025577 -0.006965 0.045435 0.001405 -0.017930
# 5 -0.007055 -0.010630 -0.006199 0.001405 0.045772 -0.018893
# 6 0.001199 0.027418 0.001035 -0.017930 -0.018893 0.049388
#
#
# Mechanical properties :
#
#
# Convention : Reuss Voigt Hill
#
# Bulk Modulus (GPa) = 17.55680 41.55728 29.55704
# Shear Modulus (GPa) = 19.02583 31.14348 25.08465
#
# Velocity S-wave (km/s) = 2.94866 3.77257 3.38577
# Velocity P-wave (km/s) = 4.42900 6.16178 5.36580
#
# Compressibility (1/GPa) = 0.05695797
#
# Stress axis : x y z
#
# Youngs Moduli (GPa) = 69.63458 23.00968 44.90713
#
# Poissons Ratio (x) = 0.09505 0.25335
# Poissons Ratio (y) = 0.28765 0.08052
# Poissons Ratio (z) = 0.39285 0.04125
#
# Static dielectric constant tensor:
#      x y z
#    x 1.886130 -0.036530 0.003260 
#    y -0.036530 1.835870 0.035230 
#    z 0.003260 0.035230 1.784780 
# 
# From -- ./inp_files/333782.got.cif
#   From: 2010.05.17/outbox.ucp.g08.bks.cvg/sg2_167_cif.got.tgz:333782.got - 2010.06.11 11:32:03.
