data_PCOD9072387
_publ_section_title
;
Structure prediction by ZEFSAII (Michael W. Deem and Ramdas Pophale) SiO2 
 PCOD9072387
Probable space group: P -1
;
_chemical_formula_sum "Si O2"
_cell_formula_units_Z 12
_cell_length_a 12.000000
_cell_length_b 9.000000
_cell_length_c 12.000000
_cell_angle_alpha 110.000000
_cell_angle_beta 120.000000
_cell_angle_gamma 120.000000
_cell_volume 596.740311
_symmetry_space_group_name_H-M "P -1"
_symmetry_group_IT_number 2
_symmetry_cell_setting 'triclinic'
loop_
_space_group_symop_operation_xyz
x,y,z
-x,-y,-z
loop_
_atom_site_type_symbol
_atom_site_label
_atom_site_fract_x
_atom_site_fract_y
_atom_site_fract_z
Si Si1 0.393152 0.057271 0.921516
Si Si2 0.199526 0.391612 0.633448
Si Si3 0.780708 0.768149 0.758976
Si Si4 0.330678 0.245229 0.519436
Si Si5 0.885030 0.560926 0.624563
Si Si6 0.760535 0.091809 0.444819
O O1 0.361046 0.025231 0.765080
O O2 0.568225 0.371017 0.122767
O O3 0.154812 0.843852 0.810027
O O4 0.500000 0.000000 0.000000
O O5 0.178813 0.208002 0.509152
O O6 0.212733 0.528215 0.572772
O O7 0.996045 0.241073 0.570620
O O8 0.563097 0.562543 0.676520
O O9 0.785112 0.899264 0.694833
O O10 0.788227 0.605418 0.659912
O O11 0.000000 0.000000 0.000000
O O12 0.374081 0.138823 0.588528
O O13 0.821057 0.326310 0.577872
#
# Coordination Sequence:
#
# PCOD9072387 Si02
#       6
#     2   2   2   2   2   2
#     4  11  18  33  58  84 112 146 175 211 275 331
#     4  10  19  36  56  82 116 145 173 217 275 328
#     4  10  22  43  58  74 105 151 190 221 270 325
#     4  10  23  38  57  80 111 145 181 228 271 316
#     4  10  20  35  58  81 111 143 181 225 266 322
#     4  11  21  34  55  90 113 135 180 228 271 320
#
# _framework density 20.109249999999999
#
# number of rings (size 3 to 8) (size 9 to 14) (size 15 to 20)
#    0.000    1.667    3.333    2.500    0.000    2.667 
#    0.000    0.833    0.000    0.000    0.000    0.000 
#    0.000    0.000    0.000    0.000    0.000    0.000 
#
# Total GULP energy -66856.635259 kJ/mol
# GULP energy per Si atom -5571.386272 kJ/mol
# Density = 2.006348 g / cm^3
# Si number density = 20.109250 Si / 1000 Ang^3
#
#
#
# Elastic Constant Matrix: (Units=GPa)
#
#
# Indices 1 2 3 4 5 6 
#
# 1 65.6954 19.6477 2.8496 -0.6311 7.9192 -0.4296
# 2 19.6477 94.3849 14.8084 -9.1933 -7.6036 -18.9473
# 3 2.8496 14.8084 91.6719 -12.1174 6.5259 -4.6756
# 4 -0.6311 -9.1933 -12.1174 -1.0326 -5.5999 5.0665
# 5 7.9192 -7.6036 6.5259 -5.5999 15.7319 -6.8472
# 6 -0.4296 -18.9473 -4.6756 5.0665 -6.8472 -0.7402
#
#
#
# Elastic Compliance Matrix: (Units=1/GPa)
#
#
# Indices 1 2 3 4 5 6 
#
# 1 0.014647 0.001081 0.001609 0.013321 0.003330 0.014031
# 2 0.001081 0.002339 -0.003253 -0.020440 -0.016637 -0.025955
# 3 0.001609 -0.003253 0.010331 -0.015216 -0.009945 0.004914
# 4 0.013321 -0.020440 -0.015216 -0.178934 -0.067813 0.014135
# 5 0.003330 -0.016637 -0.009945 -0.067813 0.008687 -0.057777
# 6 0.014031 -0.025955 0.004914 0.014135 -0.057777 -0.094573
#
#
# Mechanical properties :
#
#
# Convention : Reuss Voigt Hill
#
# Bulk Modulus (GPa) = 38.17885 36.26264 37.22075
# Shear Modulus (GPa) = -21.96377 17.08825 -2.43776
#
# Velocity S-wave (km/s) = -3.30846 2.91825 -1.10222
# Velocity P-wave (km/s) = 2.10532 5.42465 4.11456
#
# Compressibility (1/GPa) = 0.02619251
#
# Stress axis : x y z
#
# Youngs Moduli (GPa) = 68.27386 427.57028 96.79411
#
# Poissons Ratio (x) = -0.46221 -0.15578
# Poissons Ratio (y) = -0.07380 0.31483
# Poissons Ratio (z) = -0.10988 1.39072
#
# Static dielectric constant tensor:
#      x y z
#    x 1.701720 -0.074850 -0.017440 
#    y -0.074850 1.776770 0.011720 
#    z -0.017440 0.011720 1.781640 
# 
# From -- ./inp_files/20488.got.cif
#   From: 2010.05.17/outbox.ucp.g08.bks.cvg/sg2_11_cif.got.tgz:20488.got - 2010.06.11 11:32:03.
