data_PCOD9072477
_publ_section_title
;
Structure prediction by ZEFSAII (Michael W. Deem and Ramdas Pophale) SiO2 
 PCOD9072477
Probable space group: P -1
;
_chemical_formula_sum "Si O2"
_cell_formula_units_Z 16
_cell_length_a 9.000000
_cell_length_b 12.000000
_cell_length_c 18.000000
_cell_angle_alpha 140.000000
_cell_angle_beta 100.000000
_cell_angle_gamma 50.000000
_cell_volume 729.599496
_symmetry_space_group_name_H-M "P -1"
_symmetry_group_IT_number 2
_symmetry_cell_setting 'triclinic'
loop_
_space_group_symop_operation_xyz
x,y,z
-x,-y,-z
loop_
_atom_site_type_symbol
_atom_site_label
_atom_site_fract_x
_atom_site_fract_y
_atom_site_fract_z
Si Si1 0.994723 0.129186 0.231472
Si Si2 0.480573 0.354895 0.478061
Si Si3 0.471655 0.934023 0.788235
Si Si4 0.774037 0.342840 0.588371
Si Si5 0.846261 0.322220 0.159561
Si Si6 0.991174 0.281590 0.997865
Si Si7 0.287591 0.697355 0.274275
Si Si8 0.452645 0.327026 0.957357
O O1 0.820318 0.387809 0.406761
O O2 0.926863 0.294559 0.234802
O O3 0.900267 0.016630 0.155439
O O4 0.285762 0.824767 0.121594
O O5 0.500000 0.500000 0.500000
O O6 0.592412 0.087475 0.309299
O O7 0.620060 0.305601 0.536553
O O8 0.646930 0.629965 0.688448
O O9 0.573090 0.031566 0.840602
O O10 0.211235 0.197926 0.944841
O O11 0.770831 0.359689 0.685711
O O12 0.052405 0.047186 0.428486
O O13 0.552970 0.549426 0.236346
O O14 0.933280 0.361240 0.119626
O O15 0.000000 0.000000 0.000000
O O16 0.745211 0.523783 0.048808
O O17 0.327373 0.544028 0.126257
#
# Coordination Sequence:
#
# PCOD9072477 Si02
#       8
#     2   2   2   2   2   2   2   2
#     4  11  21  39  65  92 119 168 212 251 306 368
#     4  10  19  37  65  83 117 168 207 243 295 377
#     4  11  24  41  61  92 131 168 198 254 329 365
#     4  10  21  38  62  92 121 168 211 252 300 373
#     4  10  19  37  64  91 121 159 212 257 297 363
#     4  11  21  39  63  90 123 165 213 253 302 368
#     4  11  21  36  64  96 123 155 217 261 295 366
#     4  12  26  37  62 101 128 155 206 269 315 360
#
# _framework density 21.929839999999999
#
# number of rings (size 3 to 8) (size 9 to 14) (size 15 to 20)
#    0.000    1.250    6.250    2.250    1.750    1.000 
#    0.000    0.000    0.000    1.500    0.000    0.000 
#    0.000    0.000    0.000    0.000    0.000    0.000 
#
# Total GULP energy -89194.288564 kJ/mol
# GULP energy per Si atom -5574.643035 kJ/mol
# Density = 2.187993 g / cm^3
# Si number density = 21.929840 Si / 1000 Ang^3
#
#
#
# Elastic Constant Matrix: (Units=GPa)
#
#
# Indices 1 2 3 4 5 6 
#
# 1 28.6294 5.0580 22.0632 5.5377 0.0747 -1.1388
# 2 5.0580 99.5200 31.5424 -0.7185 -11.0289 1.8985
# 3 22.0632 31.5424 84.2049 2.5687 -28.4479 6.0786
# 4 5.5377 -0.7185 2.5687 35.3990 -2.6773 -12.8864
# 5 0.0747 -11.0289 -28.4479 -2.6773 24.3173 8.9830
# 6 -1.1388 1.8985 6.0786 -12.8864 8.9830 16.4270
#
#
#
# Elastic Compliance Matrix: (Units=1/GPa)
#
#
# Indices 1 2 3 4 5 6 
#
# 1 0.144665 0.006412 -0.145038 0.058844 -0.251934 0.246887
# 2 0.006412 0.011714 -0.011261 0.003849 -0.012251 0.012976
# 3 -0.145038 -0.011261 0.194414 -0.087517 0.336232 -0.333213
# 4 0.058844 0.003849 -0.087517 0.081904 -0.161457 0.188561
# 5 -0.251934 -0.012251 0.336232 -0.161457 0.639840 -0.617016
# 6 0.246887 0.012976 -0.333213 0.188561 -0.617016 0.685122
#
#
# Mechanical properties :
#
#
# Convention : Reuss Voigt Hill
#
# Bulk Modulus (GPa) = 19.60046 36.63130 28.11588
# Shear Modulus (GPa) = 2.41029 25.47472 13.94251
#
# Velocity S-wave (km/s) = 1.04951 3.41199 2.52420
# Velocity P-wave (km/s) = 3.22891 5.68000 4.61997
#
# Compressibility (1/GPa) = 0.05101920
#
# Stress axis : x y z
#
# Youngs Moduli (GPa) = 6.91250 85.36721 5.14367
#
# Poissons Ratio (x) = -0.54741 0.74603
# Poissons Ratio (y) = -0.04433 0.05792
# Poissons Ratio (z) = 1.00258 0.96132
#
# Static dielectric constant tensor:
#      x y z
#    x 1.636520 -0.186840 -0.128970 
#    y -0.186840 1.657260 -0.145410 
#    z -0.128970 -0.145410 1.691450 
# 
# From -- ./inp_files/467466.got.cif
#   From: 2010.05.17/outbox.ucp.g08.bks.cvg/sg2_234_cif.got.tgz:467466.got - 2010.06.11 11:32:03.
