data_PCOD9072784
_publ_section_title
;
Structure prediction by ZEFSAII (Michael W. Deem and Ramdas Pophale) SiO2 
 PCOD9072784
Probable space group: P -1
;
_chemical_formula_sum "Si O2"
_cell_formula_units_Z 16
_cell_length_a 9.000000
_cell_length_b 15.000000
_cell_length_c 12.000000
_cell_angle_alpha 130.000000
_cell_angle_beta 110.000000
_cell_angle_gamma 110.000000
_cell_volume 728.972637
_symmetry_space_group_name_H-M "P -1"
_symmetry_group_IT_number 2
_symmetry_cell_setting 'triclinic'
loop_
_space_group_symop_operation_xyz
x,y,z
-x,-y,-z
loop_
_atom_site_type_symbol
_atom_site_label
_atom_site_fract_x
_atom_site_fract_y
_atom_site_fract_z
Si Si1 0.357632 0.918324 0.281094
Si Si2 0.925670 0.384211 0.551063
Si Si3 0.575684 0.182053 0.983133
Si Si4 0.381911 0.195224 0.444231
Si Si5 0.921548 0.205850 0.215693
Si Si6 0.829253 0.926607 0.070276
Si Si7 0.890362 0.498306 0.864551
Si Si8 0.416965 0.608005 0.580340
O O1 0.500000 0.000000 0.500000
O O2 0.384706 0.056868 0.338822
O O3 0.478785 0.889565 0.212419
O O4 0.067122 0.707787 0.045669
O O5 0.880386 0.397968 0.679206
O O6 0.716687 0.341916 0.398900
O O7 0.201343 0.596370 0.775349
O O8 0.931108 0.265554 0.391760
O O9 0.691212 0.137477 0.040815
O O10 0.332522 0.095734 0.902946
O O11 0.605845 0.367457 0.718063
O O12 0.461185 0.307999 0.442154
O O13 0.098724 0.056609 0.291914
O O14 0.181065 0.389125 0.367183
O O15 0.876303 0.043179 0.074052
O O16 0.645064 0.720513 0.814265
O O17 0.000000 0.500000 0.000000
#
# Coordination Sequence:
#
# PCOD9072784 Si02
#       8
#     2   2   2   2   2   2   2   2
#     4  11  23  42  69  85 107 158 210 252 301 346
#     4   9  18  35  61  88 117 153 205 245 286 340
#     4  10  20  37  61  91 118 157 206 243 285 363
#     4  11  25  39  57  92 123 157 196 249 306 352
#     4  11  20  35  61  89 122 166 198 234 297 349
#     4  12  23  34  58  92 130 158 192 238 303 363
#     4  10  21  40  66  87 112 151 211 256 284 356
#     4  10  20  37  55  85 128 159 197 243 282 360
#
# _framework density 21.948698
#
# number of rings (size 3 to 8) (size 9 to 14) (size 15 to 20)
#    0.000    1.500    3.750    3.000    3.500    1.500 
#    0.000    0.625    0.000    1.500    0.000    0.000 
#    0.000    0.000    0.000    0.000    0.000    0.000 
#
# Total GULP energy -89149.462091 kJ/mol
# GULP energy per Si atom -5571.841381 kJ/mol
# Density = 2.189874 g / cm^3
# Si number density = 21.948698 Si / 1000 Ang^3
#
#
#
# Elastic Constant Matrix: (Units=GPa)
#
#
# Indices 1 2 3 4 5 6 
#
# 1 76.0488 24.0737 71.8845 8.4581 27.4895 10.6215
# 2 24.0737 33.7990 32.1447 0.3105 12.4037 20.5833
# 3 71.8845 32.1447 120.2314 -10.1158 32.2024 20.0886
# 4 8.4581 0.3105 -10.1158 41.0366 14.8542 -1.7466
# 5 27.4895 12.4037 32.2024 14.8542 41.1400 10.4645
# 6 10.6215 20.5833 20.0886 -1.7466 10.4645 7.6306
#
#
#
# Elastic Compliance Matrix: (Units=1/GPa)
#
#
# Indices 1 2 3 4 5 6 
#
# 1 0.033438 0.009155 -0.020003 -0.013391 0.001374 -0.023529
# 2 0.009155 -0.021092 -0.010967 0.006906 -0.019417 0.101234
# 3 -0.020003 -0.010967 0.026294 0.014970 -0.011035 0.006766
# 4 -0.013391 0.006906 0.014970 0.035787 -0.015104 -0.010495
# 5 0.001374 -0.019417 -0.011035 -0.015104 0.036838 0.025539
# 6 -0.023529 0.101234 0.006766 -0.010495 0.025539 -0.164511
#
#
# Mechanical properties :
#
#
# Convention : Reuss Voigt Hill
#
# Bulk Modulus (GPa) = -200.36178 54.03168 -73.16505
# Shear Modulus (GPa) = -443.25687 24.75987 -209.24850
#
# Velocity S-wave (km/s) = -14.22638 3.36233 -9.77457
# Velocity P-wave (km/s) = 19.00888 6.30432 12.68056
#
# Compressibility (1/GPa) = -0.00499097
#
# Stress axis : x y z
#
# Youngs Moduli (GPa) = 29.90607 -47.41091 38.03197
#
# Poissons Ratio (x) = 0.43407 0.76076
# Poissons Ratio (y) = -0.27380 0.41711
# Poissons Ratio (z) = 0.59822 -0.51998
#
# Static dielectric constant tensor:
#      x y z
#    x 1.869280 -0.000820 0.039160 
#    y -0.000820 1.957670 -0.055790 
#    z 0.039160 -0.055790 1.937940 
# 
# From -- ./inp_files/284698.got.cif
#   From: 2010.05.17/outbox.ucp.g08.bks.cvg/sg2_143_cif.got.tgz:284698.got - 2010.06.11 11:32:03.
