data_PCOD9072368
_publ_section_title
;
Structure prediction by ZEFSAII (Michael W. Deem and Ramdas Pophale) SiO2 
 PCOD9072368
Probable space group: P -1
;
_chemical_formula_sum "Si O2"
_cell_formula_units_Z 16
_cell_length_a 15.000000
_cell_length_b 12.000000
_cell_length_c 12.000000
_cell_angle_alpha 50.000000
_cell_angle_beta 120.000000
_cell_angle_gamma 150.000000
_cell_volume 818.222392
_symmetry_space_group_name_H-M "P -1"
_symmetry_group_IT_number 2
_symmetry_cell_setting 'triclinic'
loop_
_space_group_symop_operation_xyz
x,y,z
-x,-y,-z
loop_
_atom_site_type_symbol
_atom_site_label
_atom_site_fract_x
_atom_site_fract_y
_atom_site_fract_z
Si Si1 0.780770 0.594416 0.667515
Si Si2 0.204491 0.521940 0.663318
Si Si3 0.832238 0.937698 0.781408
Si Si4 0.532727 0.772759 0.835489
Si Si5 0.180161 0.032719 0.517122
Si Si6 0.838269 0.318069 0.271924
Si Si7 0.240867 0.674997 0.338871
Si Si8 0.258968 0.488012 0.036419
O O1 0.728511 0.706705 0.555337
O O2 0.688700 0.360657 0.685302
O O3 0.756294 0.528346 0.826997
O O4 0.984607 0.819046 0.596192
O O5 0.361923 0.601479 0.757589
O O6 0.214067 0.683369 0.636482
O O7 0.217217 0.565408 0.512091
O O8 0.010536 0.224173 0.753307
O O9 0.666152 0.809329 0.836131
O O10 0.820201 0.959042 0.625435
O O11 0.854394 0.787410 0.894845
O O12 0.633954 0.043900 0.735263
O O13 0.447244 0.660601 0.979911
O O14 0.244061 0.938998 0.641621
O O15 0.051372 0.526266 0.275589
O O16 0.795217 0.412885 0.108265
#
# Coordination Sequence:
#
# PCOD9072368 Si02
#       8
#     2   2   2   2   2   2   2   2
#     4   9  19  37  62  89 121 165 211 245 308 361
#     4  11  21  38  65  95 120 162 206 262 307 356
#     4  11  20  42  66  91 125 158 210 258 307 359
#     4  11  24  37  61  96 128 161 200 255 314 371
#     4   9  18  34  65  91 113 163 208 260 296 354
#     4  10  19  35  61  90 124 157 203 249 314 354
#     4  11  20  37  62  93 124 161 205 261 304 361
#     4  10  24  39  59  94 127 168 200 249 307 380
#
# _framework density 19.554586
#
# number of rings (size 3 to 8) (size 9 to 14) (size 15 to 20)
#    0.000    1.750    3.750    1.875    0.000    5.500 
#    2.250    0.000    0.000   13.500    0.000    0.000 
#    0.000    0.000    0.000    0.000    0.000    0.000 
#
# Total GULP energy -89070.867522 kJ/mol
# GULP energy per Si atom -5566.929220 kJ/mol
# Density = 1.951008 g / cm^3
# Si number density = 19.554586 Si / 1000 Ang^3
#
#
#
# Elastic Constant Matrix: (Units=GPa)
#
#
# Indices 1 2 3 4 5 6 
#
# 1 167.3851 37.5350 52.4763 7.2013 3.7291 -29.2811
# 2 37.5350 35.9775 10.1362 1.8132 4.7145 -0.9750
# 3 52.4763 10.1362 111.3172 1.2963 -2.0961 -11.8718
# 4 7.2013 1.8132 1.2963 16.7008 -6.1454 1.4051
# 5 3.7291 4.7145 -2.0961 -6.1454 55.5576 -9.1201
# 6 -29.2811 -0.9750 -11.8718 1.4051 -9.1201 39.4846
#
#
#
# Elastic Compliance Matrix: (Units=1/GPa)
#
#
# Indices 1 2 3 4 5 6 
#
# 1 0.010544 -0.009806 -0.003288 -0.003534 0.000740 0.006885
# 2 -0.009806 0.038284 0.000318 -0.000764 -0.003827 -0.007088
# 3 -0.003288 0.000318 0.010610 0.000789 0.000833 0.000924
# 4 -0.003534 -0.000764 0.000789 0.064233 0.006930 -0.003087
# 5 0.000740 -0.003827 0.000833 0.006930 0.019902 0.005055
# 6 0.006885 -0.007088 0.000924 -0.003087 0.005055 0.031812
#
#
# Mechanical properties :
#
#
# Convention : Reuss Voigt Hill
#
# Bulk Modulus (GPa) = 29.51238 57.21943 43.36591
# Shear Modulus (GPa) = 23.55890 36.65077 30.10484
#
# Velocity S-wave (km/s) = 3.47475 4.33399 3.92794
# Velocity P-wave (km/s) = 5.58781 7.37357 6.54191
#
# Compressibility (1/GPa) = 0.03388408
#
# Stress axis : x y z
#
# Youngs Moduli (GPa) = 94.83916 26.12026 94.25463
#
# Poissons Ratio (x) = 0.25615 0.30994
# Poissons Ratio (y) = 0.93003 -0.02995
# Poissons Ratio (z) = 0.31186 -0.00830
#
# Static dielectric constant tensor:
#      x y z
#    x 1.684090 0.002200 0.009390 
#    y 0.002200 1.744370 -0.040340 
#    z 0.009390 -0.040340 1.725030 
# 
# From -- ./inp_files/295872.got.cif
#   From: 2010.05.17/outbox.ucp.g08.bks.cvg/sg2_148_cif.got.tgz:295872.got - 2010.06.11 11:32:03.
