data_PCOD9072549
_publ_section_title
;
Structure prediction by ZEFSAII (Michael W. Deem and Ramdas Pophale) SiO2 
 PCOD9072549
Probable space group: P -1
;
_chemical_formula_sum "Si O2"
_cell_formula_units_Z 14
_cell_length_a 12.000000
_cell_length_b 18.000000
_cell_length_c 15.000000
_cell_angle_alpha 150.000000
_cell_angle_beta 150.000000
_cell_angle_gamma 30.000000
_cell_volume 717.483392
_symmetry_space_group_name_H-M "P -1"
_symmetry_group_IT_number 2
_symmetry_cell_setting 'triclinic'
loop_
_space_group_symop_operation_xyz
x,y,z
-x,-y,-z
loop_
_atom_site_type_symbol
_atom_site_label
_atom_site_fract_x
_atom_site_fract_y
_atom_site_fract_z
Si Si1 0.205571 0.163581 0.219251
Si Si2 0.977162 0.331253 0.420231
Si Si3 0.485511 0.328915 0.519668
Si Si4 0.772364 0.462318 0.118054
Si Si5 0.812452 0.479424 0.954573
Si Si6 0.624103 0.624929 0.714370
Si Si7 0.629390 0.201291 0.115147
O O1 0.459033 0.181653 0.397752
O O2 0.099139 0.219832 0.302867
O O3 0.986786 0.295183 0.139432
O O4 0.272923 0.976967 0.046889
O O5 0.728902 0.506204 0.407149
O O6 0.857896 0.247844 0.316602
O O7 0.165296 0.388254 0.654902
O O8 0.389203 0.333844 0.356676
O O9 0.739844 0.346778 0.716491
O O10 0.770609 0.455075 0.003457
O O11 0.500000 0.500000 0.000000
O O12 0.097658 0.453299 0.129585
O O13 0.608088 0.657611 0.958139
O O14 0.500000 0.500000 0.500000
O O15 0.459514 0.781677 0.826750
#
# Coordination Sequence:
#
# PCOD9072549 Si02
#       7
#     2   2   2   2   2   2   2
#     4  11  22  41  60  93 130 154 200 265 314 348
#     4  10  19  39  61  87 123 164 202 244 304 372
#     4  10  21  39  66  90 118 165 206 249 302 363
#     4  11  20  37  65  91 121 164 211 247 298 376
#     4  11  21  40  65  92 114 164 219 239 299 377
#     4  12  21  42  66  90 122 163 214 246 297 376
#     4  11  24  38  64  91 123 164 200 261 311 351
#
# _framework density 19.512647000000001
#
# number of rings (size 3 to 8) (size 9 to 14) (size 15 to 20)
#    0.000    1.143    5.714    5.143    0.000    0.571 
#    0.000    7.857    0.000    0.000    0.000    0.000 
#    0.000    0.000    0.000    0.000    0.000    0.000 
#
# Total GULP energy -78061.779161 kJ/mol
# GULP energy per Si atom -5575.841369 kJ/mol
# Density = 1.946824 g / cm^3
# Si number density = 19.512647 Si / 1000 Ang^3
#
#
#
# Elastic Constant Matrix: (Units=GPa)
#
#
# Indices 1 2 3 4 5 6 
#
# 1 90.0226 33.4380 29.7996 -10.7645 -3.1810 -11.7899
# 2 33.4380 39.3963 42.8855 -5.8375 -2.6954 -1.5488
# 3 29.7996 42.8855 134.4869 -19.1558 15.4702 -10.1951
# 4 -10.7645 -5.8375 -19.1558 28.1784 -2.4256 7.2480
# 5 -3.1810 -2.6954 15.4702 -2.4256 47.7966 -5.7749
# 6 -11.7899 -1.5488 -10.1951 7.2480 -5.7749 -5.2047
#
#
#
# Elastic Compliance Matrix: (Units=1/GPa)
#
#
# Indices 1 2 3 4 5 6 
#
# 1 0.014079 -0.012559 0.000869 0.007655 -0.001749 -0.017256
# 2 -0.012559 0.051928 -0.014441 -0.008260 0.008770 0.020052
# 3 0.000869 -0.014441 0.013021 0.007468 -0.005410 -0.006773
# 4 0.007655 -0.008260 0.007468 0.036864 0.001882 0.019736
# 5 -0.001749 0.008770 -0.005410 0.001882 0.021963 -0.009799
# 6 -0.017256 0.020052 -0.006773 0.019736 -0.009799 -0.107388
#
#
# Mechanical properties :
#
#
# Convention : Reuss Voigt Hill
#
# Bulk Modulus (GPa) = 37.36354 52.90578 45.13466
# Shear Modulus (GPa) = 54.55414 24.67289 39.61352
#
# Velocity S-wave (km/s) = 5.29330 3.55978 4.51060
# Velocity P-wave (km/s) = 7.51988 6.63841 7.09285
#
# Compressibility (1/GPa) = 0.02676406
#
# Stress axis : x y z
#
# Youngs Moduli (GPa) = 71.02555 19.25752 76.79931
#
# Poissons Ratio (x) = 0.24186 -0.06671
# Poissons Ratio (y) = 0.89204 1.10908
# Poissons Ratio (z) = -0.06170 0.27810
#
# Static dielectric constant tensor:
#      x y z
#    x 1.751060 -0.002410 0.048610 
#    y -0.002410 1.656210 -0.002750 
#    z 0.048610 -0.002750 1.715830 
# 
# From -- ./inp_files/236219.got.cif
#   From: 2010.05.17/outbox.ucp.g08.bks.cvg/sg2_119_cif.got.tgz:236219.got - 2010.06.11 11:32:03.
