data_PCOD9072456
_publ_section_title
;
Structure prediction by ZEFSAII (Michael W. Deem and Ramdas Pophale) SiO2 
 PCOD9072456
Probable space group: P -1
;
_chemical_formula_sum "Si O2"
_cell_formula_units_Z 16
_cell_length_a 18.000000
_cell_length_b 9.000000
_cell_length_c 12.000000
_cell_angle_alpha 130.000000
_cell_angle_beta 140.000000
_cell_angle_gamma 80.000000
_cell_volume 729.599496
_symmetry_space_group_name_H-M "P -1"
_symmetry_group_IT_number 2
_symmetry_cell_setting 'triclinic'
loop_
_space_group_symop_operation_xyz
x,y,z
-x,-y,-z
loop_
_atom_site_type_symbol
_atom_site_label
_atom_site_fract_x
_atom_site_fract_y
_atom_site_fract_z
Si Si1 0.205285 0.866978 0.577250
Si Si2 0.699235 0.647413 0.182646
Si Si3 0.753456 0.429703 0.701743
Si Si4 0.101014 0.612138 0.949675
Si Si5 0.609032 0.484715 0.243710
Si Si6 0.826964 0.349190 0.186611
Si Si7 0.579274 0.012777 0.924435
Si Si8 0.912270 0.766414 0.870317
O O1 0.212181 0.713847 0.412870
O O2 0.348311 0.986416 0.878494
O O3 0.056861 0.672596 0.388350
O O4 0.203209 0.077127 0.625880
O O5 0.686018 0.657646 0.305497
O O6 0.774200 0.517457 0.189663
O O7 0.526289 0.514207 0.878326
O O8 0.857093 0.716752 0.910953
O O9 0.798623 0.408225 0.864674
O O10 0.574485 0.266135 0.412613
O O11 0.179068 0.750879 0.990954
O O12 0.034875 0.726419 0.990717
O O13 0.543640 0.204618 0.992547
O O14 0.744853 0.573368 0.525829
O O15 0.705468 0.137855 0.033403
O O16 0.000000 0.500000 0.500000
O O17 0.000000 0.000000 0.000000
#
# Coordination Sequence:
#
# PCOD9072456 Si02
#       8
#     2   2   2   2   2   2   2   2
#     4  11  19  38  64  97 123 161 210 266 312 365
#     4  10  22  32  66  93 120 156 215 271 299 359
#     4  11  23  38  62  99 128 161 206 261 321 365
#     4  11  24  41  60  92 132 172 201 253 321 379
#     4  10  19  37  58  99 119 158 212 262 311 355
#     4  11  23  46  60  90 127 172 216 248 318 388
#     4  11  20  40  71  88 128 168 208 264 312 372
#     4  11  23  38  63  92 130 165 205 259 317 373
#
# _framework density 21.929839999999999
#
# number of rings (size 3 to 8) (size 9 to 14) (size 15 to 20)
#    0.000    1.250    5.000    3.375    3.500    1.000 
#    0.000    0.000    0.000    2.250    0.000    0.000 
#    0.000    0.000    0.000    0.000    0.000    0.000 
#
# Total GULP energy -89196.167568 kJ/mol
# GULP energy per Si atom -5574.760473 kJ/mol
# Density = 2.187993 g / cm^3
# Si number density = 21.929840 Si / 1000 Ang^3
#
#
#
# Elastic Constant Matrix: (Units=GPa)
#
#
# Indices 1 2 3 4 5 6 
#
# 1 75.4394 0.4285 19.0795 -5.3969 29.9524 20.7655
# 2 0.4285 85.3164 13.7293 -6.1928 13.7333 22.4810
# 3 19.0795 13.7293 64.9244 -20.1957 20.8030 5.9807
# 4 -5.3969 -6.1928 -20.1957 37.5370 12.3938 9.6332
# 5 29.9524 13.7333 20.8030 12.3938 23.5885 -7.3679
# 6 20.7655 22.4810 5.9807 9.6332 -7.3679 44.3742
#
#
#
# Elastic Compliance Matrix: (Units=1/GPa)
#
#
# Indices 1 2 3 4 5 6 
#
# 1 0.004045 -0.005243 -0.013323 -0.017190 0.021793 0.009909
# 2 -0.005243 0.009223 -0.008176 -0.009210 0.014358 0.003266
# 3 -0.013323 -0.008176 0.013481 -0.004370 0.015878 0.012145
# 4 -0.017190 -0.009210 -0.004370 0.004284 0.034443 0.018088
# 5 0.021793 0.014358 0.015878 0.034443 -0.036069 -0.033078
# 6 0.009909 0.003266 0.012145 0.018088 -0.033078 0.005188
#
#
# Mechanical properties :
#
#
# Convention : Reuss Voigt Hill
#
# Bulk Modulus (GPa) = -37.40471 32.46166 -2.47153
# Shear Modulus (GPa) = 111.79956 33.92947 72.86452
#
# Velocity S-wave (km/s) = 7.14781 3.93769 5.77047
# Velocity P-wave (km/s) = 7.14339 5.95890 6.57787
#
# Compressibility (1/GPa) = -0.02673460
#
# Stress axis : x y z
#
# Youngs Moduli (GPa) = 247.21775 108.42796 74.17949
#
# Poissons Ratio (x) = 0.56851 0.98827
# Poissons Ratio (y) = 1.29621 0.60647
# Poissons Ratio (z) = 3.29361 0.88647
#
# Static dielectric constant tensor:
#      x y z
#    x 1.783100 0.019790 0.000130 
#    y 0.019790 1.874280 0.073750 
#    z 0.000130 0.073750 1.872140 
# 
# From -- ./inp_files/263324.got.cif
#   From: 2010.05.17/outbox.ucp.g08.bks.cvg/sg2_132_cif.got.tgz:263324.got - 2010.06.11 11:32:03.
