data_PCOD9072192
_publ_section_title
;
Structure prediction by ZEFSAII (Michael W. Deem and Ramdas Pophale) SiO2 
 PCOD9072192
Probable space group: P -1
;
_chemical_formula_sum "Si O2"
_cell_formula_units_Z 15
_cell_length_a 15.306561
_cell_length_b 5.143186
_cell_length_c 11.613348
_cell_angle_alpha 84.030316
_cell_angle_beta 141.107494
_cell_angle_gamma 78.945197
_cell_volume 513.598940
_symmetry_space_group_name_H-M "P -1"
_symmetry_group_IT_number 2
_symmetry_cell_setting 'triclinic'
loop_
_space_group_symop_operation_xyz
x,y,z
-x,-y,-z
loop_
_atom_site_type_symbol
_atom_site_label
_atom_site_fract_x
_atom_site_fract_y
_atom_site_fract_z
Si Si1 0.699305 0.580637 0.497113
Si Si2 0.500000 0.000000 0.500000
Si Si3 0.149748 0.466719 0.731322
Si Si4 0.593180 0.398560 0.759511
Si Si5 0.182779 0.062673 0.253084
Si Si6 0.069942 0.751737 0.864218
Si Si7 0.519558 0.710604 0.916228
Si Si8 0.793170 0.182307 0.406650
O O1 0.522373 0.759281 0.356852
O O2 0.787888 0.758157 0.619903
O O3 0.722462 0.479892 0.394534
O O4 0.762628 0.272391 0.642252
O O5 0.541596 0.674849 0.611557
O O6 0.692178 0.925393 0.706257
O O7 0.113057 0.486506 0.829103
O O8 0.172866 0.742925 0.689996
O O9 0.000000 0.500000 0.500000
O O10 0.331118 0.225587 0.915307
O O11 0.552985 0.549235 0.836494
O O12 0.774532 0.215112 0.957235
O O13 0.997826 0.222399 0.076540
O O14 0.947820 0.997989 0.644601
O O15 0.338276 0.934210 0.716231
O O16 0.500000 0.500000 0.000000
#
# Coordination Sequence:
#
# PCOD9072192 Si02
#       8
#     2   1   2   2   2   2   2   2
#     4   9  19  38  61  86 119 161 203 249 305 374
#     4  10  22  40  64  86 118 164 210 258 312 378
#     4  10  18  30  52  82 118 158 203 254 303 362
#     4   9  19  36  59  87 118 159 208 257 312 369
#     4  10  21  38  61  86 118 158 204 255 312 368
#     4  10  20  35  56  86 122 159 204 262 313 366
#     4   8  16  32  54  77 113 162 201 245 304 374
#     4   9  17  33  54  79 116 162 202 244 304 370
#
# _framework density 29.205669
#
# number of rings (size 3 to 8) (size 9 to 14) (size 15 to 20)
#    0.000    2.667    0.000    2.000    0.000    2.667 
#    0.000   14.000    0.000    7.200    0.000    0.000 
#    0.000    0.000    0.000    0.000    0.000    0.000 
#
# Total GULP energy -83528.896291 kJ/mol
# GULP energy per Si atom -5568.593086 kJ/mol
# Density = 2.913920 g / cm^3
# Si number density = 29.205669 Si / 1000 Ang^3
#
#
#
# Elastic Constant Matrix: (Units=GPa)
#
#
# Indices 1 2 3 4 5 6 
#
# 1 154.7198 19.4698 36.1454 -5.2326 24.4322 -25.9397
# 2 19.4698 95.5362 36.3936 0.2208 2.6353 4.8063
# 3 36.1454 36.3936 169.3973 5.4603 41.6739 -1.5453
# 4 -5.2326 0.2208 5.4603 29.5495 -7.2597 -10.1622
# 5 24.4322 2.6353 41.6739 -7.2597 68.5273 -3.8225
# 6 -25.9397 4.8063 -1.5453 -10.1622 -3.8225 32.9916
#
#
#
# Elastic Compliance Matrix: (Units=1/GPa)
#
#
# Indices 1 2 3 4 5 6 
#
# 1 0.008692 -0.001693 -0.001211 0.004243 -0.001392 0.008170
# 2 -0.001693 0.011912 -0.002564 -0.000666 0.001454 -0.003223
# 3 -0.001211 -0.002564 0.007988 -0.003480 -0.004799 -0.001832
# 4 0.004243 -0.000666 -0.003480 0.042622 0.006099 0.017105
# 5 -0.001392 0.001454 -0.004799 0.006099 0.018738 0.002518
# 6 0.008170 -0.003223 -0.001832 0.017105 0.002518 0.042679
#
#
# Mechanical properties :
#
#
# Convention : Reuss Voigt Hill
#
# Bulk Modulus (GPa) = 56.62902 67.07455 61.85179
# Shear Modulus (GPa) = 33.45546 48.05664 40.75605
#
# Velocity S-wave (km/s) = 3.38821 4.06082 3.73967
# Velocity P-wave (km/s) = 5.89394 6.70844 6.31434
#
# Compressibility (1/GPa) = 0.01765879
#
# Stress axis : x y z
#
# Youngs Moduli (GPa) = 115.04492 83.94607 125.18053
#
# Poissons Ratio (x) = 0.14209 0.15156
# Poissons Ratio (y) = 0.19473 0.32094
# Poissons Ratio (z) = 0.13929 0.21522
#
# Static dielectric constant tensor:
#      x y z
#    x 2.261800 -0.078380 0.144190 
#    y -0.078380 2.218000 -0.155850 
#    z 0.144190 -0.155850 2.428900 
# 
# From -- ./inp_files/536354.got.cif
#   From: 2010.05.17/outbox.cif.g08.bks.cpg/sg2_269_cif.got.tgz:536354.got - 2010.06.03 11:33:40.
