data_PCOD9072313
_publ_section_title
;
Structure prediction by ZEFSAII (Michael W. Deem and Ramdas Pophale) SiO2 
 PCOD9072313
Probable space group: P -1
;
_chemical_formula_sum "Si O2"
_cell_formula_units_Z 16
_cell_length_a 15.000000
_cell_length_b 9.000000
_cell_length_c 30.000000
_cell_angle_alpha 130.000000
_cell_angle_beta 160.000000
_cell_angle_gamma 40.000000
_cell_volume 833.890543
_symmetry_space_group_name_H-M "P -1"
_symmetry_group_IT_number 2
_symmetry_cell_setting 'triclinic'
loop_
_space_group_symop_operation_xyz
x,y,z
-x,-y,-z
loop_
_atom_site_type_symbol
_atom_site_label
_atom_site_fract_x
_atom_site_fract_y
_atom_site_fract_z
Si Si1 0.240574 0.173384 0.533079
Si Si2 0.343934 0.061939 0.190450
Si Si3 0.915144 0.093549 0.814263
Si Si4 0.356685 0.398379 0.382594
Si Si5 0.013133 0.428530 0.569057
Si Si6 0.823471 0.071480 0.998831
Si Si7 0.384251 0.484108 0.311496
Si Si8 0.247768 0.561123 0.853784
O O1 0.561870 0.166346 0.678004
O O2 0.045109 0.311530 0.512922
O O3 0.039145 0.324497 0.422948
O O4 0.370012 0.897756 0.546250
O O5 0.450796 0.234632 0.278286
O O6 0.091091 0.113992 0.120634
O O7 0.656299 0.779133 0.290253
O O8 0.169719 0.093554 0.067916
O O9 0.864987 0.298760 0.798334
O O10 0.109057 0.038129 0.941008
O O11 0.086404 0.839360 0.818465
O O12 0.500000 0.500000 0.500000
O O13 0.278217 0.510077 0.317795
O O14 0.035340 0.447417 0.262287
O O15 0.706268 0.473835 0.458913
O O16 0.470984 0.339945 0.882323
O O17 0.500000 0.500000 0.000000
#
# Coordination Sequence:
#
# PCOD9072313 Si02
#       8
#     2   2   2   2   2   2   2   2
#     4   9  18  36  58  80 113 152 185 221 289 342
#     4  11  21  36  58  85 117 142 191 237 274 339
#     4   9  18  38  58  82 112 150 191 228 279 342
#     4  11  23  38  57  87 119 145 190 244 282 336
#     4  10  19  34  60  83 109 151 182 229 282 348
#     4  10  21  37  60  82 108 154 195 226 273 339
#     4  11  22  35  58  85 115 147 182 238 297 327
#     4   9  19  40  63  75 109 163 191 223 282 346
#
# _framework density 19.187169999999998
#
# number of rings (size 3 to 8) (size 9 to 14) (size 15 to 20)
#    0.000    2.000    2.500    1.875    1.750    0.500 
#    2.250    7.500    5.500    0.000    0.000    0.000 
#    0.000    0.000    0.000    0.000    0.000    0.000 
#
# Total GULP energy -89146.761865 kJ/mol
# GULP energy per Si atom -5571.672617 kJ/mol
# Density = 1.914350 g / cm^3
# Si number density = 19.187170 Si / 1000 Ang^3
#
#
#
# Elastic Constant Matrix: (Units=GPa)
#
#
# Indices 1 2 3 4 5 6 
#
# 1 51.6479 42.1299 33.2457 -2.1205 -26.3265 23.4440
# 2 42.1299 57.3291 28.5970 -12.5649 -16.3283 13.9108
# 3 33.2457 28.5970 39.3249 -13.7134 -6.2635 5.2846
# 4 -2.1205 -12.5649 -13.7134 27.1676 -0.5140 -4.3940
# 5 -26.3265 -16.3283 -6.2635 -0.5140 24.3566 -7.6283
# 6 23.4440 13.9108 5.2846 -4.3940 -7.6283 26.1058
#
#
#
# Elastic Compliance Matrix: (Units=1/GPa)
#
#
# Indices 1 2 3 4 5 6 
#
# 1 -0.143480 0.025038 0.100350 0.062444 -0.085934 0.080595
# 2 0.025038 0.030973 -0.037747 -0.005978 0.030667 -0.023393
# 3 0.100350 -0.037747 -0.025930 -0.030073 0.059431 -0.052450
# 4 0.062444 -0.005978 -0.030073 0.019807 0.046844 -0.029782
# 5 -0.085934 0.030667 0.059431 0.046844 0.003033 0.057571
# 6 0.080595 -0.023393 -0.052450 -0.029782 0.057571 0.000822
#
#
# Mechanical properties :
#
#
# Convention : Reuss Voigt Hill
#
# Bulk Modulus (GPa) = 27.14216 39.58300 33.36258
# Shear Modulus (GPa) = -18.00027 18.48128 0.24051
#
# Velocity S-wave (km/s) = -3.06623 3.10693 0.35443
# Velocity P-wave (km/s) = 1.28102 5.79184 4.19443
#
# Compressibility (1/GPa) = 0.03684305
#
# Stress axis : x y z
#
# Youngs Moduli (GPa) = -6.96962 32.28567 -38.56472
#
# Poissons Ratio (x) = -0.80836 3.86996
# Poissons Ratio (y) = 0.17450 -1.45572
# Poissons Ratio (z) = 0.69940 1.21870
#
# Static dielectric constant tensor:
#      x y z
#    x 1.660930 -0.023010 -0.009180 
#    y -0.023010 1.707870 -0.051130 
#    z -0.009180 -0.051130 1.684540 
# 
# From -- ./inp_files/267905.got.cif
#   From: 2010.05.17/outbox.ucp.g08.bks.cvg/sg2_134_cif.got.tgz:267905.got - 2010.06.11 11:32:03.
