data_PCOD9072013
_publ_section_title
;
Structure prediction by ZEFSAII (Michael W. Deem and Ramdas Pophale) SiO2 
 PCOD9072013
Probable space group: P -1
;
_chemical_formula_sum "Si O2"
_cell_formula_units_Z 16
_cell_length_a 9.000000
_cell_length_b 21.000000
_cell_length_c 12.000000
_cell_angle_alpha 40.000000
_cell_angle_beta 130.000000
_cell_angle_gamma 100.000000
_cell_volume 851.199412
_symmetry_space_group_name_H-M "P -1"
_symmetry_group_IT_number 2
_symmetry_cell_setting 'triclinic'
loop_
_space_group_symop_operation_xyz
x,y,z
-x,-y,-z
loop_
_atom_site_type_symbol
_atom_site_label
_atom_site_fract_x
_atom_site_fract_y
_atom_site_fract_z
Si Si1 0.210314 0.622858 0.167095
Si Si2 0.022578 0.101824 0.218407
Si Si3 0.975793 0.523136 0.766521
Si Si4 0.916270 0.759604 0.360733
Si Si5 0.315661 0.959174 0.768267
Si Si6 0.942050 0.111008 0.909288
Si Si7 0.648134 0.674851 0.609561
Si Si8 0.018544 0.239424 0.353301
O O1 0.500000 0.500000 0.500000
O O2 0.049546 0.574784 0.171359
O O3 0.079545 0.753273 0.001538
O O4 0.189811 0.664834 0.970358
O O5 0.800337 0.105257 0.157364
O O6 0.067921 0.066880 0.154533
O O7 0.256244 0.998809 0.554727
O O8 0.980651 0.621212 0.565130
O O9 0.730131 0.609363 0.615229
O O10 0.214937 0.439270 0.079199
O O11 0.030231 0.749182 0.552568
O O12 0.001551 0.807384 0.242377
O O13 0.609326 0.869172 0.064106
O O14 0.153010 0.095158 0.572657
O O15 0.644751 0.213552 0.658664
O O16 0.000000 0.000000 0.000000
O O17 0.782441 0.736936 0.596951
#
# Coordination Sequence:
#
# PCOD9072013 Si02
#       8
#     2   2   2   2   2   2   2   2
#     4  10  18  33  59  84 108 139 186 239 276 313
#     4  10  22  36  56  82 109 149 191 229 277 328
#     4   9  19  36  59  82 104 143 190 232 271 314
#     4  11  21  33  55  84 113 146 182 225 281 334
#     4  10  19  36  57  79 109 143 192 240 269 318
#     4  12  24  37  55  83 118 151 180 224 286 343
#     4   9  18  36  58  81 110 141 186 232 269 323
#     4   9  18  33  57  83 106 144 189 230 274 319
#
# _framework density 18.797004999999999
#
# number of rings (size 3 to 8) (size 9 to 14) (size 15 to 20)
#    0.000    2.000    0.000    5.625    0.000    1.000 
#    0.000    0.625    0.000    0.000    0.000    0.000 
#    0.000    0.000    0.000    0.000    0.000    0.000 
#
# Total GULP energy -89212.991281 kJ/mol
# GULP energy per Si atom -5575.811955 kJ/mol
# Density = 1.875422 g / cm^3
# Si number density = 18.797005 Si / 1000 Ang^3
#
#
#
# Elastic Constant Matrix: (Units=GPa)
#
#
# Indices 1 2 3 4 5 6 
#
# 1 61.3170 30.2179 19.5810 -4.0045 -28.6698 -1.4797
# 2 30.2179 119.1739 31.4561 -12.1423 -24.0698 -3.0516
# 3 19.5810 31.4561 87.6147 1.5462 -21.0416 -4.0547
# 4 -4.0045 -12.1423 1.5462 37.0436 -0.4794 -16.8435
# 5 -28.6698 -24.0698 -21.0416 -0.4794 37.7582 -0.9358
# 6 -1.4797 -3.0516 -4.0547 -16.8435 -0.9358 25.8671
#
#
#
# Elastic Compliance Matrix: (Units=1/GPa)
#
#
# Indices 1 2 3 4 5 6 
#
# 1 0.026800 -0.002264 -0.000518 0.004642 0.018797 0.004888
# 2 -0.002264 0.011147 -0.002357 0.005688 0.004262 0.004674
# 3 -0.000518 -0.002357 0.013875 -0.000548 0.005872 0.001723
# 4 0.004642 0.005688 -0.000548 0.042632 0.008103 0.028904
# 5 0.018797 0.004262 0.005872 0.008103 0.047084 0.009478
# 6 0.004888 0.004674 0.001723 0.028904 0.009478 0.058924
#
#
# Mechanical properties :
#
#
# Convention : Reuss Voigt Hill
#
# Bulk Modulus (GPa) = 24.07035 47.84617 35.95826
# Shear Modulus (GPa) = 22.26301 32.59047 27.42674
#
# Velocity S-wave (km/s) = 3.44523 4.16842 3.82396
# Velocity P-wave (km/s) = 5.35345 6.97690 6.21838
#
# Compressibility (1/GPa) = 0.04154489
#
# Stress axis : x y z
#
# Youngs Moduli (GPa) = 37.31339 89.70883 72.07095
#
# Poissons Ratio (x) = 0.20310 0.03733
# Poissons Ratio (y) = 0.08448 0.16985
# Poissons Ratio (z) = 0.01933 0.21142
#
# Static dielectric constant tensor:
#      x y z
#    x 1.633920 0.022180 -0.021630 
#    y 0.022180 1.738740 0.013600 
#    z -0.021630 0.013600 1.684240 
# 
# From -- ./inp_files/225372.got.cif
#   From: 2010.05.17/outbox.ucp.g08.bks.cvg/sg2_113_cif.got.tgz:225372.got - 2010.06.11 11:32:03.
