data_PCOD9072210
_publ_section_title
;
Structure prediction by ZEFSAII (Michael W. Deem and Ramdas Pophale) SiO2 
 PCOD9072210
Probable space group: P -1
;
_chemical_formula_sum "Si O2"
_cell_formula_units_Z 16
_cell_length_a 8.235323
_cell_length_b 7.237254
_cell_length_c 22.254060
_cell_angle_alpha 145.841381
_cell_angle_beta 73.788024
_cell_angle_gamma 100.657988
_cell_volume 712.505414
_symmetry_space_group_name_H-M "P -1"
_symmetry_group_IT_number 2
_symmetry_cell_setting 'triclinic'
loop_
_space_group_symop_operation_xyz
x,y,z
-x,-y,-z
loop_
_atom_site_type_symbol
_atom_site_label
_atom_site_fract_x
_atom_site_fract_y
_atom_site_fract_z
Si Si1 0.886106 0.680836 0.146664
Si Si2 0.023523 0.647591 0.257055
Si Si3 0.092881 0.308497 0.594926
Si Si4 0.523524 0.647588 0.757056
Si Si5 0.858561 0.905357 0.819167
Si Si6 0.358561 0.905356 0.319165
Si Si7 0.407117 0.691503 0.905075
Si Si8 0.613894 0.319164 0.353334
O O1 0.766787 0.387101 0.066792
O O2 0.961320 0.633201 0.192683
O O3 0.750000 0.000000 0.249998
O O4 0.039007 0.776629 0.114577
O O5 0.112956 0.294237 0.174980
O O6 0.162826 0.912525 0.323382
O O7 0.881549 0.723253 0.343720
O O8 0.266786 0.387104 0.566795
O O9 0.957398 0.630150 0.690438
O O10 0.000000 0.000000 0.500000
O O11 0.662825 0.912525 0.823385
O O12 0.612959 0.294237 0.674982
O O13 0.381548 0.723248 0.843719
O O14 0.461324 0.633194 0.692682
O O15 0.457399 0.630149 0.190436
O O16 0.460995 0.223368 0.385421
O O17 0.500000 0.000000 0.000000
#
# Coordination Sequence:
#
# PCOD9072210 Si02
#       8
#     2   2   2   2   2   2   2   2
#     4  10  18  30  53  74  92 127 168 189 229 295
#     4   9  17  33  54  68  97 128 159 195 235 283
#     4   9  18  32  49  73 100 121 157 204 239 270
#     4   9  17  33  54  68  97 128 159 195 235 283
#     4   8  18  32  54  68  95 127 166 186 237 288
#     4   8  18  32  54  68  95 127 166 186 237 288
#     4   9  18  32  49  73 100 121 157 204 239 270
#     4  10  18  30  53  74  92 127 168 189 229 295
#
# _framework density 22.455971000000002
#
# number of rings (size 3 to 8) (size 9 to 14) (size 15 to 20)
#    1.500    1.500    0.000    1.500    0.000    0.000 
#    0.000    7.500    0.000    0.000    0.000    0.000 
#    0.000    0.000    0.000    0.000    0.000    0.000 
#
# Total GULP energy -89101.252925 kJ/mol
# GULP energy per Si atom -5568.828308 kJ/mol
# Density = 2.240486 g / cm^3
# Si number density = 22.455971 Si / 1000 Ang^3
#
#
#
# Elastic Constant Matrix: (Units=GPa)
#
#
# Indices 1 2 3 4 5 6 
#
# 1 81.5818 56.9237 16.8710 15.3599 30.0032 15.4324
# 2 56.9237 120.3506 30.4029 20.8912 29.9652 36.8727
# 3 16.8710 30.4029 86.1598 28.3032 20.9354 11.9599
# 4 15.3599 20.8912 28.3032 30.9970 21.6388 18.4530
# 5 30.0032 29.9652 20.9354 21.6388 28.1675 6.6669
# 6 15.4324 36.8727 11.9599 18.4530 6.6669 53.0574
#
#
#
# Elastic Compliance Matrix: (Units=1/GPa)
#
#
# Indices 1 2 3 4 5 6 
#
# 1 0.026779 -0.004819 -0.000179 0.019972 -0.037024 -0.006694
# 2 -0.004819 0.017717 -0.003764 0.015206 -0.019547 -0.012895
# 3 -0.000179 -0.003764 0.017598 -0.020320 0.005524 0.005074
# 4 0.019972 0.015206 -0.020320 0.142633 -0.120985 -0.046201
# 5 -0.037024 -0.019547 0.005524 -0.120985 0.174326 0.043281
# 6 -0.006694 -0.012895 0.005074 -0.046201 0.043281 0.039242
#
#
# Mechanical properties :
#
#
# Convention : Reuss Voigt Hill
#
# Bulk Modulus (GPa) = 22.43557 55.16527 38.80042
# Shear Modulus (GPa) = 11.09450 34.70403 22.89926
#
# Velocity S-wave (km/s) = 2.22515 3.93545 3.19680
# Velocity P-wave (km/s) = 4.07607 6.72828 5.56255
#
# Compressibility (1/GPa) = 0.04457208
#
# Stress axis : x y z
#
# Youngs Moduli (GPa) = 37.34293 56.44296 56.82460
#
# Poissons Ratio (x) = 0.27197 0.01015
# Poissons Ratio (y) = 0.17994 0.21387
# Poissons Ratio (z) = 0.00667 0.21243
#
# Static dielectric constant tensor:
#      x y z
#    x 1.818850 0.060550 -0.014700 
#    y 0.060550 1.877150 0.002090 
#    z -0.014700 0.002090 1.887320 
# 
# From -- ./inp_files/622352.got.cif
#   From: 2010.05.17/outbox.cif.g08.bks.cpg/sg2_312_cif.got.tgz:622352.got - 2010.06.03 11:33:40.
