data_PCOD9072759
_publ_section_title
;
Structure prediction by ZEFSAII (Michael W. Deem and Ramdas Pophale) SiO2 
 PCOD9072759
Probable space group: P -1
;
_chemical_formula_sum "Si O2"
_cell_formula_units_Z 14
_cell_length_a 11.126440
_cell_length_b 4.976883
_cell_length_c 13.249868
_cell_angle_alpha 94.753854
_cell_angle_beta 132.147583
_cell_angle_gamma 84.522455
_cell_volume 541.327252
_symmetry_space_group_name_H-M "P -1"
_symmetry_group_IT_number 2
_symmetry_cell_setting 'triclinic'
loop_
_space_group_symop_operation_xyz
x,y,z
-x,-y,-z
loop_
_atom_site_type_symbol
_atom_site_label
_atom_site_fract_x
_atom_site_fract_y
_atom_site_fract_z
Si Si1 0.282355 0.683501 0.053302
Si Si2 0.075839 0.228817 0.487414
Si Si3 0.595400 0.273058 0.476954
Si Si4 0.272271 0.217589 0.178035
Si Si5 0.307186 0.956558 0.871170
Si Si6 0.797617 0.737650 0.635277
Si Si7 0.666242 0.586529 0.237304
O O1 0.223783 0.411077 0.062735
O O2 0.473211 0.619236 0.136815
O O3 0.253863 0.909429 0.129807
O O4 0.232815 0.835483 0.926483
O O5 0.063217 0.183907 0.360407
O O6 0.264541 0.258996 0.623242
O O7 0.000000 0.500000 0.500000
O O8 0.000000 0.000000 0.500000
O O9 0.500000 0.500000 0.500000
O O10 0.464997 0.242556 0.313608
O O11 0.752972 0.445740 0.556114
O O12 0.660563 0.986663 0.551136
O O13 0.179393 0.288097 0.232709
O O14 0.294718 0.728264 0.770891
O O15 0.257160 0.250348 0.808055
O O16 0.500000 0.000000 0.000000
#
# Coordination Sequence:
#
# PCOD9072759 Si02
#       7
#     2   2   2   2   2   2   2
#     4  11  20  32  55  88 117 146 179 212 280 370
#     4  12  26  42  60  83 108 154 213 249 280 326
#     4  10  18  31  50  77 112 151 181 208 273 359
#     4  11  19  30  50  81 115 146 171 216 282 355
#     4  10  20  35  56  85 118 151 184 224 282 352
#     4  11  22  36  52  77 113 148 187 238 282 334
#     4  11  21  38  57  81 119 154 184 241 284 320
#
# _framework density 25.862356999999999
#
# number of rings (size 3 to 8) (size 9 to 14) (size 15 to 20)
#    0.000    1.143    0.000   12.000    0.000    0.000 
#    0.000    0.000    0.000    0.000    0.000   20.000 
#    0.000    0.000    0.000    0.000    0.000    0.000 
#
# Total GULP energy -78212.166715 kJ/mol
# GULP energy per Si atom -5586.583337 kJ/mol
# Density = 2.580349 g / cm^3
# Si number density = 25.862357 Si / 1000 Ang^3
#
#
#
# Elastic Constant Matrix: (Units=GPa)
#
#
# Indices 1 2 3 4 5 6 
#
# 1 97.3684 17.9202 21.8447 -12.2338 -39.6955 4.0339
# 2 17.9202 170.5113 10.4962 -9.4829 -5.9712 12.7567
# 3 21.8447 10.4962 78.3259 -5.0977 -12.7852 5.4849
# 4 -12.2338 -9.4829 -5.0977 40.5695 13.2730 -10.3998
# 5 -39.6955 -5.9712 -12.7852 13.2730 39.2521 -9.9358
# 6 4.0339 12.7567 5.4849 -10.3998 -9.9358 27.3687
#
#
#
# Elastic Compliance Matrix: (Units=1/GPa)
#
#
# Indices 1 2 3 4 5 6 
#
# 1 0.018719 -0.001557 -0.002235 0.000078 0.019320 0.005458
# 2 -0.001557 0.006256 -0.000437 0.000760 -0.001770 -0.002953
# 3 -0.002235 -0.000437 0.013852 -0.000033 0.001789 -0.001606
# 4 0.000078 0.000760 -0.000033 0.029433 -0.007740 0.008015
# 5 0.019320 -0.001770 0.001789 -0.007740 0.051314 0.013306
# 6 0.005458 -0.002953 -0.001606 0.008015 0.013306 0.045308
#
#
# Mechanical properties :
#
#
# Convention : Reuss Voigt Hill
#
# Bulk Modulus (GPa) = 32.92926 49.63641 41.28283
# Shear Modulus (GPa) = 27.25351 41.16769 34.21060
#
# Velocity S-wave (km/s) = 3.24974 3.99406 3.64097
# Velocity P-wave (km/s) = 5.18085 6.36430 5.80282
#
# Compressibility (1/GPa) = 0.03036813
#
# Stress axis : x y z
#
# Youngs Moduli (GPa) = 53.42281 159.83492 72.19434
#
# Poissons Ratio (x) = 0.24888 0.16138
# Poissons Ratio (y) = 0.08318 0.03153
# Poissons Ratio (z) = 0.11942 0.06981
#
# Static dielectric constant tensor:
#      x y z
#    x 2.204840 0.084730 0.084140 
#    y 0.084730 1.978470 -0.049330 
#    z 0.084140 -0.049330 2.161810 
# 
# From -- ./inp_files/410623.got.cif
#   From: 2010.05.17/outbox.cif.g08.bks.cpg/sg2_206_cif.got.tgz:410623.got - 2010.06.03 11:33:40.
