data_PCOD9072614
_publ_section_title
;
Structure prediction by ZEFSAII (Michael W. Deem and Ramdas Pophale) SiO2 
 PCOD9072614
Probable space group: P -1
;
_chemical_formula_sum "Si O2"
_cell_formula_units_Z 12
_cell_length_a 27.000000
_cell_length_b 9.000000
_cell_length_c 27.000000
_cell_angle_alpha 30.000000
_cell_angle_beta 10.000000
_cell_angle_gamma 30.000000
_cell_volume 563.074451
_symmetry_space_group_name_H-M "P -1"
_symmetry_group_IT_number 2
_symmetry_cell_setting 'triclinic'
loop_
_space_group_symop_operation_xyz
x,y,z
-x,-y,-z
loop_
_atom_site_type_symbol
_atom_site_label
_atom_site_fract_x
_atom_site_fract_y
_atom_site_fract_z
Si Si1 0.764063 0.804716 0.428457
Si Si2 0.599624 0.306448 0.865113
Si Si3 0.072229 0.623131 0.339478
Si Si4 0.366893 0.566009 0.667662
Si Si5 0.896037 0.182779 0.284849
Si Si6 0.660292 0.623560 0.009505
O O1 0.485055 0.642658 0.745928
O O2 0.761028 0.080485 0.312916
O O3 0.795006 0.960939 0.406500
O O4 0.009911 0.516608 0.268761
O O5 0.914580 0.400462 0.524564
O O6 0.455118 0.348432 0.941409
O O7 0.409338 0.546710 0.018034
O O8 0.606993 0.973355 0.976435
O O9 0.000000 0.500000 0.500000
O O10 0.976607 0.965739 0.315531
O O11 0.500000 0.500000 0.500000
O O12 0.636001 0.455989 0.470374
O O13 0.141407 0.345876 0.969473
#
# Coordination Sequence:
#
# PCOD9072614 Si02
#       6
#     2   2   2   2   2   2
#     4  11  18  32  52  84 112 145 173 214 289 338
#     4  11  22  38  53  83 111 146 188 224 275 325
#     4  12  24  39  58  79 111 154 191 223 265 319
#     4  10  20  30  51  79 113 145 174 217 279 339
#     4  11  19  34  50  78 115 144 179 226 265 324
#     4  11  20  33  58  80 115 146 171 227 283 334
#
# _framework density 21.311568999999999
#
# number of rings (size 3 to 8) (size 9 to 14) (size 15 to 20)
#    0.000    1.000    3.333    7.500    0.000    2.667 
#    0.000    0.000    0.000    0.000    0.000   23.333 
#    0.000    0.000    0.000    0.000    0.000    0.000 
#
# Total GULP energy -66882.862845 kJ/mol
# GULP energy per Si atom -5573.571904 kJ/mol
# Density = 2.126306 g / cm^3
# Si number density = 21.311569 Si / 1000 Ang^3
#
#
#
# Elastic Constant Matrix: (Units=GPa)
#
#
# Indices 1 2 3 4 5 6 
#
# 1 42.0876 35.4270 4.0313 0.5899 0.5003 -33.6267
# 2 35.4270 141.2604 2.2797 -7.0943 6.5910 -54.6278
# 3 4.0313 2.2797 65.1367 -16.5054 -0.8415 -5.4254
# 4 0.5899 -7.0943 -16.5054 45.5896 -14.8231 4.2630
# 5 0.5003 6.5910 -0.8415 -14.8231 5.7600 -6.1059
# 6 -33.6267 -54.6278 -5.4254 4.2630 -6.1059 32.6230
#
#
#
# Elastic Compliance Matrix: (Units=1/GPa)
#
#
# Indices 1 2 3 4 5 6 
#
# 1 0.026336 -0.004312 -0.020530 -0.063917 -0.172760 -0.007471
# 2 -0.004312 0.012421 -0.006452 -0.023114 -0.068442 0.005492
# 3 -0.020530 -0.006452 0.016266 0.007739 -0.000788 -0.030418
# 4 -0.063917 -0.023114 0.007739 0.043434 0.036658 -0.102116
# 5 -0.172760 -0.068442 -0.000788 0.036658 0.056980 -0.286939
# 6 -0.007471 0.005492 -0.030418 -0.102116 -0.286939 -0.013272
#
#
# Mechanical properties :
#
#
# Convention : Reuss Voigt Hill
#
# Bulk Modulus (GPa) = -132.21439 36.88450 -47.66495
# Shear Modulus (GPa) = 24.72408 30.57764 27.65086
#
# Velocity S-wave (km/s) = 3.40976 3.79197 3.60593
# Velocity P-wave (km/s) = 6.83166 6.04292 2.25329
#
# Compressibility (1/GPa) = -0.00756347
#
# Stress axis : x y z
#
# Youngs Moduli (GPa) = 37.97024 80.50885 61.47824
#
# Poissons Ratio (x) = 0.34716 1.26213
# Poissons Ratio (y) = 0.16373 0.39663
# Poissons Ratio (z) = 0.77952 0.51941
#
# Static dielectric constant tensor:
#      x y z
#    x 1.807500 -0.001910 -0.008510 
#    y -0.001910 1.763670 0.035370 
#    z -0.008510 0.035370 1.798340 
# 
# From -- ./inp_files/26625.got.cif
#   From: 2010.05.17/outbox.ucp.g08.bks.cvg/sg2_14_cif.got.tgz:26625.got - 2010.06.11 11:32:03.
