data_PCOD9072670
_publ_section_title
;
Structure prediction by ZEFSAII (Michael W. Deem and Ramdas Pophale) SiO2 
 PCOD9072670
Probable space group: P -1
;
_chemical_formula_sum "Si O2"
_cell_formula_units_Z 16
_cell_length_a 7.275843
_cell_length_b 11.831550
_cell_length_c 11.818540
_cell_angle_alpha 65.149470
_cell_angle_beta 56.016735
_cell_angle_gamma 83.711173
_cell_volume 754.810394
_symmetry_space_group_name_H-M "P -1"
_symmetry_group_IT_number 2
_symmetry_cell_setting 'triclinic'
loop_
_space_group_symop_operation_xyz
x,y,z
-x,-y,-z
loop_
_atom_site_type_symbol
_atom_site_label
_atom_site_fract_x
_atom_site_fract_y
_atom_site_fract_z
Si Si1 0.483912 0.210547 0.256060
Si Si2 0.182398 0.479916 0.849901
Si Si3 0.822295 0.779938 0.965102
Si Si4 0.768269 0.046875 0.878915
Si Si5 0.624475 0.538754 0.821308
Si Si6 0.210164 0.949573 0.395123
Si Si7 0.305244 0.717611 0.074397
Si Si8 0.805097 0.257766 0.332304
O O1 0.304661 0.309238 0.270273
O O2 0.593296 0.216131 0.338944
O O3 0.404254 0.068498 0.302821
O O4 0.668849 0.267645 0.075482
O O5 0.428894 0.515354 0.805128
O O6 0.165414 0.591648 0.721294
O O7 0.156310 0.329876 0.905495
O O8 0.000000 0.500000 0.000000
O O9 0.985752 0.768215 0.807140
O O10 0.871247 0.923536 0.931089
O O11 0.565357 0.750961 0.017755
O O12 0.819605 0.070920 0.718989
O O13 0.821600 0.176392 0.874864
O O14 0.500000 0.000000 0.000000
O O15 0.774468 0.428847 0.803513
O O16 0.500000 0.500000 0.000000
O O17 0.234679 0.824992 0.507636
O O18 0.000000 0.000000 0.500000
#
# Coordination Sequence:
#
# PCOD9072670 Si02
#       8
#     2   2   2   2   2   2   2   2
#     4  10  18  31  49  76 104 129 164 212 256 296
#     4   8  15  26  45  69 100 126 159 207 245 285
#     4   9  15  30  50  73  99 132 171 204 239 294
#     4  10  18  32  55  74 100 133 178 204 241 293
#     4   8  15  26  47  73  96 125 165 208 245 286
#     4  12  21  34  53  75 102 136 171 208 247 301
#     4   9  16  31  53  74  98 133 174 206 243 295
#     4  10  19  30  47  78 105 130 164 210 261 292
#
# _framework density 21.197375000000001
#
# number of rings (size 3 to 8) (size 9 to 14) (size 15 to 20)
#    0.000    2.500    3.750    0.375    0.000    0.000 
#    0.000    0.625    0.000   12.750    0.000    0.000 
#    0.000    0.000    0.000    0.000    0.000    0.000 
#
# Total GULP energy -89176.154859 kJ/mol
# GULP energy per Si atom -5573.509679 kJ/mol
# Density = 2.114913 g / cm^3
# Si number density = 21.197375 Si / 1000 Ang^3
#
#
#
# Elastic Constant Matrix: (Units=GPa)
#
#
# Indices 1 2 3 4 5 6 
#
# 1 29.7898 24.4377 8.2428 -14.0747 4.8534 0.5440
# 2 24.4377 178.9953 44.5830 -36.6546 29.2871 -19.1431
# 3 8.2428 44.5830 69.1306 -22.2887 27.5266 -14.2958
# 4 -14.0747 -36.6546 -22.2887 42.7692 -9.7804 9.2331
# 5 4.8534 29.2871 27.5266 -9.7804 24.5282 -9.5790
# 6 0.5440 -19.1431 -14.2958 9.2331 -9.5790 27.7741
#
#
#
# Elastic Compliance Matrix: (Units=1/GPa)
#
#
# Indices 1 2 3 4 5 6 
#
# 1 0.043043 -0.003953 0.000944 0.012330 -0.003172 -0.008274
# 2 -0.003953 0.008254 -0.001014 0.003480 -0.005722 0.002114
# 3 0.000944 -0.001014 0.028882 0.007758 -0.027478 0.002093
# 4 0.012330 0.003480 0.007758 0.035030 -0.004020 -0.006882
# 5 -0.003172 -0.005722 -0.027478 -0.004020 0.081989 0.011588
# 6 -0.008274 0.002114 0.002093 -0.006882 0.011588 0.044986
#
#
# Mechanical properties :
#
#
# Convention : Reuss Voigt Hill
#
# Bulk Modulus (GPa) = 13.86315 48.04918 30.95617
# Shear Modulus (GPa) = 18.22990 32.39110 25.31050
#
# Velocity S-wave (km/s) = 2.93577 3.91330 3.45924
# Velocity P-wave (km/s) = 4.24805 6.56774 5.53087
#
# Compressibility (1/GPa) = 0.07213367
#
# Stress axis : x y z
#
# Youngs Moduli (GPa) = 23.23238 121.15523 34.62342
#
# Poissons Ratio (x) = 0.47889 -0.03269
# Poissons Ratio (y) = 0.09183 0.03512
# Poissons Ratio (z) = -0.02194 0.12289
#
# Static dielectric constant tensor:
#      x y z
#    x 1.849310 0.004800 -0.041820 
#    y 0.004800 1.879890 -0.088000 
#    z -0.041820 -0.088000 1.761730 
# 
# From -- ./inp_files/188427.got.cif
#   From: 2010.05.17/outbox.cif.g08.bks.cpg/sg2_95_cif.got.tgz:188427.got - 2010.06.03 11:33:40.
