data_PCOD9072591
_publ_section_title
;
Structure prediction by ZEFSAII (Michael W. Deem and Ramdas Pophale) SiO2 
 PCOD9072591
Probable space group: P -1
;
_chemical_formula_sum "Si O2"
_cell_formula_units_Z 16
_cell_length_a 9.000000
_cell_length_b 15.000000
_cell_length_c 18.000000
_cell_angle_alpha 30.000000
_cell_angle_beta 140.000000
_cell_angle_gamma 140.000000
_cell_volume 740.097418
_symmetry_space_group_name_H-M "P -1"
_symmetry_group_IT_number 2
_symmetry_cell_setting 'triclinic'
loop_
_space_group_symop_operation_xyz
x,y,z
-x,-y,-z
loop_
_atom_site_type_symbol
_atom_site_label
_atom_site_fract_x
_atom_site_fract_y
_atom_site_fract_z
Si Si1 0.825231 0.416529 0.319973
Si Si2 0.435181 0.054946 0.822750
Si Si3 0.995605 0.131357 0.974589
Si Si4 0.052714 0.556277 0.821584
Si Si5 0.895555 0.086001 0.328594
Si Si6 0.277159 0.344095 0.174418
Si Si7 0.911008 0.803821 0.302126
Si Si8 0.560114 0.362969 0.842452
O O1 0.907369 0.385736 0.290487
O O2 0.534714 0.311418 0.285607
O O3 0.862541 0.648351 0.157189
O O4 0.947394 0.316988 0.505045
O O5 0.725822 0.147216 0.873850
O O6 0.269139 0.135116 0.754354
O O7 0.336118 0.053278 0.701998
O O8 0.407079 0.839900 0.988293
O O9 0.038421 0.997894 0.158713
O O10 0.000000 0.000000 0.000000
O O11 0.163310 0.738930 0.783262
O O12 0.762486 0.477526 0.779240
O O13 0.165808 0.403303 0.013262
O O14 0.088337 0.175726 0.270694
O O15 0.000000 0.000000 0.500000
O O16 0.352105 0.520336 0.132982
O O17 0.715623 0.665790 0.269384
#
# Coordination Sequence:
#
# PCOD9072591 Si02
#       8
#     2   2   2   2   2   2   2   2
#     4  12  26  44  66 100 143 172 221 277 334 401
#     4  11  20  42  65  95 134 170 223 277 326 393
#     4  11  26  43  70 100 131 178 215 276 347 393
#     4  11  21  42  67  96 126 183 225 264 335 396
#     4  11  23  39  67  99 128 176 229 272 326 393
#     4  11  23  43  66  94 132 182 218 273 336 392
#     4  11  25  42  67 102 131 177 223 279 332 387
#     4  10  19  40  71  90 126 170 232 278 323 396
#
# _framework density 21.618776
#
# number of rings (size 3 to 8) (size 9 to 14) (size 15 to 20)
#    0.000    1.000    2.500    6.375    0.000    7.000 
#    0.000    1.250    0.000    0.000    0.000    0.000 
#    0.000    0.000    0.000    0.000    0.000    0.000 
#
# Total GULP energy -89166.523610 kJ/mol
# GULP energy per Si atom -5572.907726 kJ/mol
# Density = 2.156957 g / cm^3
# Si number density = 21.618776 Si / 1000 Ang^3
#
#
#
# Elastic Constant Matrix: (Units=GPa)
#
#
# Indices 1 2 3 4 5 6 
#
# 1 78.9793 -5.6915 22.9335 0.7282 -15.2874 -0.2163
# 2 -5.6915 42.7374 7.7006 9.6640 -11.5270 4.8910
# 3 22.9335 7.7006 162.7432 32.9747 -32.2250 11.5780
# 4 0.7282 9.6640 32.9747 39.2452 -7.9606 -0.6988
# 5 -15.2874 -11.5270 -32.2250 -7.9606 37.2286 5.2016
# 6 -0.2163 4.8910 11.5780 -0.6988 5.2016 26.8870
#
#
#
# Elastic Compliance Matrix: (Units=1/GPa)
#
#
# Indices 1 2 3 4 5 6 
#
# 1 0.014513 0.003869 -0.000990 0.000944 0.006702 -0.001433
# 2 0.003869 0.029563 0.002706 -0.007186 0.012831 -0.009181
# 3 -0.000990 0.002706 0.009706 -0.007258 0.008182 -0.006451
# 4 0.000944 -0.007186 -0.007258 0.033059 -0.001841 0.005656
# 5 0.006702 0.012831 0.008182 -0.001841 0.042234 -0.014022
# 6 -0.001433 -0.009181 -0.006451 0.005656 -0.014022 0.044489
#
#
# Mechanical properties :
#
#
# Convention : Reuss Voigt Hill
#
# Bulk Modulus (GPa) = 15.39638 37.14945 26.27292
# Shear Modulus (GPa) = 27.16754 37.97332 32.57043
#
# Velocity S-wave (km/s) = 3.54879 4.19561 3.88568
# Velocity P-wave (km/s) = 4.89174 6.37903 5.68424
#
# Compressibility (1/GPa) = 0.06495034
#
# Stress axis : x y z
#
# Youngs Moduli (GPa) = 68.90547 33.82642 103.03014
#
# Poissons Ratio (x) = -0.13089 0.10204
# Poissons Ratio (y) = -0.26662 -0.27876
# Poissons Ratio (z) = 0.06825 -0.09152
#
# Static dielectric constant tensor:
#      x y z
#    x 1.858390 -0.016480 0.012110 
#    y -0.016480 1.865740 -0.027970 
#    z 0.012110 -0.027970 1.813440 
# 
# From -- ./inp_files/328949.got.cif
#   From: 2010.05.17/outbox.ucp.g08.bks.cvg/sg2_165_cif.got.tgz:328949.got - 2010.06.11 11:32:03.
