data_PCOD9072119
_publ_section_title
;
Structure prediction by ZEFSAII (Michael W. Deem and Ramdas Pophale) SiO2 
 PCOD9072119
Probable space group: P -1
;
_chemical_formula_sum "Si O2"
_cell_formula_units_Z 16
_cell_length_a 9.000000
_cell_length_b 15.000000
_cell_length_c 15.000000
_cell_angle_alpha 140.000000
_cell_angle_beta 130.000000
_cell_angle_gamma 80.000000
_cell_volume 759.999475
_symmetry_space_group_name_H-M "P -1"
_symmetry_group_IT_number 2
_symmetry_cell_setting 'triclinic'
loop_
_space_group_symop_operation_xyz
x,y,z
-x,-y,-z
loop_
_atom_site_type_symbol
_atom_site_label
_atom_site_fract_x
_atom_site_fract_y
_atom_site_fract_z
Si Si1 0.950622 0.840077 0.036873
Si Si2 0.714996 0.532791 0.860041
Si Si3 0.286051 0.740469 0.826672
Si Si4 0.409915 0.668037 0.637832
Si Si5 0.764467 0.131657 0.350487
Si Si6 0.103065 0.643758 0.874940
Si Si7 0.890786 0.764639 0.596640
Si Si8 0.992643 0.602360 0.199869
O O1 0.856889 0.717407 0.997309
O O2 0.689642 0.738058 0.802373
O O3 0.061955 0.047014 0.241109
O O4 0.151759 0.825008 0.059863
O O5 0.409167 0.401551 0.631863
O O6 0.813030 0.425607 0.783489
O O7 0.816479 0.581500 0.038224
O O8 0.300136 0.638648 0.673057
O O9 0.210230 0.653452 0.828038
O O10 0.087776 0.771167 0.743019
O O11 0.578759 0.921207 0.093018
O O12 0.406950 0.819660 0.711849
O O13 0.202481 0.497679 0.366697
O O14 0.011811 0.238924 0.465645
O O15 0.854449 0.207768 0.542660
O O16 0.160524 0.558717 0.908120
#
# Coordination Sequence:
#
# PCOD9072119 Si02
#       8
#     2   2   2   2   2   2   2   2
#     4  11  21  38  57  92 119 148 198 243 287 350
#     4  10  23  43  64  81 116 159 196 247 297 328
#     4  11  20  36  58  90 121 156 185 234 300 348
#     4  10  18  37  56  80 127 153 186 239 288 353
#     4  10  20  38  60  83 123 154 190 238 289 348
#     4  10  22  33  59  88 112 156 198 236 293 347
#     4  11  22  39  61  90 121 155 191 239 292 352
#     4   9  22  45  59  81 115 155 201 246 285 346
#
# _framework density 21.052645999999999
#
# number of rings (size 3 to 8) (size 9 to 14) (size 15 to 20)
#    0.000    1.750    2.500    2.250    1.750    5.000 
#    2.250    2.500    0.000    0.000    0.000    0.000 
#    0.000    0.000    0.000    0.000    0.000    0.000 
#
# Total GULP energy -89270.992290 kJ/mol
# GULP energy per Si atom -5579.437018 kJ/mol
# Density = 2.100473 g / cm^3
# Si number density = 21.052646 Si / 1000 Ang^3
#
#
#
# Elastic Constant Matrix: (Units=GPa)
#
#
# Indices 1 2 3 4 5 6 
#
# 1 -8.6128 -30.6755 11.6354 1.8110 4.2696 9.7972
# 2 -30.6755 36.0540 28.8836 -3.4841 -6.2717 5.8206
# 3 11.6354 28.8836 61.7996 2.9971 -0.4275 10.5850
# 4 1.8110 -3.4841 2.9971 29.2811 -1.1825 -8.8081
# 5 4.2696 -6.2717 -0.4275 -1.1825 31.7377 -2.2424
# 6 9.7972 5.8206 10.5850 -8.8081 -2.2424 29.9297
#
#
#
# Elastic Compliance Matrix: (Units=1/GPa)
#
#
# Indices 1 2 3 4 5 6 
#
# 1 -0.013687 -0.023187 0.012892 -0.002249 -0.002397 0.003589
# 2 -0.023187 0.009646 -0.001813 0.005534 0.005802 0.008419
# 3 0.012892 -0.001813 0.016948 -0.006473 -0.002952 -0.011987
# 4 -0.002249 0.005534 -0.006473 0.039976 0.003787 0.013998
# 5 -0.002397 0.005802 -0.002952 0.003787 0.033384 0.004316
# 6 0.003589 0.008419 -0.011987 0.013998 0.004316 0.039282
#
#
# Mechanical properties :
#
#
# Convention : Reuss Voigt Hill
#
# Bulk Modulus (GPa) = -88.42451 12.10308 -38.16071
# Shear Modulus (GPa) = 34.24807 23.48285 28.86546
#
# Velocity S-wave (km/s) = 4.03771 3.34344 3.70687
# Velocity P-wave (km/s) = 4.51168 4.54601 0.39428
#
# Compressibility (1/GPa) = -0.01130908
#
# Stress axis : x y z
#
# Youngs Moduli (GPa) = -73.06185 103.67492 59.00372
#
# Poissons Ratio (x) = 2.40389 -0.76066
# Poissons Ratio (y) = -1.69407 0.10696
# Poissons Ratio (z) = 0.94189 0.18794
#
# Static dielectric constant tensor:
#      x y z
#    x 1.800550 0.011190 -0.038110 
#    y 0.011190 1.770350 0.068700 
#    z -0.038110 0.068700 1.794380 
# 
# From -- ./inp_files/171586.got.cif
#   From: 2010.05.17/outbox.ucp.g08.bks.cvg/sg2_86_cif.got.tgz:171586.got - 2010.06.11 11:32:03.
