data_PCOD9072985
_publ_section_title
;
Structure prediction by ZEFSAII (Michael W. Deem and Ramdas Pophale) SiO2 
 PCOD9072985
Probable space group: P -1
;
_chemical_formula_sum "Si O2"
_cell_formula_units_Z 16
_cell_length_a 9.000000
_cell_length_b 15.000000
_cell_length_c 12.000000
_cell_angle_alpha 40.000000
_cell_angle_beta 110.000000
_cell_angle_gamma 130.000000
_cell_volume 759.581896
_symmetry_space_group_name_H-M "P -1"
_symmetry_group_IT_number 2
_symmetry_cell_setting 'triclinic'
loop_
_space_group_symop_operation_xyz
x,y,z
-x,-y,-z
loop_
_atom_site_type_symbol
_atom_site_label
_atom_site_fract_x
_atom_site_fract_y
_atom_site_fract_z
Si Si1 0.092409 0.698914 0.636379
Si Si2 0.895541 0.973861 0.614993
Si Si3 0.417103 0.659280 0.817007
Si Si4 0.990381 0.930024 0.914434
Si Si5 0.802259 0.324509 0.562724
Si Si6 0.650307 0.519991 0.258008
Si Si7 0.702624 0.971352 0.933259
Si Si8 0.648310 0.411236 0.874789
O O1 0.080548 0.851433 0.519901
O O2 0.286476 0.727679 0.709207
O O3 0.124032 0.692934 0.520129
O O4 0.878356 0.518099 0.794567
O O5 0.654903 0.813292 0.710341
O O6 0.989526 0.937048 0.775181
O O7 0.000000 0.000000 0.500000
O O8 0.353301 0.519445 0.836765
O O9 0.372940 0.587004 0.999423
O O10 0.869220 0.998301 0.863472
O O11 0.853565 0.726834 0.121600
O O12 0.212826 0.040851 0.917322
O O13 0.656608 0.374987 0.457314
O O14 0.000000 0.500000 0.500000
O O15 0.707408 0.139601 0.775784
O O16 0.464080 0.508632 0.266971
O O17 0.490532 0.790568 0.012452
#
# Coordination Sequence:
#
# PCOD9072985 Si02
#       8
#     2   2   2   2   2   2   2   2
#     4  11  25  41  63  98 135 177 229 278 335 395
#     4  12  24  41  68 103 138 175 225 277 335 406
#     4  11  22  41  65  93 135 180 220 278 342 393
#     4  10  20  39  67  98 130 178 218 271 332 401
#     4  11  21  41  68  95 130 176 225 281 338 395
#     4  10  21  36  68  95 129 171 224 268 340 391
#     4  10  20  40  70  93 132 177 222 271 339 394
#     4  11  22  42  66  97 132 181 224 275 332 405
#
# _framework density 21.064219999999999
#
# number of rings (size 3 to 8) (size 9 to 14) (size 15 to 20)
#    0.000    1.250    5.000    1.875    1.750    1.000 
#    0.000    5.625    0.000    0.000    0.000    0.000 
#    0.000    0.000    0.000    0.000    0.000    0.000 
#
# Total GULP energy -89363.566426 kJ/mol
# GULP energy per Si atom -5585.222902 kJ/mol
# Density = 2.101628 g / cm^3
# Si number density = 21.064220 Si / 1000 Ang^3
#
#
#
# Elastic Constant Matrix: (Units=GPa)
#
#
# Indices 1 2 3 4 5 6 
#
# 1 32.3027 -25.4190 12.9787 27.0281 17.5309 -7.8386
# 2 -25.4190 23.3312 -10.5087 19.0515 31.2837 -6.0093
# 3 12.9787 -10.5087 49.3207 12.3027 31.1892 -4.1229
# 4 27.0281 19.0515 12.3027 16.5105 -15.8198 10.6087
# 5 17.5309 31.2837 31.1892 -15.8198 23.2664 -11.7965
# 6 -7.8386 -6.0093 -4.1229 10.6087 -11.7965 12.6783
#
#
#
# Elastic Compliance Matrix: (Units=1/GPa)
#
#
# Indices 1 2 3 4 5 6 
#
# 1 0.049213 -0.012473 -0.044960 -0.028990 0.071112 0.100318
# 2 -0.012473 0.010472 0.000129 0.019898 -0.002158 -0.021364
# 3 -0.044960 0.000129 0.053164 0.039292 -0.062123 -0.101127
# 4 -0.028990 0.019898 0.039292 0.052922 -0.079279 -0.113764
# 5 0.071112 -0.002158 -0.062123 -0.079279 0.126528 0.206807
# 6 0.100318 -0.021364 -0.101127 -0.113764 0.206807 0.385503
#
#
# Mechanical properties :
#
#
# Convention : Reuss Voigt Hill
#
# Bulk Modulus (GPa) = -568.65015 6.56184 -281.04416
# Shear Modulus (GPa) = 6.31453 19.01795 12.66624
#
# Velocity S-wave (km/s) = 1.73328 3.00802 2.45483
# Velocity P-wave (km/s) = 16.32607 3.89694 11.21059
#
# Compressibility (1/GPa) = -0.00175855
#
# Stress axis : x y z
#
# Youngs Moduli (GPa) = 20.31990 95.48837 18.80958
#
# Poissons Ratio (x) = 1.19105 0.84568
# Poissons Ratio (y) = 0.25346 -0.00243
# Poissons Ratio (z) = 0.91358 -0.01232
#
# Static dielectric constant tensor:
#      x y z
#    x 1.724130 0.035930 0.039680 
#    y 0.035930 1.804640 0.008270 
#    z 0.039680 0.008270 1.796760 
# 
# From -- ./inp_files/186160.got.cif
#   From: 2010.05.17/outbox.ucp.g08.bks.cvg/sg2_94_cif.got.tgz:186160.got - 2010.06.11 11:32:03.
