data_PCOD9072565
_publ_section_title
;
Structure prediction by ZEFSAII (Michael W. Deem and Ramdas Pophale) SiO2 
 PCOD9072565
Probable space group: P -1
;
_chemical_formula_sum "Si O2"
_cell_formula_units_Z 16
_cell_length_a 9.000000
_cell_length_b 15.000000
_cell_length_c 15.000000
_cell_angle_alpha 50.000000
_cell_angle_beta 80.000000
_cell_angle_gamma 40.000000
_cell_volume 759.999475
_symmetry_space_group_name_H-M "P -1"
_symmetry_group_IT_number 2
_symmetry_cell_setting 'triclinic'
loop_
_space_group_symop_operation_xyz
x,y,z
-x,-y,-z
loop_
_atom_site_type_symbol
_atom_site_label
_atom_site_fract_x
_atom_site_fract_y
_atom_site_fract_z
Si Si1 0.624008 0.923872 0.737865
Si Si2 0.208448 0.666738 0.797396
Si Si3 0.086383 0.937336 0.311220
Si Si4 0.105857 0.062207 0.938926
Si Si5 0.480315 0.406118 0.356554
Si Si6 0.544491 0.202398 0.097606
Si Si7 0.898362 0.571445 0.570233
Si Si8 0.578464 0.103897 0.808144
O O1 0.641725 0.773464 0.847513
O O2 0.888232 0.810584 0.726121
O O3 0.302726 0.177414 0.565823
O O4 0.625253 0.980549 0.801653
O O5 0.367027 0.636729 0.720765
O O6 0.414255 0.420542 0.965479
O O7 0.120837 0.819825 0.782920
O O8 0.261207 0.764414 0.486445
O O9 0.330304 0.834689 0.286892
O O10 0.868026 0.997286 0.243982
O O11 0.812076 0.322520 0.765263
O O12 0.381460 0.885064 0.954853
O O13 0.200968 0.054276 0.028560
O O14 0.000000 0.000000 0.000000
O O15 0.328894 0.377023 0.400969
O O16 0.000000 0.500000 0.500000
O O17 0.231478 0.338572 0.727741
#
# Coordination Sequence:
#
# PCOD9072565 Si02
#       8
#     2   2   2   2   2   2   2   2
#     4  10  23  42  69  95 132 173 223 266 325 390
#     4  11  23  45  67  94 134 173 224 270 321 386
#     4  11  23  41  71  95 126 183 221 258 332 389
#     4  12  24  41  64 104 134 159 216 276 326 385
#     4  12  23  41  71  97 131 172 218 276 317 391
#     4  12  25  43  66  99 136 170 218 277 325 388
#     4  10  19  39  66  98 127 167 219 261 317 391
#     4  10  21  43  68  96 130 175 213 264 332 392
#
# _framework density 21.052645999999999
#
# number of rings (size 3 to 8) (size 9 to 14) (size 15 to 20)
#    0.000    1.000    6.250    2.625    0.000    4.500 
#    0.000    1.875    0.000    0.000    0.000    0.000 
#    0.000    0.000    0.000    0.000    0.000    0.000 
#
# Total GULP energy -89226.864406 kJ/mol
# GULP energy per Si atom -5576.679025 kJ/mol
# Density = 2.100473 g / cm^3
# Si number density = 21.052646 Si / 1000 Ang^3
#
#
#
# Elastic Constant Matrix: (Units=GPa)
#
#
# Indices 1 2 3 4 5 6 
#
# 1 69.4178 -10.9289 65.2792 25.5686 5.8542 -26.9308
# 2 -10.9289 29.9300 57.4953 8.1413 9.6698 -26.0252
# 3 65.2792 57.4953 80.8435 -26.4481 -21.0759 3.8047
# 4 25.5686 8.1413 -26.4481 17.1701 -13.9787 -3.8837
# 5 5.8542 9.6698 -21.0759 -13.9787 34.7267 5.4504
# 6 -26.9308 -26.0252 3.8047 -3.8837 5.4504 41.7420
#
#
#
# Elastic Compliance Matrix: (Units=1/GPa)
#
#
# Indices 1 2 3 4 5 6 
#
# 1 0.006864 -0.009111 0.003704 0.003818 0.005471 -0.001949
# 2 -0.009111 0.015814 0.005040 0.021460 0.008130 0.004457
# 3 0.003704 0.005040 0.002163 -0.006900 -0.004318 0.005257
# 4 0.003818 0.021460 -0.006900 0.037037 0.000996 0.019788
# 5 0.005471 0.008130 -0.004318 0.000996 0.022424 0.006157
# 6 -0.001949 0.004457 0.005257 0.019788 0.006157 0.026036
#
#
# Mechanical properties :
#
#
# Convention : Reuss Voigt Hill
#
# Bulk Modulus (GPa) = 41.47859 44.87583 43.17721
# Shear Modulus (GPa) = 41.97911 23.28415 32.63163
#
# Velocity S-wave (km/s) = 4.47027 3.32926 3.94128
# Velocity P-wave (km/s) = 6.81099 6.01173 6.42380
#
# Compressibility (1/GPa) = 0.02410883
#
# Stress axis : x y z
#
# Youngs Moduli (GPa) = 145.69415 63.23523 462.26781
#
# Poissons Ratio (x) = 0.57612 -1.71245
# Poissons Ratio (y) = 1.32738 -2.32995
# Poissons Ratio (z) = -0.53972 -0.31872
#
# Static dielectric constant tensor:
#      x y z
#    x 1.781210 -0.009870 -0.008130 
#    y -0.009870 1.763800 -0.016790 
#    z -0.008130 -0.016790 1.807900 
# 
# From -- ./inp_files/389537.got.cif
#   From: 2010.05.17/outbox.ucp.g08.bks.cvg/sg2_195_cif.got.tgz:389537.got - 2010.06.11 11:32:03.
