data_PCOD9072843
_publ_section_title
;
Structure prediction by ZEFSAII (Michael W. Deem and Ramdas Pophale) SiO2 
 PCOD9072843
Probable space group: P -1
;
_chemical_formula_sum "Si O2"
_cell_formula_units_Z 15
_cell_length_a 9.000000
_cell_length_b 15.000000
_cell_length_c 12.000000
_cell_angle_alpha 120.000000
_cell_angle_beta 80.000000
_cell_angle_gamma 50.000000
_cell_volume 715.467094
_symmetry_space_group_name_H-M "P -1"
_symmetry_group_IT_number 2
_symmetry_cell_setting 'triclinic'
loop_
_space_group_symop_operation_xyz
x,y,z
-x,-y,-z
loop_
_atom_site_type_symbol
_atom_site_label
_atom_site_fract_x
_atom_site_fract_y
_atom_site_fract_z
Si Si1 0.500000 0.500000 0.000000
Si Si2 0.683089 0.161731 0.691066
Si Si3 0.594418 0.836179 0.438772
Si Si4 0.778112 0.475340 0.756083
Si Si5 0.277137 0.950696 0.774304
Si Si6 0.075218 0.752007 0.800496
Si Si7 0.647957 0.560846 0.585062
Si Si8 0.209235 0.939862 0.146926
O O1 0.455312 0.648175 0.134849
O O2 0.337752 0.553700 0.173608
O O3 0.492398 0.206739 0.658597
O O4 0.746722 0.058270 0.729256
O O5 0.000000 0.000000 0.500000
O O6 0.419396 0.919255 0.628521
O O7 0.937293 0.644347 0.297864
O O8 0.500000 0.000000 0.500000
O O9 0.842037 0.426111 0.584767
O O10 0.509989 0.711330 0.931126
O O11 0.518445 0.748464 0.689473
O O12 0.044060 0.999625 0.794617
O O13 0.095991 0.134877 0.991003
O O14 0.363177 0.655964 0.705379
O O15 0.187272 0.577368 0.632685
O O16 0.876493 0.918679 0.834793
#
# Coordination Sequence:
#
# PCOD9072843 Si02
#       8
#     1   2   2   2   2   2   2   2
#     4  10  26  40  74 102 134 188 232 292 340 430
#     4  11  23  45  70 100 137 190 240 283 357 417
#     4  12  29  45  71 106 148 192 236 300 361 428
#     4  11  23  44  68 106 147 182 238 293 361 421
#     4  11  21  46  67 102 141 179 239 291 353 420
#     4  10  20  37  70 108 132 178 246 289 351 417
#     4  10  21  37  70 105 135 185 234 297 346 423
#     4  10  20  40  72  98 136 183 231 299 342 422
#
# _framework density 20.965325
#
# number of rings (size 3 to 8) (size 9 to 14) (size 15 to 20)
#    0.000    1.333    4.000    1.600    5.600    3.733 
#    0.000    3.333    0.000    0.000    0.000    0.000 
#    0.000    0.000    0.000    0.000    0.000    0.000 
#
# Total GULP energy -83552.349028 kJ/mol
# GULP energy per Si atom -5570.156602 kJ/mol
# Density = 2.091761 g / cm^3
# Si number density = 20.965325 Si / 1000 Ang^3
#
#
#
# Elastic Constant Matrix: (Units=GPa)
#
#
# Indices 1 2 3 4 5 6 
#
# 1 66.6241 48.7463 31.5233 5.2374 6.0505 -7.7811
# 2 48.7463 102.7681 33.1481 -11.5412 -3.8470 -17.8416
# 3 31.5233 33.1481 90.4269 -14.1654 10.3499 8.5854
# 4 5.2374 -11.5412 -14.1654 45.8868 -3.0259 -1.3814
# 5 6.0505 -3.8470 10.3499 -3.0259 27.6806 -0.9484
# 6 -7.7811 -17.8416 8.5854 -1.3814 -0.9484 28.4375
#
#
#
# Elastic Compliance Matrix: (Units=1/GPa)
#
#
# Indices 1 2 3 4 5 6 
#
# 1 0.028496 -0.012622 -0.006006 -0.008688 -0.006651 0.001047
# 2 -0.012622 0.019787 -0.003826 0.006083 0.007970 0.010677
# 3 -0.006006 -0.003826 0.016688 0.004252 -0.005304 -0.009052
# 4 -0.008688 0.006083 0.004252 0.025940 0.004043 0.001550
# 5 -0.006651 0.007970 -0.005304 0.004043 0.041331 0.006357
# 6 0.001047 0.010677 -0.009052 0.001550 0.006357 0.045171
#
#
# Mechanical properties :
#
#
# Convention : Reuss Voigt Hill
#
# Bulk Modulus (GPa) = 49.84647 54.07273 51.95960
# Shear Modulus (GPa) = 21.83322 30.16108 25.99715
#
# Velocity S-wave (km/s) = 3.23057 3.79703 3.52519
# Velocity P-wave (km/s) = 6.14351 6.71347 6.43480
#
# Compressibility (1/GPa) = 0.02006160
#
# Stress axis : x y z
#
# Youngs Moduli (GPa) = 35.09289 50.53789 59.92429
#
# Poissons Ratio (x) = 0.63789 0.35991
# Poissons Ratio (y) = 0.44295 0.22929
# Poissons Ratio (z) = 0.21077 0.19338
#
# Static dielectric constant tensor:
#      x y z
#    x 1.752620 -0.044110 0.029780 
#    y -0.044110 1.790020 -0.043870 
#    z 0.029780 -0.043870 1.810130 
# 
# From -- ./inp_files/397630.got.cif
#   From: 2010.05.17/outbox.ucp.g08.bks.cvg/sg2_199_cif.got.tgz:397630.got - 2010.06.11 11:32:03.
