data_PCOD9072585
_publ_section_title
;
Structure prediction by ZEFSAII (Michael W. Deem and Ramdas Pophale) SiO2 
 PCOD9072585
Probable space group: P -1
;
_chemical_formula_sum "Si O2"
_cell_formula_units_Z 16
_cell_length_a 12.000000
_cell_length_b 21.000000
_cell_length_c 18.000000
_cell_angle_alpha 20.000000
_cell_angle_beta 40.000000
_cell_angle_gamma 30.000000
_cell_volume 744.844803
_symmetry_space_group_name_H-M "P -1"
_symmetry_group_IT_number 2
_symmetry_cell_setting 'triclinic'
loop_
_space_group_symop_operation_xyz
x,y,z
-x,-y,-z
loop_
_atom_site_type_symbol
_atom_site_label
_atom_site_fract_x
_atom_site_fract_y
_atom_site_fract_z
Si Si1 0.840149 0.589708 0.810665
Si Si2 0.424874 0.934914 0.842574
Si Si3 0.922108 0.970339 0.209244
Si Si4 0.713354 0.969221 0.023109
Si Si5 0.380002 0.847671 0.690865
Si Si6 0.303354 0.894037 0.524091
Si Si7 0.792282 0.386074 0.206510
Si Si8 0.250159 0.389586 0.718514
O O1 0.654479 0.658251 0.768889
O O2 0.091892 0.421184 0.831130
O O3 0.734406 0.867992 0.578690
O O4 0.836639 0.466576 0.019706
O O5 0.219949 0.991997 0.833244
O O6 0.516616 0.064788 0.620013
O O7 0.366998 0.015278 0.869298
O O8 0.630836 0.634748 0.064566
O O9 0.062334 0.062390 0.042299
O O10 0.115087 0.673236 0.453000
O O11 0.735045 0.117817 0.209790
O O12 0.510184 0.220523 0.804189
O O13 0.753854 0.754289 0.189651
O O14 0.326361 0.777862 0.719585
O O15 0.329247 0.721346 0.636050
O O16 0.042108 0.159462 0.360630
#
# Coordination Sequence:
#
# PCOD9072585 Si02
#       8
#     2   2   2   2   2   2   2   2
#     4  10  19  40  66  95 130 162 207 270 326 379
#     4  12  24  44  65  92 136 170 215 269 323 386
#     4  11  24  43  66  97 129 172 218 265 321 389
#     4  11  26  44  66  93 128 182 218 259 320 382
#     4  10  20  38  66  98 128 162 211 266 326 386
#     4  11  24  39  62 100 131 170 214 264 332 383
#     4  11  24  39  62 100 131 170 211 264 333 393
#     4  10  24  44  66  97 128 167 225 270 312 381
#
# _framework density 21.480985
#
# number of rings (size 3 to 8) (size 9 to 14) (size 15 to 20)
#    0.000    1.250    2.500    3.375    5.250    4.000 
#    2.250    0.000    0.000    0.000    0.000    0.000 
#    0.000    0.000    0.000    0.000    0.000    0.000 
#
# Total GULP energy -89432.564551 kJ/mol
# GULP energy per Si atom -5589.535284 kJ/mol
# Density = 2.143209 g / cm^3
# Si number density = 21.480985 Si / 1000 Ang^3
#
#
#
# Elastic Constant Matrix: (Units=GPa)
#
#
# Indices 1 2 3 4 5 6 
#
# 1 123.2375 15.6872 5.4058 19.4664 -10.6692 -3.3364
# 2 15.6872 2.1728 -3.4608 17.4977 -22.5906 -1.9683
# 3 5.4058 -3.4608 19.8472 2.6850 -23.8330 9.9471
# 4 19.4664 17.4977 2.6850 13.4221 1.0521 6.9763
# 5 -10.6692 -22.5906 -23.8330 1.0521 19.4609 7.7741
# 6 -3.3364 -1.9683 9.9471 6.9763 7.7741 14.5648
#
#
#
# Elastic Compliance Matrix: (Units=1/GPa)
#
#
# Indices 1 2 3 4 5 6 
#
# 1 0.009048 -0.009515 0.007416 0.001693 0.006278 -0.008440
# 2 -0.009515 -0.024312 0.015323 0.067856 0.001278 -0.049114
# 3 0.007416 0.015323 -0.030441 -0.061135 -0.042744 0.076658
# 4 0.001693 0.067856 -0.061135 -0.048603 -0.028398 0.089748
# 5 0.006278 0.001278 -0.042744 -0.028398 -0.015557 0.052710
# 6 -0.008440 -0.049114 0.076658 0.089748 0.052710 -0.063388
#
#
# Mechanical properties :
#
#
# Convention : Reuss Voigt Hill
#
# Bulk Modulus (GPa) = -51.93080 20.05797 -15.93641
# Shear Modulus (GPa) = -24.25767 17.99791 -3.12988
#
# Velocity S-wave (km/s) = -3.36410 2.89771 -1.20839
# Velocity P-wave (km/s) = 6.27035 4.53359 3.06299
#
# Compressibility (1/GPa) = -0.01925640
#
# Stress axis : x y z
#
# Youngs Moduli (GPa) = 110.52281 -41.13250 -32.85042
#
# Poissons Ratio (x) = -0.39137 0.24363
# Poissons Ratio (y) = 1.05160 0.50335
# Poissons Ratio (z) = -0.81968 0.63026
#
# Static dielectric constant tensor:
#      x y z
#    x 1.805150 -0.015770 -0.025840 
#    y -0.015770 1.787130 0.031150 
#    z -0.025840 0.031150 1.783920 
# 
# From -- ./inp_files/272463.got.cif
#   From: 2010.05.17/outbox.ucp.g08.bks.cvg/sg2_137_cif.got.tgz:272463.got - 2010.06.11 11:32:03.
