data_PCOD9072774
_publ_section_title
;
Structure prediction by ZEFSAII (Michael W. Deem and Ramdas Pophale) SiO2 
 PCOD9072774
Probable space group: P -1
;
_chemical_formula_sum "Si O2"
_cell_formula_units_Z 15
_cell_length_a 18.000000
_cell_length_b 12.000000
_cell_length_c 21.000000
_cell_angle_alpha 140.000000
_cell_angle_beta 20.000000
_cell_angle_gamma 150.000000
_cell_volume 744.844803
_symmetry_space_group_name_H-M "P -1"
_symmetry_group_IT_number 2
_symmetry_cell_setting 'triclinic'
loop_
_space_group_symop_operation_xyz
x,y,z
-x,-y,-z
loop_
_atom_site_type_symbol
_atom_site_label
_atom_site_fract_x
_atom_site_fract_y
_atom_site_fract_z
Si Si1 0.068499 0.209322 0.726082
Si Si2 0.220548 0.846895 0.858084
Si Si3 0.642965 0.321995 0.659109
Si Si4 0.000000 0.500000 0.000000
Si Si5 0.064082 0.314806 0.242557
Si Si6 0.315808 0.175902 0.725851
Si Si7 0.638359 0.694895 0.886078
Si Si8 0.375260 0.595321 0.551982
O O1 0.000303 0.350651 0.879604
O O2 0.187392 0.333697 0.615684
O O3 0.330140 0.261386 0.579401
O O4 0.799407 0.935467 0.825830
O O5 0.189996 0.732988 0.900198
O O6 0.233108 0.702585 0.731730
O O7 0.492903 0.117783 0.742969
O O8 0.939583 0.818409 0.065076
O O9 0.439994 0.223699 0.717060
O O10 0.683788 0.537555 0.744787
O O11 0.929636 0.383671 0.428267
O O12 0.221602 0.255943 0.134901
O O13 0.295148 0.524293 0.101054
O O14 0.817787 0.078082 0.300387
O O15 0.538533 0.357259 0.570669
#
# Coordination Sequence:
#
# PCOD9072774 Si02
#       8
#     2   2   2   1   2   2   2   2
#     4  10  20  41  60  94 122 164 205 263 306 362
#     4  11  21  36  61  94 121 162 207 260 308 354
#     4  12  25  38  64  95 130 168 203 255 319 377
#     4  10  20  36  66  88 120 158 212 256 300 356
#     4  11  23  39  61  91 127 170 203 257 312 368
#     4  12  22  41  62  96 128 163 216 253 303 382
#     4  11  23  41  60  93 136 156 204 265 317 369
#     4  10  21  37  63  89 123 158 217 255 297 368
#
# _framework density 20.138423
#
# number of rings (size 3 to 8) (size 9 to 14) (size 15 to 20)
#    0.000    1.067    5.333    1.200    1.867    0.000 
#    4.800    0.667    0.000    4.000    0.000    0.000 
#    0.000    0.000    0.000    0.000    0.000    0.000 
#
# Total GULP energy -83555.995721 kJ/mol
# GULP energy per Si atom -5570.399715 kJ/mol
# Density = 2.009259 g / cm^3
# Si number density = 20.138423 Si / 1000 Ang^3
#
#
#
# Elastic Constant Matrix: (Units=GPa)
#
#
# Indices 1 2 3 4 5 6 
#
# 1 58.7873 45.2121 17.2465 -17.3110 17.2938 -1.6534
# 2 45.2121 133.9182 72.0894 -25.8829 32.7376 -38.8981
# 3 17.2465 72.0894 84.2600 1.7028 15.1372 -7.1206
# 4 -17.3110 -25.8829 1.7028 32.6696 -4.7082 11.7576
# 5 17.2938 32.7376 15.1372 -4.7082 10.6474 -4.0367
# 6 -1.6534 -38.8981 -7.1206 11.7576 -4.0367 30.2930
#
#
#
# Elastic Compliance Matrix: (Units=1/GPa)
#
#
# Indices 1 2 3 4 5 6 
#
# 1 0.033489 -0.055987 0.025317 0.001157 0.060867 -0.056451
# 2 -0.055987 -0.471058 0.193874 -0.125476 1.067373 -0.371417
# 3 0.025317 0.193874 -0.062933 0.047079 -0.468221 0.154869
# 4 0.001157 -0.125476 0.047079 0.011661 0.277589 -0.117525
# 5 0.060867 1.067373 -0.468221 0.277589 -2.169691 0.866971
# 6 -0.056451 -0.371417 0.154869 -0.117525 0.866971 -0.249446
#
#
# Mechanical properties :
#
#
# Convention : Reuss Voigt Hill
#
# Bulk Modulus (GPa) = -5.74401 60.67349 27.46474
# Shear Modulus (GPa) = -1.51864 24.21651 11.34893
#
# Velocity S-wave (km/s) = -0.86933 3.47147 2.37649
# Velocity P-wave (km/s) = 1.96624 6.80160 4.60411
#
# Compressibility (1/GPa) = -0.17409445
#
# Stress axis : x y z
#
# Youngs Moduli (GPa) = 29.86034 -2.12288 -15.88991
#
# Poissons Ratio (x) = -0.11885 0.40229
# Poissons Ratio (y) = 1.67180 3.08064
# Poissons Ratio (z) = -0.75599 0.41157
#
# Static dielectric constant tensor:
#      x y z
#    x 1.711150 -0.002400 -0.024090 
#    y -0.002400 1.696400 -0.021480 
#    z -0.024090 -0.021480 1.776160 
# 
# From -- ./inp_files/236903.got.cif
#   From: 2010.05.17/outbox.ucp.g08.bks.cvg/sg2_119_cif.got.tgz:236903.got - 2010.06.11 11:32:03.
