data_PCOD9072615
_publ_section_title
;
Structure prediction by ZEFSAII (Michael W. Deem and Ramdas Pophale) SiO2 
 PCOD9072615
Probable space group: P -1
;
_chemical_formula_sum "Si O2"
_cell_formula_units_Z 16
_cell_length_a 25.925007
_cell_length_b 5.364227
_cell_length_c 13.394563
_cell_angle_alpha 112.992336
_cell_angle_beta 30.816913
_cell_angle_gamma 129.417515
_cell_volume 678.560299
_symmetry_space_group_name_H-M "P -1"
_symmetry_group_IT_number 2
_symmetry_cell_setting 'triclinic'
loop_
_space_group_symop_operation_xyz
x,y,z
-x,-y,-z
loop_
_atom_site_type_symbol
_atom_site_label
_atom_site_fract_x
_atom_site_fract_y
_atom_site_fract_z
Si Si1 0.629224 0.280111 0.897295
Si Si2 0.600981 0.058809 0.259318
Si Si3 0.678288 0.997517 0.422833
Si Si4 0.085584 0.967628 0.995098
Si Si5 0.029489 0.697974 0.814891
Si Si6 0.724922 0.847945 0.670963
Si Si7 0.379675 0.470818 0.830410
Si Si8 0.624184 0.508017 0.599253
O O1 0.720953 0.640685 0.737947
O O2 0.698286 0.113408 0.779003
O O3 0.609099 0.389428 0.055101
O O4 0.500000 0.000000 0.000000
O O5 0.677197 0.925055 0.145494
O O6 0.508511 0.785814 0.282121
O O7 0.500000 0.000000 0.500000
O O8 0.682952 0.427106 0.126158
O O9 0.532271 0.707244 0.580117
O O10 0.674706 0.870202 0.521143
O O11 0.705439 0.364820 0.429909
O O12 0.779928 0.964792 0.202445
O O13 0.996394 0.665125 0.178907
O O14 0.046756 0.820163 0.921635
O O15 0.077337 0.278081 0.051544
O O16 0.151679 0.957708 0.578927
O O17 0.608204 0.540153 0.745639
#
# Coordination Sequence:
#
# PCOD9072615 Si02
#       8
#     2   2   2   2   2   2   2   2
#     4  12  23  34  50  71  96 142 176 211 230 275
#     4  10  19  34  53  71  96 129 162 209 257 300
#     4  10  18  31  48  64  97 129 163 208 236 290
#     4  10  19  31  46  66  92 131 175 198 253 283
#     4  10  21  30  45  68  91 131 178 203 238 294
#     4  12  22  35  49  68 105 137 179 207 232 276
#     4  10  21  35  50  76 100 132 174 198 245 294
#     4  10  19  30  47  69  94 131 165 201 241 289
#
# _framework density 23.579336000000001
#
# number of rings (size 3 to 8) (size 9 to 14) (size 15 to 20)
#    0.000    1.500    1.250    6.750    3.500    0.000 
#    0.000    0.000    0.000    0.000    0.000    0.000 
#    0.000    0.000    0.000  315.000    0.000   10.000 
#
# Total GULP energy -89286.000255 kJ/mol
# GULP energy per Si atom -5580.375016 kJ/mol
# Density = 2.352567 g / cm^3
# Si number density = 23.579336 Si / 1000 Ang^3
#
#
#
# Elastic Constant Matrix: (Units=GPa)
#
#
# Indices 1 2 3 4 5 6 
#
# 1 83.0420 53.5103 36.5874 6.8156 13.1523 -38.9716
# 2 53.5103 122.6909 51.9266 16.4936 9.0203 -50.1588
# 3 36.5874 51.9266 91.3607 0.6492 14.5713 -21.8963
# 4 6.8156 16.4936 0.6492 41.5086 -10.3772 6.2125
# 5 13.1523 9.0203 14.5713 -10.3772 37.0320 2.4314
# 6 -38.9716 -50.1588 -21.8963 6.2125 2.4314 53.5912
#
#
#
# Elastic Compliance Matrix: (Units=1/GPa)
#
#
# Indices 1 2 3 4 5 6 
#
# 1 0.024715 0.000693 -0.003923 -0.009922 -0.011410 0.018687
# 2 0.000693 0.020532 -0.006036 -0.012979 -0.007764 0.019111
# 3 -0.003923 -0.006036 0.015796 0.002502 -0.002504 -0.002225
# 4 -0.009922 -0.012979 0.002502 0.038923 0.018162 -0.023676
# 5 -0.011410 -0.007764 -0.002504 0.018162 0.040370 -0.020525
# 6 0.018687 0.019111 -0.002225 -0.023676 -0.020525 0.052903
#
#
# Mechanical properties :
#
#
# Convention : Reuss Voigt Hill
#
# Bulk Modulus (GPa) = 23.52339 64.57133 44.04736
# Shear Modulus (GPa) = 22.12983 36.76433 29.44708
#
# Velocity S-wave (km/s) = 3.06686 3.95292 3.53774
# Velocity P-wave (km/s) = 4.74750 6.94826 5.95051
#
# Compressibility (1/GPa) = 0.04251088
#
# Stress axis : x y z
#
# Youngs Moduli (GPa) = 40.46181 48.70492 63.30789
#
# Poissons Ratio (x) = -0.03377 0.24834
# Poissons Ratio (y) = -0.02805 0.38215
# Poissons Ratio (z) = 0.15872 0.29400
#
# Static dielectric constant tensor:
#      x y z
#    x 1.977320 -0.067280 -0.043470 
#    y -0.067280 2.074430 -0.071220 
#    z -0.043470 -0.071220 1.963130 
# 
# From -- ./inp_files/475921.got.cif
#   From: 2010.05.17/outbox.cif.g08.bks.cpg/sg2_238_cif.got.tgz:475921.got - 2010.06.03 11:33:40.
