data_PCOD9072910
_publ_section_title
;
Structure prediction by ZEFSAII (Michael W. Deem and Ramdas Pophale) SiO2 
 PCOD9072910
Probable space group: P -1
;
_chemical_formula_sum "Si O2"
_cell_formula_units_Z 16
_cell_length_a 13.982709
_cell_length_b 11.724724
_cell_length_c 19.440885
_cell_angle_alpha 28.028141
_cell_angle_beta 153.705958
_cell_angle_gamma 145.015216
_cell_volume 657.446107
_symmetry_space_group_name_H-M "P -1"
_symmetry_group_IT_number 2
_symmetry_cell_setting 'triclinic'
loop_
_space_group_symop_operation_xyz
x,y,z
-x,-y,-z
loop_
_atom_site_type_symbol
_atom_site_label
_atom_site_fract_x
_atom_site_fract_y
_atom_site_fract_z
Si Si1 0.966790 0.210244 0.713710
Si Si2 0.810085 0.230160 0.757225
Si Si3 0.974366 0.641967 0.734817
Si Si4 0.609449 0.522248 0.675527
Si Si5 0.677590 0.956387 0.287701
Si Si6 0.323539 0.577327 0.701529
Si Si7 0.342969 0.219404 0.285177
Si Si8 0.498067 0.213243 0.165976
O O1 0.890447 0.256978 0.716548
O O2 0.826768 0.357091 0.493098
O O3 0.213147 0.321315 0.797395
O O4 0.894609 0.927864 0.800245
O O5 0.977462 0.386348 0.832762
O O6 0.579787 0.340569 0.554246
O O7 0.731631 0.948671 0.877103
O O8 0.824838 0.581944 0.736994
O O9 0.845628 0.786564 0.518448
O O10 0.189104 0.833810 0.784667
O O11 0.512992 0.234928 0.766398
O O12 0.639787 0.636103 0.709988
O O13 0.594434 0.091879 0.227700
O O14 0.562242 0.601705 0.809867
O O15 0.345651 0.777119 0.670740
O O16 0.500000 0.000000 0.500000
O O17 0.500000 0.500000 0.000000
#
# Coordination Sequence:
#
# PCOD9072910 Si02
#       8
#     2   2   2   2   2   2   2   2
#     4  10  19  32  58  83 116 144 181 255 291 341
#     4  11  17  36  55  85 116 149 190 233 306 338
#     4  10  20  32  58  83 115 144 181 260 293 341
#     4  11  18  33  57  83 116 147 180 250 303 340
#     4  10  21  35  52  85 114 147 197 230 298 339
#     4  10  20  34  53  84 115 147 191 233 295 334
#     4  10  18  31  51  82 115 146 178 235 301 345
#     4  12  23  38  60  83 124 166 193 230 278 361
#
# _framework density 24.336594999999999
#
# number of rings (size 3 to 8) (size 9 to 14) (size 15 to 20)
#    0.000    1.500    6.250    2.250    0.000    1.000 
#    0.000    2.500    0.000    0.750    0.000    1.750 
#    0.000    0.000    0.000    0.000    0.000    0.000 
#
# Total GULP energy -89483.162143 kJ/mol
# GULP energy per Si atom -5592.697634 kJ/mol
# Density = 2.428120 g / cm^3
# Si number density = 24.336595 Si / 1000 Ang^3
#
#
#
# Elastic Constant Matrix: (Units=GPa)
#
#
# Indices 1 2 3 4 5 6 
#
# 1 168.4745 131.1257 10.1403 -12.2179 -10.6111 12.1055
# 2 131.1257 259.3435 18.6841 -26.5000 -9.0260 29.4100
# 3 10.1403 18.6841 71.4529 -12.1165 -3.8554 -1.1274
# 4 -12.2179 -26.5000 -12.1165 25.6023 -2.5995 -4.0011
# 5 -10.6111 -9.0260 -3.8554 -2.5995 9.9670 -9.3234
# 6 12.1055 29.4100 -1.1274 -4.0011 -9.3234 62.3499
#
#
#
# Elastic Compliance Matrix: (Units=1/GPa)
#
#
# Indices 1 2 3 4 5 6 
#
# 1 0.010322 -0.005045 0.000526 0.001089 0.008527 0.001730
# 2 -0.005045 0.007135 -0.000417 0.004469 0.000144 -0.002085
# 3 0.000526 -0.000417 0.016218 0.009058 0.011306 0.002660
# 4 0.001089 0.004469 0.009058 0.052075 0.027207 0.005254
# 5 0.008527 0.000144 0.011306 0.027207 0.140933 0.021301
# 6 0.001730 -0.002085 0.002660 0.005254 0.021301 0.020257
#
#
# Mechanical properties :
#
#
# Convention : Reuss Voigt Hill
#
# Bulk Modulus (GPa) = 42.01101 91.01903 66.51502
# Shear Modulus (GPa) = 18.88608 42.20525 30.54566
#
# Velocity S-wave (km/s) = 2.78876 4.16893 3.54663
# Velocity P-wave (km/s) = 5.26019 7.78810 6.64545
#
# Compressibility (1/GPa) = 0.02380329
#
# Stress axis : x y z
#
# Youngs Moduli (GPa) = 96.87775 140.15703 61.66128
#
# Poissons Ratio (x) = 0.70710 -0.03246
# Poissons Ratio (y) = 0.48876 0.02572
# Poissons Ratio (z) = -0.05100 0.05846
#
# Static dielectric constant tensor:
#      x y z
#    x 1.917740 0.058780 0.008090 
#    y 0.058780 1.990690 0.000440 
#    z 0.008090 0.000440 2.015860 
# 
# From -- ./inp_files/597961.got.cif
#   From: 2010.05.17/outbox.cif.g08.bks.cpg/sg2_299_cif.got.tgz:597961.got - 2010.06.03 11:33:40.
