data_PCOD9072361
_publ_section_title
;
Structure prediction by ZEFSAII (Michael W. Deem and Ramdas Pophale) SiO2 
 PCOD9072361
Probable space group: P -1
;
_chemical_formula_sum "Si O2"
_cell_formula_units_Z 16
_cell_length_a 16.575289
_cell_length_b 7.867687
_cell_length_c 5.613458
_cell_angle_alpha 115.742613
_cell_angle_beta 70.009087
_cell_angle_gamma 93.757654
_cell_volume 616.681118
_symmetry_space_group_name_H-M "P -1"
_symmetry_group_IT_number 2
_symmetry_cell_setting 'triclinic'
loop_
_space_group_symop_operation_xyz
x,y,z
-x,-y,-z
loop_
_atom_site_type_symbol
_atom_site_label
_atom_site_fract_x
_atom_site_fract_y
_atom_site_fract_z
Si Si1 0.692493 0.243619 0.308846
Si Si2 0.977071 0.730152 0.663258
Si Si3 0.919196 0.665943 0.182553
Si Si4 0.477310 0.903953 0.217181
Si Si5 0.242379 0.483389 0.951123
Si Si6 0.364850 0.376178 0.160505
Si Si7 0.691814 0.969120 0.748281
Si Si8 0.836529 0.165601 0.472119
O O1 0.699393 0.378492 0.155765
O O2 0.665012 0.060372 0.089031
O O3 0.786738 0.177376 0.279287
O O4 0.644176 0.401928 0.627344
O O5 0.061282 0.842345 0.648339
O O6 0.000000 0.500000 0.500000
O O7 0.928792 0.769439 0.486369
O O8 0.926361 0.771148 0.985862
O O9 0.827498 0.584979 0.200937
O O10 0.000000 0.500000 0.000000
O O11 0.626336 0.069489 0.680938
O O12 0.500000 0.000000 0.500000
O O13 0.536868 0.706121 0.029404
O O14 0.500000 0.000000 0.000000
O O15 0.304126 0.348913 0.975835
O O16 0.185214 0.622981 0.270758
O O17 0.326900 0.248214 0.329800
O O18 0.785123 0.022692 0.597944
#
# Coordination Sequence:
#
# PCOD9072361 Si02
#       8
#     2   2   2   2   2   2   2   2
#     4  10  22  39  64 100 132 172 230 270 340 399
#     4  10  18  30  55  88 126 172 217 266 327 390
#     4  10  18  30  55  88 126 172 217 266 327 390
#     4  10  24  45  71  97 134 181 229 271 341 410
#     4  10  20  35  59  96 131 170 227 274 329 404
#     4  10  24  42  68  96 133 178 223 283 338 400
#     4  10  24  42  68  96 133 178 223 283 338 400
#     4  10  20  35  59  96 131 170 227 274 329 404
#
# _framework density 25.945340000000002
#
# number of rings (size 3 to 8) (size 9 to 14) (size 15 to 20)
#    0.000    2.000    2.500    1.500   10.500    0.500 
#    0.000    5.625    0.000    1.500    0.000    0.000 
#    0.000    0.000    0.000    0.000    0.000    0.000 
#
# Total GULP energy -89399.096824 kJ/mol
# GULP energy per Si atom -5587.443551 kJ/mol
# Density = 2.588629 g / cm^3
# Si number density = 25.945340 Si / 1000 Ang^3
#
#
#
# Elastic Constant Matrix: (Units=GPa)
#
#
# Indices 1 2 3 4 5 6 
#
# 1 113.7735 14.3904 23.9725 -0.6825 18.2574 -11.4305
# 2 14.3904 120.1326 19.0657 -1.5553 -1.3890 -8.0975
# 3 23.9725 19.0657 109.4661 -8.8209 30.4522 -1.2505
# 4 -0.6825 -1.5553 -8.8209 42.5336 6.0777 -0.9854
# 5 18.2574 -1.3890 30.4522 6.0777 48.4832 -8.5324
# 6 -11.4305 -8.0975 -1.2505 -0.9854 -8.5324 37.5791
#
#
#
# Elastic Compliance Matrix: (Units=1/GPa)
#
#
# Indices 1 2 3 4 5 6 
#
# 1 0.009793 -0.000859 -0.001224 0.000294 -0.002598 0.002171
# 2 -0.000859 0.008906 -0.001994 -0.000374 0.002246 0.002092
# 3 -0.001224 -0.001994 0.012275 0.003565 -0.008131 -0.002146
# 4 0.000294 -0.000374 0.003565 0.025028 -0.005583 -0.000484
# 5 -0.002598 0.002246 -0.008131 -0.005583 0.028487 0.005745
# 6 0.002171 0.002092 -0.002146 -0.000484 0.005745 0.028942
#
#
# Mechanical properties :
#
#
# Convention : Reuss Voigt Hill
#
# Bulk Modulus (GPa) = 43.82028 50.91438 47.36733
# Shear Modulus (GPa) = 38.70286 44.78206 41.74246
#
# Velocity S-wave (km/s) = 3.86645 4.15904 4.01541
# Velocity P-wave (km/s) = 6.07114 6.53680 6.30827
#
# Compressibility (1/GPa) = 0.02282048
#
# Stress axis : x y z
#
# Youngs Moduli (GPa) = 102.11736 112.28912 81.46459
#
# Poissons Ratio (x) = 0.09643 0.09968
# Poissons Ratio (y) = 0.08770 0.16245
# Poissons Ratio (z) = 0.12496 0.22391
#
# Static dielectric constant tensor:
#      x y z
#    x 2.011540 0.002060 -0.064460 
#    y 0.002060 2.099590 0.052530 
#    z -0.064460 0.052530 2.120690 
# 
# From -- ./inp_files/105545.got.cif
#   From: 2010.05.17/outbox.cif.g08.bks.cpg/sg2_53_cif.got.tgz:105545.got - 2010.06.03 11:33:40.
