data_PCOD9072712
_publ_section_title
;
Structure prediction by ZEFSAII (Michael W. Deem and Ramdas Pophale) SiO2 
 PCOD9072712
Probable space group: P -1
;
_chemical_formula_sum "Si O2"
_cell_formula_units_Z 16
_cell_length_a 8.969073
_cell_length_b 8.039974
_cell_length_c 22.132205
_cell_angle_alpha 116.025171
_cell_angle_beta 37.151384
_cell_angle_gamma 99.428768
_cell_volume 813.716577
_symmetry_space_group_name_H-M "P -1"
_symmetry_group_IT_number 2
_symmetry_cell_setting 'triclinic'
loop_
_space_group_symop_operation_xyz
x,y,z
-x,-y,-z
loop_
_atom_site_type_symbol
_atom_site_label
_atom_site_fract_x
_atom_site_fract_y
_atom_site_fract_z
Si Si1 0.164217 0.877368 0.701835
Si Si2 0.665296 0.933729 0.547610
Si Si3 0.549736 0.399707 0.873443
Si Si4 0.913514 0.329272 0.862996
Si Si5 0.021600 0.467137 0.299109
Si Si6 0.223136 0.941129 0.341236
Si Si7 0.903688 0.296643 0.426093
Si Si8 0.629592 0.679224 0.363283
O O1 0.028369 0.724831 0.743987
O O2 0.125422 0.862093 0.639525
O O3 0.476442 0.807536 0.600048
O O4 0.035895 0.098126 0.802198
O O5 0.652829 0.051639 0.633166
O O6 0.509483 0.093679 0.573804
O O7 0.973040 0.868248 0.421408
O O8 0.718314 0.339205 0.871104
O O9 0.586250 0.206533 0.791262
O O10 0.700501 0.521647 0.807172
O O11 0.258655 0.532570 0.007654
O O12 0.145658 0.398652 0.772493
O O13 0.990010 0.440517 0.376898
O O14 0.788587 0.640029 0.368586
O O15 0.104767 0.163461 0.388521
O O16 0.616784 0.395091 0.563575
#
# Coordination Sequence:
#
# PCOD9072712 Si02
#       8
#     2   2   2   2   2   2   2   2
#     4   9  18  32  48  76  96 131 168 201 249 294
#     4   9  20  32  52  73 103 135 167 202 251 300
#     4  10  18  31  50  73 106 129 166 213 244 292
#     4   9  18  30  49  76  96 134 171 208 246 281
#     4   9  19  29  49  80  99 132 162 209 259 288
#     4  10  19  34  50  75 102 136 166 205 250 297
#     4   9  18  30  52  76  99 131 162 210 255 291
#     4   9  17  31  49  74 103 123 172 209 242 295
#
# _framework density 19.662866000000001
#
# number of rings (size 3 to 8) (size 9 to 14) (size 15 to 20)
#    0.750    2.000    1.250    0.375    3.500    2.000 
#    0.000    3.750    0.000    4.500    0.000   12.250 
#    0.000    0.000    0.000    0.000    0.000    0.000 
#
# Total GULP energy -89073.245010 kJ/mol
# GULP energy per Si atom -5567.077813 kJ/mol
# Density = 1.961811 g / cm^3
# Si number density = 19.662866 Si / 1000 Ang^3
#
#
#
# Elastic Constant Matrix: (Units=GPa)
#
#
# Indices 1 2 3 4 5 6 
#
# 1 48.0355 18.3597 15.5426 0.4272 4.7239 -13.4270
# 2 18.3597 72.6676 22.5426 -16.1253 -6.9661 -18.4973
# 3 15.5426 22.5426 144.9779 -2.9027 -4.9877 -4.7909
# 4 0.4272 -16.1253 -2.9027 22.3482 1.9291 -3.7866
# 5 4.7239 -6.9661 -4.9877 1.9291 20.1928 -2.8382
# 6 -13.4270 -18.4973 -4.7909 -3.7866 -2.8382 13.5757
#
#
#
# Elastic Compliance Matrix: (Units=1/GPa)
#
#
# Indices 1 2 3 4 5 6 
#
# 1 0.030498 0.004242 -0.002601 0.008578 -0.001931 0.037015
# 2 0.004242 0.048643 -0.003406 0.047398 0.022680 0.087233
# 3 -0.002601 -0.003406 0.007520 -0.002356 0.000806 -0.005048
# 4 0.008578 0.047398 -0.002356 0.094191 0.019173 0.102515
# 5 -0.001931 0.022680 0.000806 0.019173 0.062881 0.047772
# 6 0.037015 0.087233 -0.005048 0.102515 0.047772 0.265928
#
#
# Mechanical properties :
#
#
# Convention : Reuss Voigt Hill
#
# Bulk Modulus (GPa) = 12.02921 42.06343 27.04632
# Shear Modulus (GPa) = 9.24381 25.17241 17.20811
#
# Velocity S-wave (km/s) = 2.17057 3.58187 2.96152
# Velocity P-wave (km/s) = 3.52318 6.20847 5.04767
#
# Compressibility (1/GPa) = 0.08313097
#
# Stress axis : x y z
#
# Youngs Moduli (GPa) = 32.78880 20.55782 132.98231
#
# Poissons Ratio (x) = -0.08720 0.34584
# Poissons Ratio (y) = -0.13909 0.45299
# Poissons Ratio (z) = 0.08527 0.07003
#
# Static dielectric constant tensor:
#      x y z
#    x 1.685780 -0.000970 0.007660 
#    y -0.000970 1.756300 0.007530 
#    z 0.007660 0.007530 1.722670 
# 
# From -- ./inp_files/588017.got.cif
#   From: 2010.05.17/outbox.cif.g08.bks.cpg/sg2_295_cif.got.tgz:588017.got - 2010.06.03 11:33:40.
