data_PCOD9072424
_publ_section_title
;
Structure prediction by ZEFSAII (Michael W. Deem and Ramdas Pophale) SiO2 
 PCOD9072424
Probable space group: P -1
;
_chemical_formula_sum "Si O2"
_cell_formula_units_Z 16
_cell_length_a 8.292110
_cell_length_b 11.782889
_cell_length_c 13.873209
_cell_angle_alpha 107.209666
_cell_angle_beta 42.350861
_cell_angle_gamma 126.816963
_cell_volume 703.341203
_symmetry_space_group_name_H-M "P -1"
_symmetry_group_IT_number 2
_symmetry_cell_setting 'triclinic'
loop_
_space_group_symop_operation_xyz
x,y,z
-x,-y,-z
loop_
_atom_site_type_symbol
_atom_site_label
_atom_site_fract_x
_atom_site_fract_y
_atom_site_fract_z
Si Si1 0.388020 0.867920 0.716622
Si Si2 0.555151 0.493164 0.860877
Si Si3 0.459978 0.285760 0.535184
Si Si4 0.679899 0.781766 0.788146
Si Si5 0.017946 0.171546 0.532581
Si Si6 0.989038 0.428825 0.587656
Si Si7 0.935119 0.341082 0.010996
Si Si8 0.290408 0.030939 0.661986
O O1 0.368462 0.763172 0.615876
O O2 0.205927 0.757876 0.855510
O O3 0.265800 0.958651 0.756707
O O4 0.738481 0.000602 0.610811
O O5 0.692064 0.655279 0.799021
O O6 0.767016 0.442259 0.751008
O O7 0.500000 0.500000 0.000000
O O8 0.270115 0.390477 0.889658
O O9 0.170244 0.223514 0.582964
O O10 0.400093 0.196959 0.638207
O O11 0.672299 0.459985 0.496477
O O12 0.738758 0.779730 0.646929
O O13 0.368947 0.756166 0.943251
O O14 0.965642 0.935518 0.735382
O O15 0.897485 0.266343 0.582997
O O16 0.000000 0.500000 0.500000
O O17 0.000000 0.500000 0.000000
O O18 0.500000 0.000000 0.500000
#
# Coordination Sequence:
#
# PCOD9072424 Si02
#       8
#     2   2   2   2   2   2   2   2
#     4  11  20  37  65  95 129 168 222 267 323 388
#     4  11  23  42  62  89 128 179 228 261 317 402
#     4  11  21  36  59  95 134 170 207 267 333 393
#     4  11  19  36  61  97 127 161 215 274 325 377
#     4  12  22  37  63 101 135 164 208 286 342 376
#     4  12  25  41  63  96 136 173 216 277 335 382
#     4  10  22  36  59  91 121 170 213 264 310 387
#     4  10  18  30  56  93 128 158 212 265 324 369
#
# _framework density 22.748560999999999
#
# number of rings (size 3 to 8) (size 9 to 14) (size 15 to 20)
#    0.000    1.000    5.000    5.250    0.000    0.000 
#    0.000    0.625    0.000    0.000    0.000    8.750 
#    0.000    0.000    0.000    0.000    0.000    0.000 
#
# Total GULP energy -89159.630691 kJ/mol
# GULP energy per Si atom -5572.476918 kJ/mol
# Density = 2.269678 g / cm^3
# Si number density = 22.748561 Si / 1000 Ang^3
#
#
#
# Elastic Constant Matrix: (Units=GPa)
#
#
# Indices 1 2 3 4 5 6 
#
# 1 102.3900 8.0444 12.0540 -12.5433 -1.5702 -11.7139
# 2 8.0444 80.5045 29.1343 -27.3347 9.7453 -13.8331
# 3 12.0540 29.1343 51.7787 -14.8032 1.1154 -5.9406
# 4 -12.5433 -27.3347 -14.8032 33.2963 -1.7850 0.1326
# 5 -1.5702 9.7453 1.1154 -1.7850 42.5921 -27.7903
# 6 -11.7139 -13.8331 -5.9406 0.1326 -27.7903 48.0722
#
#
#
# Elastic Compliance Matrix: (Units=1/GPa)
#
#
# Indices 1 2 3 4 5 6 
#
# 1 0.011055 0.001553 -0.001544 0.004924 0.003556 0.004992
# 2 0.001553 0.020708 -0.007342 0.014269 -0.000599 0.005044
# 3 -0.001544 -0.007342 0.025359 0.004792 0.002524 0.002091
# 4 0.004924 0.014269 0.004792 0.045914 0.003984 0.008074
# 5 0.003556 -0.000599 0.002524 0.003984 0.039333 0.023733
# 6 0.004992 0.005044 0.002091 0.008074 0.023733 0.037426
#
#
# Mechanical properties :
#
#
# Convention : Reuss Voigt Hill
#
# Bulk Modulus (GPa) = 23.55326 37.01541 30.28433
# Shear Modulus (GPa) = 23.96779 37.15482 30.56130
#
# Velocity S-wave (km/s) = 3.24944 4.04577 3.66927
# Velocity P-wave (km/s) = 4.94516 6.17505 5.59401
#
# Compressibility (1/GPa) = 0.04245698
#
# Stress axis : x y z
#
# Youngs Moduli (GPa) = 90.45501 48.29112 39.43347
#
# Poissons Ratio (x) = -0.07501 0.06087
# Poissons Ratio (y) = -0.14051 0.28953
# Poissons Ratio (z) = 0.13963 0.35457
#
# Static dielectric constant tensor:
#      x y z
#    x 1.992090 0.037700 -0.061310 
#    y 0.037700 1.832520 -0.003190 
#    z -0.061310 -0.003190 2.221510 
# 
# From -- ./inp_files/500521.got.cif
#   From: 2010.05.17/outbox.cif.g08.bks.cpg/sg2_251_cif.got.tgz:500521.got - 2010.06.03 11:33:40.
