data_PCOD9072979
_publ_section_title
;
Structure prediction by ZEFSAII (Michael W. Deem and Ramdas Pophale) SiO2 
 PCOD9072979
Probable space group: P -1
;
_chemical_formula_sum "Si O2"
_cell_formula_units_Z 14
_cell_length_a 9.000000
_cell_length_b 21.000000
_cell_length_c 15.000000
_cell_angle_alpha 30.000000
_cell_angle_beta 140.000000
_cell_angle_gamma 150.000000
_cell_volume 707.288899
_symmetry_space_group_name_H-M "P -1"
_symmetry_group_IT_number 2
_symmetry_cell_setting 'triclinic'
loop_
_space_group_symop_operation_xyz
x,y,z
-x,-y,-z
loop_
_atom_site_type_symbol
_atom_site_label
_atom_site_fract_x
_atom_site_fract_y
_atom_site_fract_z
Si Si1 0.094716 0.219706 0.414272
Si Si2 0.658092 0.023262 0.951143
Si Si3 0.660643 0.461216 0.754943
Si Si4 0.258217 0.675984 0.445472
Si Si5 0.894888 0.624773 0.489581
Si Si6 0.638869 0.161449 0.148137
Si Si7 0.906970 0.055928 0.708089
O O1 0.150785 0.377694 0.292898
O O2 0.413197 0.262267 0.496735
O O3 0.928022 0.186694 0.284895
O O4 0.910425 0.077063 0.577601
O O5 0.788816 0.203071 0.765363
O O6 0.466283 0.915444 0.906297
O O7 0.500000 0.000000 0.000000
O O8 0.903094 0.001132 0.108579
O O9 0.779391 0.487158 0.676820
O O10 0.346275 0.422988 0.638623
O O11 0.658468 0.320836 0.963817
O O12 0.000000 0.500000 0.500000
O O13 0.190162 0.674727 0.519663
O O14 0.930730 0.765798 0.390899
O O15 0.399797 0.051308 0.249713
#
# Coordination Sequence:
#
# PCOD9072979 Si02
#       7
#     2   2   2   2   2   2   2
#     4  11  25  42  62  98 135 166 205 265 326 377
#     4  12  25  42  66  97 125 166 219 267 309 376
#     4  10  21  39  66  93 126 162 219 259 308 376
#     4  12  24  41  65  92 130 167 211 261 324 375
#     4  10  20  39  67  92 119 169 216 263 304 375
#     4  12  24  42  67  94 131 169 212 264 319 374
#     4  11  22  44  67  92 123 170 221 259 311 378
#
# _framework density 19.793892
#
# number of rings (size 3 to 8) (size 9 to 14) (size 15 to 20)
#    0.000    0.857    5.714    2.143    2.000    0.571 
#    0.000    0.714    0.000    0.000    0.000    0.000 
#    0.000    0.000    0.000    0.000    0.000    0.000 
#
# Total GULP energy -78080.643631 kJ/mol
# GULP energy per Si atom -5577.188831 kJ/mol
# Density = 1.974884 g / cm^3
# Si number density = 19.793892 Si / 1000 Ang^3
#
#
#
# Elastic Constant Matrix: (Units=GPa)
#
#
# Indices 1 2 3 4 5 6 
#
# 1 113.0582 16.9537 13.1534 0.4247 -14.1336 5.5406
# 2 16.9537 37.3642 56.5164 8.0139 -1.1127 -0.9174
# 3 13.1534 56.5164 75.6433 0.5880 -15.9004 -17.5844
# 4 0.4247 8.0139 0.5880 30.5136 -0.7605 -2.1280
# 5 -14.1336 -1.1127 -15.9004 -0.7605 23.7189 -10.9944
# 6 5.5406 -0.9174 -17.5844 -2.1280 -10.9944 20.6878
#
#
#
# Elastic Compliance Matrix: (Units=1/GPa)
#
#
# Indices 1 2 3 4 5 6 
#
# 1 0.009434 0.001290 -0.003646 -0.000744 0.000792 -0.005224
# 2 0.001290 -0.011484 0.025388 0.006249 0.036295 0.040656
# 3 -0.003646 0.025388 -0.015309 -0.008541 -0.022534 -0.023764
# 4 -0.000744 0.006249 -0.008541 0.030510 -0.008740 -0.008290
# 5 0.000792 0.036295 -0.022534 -0.008740 0.026937 -0.004339
# 6 -0.005224 0.040656 -0.023764 -0.008290 -0.004339 0.028182
#
#
# Mechanical properties :
#
#
# Convention : Reuss Voigt Hill
#
# Bulk Modulus (GPa) = 34.83906 44.36806 39.60356
# Shear Modulus (GPa) = 157.36231 24.28020 90.82126
#
# Velocity S-wave (km/s) = 8.92597 3.50616 6.78108
# Velocity P-wave (km/s) = 11.12968 6.23334 9.02010
#
# Compressibility (1/GPa) = 0.02870341
#
# Stress axis : x y z
#
# Youngs Moduli (GPa) = 106.00383 -87.07402 -65.32032
#
# Poissons Ratio (x) = 0.11231 -0.23818
# Poissons Ratio (y) = -0.13673 1.65836
# Poissons Ratio (z) = 0.38652 2.21065
#
# Static dielectric constant tensor:
#      x y z
#    x 1.734940 0.013710 -0.028500 
#    y 0.013710 1.719510 -0.014020 
#    z -0.028500 -0.014020 1.661330 
# 
# From -- ./inp_files/149114.got.cif
#   From: 2010.05.17/outbox.ucp.g08.bks.cvg/sg2_75_cif.got.tgz:149114.got - 2010.06.11 11:32:03.
