data_PCOD9072849
_publ_section_title
;
Structure prediction by ZEFSAII (Michael W. Deem and Ramdas Pophale) SiO2 
 PCOD9072849
Probable space group: P -1
;
_chemical_formula_sum "Si O2"
_cell_formula_units_Z 16
_cell_length_a 15.000000
_cell_length_b 15.000000
_cell_length_c 15.000000
_cell_angle_alpha 150.000000
_cell_angle_beta 150.000000
_cell_angle_gamma 50.000000
_cell_volume 762.223433
_symmetry_space_group_name_H-M "P -1"
_symmetry_group_IT_number 2
_symmetry_cell_setting 'triclinic'
loop_
_space_group_symop_operation_xyz
x,y,z
-x,-y,-z
loop_
_atom_site_type_symbol
_atom_site_label
_atom_site_fract_x
_atom_site_fract_y
_atom_site_fract_z
Si Si1 0.394276 0.214515 0.130634
Si Si2 0.685351 0.593146 0.618485
Si Si3 0.349275 0.386399 0.607161
Si Si4 0.944830 0.384713 0.947934
Si Si5 0.076279 0.711590 0.798012
Si Si6 0.550086 0.159822 0.877301
Si Si7 0.663399 0.038536 0.302569
Si Si8 0.313569 0.757304 0.229923
O O1 0.484727 0.421196 0.334248
O O2 0.279593 0.222321 0.126881
O O3 0.568932 0.169722 0.285361
O O4 0.289091 0.065178 0.830278
O O5 0.672115 0.612447 0.518599
O O6 0.862919 0.544411 0.762486
O O7 0.504669 0.295871 0.683875
O O8 0.125594 0.262628 0.342322
O O9 0.427220 0.613736 0.908573
O O10 0.850174 0.164499 0.634117
O O11 0.783517 0.368360 0.871220
O O12 0.000000 0.500000 0.000000
O O13 0.000000 0.500000 0.500000
O O14 0.249408 0.840836 0.990801
O O15 0.173917 0.718203 0.987048
O O16 0.498361 0.098046 0.883084
O O17 0.388350 0.985471 0.525437
#
# Coordination Sequence:
#
# PCOD9072849 Si02
#       8
#     2   2   2   2   2   2   2   2
#     4  10  21  34  61  85 120 166 209 251 319 372
#     4  11  20  37  60  88 123 166 213 250 313 383
#     4  11  23  43  68  94 128 171 212 262 324 378
#     4  11  22  36  60  90 127 167 206 259 313 372
#     4  10  23  44  70  97 126 167 216 267 319 380
#     4  10  22  40  67  93 129 163 214 263 320 375
#     4  10  20  38  57  88 124 162 204 265 308 373
#     4  11  24  44  67  94 133 168 211 268 318 376
#
# _framework density 20.991219999999998
#
# number of rings (size 3 to 8) (size 9 to 14) (size 15 to 20)
#    0.000    1.500    3.750    1.875    1.750    3.000 
#    0.000    3.750    0.000    0.000    0.000    0.000 
#    0.000    0.000    0.000    0.000    0.000    0.000 
#
# Total GULP energy -89076.707026 kJ/mol
# GULP energy per Si atom -5567.294189 kJ/mol
# Density = 2.094344 g / cm^3
# Si number density = 20.991220 Si / 1000 Ang^3
#
#
#
# Elastic Constant Matrix: (Units=GPa)
#
#
# Indices 1 2 3 4 5 6 
#
# 1 108.3095 6.7953 32.3024 5.9640 -12.0322 -13.1725
# 2 6.7953 42.8098 18.7791 -10.0419 -4.3511 -10.3047
# 3 32.3024 18.7791 84.7986 -6.9145 -15.0572 -2.2748
# 4 5.9640 -10.0419 -6.9145 27.7597 4.9534 -0.2621
# 5 -12.0322 -4.3511 -15.0572 4.9534 40.7193 -1.4666
# 6 -13.1725 -10.3047 -2.2748 -0.2621 -1.4666 33.4237
#
#
#
# Elastic Compliance Matrix: (Units=1/GPa)
#
#
# Indices 1 2 3 4 5 6 
#
# 1 0.011491 0.000479 -0.004225 -0.003752 0.002502 0.004469
# 2 0.000479 0.030304 -0.005803 0.009426 0.000420 0.009229
# 3 -0.004225 -0.005803 0.015413 0.002001 0.003507 -0.002236
# 4 -0.003752 0.009426 0.002001 0.041530 -0.004352 0.001698
# 5 0.002502 0.000420 0.003507 -0.004352 0.027259 0.002516
# 6 0.004469 0.009229 -0.002236 0.001698 0.002516 0.034497
#
#
# Mechanical properties :
#
#
# Convention : Reuss Voigt Hill
#
# Bulk Modulus (GPa) = 26.23949 39.07462 32.65705
# Shear Modulus (GPa) = 26.00163 32.24993 29.12578
#
# Velocity S-wave (km/s) = 3.52332 3.92389 3.72899
# Velocity P-wave (km/s) = 5.39250 6.25974 5.84224
#
# Compressibility (1/GPa) = 0.03811050
#
# Stress axis : x y z
#
# Youngs Moduli (GPa) = 87.02513 32.99919 64.87968
#
# Poissons Ratio (x) = -0.01582 0.27413
# Poissons Ratio (y) = -0.04172 0.37649
# Poissons Ratio (z) = 0.36770 0.19149
#
# Static dielectric constant tensor:
#      x y z
#    x 1.797810 -0.049870 0.050870 
#    y -0.049870 1.783490 0.034540 
#    z 0.050870 0.034540 1.828110 
# 
# From -- ./inp_files/212073.got.cif
#   From: 2010.05.17/outbox.ucp.g08.bks.cvg/sg2_107_cif.got.tgz:212073.got - 2010.06.11 11:32:03.
