data_PCOD9072239
_publ_section_title
;
Structure prediction by ZEFSAII (Michael W. Deem and Ramdas Pophale) SiO2 
 PCOD9072239
Probable space group: P -1
;
_chemical_formula_sum "Si O2"
_cell_formula_units_Z 16
_cell_length_a 19.807843
_cell_length_b 18.673263
_cell_length_c 11.342916
_cell_angle_alpha 137.392491
_cell_angle_beta 24.111883
_cell_angle_gamma 153.244509
_cell_volume 696.736630
_symmetry_space_group_name_H-M "P -1"
_symmetry_group_IT_number 2
_symmetry_cell_setting 'triclinic'
loop_
_space_group_symop_operation_xyz
x,y,z
-x,-y,-z
loop_
_atom_site_type_symbol
_atom_site_label
_atom_site_fract_x
_atom_site_fract_y
_atom_site_fract_z
Si Si1 0.288086 0.287374 0.371398
Si Si2 0.026609 0.100642 0.184583
Si Si3 0.821922 0.538435 0.207865
Si Si4 0.420397 0.964103 0.237670
Si Si5 0.553313 0.355707 0.791532
Si Si6 0.601273 0.138136 0.416423
Si Si7 0.880819 0.338107 0.863239
Si Si8 0.260976 0.074643 0.318794
O O1 0.341576 0.436339 0.501184
O O2 0.322590 0.219126 0.336841
O O3 0.473547 0.357169 0.047476
O O4 0.973216 0.106422 0.606791
O O5 0.341002 0.286989 0.946217
O O6 0.867999 0.126638 0.435653
O O7 0.878641 0.987218 0.404857
O O8 0.000000 0.000000 0.000000
O O9 0.959980 0.593217 0.182788
O O10 0.718645 0.366573 0.144064
O O11 0.069915 0.685157 0.899717
O O12 0.499935 0.052366 0.345695
O O13 0.659057 0.133372 0.977248
O O14 0.473265 0.865880 0.037890
O O15 0.499765 0.202376 0.689017
O O16 0.868442 0.536727 0.475188
O O17 0.500000 0.000000 0.500000
#
# Coordination Sequence:
#
# PCOD9072239 Si02
#       8
#     2   2   2   2   2   2   2   2
#     4  10  19  34  57  87 111 143 192 246 274 320
#     4  11  23  36  54  87 117 146 190 232 282 334
#     4   9  18  31  52  81 112 147 178 233 287 324
#     4  11  20  39  57  83 118 153 182 227 295 339
#     4  10  21  35  54  89 114 142 190 239 276 328
#     4  10  18  30  53  82 111 144 186 232 273 323
#     4   9  19  36  55  82 117 147 186 228 284 338
#     4  10  21  36  56  82 117 148 187 231 290 333
#
# _framework density 22.964202
#
# number of rings (size 3 to 8) (size 9 to 14) (size 15 to 20)
#    0.000    2.000    3.750    1.875    3.500    0.500 
#    0.000    0.000    0.000    1.500    6.500    2.625 
#    0.000    0.000    0.000    0.000    0.000    0.000 
#
# Total GULP energy -89449.189801 kJ/mol
# GULP energy per Si atom -5590.574363 kJ/mol
# Density = 2.291193 g / cm^3
# Si number density = 22.964202 Si / 1000 Ang^3
#
#
#
# Elastic Constant Matrix: (Units=GPa)
#
#
# Indices 1 2 3 4 5 6 
#
# 1 76.0879 45.2537 45.5684 10.8822 -13.7270 -19.8007
# 2 45.2537 118.0269 51.6057 23.7560 -5.1269 -14.7687
# 3 45.5684 51.6057 138.3044 33.2679 -13.3971 -11.6190
# 4 10.8822 23.7560 33.2679 41.3302 -5.5798 -4.1267
# 5 -13.7270 -5.1269 -13.3971 -5.5798 22.3218 4.1680
# 6 -19.8007 -14.7687 -11.6190 -4.1267 4.1680 37.0438
#
#
#
# Elastic Compliance Matrix: (Units=1/GPa)
#
#
# Indices 1 2 3 4 5 6 
#
# 1 0.022528 -0.005980 -0.004396 0.003041 0.009186 0.007584
# 2 -0.005980 0.012452 -0.001832 -0.004438 -0.003224 0.001062
# 3 -0.004396 -0.001832 0.011069 -0.006485 0.002002 -0.000556
# 4 0.003041 -0.004438 -0.006485 0.031894 0.004775 0.000838
# 5 0.009186 -0.003224 0.002002 0.004775 0.052309 -0.001101
# 6 0.007584 0.001062 -0.000556 0.000838 -0.001101 0.031515
#
#
# Mechanical properties :
#
#
# Convention : Reuss Voigt Hill
#
# Bulk Modulus (GPa) = 46.22147 68.58608 57.40378
# Shear Modulus (GPa) = 25.85408 32.80524 29.32966
#
# Velocity S-wave (km/s) = 3.35900 3.78370 3.57766
# Velocity P-wave (km/s) = 5.93423 7.00142 6.48980
#
# Compressibility (1/GPa) = 0.02163497
#
# Stress axis : x y z
#
# Youngs Moduli (GPa) = 44.39007 80.30613 90.33883
#
# Poissons Ratio (x) = 0.48020 0.39711
# Poissons Ratio (y) = 0.26544 0.16549
# Poissons Ratio (z) = 0.19513 0.14711
#
# Static dielectric constant tensor:
#      x y z
#    x 1.921930 0.069250 0.002100 
#    y 0.069250 1.874870 0.041870 
#    z 0.002100 0.041870 1.885660 
# 
# From -- ./inp_files/472415.got.cif
#   From: 2010.05.17/outbox.cif.g08.bks.cpg/sg2_237_cif.got.tgz:472415.got - 2010.06.03 11:33:40.
