data_PCOD9072656
_publ_section_title
;
Structure prediction by ZEFSAII (Michael W. Deem and Ramdas Pophale) SiO2 
 PCOD9072656
Probable space group: P -1
;
_chemical_formula_sum "Si O2"
_cell_formula_units_Z 12
_cell_length_a 9.000000
_cell_length_b 12.000000
_cell_length_c 12.000000
_cell_angle_alpha 110.000000
_cell_angle_beta 50.000000
_cell_angle_gamma 70.000000
_cell_volume 583.178110
_symmetry_space_group_name_H-M "P -1"
_symmetry_group_IT_number 2
_symmetry_cell_setting 'triclinic'
loop_
_space_group_symop_operation_xyz
x,y,z
-x,-y,-z
loop_
_atom_site_type_symbol
_atom_site_label
_atom_site_fract_x
_atom_site_fract_y
_atom_site_fract_z
Si Si1 0.672243 0.027765 0.157645
Si Si2 0.146211 0.635011 0.676398
Si Si3 0.791985 0.648307 0.356862
Si Si4 0.250398 0.789088 0.511522
Si Si5 0.379172 0.510126 0.944582
Si Si6 0.811671 0.157437 0.968285
O O1 0.362200 0.176813 0.430945
O O2 0.616711 0.151183 0.127967
O O3 0.921001 0.950497 0.104872
O O4 0.855254 0.828492 0.951505
O O5 0.500000 0.500000 0.500000
O O6 0.120507 0.505826 0.658698
O O7 0.139650 0.717501 0.596296
O O8 0.540803 0.708705 0.413444
O O9 0.069501 0.579653 0.135167
O O10 0.372299 0.695690 0.301246
O O11 0.973184 0.014465 0.737773
O O12 0.500000 0.500000 0.000000
O O13 0.322042 0.652526 0.940609
#
# Coordination Sequence:
#
# PCOD9072656 Si02
#       6
#     2   2   2   2   2   2
#     4   9  17  33  61  87 103 133 185 242 273 303
#     4   9  16  31  58  86 109 130 173 233 279 316
#     4  10  20  34  57  85 109 141 184 229 274 320
#     4   9  19  36  59  80 103 142 187 232 268 312
#     4  12  25  37  51  78 120 156 178 215 274 336
#     4   9  18  35  57  81 109 139 180 228 277 323
#
# _framework density 20.576903999999999
#
# number of rings (size 3 to 8) (size 9 to 14) (size 15 to 20)
#    0.000    2.333    0.000    6.500    0.000    4.667 
#    0.000    3.333    0.000    4.000    0.000    0.000 
#    0.000    0.000    0.000    0.000    0.000    0.000 
#
# Total GULP energy -66807.734447 kJ/mol
# GULP energy per Si atom -5567.311204 kJ/mol
# Density = 2.053007 g / cm^3
# Si number density = 20.576904 Si / 1000 Ang^3
#
#
#
# Elastic Constant Matrix: (Units=GPa)
#
#
# Indices 1 2 3 4 5 6 
#
# 1 35.9304 3.5225 15.8695 -3.7721 21.8263 -0.1483
# 2 3.5225 53.9905 -5.6431 13.7215 2.3897 7.7746
# 3 15.8695 -5.6431 103.9477 6.6144 55.5526 4.4056
# 4 -3.7721 13.7215 6.6144 14.8707 3.7033 11.3198
# 5 21.8263 2.3897 55.5526 3.7033 22.0790 0.4442
# 6 -0.1483 7.7746 4.4056 11.3198 0.4442 15.7686
#
#
#
# Elastic Compliance Matrix: (Units=1/GPa)
#
#
# Indices 1 2 3 4 5 6 
#
# 1 0.020954 -0.009055 -0.021474 0.017546 0.031410 -0.002819
# 2 -0.009055 0.028105 0.005149 -0.041272 -0.000409 0.014259
# 3 -0.021474 0.005149 -0.001913 -0.032202 0.030481 0.020052
# 4 0.017546 -0.041272 -0.032202 0.206039 0.035988 -0.119412
# 5 0.031410 -0.000409 0.030481 0.035988 -0.067800 -0.031944
# 6 -0.002819 0.014259 0.020052 -0.119412 -0.031944 0.137380
#
#
# Mechanical properties :
#
#
# Convention : Reuss Voigt Hill
#
# Bulk Modulus (GPa) = -276.64345 24.59625 -126.02360
# Shear Modulus (GPa) = 13.42929 22.55165 17.99047
#
# Velocity S-wave (km/s) = 2.55745 3.31413 2.96007
# Velocity P-wave (km/s) = 11.22563 5.15984 7.04950
#
# Compressibility (1/GPa) = -0.00361476
#
# Stress axis : x y z
#
# Youngs Moduli (GPa) = 47.72383 35.58128 -522.85895
#
# Poissons Ratio (x) = 0.32219 -11.22782
# Poissons Ratio (y) = 0.43214 2.69195
# Poissons Ratio (z) = 1.02482 -0.18319
#
# Static dielectric constant tensor:
#      x y z
#    x 1.756330 0.005630 0.032300 
#    y 0.005630 1.723200 0.000610 
#    z 0.032300 0.000610 1.780670 
# 
# From -- ./inp_files/164956.got.cif
#   From: 2010.05.17/outbox.ucp.g08.bks.cvg/sg2_83_cif.got.tgz:164956.got - 2010.06.11 11:32:03.
