data_PCOD9072832
_publ_section_title
;
Structure prediction by ZEFSAII (Michael W. Deem and Ramdas Pophale) SiO2 
 PCOD9072832
Probable space group: P -1
;
_chemical_formula_sum "Si O2"
_cell_formula_units_Z 16
_cell_length_a 18.000000
_cell_length_b 12.000000
_cell_length_c 9.000000
_cell_angle_alpha 130.000000
_cell_angle_beta 50.000000
_cell_angle_gamma 150.000000
_cell_volume 725.531033
_symmetry_space_group_name_H-M "P -1"
_symmetry_group_IT_number 2
_symmetry_cell_setting 'triclinic'
loop_
_space_group_symop_operation_xyz
x,y,z
-x,-y,-z
loop_
_atom_site_type_symbol
_atom_site_label
_atom_site_fract_x
_atom_site_fract_y
_atom_site_fract_z
Si Si1 0.292069 0.331936 0.740902
Si Si2 0.930619 0.570748 0.718161
Si Si3 0.189397 0.751187 0.148369
Si Si4 0.434375 0.781449 0.479791
Si Si5 0.029591 0.904825 0.113686
Si Si6 0.443100 0.203043 0.366528
Si Si7 0.725971 0.581548 0.836568
Si Si8 0.902165 0.565747 0.258889
O O1 0.115496 0.162478 0.796633
O O2 0.340272 0.223531 0.554973
O O3 0.395205 0.552830 0.691718
O O4 0.324800 0.409916 0.934720
O O5 0.819456 0.382059 0.828400
O O6 0.834827 0.568608 0.733330
O O7 0.000000 0.500000 0.500000
O O8 0.044106 0.804316 0.872415
O O9 0.039330 0.680202 0.291219
O O10 0.349012 0.012723 0.195878
O O11 0.160438 0.644145 0.935625
O O12 0.529124 0.857246 0.571590
O O13 0.422895 0.640735 0.252542
O O14 0.254457 0.570594 0.577942
O O15 0.500000 0.000000 0.500000
O O16 0.980531 0.764878 0.208321
O O17 0.173273 0.178611 0.170238
#
# Coordination Sequence:
#
# PCOD9072832 Si02
#       8
#     2   2   2   2   2   2   2   2
#     4  10  23  44  66 100 137 179 235 275 345 414
#     4  10  20  37  65 103 135 170 225 284 341 399
#     4  10  23  40  70  99 132 185 226 285 338 409
#     4  12  27  46  66 103 138 183 227 285 347 409
#     4  10  22  43  70 100 137 178 231 288 341 404
#     4  11  25  43  70  96 138 188 226 279 346 412
#     4  11  25  43  71 101 139 183 228 290 342 403
#     4  10  23  46  67 102 136 175 236 280 343 409
#
# _framework density 22.052813
#
# number of rings (size 3 to 8) (size 9 to 14) (size 15 to 20)
#    0.000    1.500    1.250    3.000    7.000    3.500 
#    4.500    0.000    0.000    0.000    0.000    0.000 
#    0.000    0.000    0.000    0.000    0.000    0.000 
#
# Total GULP energy -89390.150695 kJ/mol
# GULP energy per Si atom -5586.884418 kJ/mol
# Density = 2.200262 g / cm^3
# Si number density = 22.052813 Si / 1000 Ang^3
#
#
#
# Elastic Constant Matrix: (Units=GPa)
#
#
# Indices 1 2 3 4 5 6 
#
# 1 85.0349 36.9493 -1.6400 8.1313 19.8220 -15.9483
# 2 36.9493 89.4407 18.9406 25.5478 9.0349 -14.4822
# 3 -1.6400 18.9406 46.8193 3.7722 2.0245 -9.0183
# 4 8.1313 25.5478 3.7722 27.1970 1.5006 7.2179
# 5 19.8220 9.0349 2.0245 1.5006 29.8766 3.5227
# 6 -15.9483 -14.4822 -9.0183 7.2179 3.5227 30.4378
#
#
#
# Elastic Compliance Matrix: (Units=1/GPa)
#
#
# Indices 1 2 3 4 5 6 
#
# 1 0.019906 -0.004605 0.006019 -0.005113 -0.013474 0.012794
# 2 -0.004605 0.023242 -0.005016 -0.023010 -0.004020 0.013081
# 3 0.006019 -0.005016 0.025948 -0.002990 -0.005237 0.009770
# 4 -0.005113 -0.023010 -0.002990 0.068204 0.010894 -0.031947
# 5 -0.013474 -0.004020 -0.005237 0.010894 0.045602 -0.018385
# 6 0.012794 0.013081 0.009770 -0.031947 -0.018385 0.058380
#
#
# Mechanical properties :
#
#
# Convention : Reuss Voigt Hill
#
# Bulk Modulus (GPa) = 16.15723 36.64386 26.40054
# Shear Modulus (GPa) = 18.57923 28.63862 23.60892
#
# Velocity S-wave (km/s) = 2.90571 3.60757 3.27550
# Velocity P-wave (km/s) = 4.31278 5.83140 5.12861
#
# Compressibility (1/GPa) = 0.06189179
#
# Stress axis : x y z
#
# Youngs Moduli (GPa) = 50.23520 43.02547 38.53817
#
# Poissons Ratio (x) = 0.19814 -0.23197
# Poissons Ratio (y) = 0.23134 0.19333
# Poissons Ratio (z) = -0.30238 0.21584
#
# Static dielectric constant tensor:
#      x y z
#    x 1.794460 -0.014900 -0.030170 
#    y -0.014900 1.786170 0.008590 
#    z -0.030170 0.008590 1.954760 
# 
# From -- ./inp_files/332945.got.cif
#   From: 2010.05.17/outbox.ucp.g08.bks.cvg/sg2_167_cif.got.tgz:332945.got - 2010.06.11 11:32:03.
