data_PCOD9072552
_publ_section_title
;
Structure prediction by ZEFSAII (Michael W. Deem and Ramdas Pophale) SiO2 
 PCOD9072552
Probable space group: P -1
;
_chemical_formula_sum "Si O2"
_cell_formula_units_Z 16
_cell_length_a 9.000000
_cell_length_b 24.000000
_cell_length_c 9.000000
_cell_angle_alpha 130.000000
_cell_angle_beta 60.000000
_cell_angle_gamma 150.000000
_cell_volume 736.400153
_symmetry_space_group_name_H-M "P -1"
_symmetry_group_IT_number 2
_symmetry_cell_setting 'triclinic'
loop_
_space_group_symop_operation_xyz
x,y,z
-x,-y,-z
loop_
_atom_site_type_symbol
_atom_site_label
_atom_site_fract_x
_atom_site_fract_y
_atom_site_fract_z
Si Si1 0.390507 0.026323 0.203020
Si Si2 0.572151 0.710450 0.781304
Si Si3 0.864661 0.872889 0.387180
Si Si4 0.440695 0.487930 0.838196
Si Si5 0.357215 0.627380 0.060554
Si Si6 0.387682 0.175329 0.292587
Si Si7 0.083545 0.428457 0.458616
Si Si8 0.998482 0.275480 0.480154
O O1 0.342181 0.077620 0.203702
O O2 0.651339 0.139650 0.384174
O O3 0.091340 0.902269 0.231388
O O4 0.500000 0.000000 0.000000
O O5 0.661377 0.813908 0.828495
O O6 0.254540 0.563075 0.637408
O O7 0.814383 0.730564 0.673487
O O8 0.517952 0.710859 0.976729
O O9 0.517388 0.735619 0.284208
O O10 0.843262 0.858380 0.549118
O O11 0.000000 0.000000 0.500000
O O12 0.707562 0.539314 0.709186
O O13 0.126020 0.342846 0.692251
O O14 0.500000 0.500000 0.000000
O O15 0.447027 0.575379 0.951006
O O16 0.000000 0.500000 0.000000
O O17 0.740155 0.314795 0.386010
O O18 0.092539 0.377768 0.508719
#
# Coordination Sequence:
#
# PCOD9072552 Si02
#       8
#     2   2   2   2   2   2   2   2
#     4  10  22  44  72  92 128 182 224 266 330 402
#     4  11  20  38  61  97 129 162 216 274 328 389
#     4  10  24  44  63  94 133 172 214 272 330 395
#     4  11  24  38  62  99 135 168 223 276 326 396
#     4  12  25  39  67  96 133 172 219 273 338 390
#     4  10  23  38  66  93 127 170 220 266 330 389
#     4  10  19  39  62  91 131 175 209 264 337 392
#     4  10  20  41  66  91 128 175 217 264 333 394
#
# _framework density 21.727318
#
# number of rings (size 3 to 8) (size 9 to 14) (size 15 to 20)
#    0.000    1.500    2.500    2.625   10.500    0.000 
#    0.000    6.250    0.000    0.000    0.000    0.000 
#    0.000    0.000    0.000    0.000    0.000    0.000 
#
# Total GULP energy -89278.950442 kJ/mol
# GULP energy per Si atom -5579.934403 kJ/mol
# Density = 2.167787 g / cm^3
# Si number density = 21.727318 Si / 1000 Ang^3
#
#
#
# Elastic Constant Matrix: (Units=GPa)
#
#
# Indices 1 2 3 4 5 6 
#
# 1 54.4937 37.3233 22.9556 -28.0558 12.7438 -9.0635
# 2 37.3233 73.6288 25.5321 0.4449 9.9562 8.6415
# 3 22.9556 25.5321 81.8818 -9.4446 12.0484 1.0219
# 4 -28.0558 0.4449 -9.4446 29.8351 -2.0613 6.8361
# 5 12.7438 9.9562 12.0484 -2.0613 27.9865 -6.8702
# 6 -9.0635 8.6415 1.0219 6.8361 -6.8702 20.2083
#
#
#
# Elastic Compliance Matrix: (Units=1/GPa)
#
#
# Indices 1 2 3 4 5 6 
#
# 1 0.176450 -0.094760 -0.000190 0.151805 -0.020297 0.061416
# 2 -0.094760 0.067908 -0.004119 -0.081431 0.004384 -0.042293
# 3 -0.000190 -0.004119 0.014885 0.004800 -0.005100 -0.002434
# 4 0.151805 -0.081431 0.004800 0.168737 -0.020298 0.038683
# 5 -0.020297 0.004384 -0.005100 -0.020298 0.047100 0.012159
# 6 0.061416 -0.042293 -0.002434 0.038683 0.012159 0.086287
#
#
# Mechanical properties :
#
#
# Convention : Reuss Voigt Hill
#
# Bulk Modulus (GPa) = 16.36514 42.40292 29.38403
# Shear Modulus (GPa) = 6.41131 23.88554 15.14843
#
# Velocity S-wave (km/s) = 1.71966 3.31922 2.64333
# Velocity P-wave (km/s) = 3.38989 5.85217 4.78222
#
# Compressibility (1/GPa) = 0.06110548
#
# Stress axis : x y z
#
# Youngs Moduli (GPa) = 5.66732 14.72588 67.18243
#
# Poissons Ratio (x) = 1.39542 0.01278
# Poissons Ratio (y) = 0.53703 0.27671
# Poissons Ratio (z) = 0.00108 0.06065
#
# Static dielectric constant tensor:
#      x y z
#    x 1.817790 0.050340 0.072980 
#    y 0.050340 1.764030 0.002690 
#    z 0.072980 0.002690 1.950600 
# 
# From -- ./inp_files/179910.got.cif
#   From: 2010.05.17/outbox.ucp.g08.bks.cvg/sg2_90_cif.got.tgz:179910.got - 2010.06.11 11:32:03.
