data_PCOD9072053
_publ_section_title
;
Structure prediction by ZEFSAII (Michael W. Deem and Ramdas Pophale) SiO2 
 PCOD9072053
Probable space group: P -1
;
_chemical_formula_sum "Si O2"
_cell_formula_units_Z 12
_cell_length_a 12.000000
_cell_length_b 9.000000
_cell_length_c 9.000000
_cell_angle_alpha 90.000000
_cell_angle_beta 120.000000
_cell_angle_gamma 50.000000
_cell_volume 564.115245
_symmetry_space_group_name_H-M "P -1"
_symmetry_group_IT_number 2
_symmetry_cell_setting 'triclinic'
loop_
_space_group_symop_operation_xyz
x,y,z
-x,-y,-z
loop_
_atom_site_type_symbol
_atom_site_label
_atom_site_fract_x
_atom_site_fract_y
_atom_site_fract_z
Si Si1 0.031010 0.806599 0.965227
Si Si2 0.362292 0.844515 0.820653
Si Si3 0.740378 0.442358 0.612100
Si Si4 0.999016 0.332688 0.547549
Si Si5 0.322607 0.851494 0.454202
Si Si6 0.738937 0.403800 0.163125
O O1 0.211148 0.660935 0.975084
O O2 0.835882 0.928948 0.751544
O O3 0.110400 0.648910 0.157126
O O4 0.000000 0.000000 0.000000
O O5 0.371193 0.869097 0.650537
O O6 0.310092 0.714461 0.802557
O O7 0.186982 0.101613 0.750977
O O8 0.563228 0.672308 0.044597
O O9 0.524004 0.665992 0.505462
O O10 0.751128 0.256774 0.582710
O O11 0.812792 0.470453 0.522594
O O12 0.000000 0.500000 0.500000
O O13 0.938308 0.284796 0.367105
#
# Coordination Sequence:
#
# PCOD9072053 Si02
#       6
#     2   2   2   2   2   2
#     4  10  19  32  60  94 122 150 194 259 317 354
#     4  11  21  38  67  95 120 159 210 263 308 355
#     4  10  21  36  57  94 122 150 203 256 308 363
#     4  12  26  43  61  88 131 174 203 245 309 378
#     4  10  18  34  64  92 120 149 199 267 310 346
#     4  11  22  38  67  96 123 157 212 260 308 363
#
# _framework density 21.272248999999999
#
# number of rings (size 3 to 8) (size 9 to 14) (size 15 to 20)
#    0.000    1.333    5.000    2.500    0.000    2.000 
#    0.000    1.667    0.000    0.000    0.000    0.000 
#    0.000    0.000    0.000    0.000    0.000    0.000 
#
# Total GULP energy -66841.067591 kJ/mol
# GULP energy per Si atom -5570.088966 kJ/mol
# Density = 2.122383 g / cm^3
# Si number density = 21.272249 Si / 1000 Ang^3
#
#
#
# Elastic Constant Matrix: (Units=GPa)
#
#
# Indices 1 2 3 4 5 6 
#
# 1 57.8700 25.5723 7.3280 -3.0259 -2.6287 -4.5776
# 2 25.5723 8.9616 19.5847 -18.0054 -6.3945 -1.8067
# 3 7.3280 19.5847 93.3553 -33.8044 -1.7554 -8.8937
# 4 -3.0259 -18.0054 -33.8044 36.1901 -11.9035 -10.4330
# 5 -2.6287 -6.3945 -1.7554 -11.9035 8.8593 2.5144
# 6 -4.5776 -1.8067 -8.8937 -10.4330 2.5144 8.2143
#
#
#
# Elastic Compliance Matrix: (Units=1/GPa)
#
#
# Indices 1 2 3 4 5 6 
#
# 1 0.074295 -0.095576 0.071208 0.099621 0.041007 0.211454
# 2 -0.095576 0.156264 -0.129687 -0.186568 -0.087038 -0.369622
# 3 0.071208 -0.129687 0.094988 0.107686 0.021749 0.244117
# 4 0.099621 -0.186568 0.107686 0.132444 0.010125 0.296191
# 5 0.041007 -0.087038 0.021749 0.010125 0.075289 0.017069
# 6 0.211454 -0.369622 0.244117 0.296191 0.017069 0.793551
#
#
# Mechanical properties :
#
#
# Convention : Reuss Voigt Hill
#
# Bulk Modulus (GPa) = 57.34845 29.46189 43.40517
# Shear Modulus (GPa) = 3.04738 17.83286 10.44012
#
# Velocity S-wave (km/s) = 1.19819 2.89851 2.21777
# Velocity P-wave (km/s) = 5.37885 5.00817 5.19682
#
# Compressibility (1/GPa) = 0.01743726
#
# Stress axis : x y z
#
# Youngs Moduli (GPa) = 13.45977 6.39941 10.52765
#
# Poissons Ratio (x) = 0.61163 -0.74965
# Poissons Ratio (y) = 1.28644 1.36530
# Poissons Ratio (z) = -0.95844 0.82992
#
# Static dielectric constant tensor:
#      x y z
#    x 1.755770 -0.056830 -0.021380 
#    y -0.056830 1.828190 -0.005600 
#    z -0.021380 -0.005600 1.888130 
# 
# From -- ./inp_files/146123.got.cif
#   From: 2010.05.17/outbox.ucp.g08.bks.cvg/sg2_74_cif.got.tgz:146123.got - 2010.06.11 11:32:03.
