data_PCOD9072122
_publ_section_title
;
Structure prediction by ZEFSAII (Michael W. Deem and Ramdas Pophale) SiO2 
 PCOD9072122
Probable space group: P -1
;
_chemical_formula_sum "Si O2"
_cell_formula_units_Z 16
_cell_length_a 21.000000
_cell_length_b 18.000000
_cell_length_c 9.000000
_cell_angle_alpha 50.000000
_cell_angle_beta 60.000000
_cell_angle_gamma 20.000000
_cell_volume 818.070593
_symmetry_space_group_name_H-M "P -1"
_symmetry_group_IT_number 2
_symmetry_cell_setting 'triclinic'
loop_
_space_group_symop_operation_xyz
x,y,z
-x,-y,-z
loop_
_atom_site_type_symbol
_atom_site_label
_atom_site_fract_x
_atom_site_fract_y
_atom_site_fract_z
Si Si1 0.743371 0.790353 0.114418
Si Si2 0.878321 0.232895 0.752863
Si Si3 0.177620 0.161084 0.466345
Si Si4 0.419582 0.570723 0.168890
Si Si5 0.831078 0.018138 0.491714
Si Si6 0.017930 0.304507 0.014097
Si Si7 0.392288 0.079685 0.221057
Si Si8 0.949430 0.825596 0.164128
O O1 0.963703 0.467597 0.261860
O O2 0.591304 0.903598 0.236927
O O3 0.814113 0.813895 0.043377
O O4 0.625834 0.937778 0.904578
O O5 0.672792 0.425317 0.716328
O O6 0.002759 0.118465 0.610554
O O7 0.888375 0.315184 0.742243
O O8 0.000000 0.000000 0.000000
O O9 0.218972 0.013345 0.514007
O O10 0.345890 0.038894 0.422375
O O11 0.132169 0.171163 0.665583
O O12 0.617524 0.336134 0.342705
O O13 0.500000 0.500000 0.000000
O O14 0.239075 0.868294 0.030320
O O15 0.908078 0.871603 0.737208
O O16 0.968707 0.312644 0.907611
O O17 0.808878 0.607989 0.925399
#
# Coordination Sequence:
#
# PCOD9072122 Si02
#       8
#     2   2   2   2   2   2   2   2
#     4  10  20  36  60  87 115 151 199 236 277 357
#     4   9  19  38  59  83 107 146 199 235 272 343
#     4  10  18  37  58  86 110 156 197 236 281 338
#     4  11  20  39  64  85 112 153 198 237 277 344
#     4  11  20  35  64  86 112 158 192 236 287 340
#     4  11  22  41  54  88 127 149 184 245 299 330
#     4  10  20  36  61  86 116 154 196 235 285 344
#     4  10  23  39  58  86 123 151 188 247 289 335
#
# _framework density 19.558214
#
# number of rings (size 3 to 8) (size 9 to 14) (size 15 to 20)
#    0.000    1.750    6.250    0.750    0.000    5.500 
#    2.250    3.750    0.000    0.000    0.000    0.000 
#    0.000    0.000    0.000    0.000    0.000    0.000 
#
# Total GULP energy -89119.515510 kJ/mol
# GULP energy per Si atom -5569.969719 kJ/mol
# Density = 1.951370 g / cm^3
# Si number density = 19.558214 Si / 1000 Ang^3
#
#
#
# Elastic Constant Matrix: (Units=GPa)
#
#
# Indices 1 2 3 4 5 6 
#
# 1 72.4000 33.0434 4.1176 18.9682 -16.3845 -29.5960
# 2 33.0434 64.3637 6.7830 9.6835 -7.1989 -36.6165
# 3 4.1176 6.7830 47.3797 15.3812 -26.1688 -6.5696
# 4 18.9682 9.6835 15.3812 31.3365 -7.9948 -7.9235
# 5 -16.3845 -7.1989 -26.1688 -7.9948 27.9619 13.9382
# 6 -29.5960 -36.6165 -6.5696 -7.9235 13.9382 40.7964
#
#
#
# Elastic Compliance Matrix: (Units=1/GPa)
#
#
# Indices 1 2 3 4 5 6 
#
# 1 0.028304 -0.009271 0.018433 -0.016023 0.025132 0.003482
# 2 -0.009271 0.038308 -0.015710 0.003509 -0.026677 0.034924
# 3 0.018433 -0.015710 0.067200 -0.025858 0.071985 -0.019523
# 4 -0.016023 0.003509 -0.025858 0.048943 -0.020647 0.003921
# 5 0.025132 -0.026677 0.071985 -0.020647 0.125533 -0.041019
# 6 0.003482 0.034924 -0.019523 0.003921 -0.041019 0.070016
#
#
# Mechanical properties :
#
#
# Convention : Reuss Voigt Hill
#
# Bulk Modulus (GPa) = 8.28388 30.22571 19.25480
# Shear Modulus (GPa) = 11.58381 29.36557 20.47469
#
# Velocity S-wave (km/s) = 2.43631 3.87905 3.23903
# Velocity P-wave (km/s) = 3.48695 5.96242 4.88412
#
# Compressibility (1/GPa) = 0.12071632
#
# Stress axis : x y z
#
# Youngs Moduli (GPa) = 35.33075 26.10414 14.88105
#
# Poissons Ratio (x) = 0.24200 -0.27430
# Poissons Ratio (y) = 0.32754 0.23378
# Poissons Ratio (z) = -0.65125 0.41009
#
# Static dielectric constant tensor:
#      x y z
#    x 1.778060 -0.177970 -0.085810 
#    y -0.177970 2.031400 0.186390 
#    z -0.085810 0.186390 1.824550 
# 
# From -- ./inp_files/314822.got.cif
#   From: 2010.05.17/outbox.ucp.g08.bks.cvg/sg2_158_cif.got.tgz:314822.got - 2010.06.11 11:32:03.
