data_PCOD9072868
_publ_section_title
;
Structure prediction by ZEFSAII (Michael W. Deem and Ramdas Pophale) SiO2 
 PCOD9072868
Probable space group: P -1
;
_chemical_formula_sum "Si O2"
_cell_formula_units_Z 14
_cell_length_a 9.000000
_cell_length_b 6.000000
_cell_length_c 12.000000
_cell_angle_alpha 90.000000
_cell_angle_beta 90.000000
_cell_angle_gamma 80.000000
_cell_volume 638.155424
_symmetry_space_group_name_H-M "P -1"
_symmetry_group_IT_number 2
_symmetry_cell_setting 'triclinic'
loop_
_space_group_symop_operation_xyz
x,y,z
-x,-y,-z
loop_
_atom_site_type_symbol
_atom_site_label
_atom_site_fract_x
_atom_site_fract_y
_atom_site_fract_z
Si Si1 0.744658 0.469016 0.772135
Si Si2 0.730064 0.780984 0.987343
Si Si3 0.466069 0.853706 0.166325
Si Si4 0.675264 0.010892 0.348011
Si Si5 0.072344 0.290885 0.803142
Si Si6 0.803309 0.736690 0.552281
Si Si7 0.120391 0.649302 0.634873
O O1 0.751193 0.594094 0.890850
O O2 0.602293 0.344883 0.775910
O O3 0.743121 0.630632 0.664147
O O4 0.899476 0.285768 0.773333
O O5 0.662622 0.002354 0.913117
O O6 0.600146 0.762785 0.079208
O O7 0.875960 0.761489 0.068923
O O8 0.534725 0.987895 0.267090
O O9 0.815078 0.874223 0.275987
O O10 0.690741 0.914164 0.475503
O O11 0.726629 0.251473 0.356005
O O12 0.091055 0.538192 0.754327
O O13 0.848450 0.537202 0.462160
O O14 0.962515 0.804593 0.594498
#
# Coordination Sequence:
#
# PCOD9072868 Si02
#       7
#     2   2   2   2   2   2   2
#     4  11  22  38  59  86 119 146 185 243 285 328
#     4  10  22  41  58  80 115 154 192 232 282 336
#     4  10  24  39  57  86 113 152 195 225 283 351
#     4  10  20  38  61  84 117 153 186 229 280 339
#     4   9  21  37  61  91 109 144 198 235 279 334
#     4   9  20  35  57  88 113 146 192 230 279 338
#     4   9  18  36  60  85 115 148 186 234 281 331
#
# _framework density 21.938229
#
# number of rings (size 3 to 8) (size 9 to 14) (size 15 to 20)
#    0.000    2.286    0.000    2.143    0.000   11.429 
#    0.000    1.429    0.000    0.000    0.000    0.000 
#    0.000    0.000    0.000    0.000    0.000    0.000 
#
# Total GULP energy -78057.633916 kJ/mol
# GULP energy per Si atom -5575.545280 kJ/mol
# Density = 2.188830 g / cm^3
# Si number density = 21.938229 Si / 1000 Ang^3
#
#
#
# Elastic Constant Matrix: (Units=GPa)
#
#
# Indices 1 2 3 4 5 6 
#
# 1 24.4618 0.6070 24.5697 -8.1412 -10.9503 1.0071
# 2 0.6070 8.6023 10.5311 -1.7422 -6.2128 -3.2418
# 3 24.5697 10.5311 132.5349 -16.6108 21.5333 4.9948
# 4 -8.1412 -1.7422 -16.6108 32.2032 4.6074 2.2398
# 5 -10.9503 -6.2128 21.5333 4.6074 24.7293 -7.6751
# 6 1.0071 -3.2418 4.9948 2.2398 -7.6751 30.9063
#
#
#
# Elastic Compliance Matrix: (Units=1/GPa)
#
#
# Indices 1 2 3 4 5 6 
#
# 1 -0.048888 -0.162474 0.047833 0.025529 -0.126383 -0.056415
# 2 -0.162474 -0.152535 0.083619 0.029835 -0.213262 -0.079342
# 3 0.047833 0.083619 -0.021411 -0.006586 0.070991 0.028779
# 4 0.025529 0.029835 -0.006586 0.032384 0.020388 0.006078
# 5 -0.126383 -0.213262 0.070991 0.020388 -0.156462 -0.070056
# 6 -0.056415 -0.079342 0.028779 0.006078 -0.070056 0.003383
#
#
# Mechanical properties :
#
#
# Convention : Reuss Voigt Hill
#
# Bulk Modulus (GPa) = -3.51027 26.33494 11.41234
# Shear Modulus (GPa) = -13.28222 26.22718 6.47248
#
# Velocity S-wave (km/s) = -2.46323 3.46135 1.71951
# Velocity P-wave (km/s) = 3.11345 5.29196 3.02583
#
# Compressibility (1/GPa) = -0.28487868
#
# Stress axis : x y z
#
# Youngs Moduli (GPa) = -20.45479 -6.55588 -46.70595
#
# Poissons Ratio (x) = -1.06516 2.23406
# Poissons Ratio (y) = -3.32337 3.90549
# Poissons Ratio (z) = 0.97840 0.54819
#
# Static dielectric constant tensor:
#      x y z
#    x 1.846060 -0.029020 -0.011150 
#    y -0.029020 1.895710 -0.013800 
#    z -0.011150 -0.013800 1.743370 
# 
# From -- ./inp_files/53462.got.cif
#   From: 2010.05.17/outbox.ucp.g08.bks.cvg/sg2_27_cif.got.tgz:53462.got - 2010.06.11 11:32:03.
