data_PCOD9072471
_publ_section_title
;
Structure prediction by ZEFSAII (Michael W. Deem and Ramdas Pophale) SiO2 
 PCOD9072471
Probable space group: P -1
;
_chemical_formula_sum "Si O2"
_cell_formula_units_Z 14
_cell_length_a 12.000000
_cell_length_b 9.000000
_cell_length_c 9.000000
_cell_angle_alpha 100.000000
_cell_angle_beta 130.000000
_cell_angle_gamma 70.000000
_cell_volume 698.248189
_symmetry_space_group_name_H-M "P -1"
_symmetry_group_IT_number 2
_symmetry_cell_setting 'triclinic'
loop_
_space_group_symop_operation_xyz
x,y,z
-x,-y,-z
loop_
_atom_site_type_symbol
_atom_site_label
_atom_site_fract_x
_atom_site_fract_y
_atom_site_fract_z
Si Si1 0.116571 0.329843 0.585887
Si Si2 0.763537 0.158669 0.775230
Si Si3 0.558723 0.646485 0.026420
Si Si4 0.991366 0.847450 0.790526
Si Si5 0.427501 0.946283 0.177070
Si Si6 0.369406 0.830190 0.641594
Si Si7 0.158168 0.035013 0.755734
O O1 0.267549 0.367027 0.784471
O O2 0.079590 0.206751 0.648378
O O3 0.000000 0.500000 0.500000
O O4 0.100046 0.251137 0.396931
O O5 0.620476 0.135327 0.736597
O O6 0.707880 0.226633 0.575929
O O7 0.866022 0.230738 0.987092
O O8 0.870011 0.980405 0.803344
O O9 0.480442 0.804621 0.080521
O O10 0.500000 0.500000 0.000000
O O11 0.497132 0.692955 0.814474
O O12 0.061110 0.942409 0.745473
O O13 0.549106 0.039916 0.318149
O O14 0.278866 0.058234 0.984990
O O15 0.245160 0.924299 0.674166
#
# Coordination Sequence:
#
# PCOD9072471 Si02
#       7
#     2   2   2   2   2   2   2
#     4  12  24  37  62  92 127 159 203 258 311 363
#     4  10  21  34  64  95 123 161 204 255 310 369
#     4  11  24  40  63  94 124 159 213 262 306 358
#     4  10  22  39  59  93 131 157 206 251 311 374
#     4  10  19  38  65  89 122 156 211 261 300 361
#     4  11  19  38  65  90 119 157 217 259 303 354
#     4  10  19  37  63  92 116 161 213 258 297 356
#
# _framework density 20.050177000000001
#
# number of rings (size 3 to 8) (size 9 to 14) (size 15 to 20)
#    0.000    1.429    4.286    1.714    6.000    0.000 
#    0.000    0.714    0.000   10.286    0.000    0.000 
#    0.000    0.000    0.000    0.000    0.000    0.000 
#
# Total GULP energy -77990.506214 kJ/mol
# GULP energy per Si atom -5570.750444 kJ/mol
# Density = 2.000454 g / cm^3
# Si number density = 20.050177 Si / 1000 Ang^3
#
#
#
# Elastic Constant Matrix: (Units=GPa)
#
#
# Indices 1 2 3 4 5 6 
#
# 1 38.2336 -16.1450 24.5581 -17.3308 6.1985 2.4344
# 2 -16.1450 50.8448 44.7943 -17.4402 12.0726 9.4062
# 3 24.5581 44.7943 172.0090 -5.8213 -2.6404 11.8259
# 4 -17.3308 -17.4402 -5.8213 22.8837 7.7251 4.2552
# 5 6.1985 12.0726 -2.6404 7.7251 28.2562 6.1349
# 6 2.4344 9.4062 11.8259 4.2552 6.1349 16.7166
#
#
#
# Elastic Compliance Matrix: (Units=1/GPa)
#
#
# Indices 1 2 3 4 5 6 
#
# 1 -0.007372 -0.025809 0.006115 -0.032564 0.019419 0.012433
# 2 -0.025809 -0.009925 0.004874 -0.033328 0.017763 0.007860
# 3 0.006115 0.004874 0.004607 0.012642 -0.004623 -0.008413
# 4 -0.032564 -0.033328 0.012642 -0.012975 0.024160 0.008988
# 5 0.019419 0.017763 -0.004623 0.024160 0.021637 -0.023643
# 6 0.012433 0.007860 -0.008413 0.008988 -0.023643 0.065928
#
#
# Mechanical properties :
#
#
# Convention : Reuss Voigt Hill
#
# Bulk Modulus (GPa) = -23.62362 40.83358 8.60498
# Shear Modulus (GPa) = 64.57348 27.42996 46.00172
#
# Velocity S-wave (km/s) = 5.68118 3.70275 4.79511
# Velocity P-wave (km/s) = 5.58808 6.22016 5.91257
#
# Compressibility (1/GPa) = -0.04233052
#
# Stress axis : x y z
#
# Youngs Moduli (GPa) = -135.65017 -100.75732 217.07308
#
# Poissons Ratio (x) = -2.60043 -1.32737
# Poissons Ratio (y) = -3.50097 -1.05795
# Poissons Ratio (z) = 0.82948 0.49106
#
# Static dielectric constant tensor:
#      x y z
#    x 1.843920 -0.073080 0.056860 
#    y -0.073080 1.685940 -0.043660 
#    z 0.056860 -0.043660 1.872050 
# 
# From -- ./inp_files/155259.got.cif
#   From: 2010.05.17/outbox.ucp.g08.bks.cvg/sg2_78_cif.got.tgz:155259.got - 2010.06.11 11:32:03.
