data_PCOD9072974
_publ_section_title
;
Structure prediction by ZEFSAII (Michael W. Deem and Ramdas Pophale) SiO2 
 PCOD9072974
Probable space group: P -1
;
_chemical_formula_sum "Si O2"
_cell_formula_units_Z 16
_cell_length_a 9.000000
_cell_length_b 12.000000
_cell_length_c 15.000000
_cell_angle_alpha 30.000000
_cell_angle_beta 100.000000
_cell_angle_gamma 110.000000
_cell_volume 734.803614
_symmetry_space_group_name_H-M "P -1"
_symmetry_group_IT_number 2
_symmetry_cell_setting 'triclinic'
loop_
_space_group_symop_operation_xyz
x,y,z
-x,-y,-z
loop_
_atom_site_type_symbol
_atom_site_label
_atom_site_fract_x
_atom_site_fract_y
_atom_site_fract_z
Si Si1 0.525312 0.550739 0.229021
Si Si2 0.691833 0.043586 0.972056
Si Si3 0.796079 0.019949 0.194507
Si Si4 0.588133 0.087990 0.541455
Si Si5 0.592454 0.287280 0.072501
Si Si6 0.930288 0.729887 0.800602
Si Si7 0.230721 0.461773 0.394996
Si Si8 0.077083 0.783405 0.593810
O O1 0.679831 0.791230 0.104816
O O2 0.535127 0.297083 0.424763
O O3 0.377421 0.530062 0.292765
O O4 0.484136 0.597850 0.090725
O O5 0.795264 0.090641 0.041997
O O6 0.500000 0.000000 0.000000
O O7 0.762073 0.277917 0.753328
O O8 0.761258 0.736095 0.397810
O O9 0.650602 0.088141 0.172003
O O10 0.952947 0.158916 0.179045
O O11 0.773753 0.236474 0.428887
O O12 0.500000 0.000000 0.500000
O O13 0.532069 0.858252 0.761554
O O14 0.765846 0.503756 0.965336
O O15 0.036068 0.690031 0.755728
O O16 0.877016 0.928252 0.608830
O O17 0.077062 0.337350 0.401401
#
# Coordination Sequence:
#
# PCOD9072974 Si02
#       8
#     2   2   2   2   2   2   2   2
#     4  11  23  42  65  94 129 171 215 267 316 384
#     4  10  21  38  63  98 124 162 220 277 309 366
#     4  11  20  34  64 100 122 162 218 271 317 368
#     4  12  27  41  62  96 138 172 204 261 334 384
#     4  12  22  40  64  95 130 173 211 260 322 389
#     4  10  21  37  68  96 127 169 220 261 314 387
#     4  10  20  39  66  93 123 167 217 266 311 373
#     4  10  21  41  64  94 135 168 209 271 322 377
#
# _framework density 21.774525000000001
#
# number of rings (size 3 to 8) (size 9 to 14) (size 15 to 20)
#    0.000    1.250    5.000    1.875    1.750    6.000 
#    0.000    3.125    0.000    3.750    0.000    0.000 
#    0.000    0.000    0.000    0.000    0.000    0.000 
#
# Total GULP energy -89195.665924 kJ/mol
# GULP energy per Si atom -5574.729120 kJ/mol
# Density = 2.172497 g / cm^3
# Si number density = 21.774525 Si / 1000 Ang^3
#
#
#
# Elastic Constant Matrix: (Units=GPa)
#
#
# Indices 1 2 3 4 5 6 
#
# 1 34.0939 14.8360 4.5184 -8.1816 -1.8703 0.2255
# 2 14.8360 33.5569 11.3272 2.0289 -0.4870 10.8394
# 3 4.5184 11.3272 103.5309 -17.0107 5.2572 9.2862
# 4 -8.1816 2.0289 -17.0107 32.0530 12.8542 -1.0066
# 5 -1.8703 -0.4870 5.2572 12.8542 7.0338 15.7348
# 6 0.2255 10.8394 9.2862 -1.0066 15.7348 3.2088
#
#
#
# Elastic Compliance Matrix: (Units=1/GPa)
#
#
# Indices 1 2 3 4 5 6 
#
# 1 0.038078 -0.015292 0.001137 0.006625 0.011109 -0.006706
# 2 -0.015292 0.034081 -0.002225 0.002457 -0.023519 0.008487
# 3 0.001137 -0.002225 0.012124 0.007909 -0.003304 -0.008969
# 4 0.006625 0.002457 0.007909 0.035066 0.002192 -0.031405
# 5 0.011109 -0.023519 -0.003304 0.002192 0.005713 0.060905
# 6 -0.006706 0.008487 -0.008969 -0.031405 0.060905 0.000892
#
#
# Mechanical properties :
#
#
# Convention : Reuss Voigt Hill
#
# Bulk Modulus (GPa) = 19.40832 25.83833 22.62333
# Shear Modulus (GPa) = 28.42733 17.82579 23.12656
#
# Velocity S-wave (km/s) = 3.61713 2.86432 3.26251
# Velocity P-wave (km/s) = 5.13591 4.77820 4.96028
#
# Compressibility (1/GPa) = 0.05152428
#
# Stress axis : x y z
#
# Youngs Moduli (GPa) = 26.26192 29.34221 82.47803
#
# Poissons Ratio (x) = 0.44870 -0.09379
# Poissons Ratio (y) = 0.40160 0.18347
# Poissons Ratio (z) = -0.02986 0.06527
#
# Static dielectric constant tensor:
#      x y z
#    x 1.906680 -0.074070 0.046880 
#    y -0.074070 1.838120 -0.087150 
#    z 0.046880 -0.087150 1.844050 
# 
# From -- ./inp_files/469998.got.cif
#   From: 2010.05.17/outbox.ucp.g08.bks.cvg/sg2_235_cif.got.tgz:469998.got - 2010.06.11 11:32:03.
