data_PCOD9072919
_publ_section_title
;
Structure prediction by ZEFSAII (Michael W. Deem and Ramdas Pophale) SiO2 
 PCOD9072919
Probable space group: P -1
;
_chemical_formula_sum "Si O2"
_cell_formula_units_Z 16
_cell_length_a 18.000000
_cell_length_b 12.000000
_cell_length_c 9.000000
_cell_angle_alpha 100.000000
_cell_angle_beta 140.000000
_cell_angle_gamma 50.000000
_cell_volume 729.599496
_symmetry_space_group_name_H-M "P -1"
_symmetry_group_IT_number 2
_symmetry_cell_setting 'triclinic'
loop_
_space_group_symop_operation_xyz
x,y,z
-x,-y,-z
loop_
_atom_site_type_symbol
_atom_site_label
_atom_site_fract_x
_atom_site_fract_y
_atom_site_fract_z
Si Si1 0.474930 0.469321 0.681074
Si Si2 0.130890 0.695028 0.413494
Si Si3 0.670988 0.580285 0.781347
Si Si4 0.311594 0.069255 0.699532
Si Si5 0.345188 0.817313 0.513292
Si Si6 0.995981 0.624839 0.956260
Si Si7 0.118549 0.893872 0.915433
Si Si8 0.965569 0.281479 0.392649
O O1 0.366311 0.513877 0.372770
O O2 0.466889 0.611489 0.706652
O O3 0.349462 0.523593 0.640440
O O4 0.690975 0.250871 0.934465
O O5 0.097573 0.681892 0.526745
O O6 0.051120 0.885434 0.332948
O O7 0.003238 0.719535 0.110109
O O8 0.463446 0.788415 0.557597
O O9 0.792956 0.541275 0.834762
O O10 0.804055 0.481429 0.106667
O O11 0.171755 0.225814 0.388681
O O12 0.176694 0.168809 0.662782
O O13 0.338564 0.917046 0.652658
O O14 0.500000 0.000000 0.000000
O O15 0.178857 0.886794 0.174031
O O16 0.000000 0.500000 0.000000
O O17 0.042574 0.828435 0.743778
#
# Coordination Sequence:
#
# PCOD9072919 Si02
#       8
#     2   2   2   2   2   2   2   2
#     4  10  20  38  67 100 132 166 215 261 329 405
#     4  11  24  39  63 101 134 174 207 268 340 381
#     4   9  19  38  66  93 125 165 216 264 325 400
#     4  11  26  45  66  95 128 173 231 275 320 391
#     4  11  19  39  69  96 124 171 214 267 329 389
#     4  10  23  46  67  89 126 178 229 272 322 390
#     4  11  20  39  67 101 134 166 212 266 329 404
#     4  11  22  41  63  95 137 165 211 267 330 398
#
# _framework density 21.929839999999999
#
# number of rings (size 3 to 8) (size 9 to 14) (size 15 to 20)
#    0.000    1.500    3.750    1.875    0.000    3.500 
#    9.000    3.750    0.000    0.000    0.000    0.000 
#    0.000    0.000    0.000    0.000    0.000    0.000 
#
# Total GULP energy -89097.435306 kJ/mol
# GULP energy per Si atom -5568.589707 kJ/mol
# Density = 2.187993 g / cm^3
# Si number density = 21.929840 Si / 1000 Ang^3
#
#
#
# Elastic Constant Matrix: (Units=GPa)
#
#
# Indices 1 2 3 4 5 6 
#
# 1 69.7571 26.2527 45.3170 18.7357 39.1702 -19.9079
# 2 26.2527 42.2883 10.8953 -1.8241 18.9173 -20.2895
# 3 45.3170 10.8953 49.1739 15.6521 41.9590 -21.8721
# 4 18.7357 -1.8241 15.6521 22.6775 -6.3859 -4.4830
# 5 39.1702 18.9173 41.9590 -6.3859 36.2721 -3.2776
# 6 -19.9079 -20.2895 -21.8721 -4.4830 -3.2776 24.2203
#
#
#
# Elastic Compliance Matrix: (Units=1/GPa)
#
#
# Indices 1 2 3 4 5 6 
#
# 1 0.062498 -0.036422 -0.040052 -0.034381 -0.010302 -0.023067
# 2 -0.036422 0.050310 0.002027 0.043472 0.020650 0.024880
# 3 -0.040052 0.002027 0.009084 0.035069 0.036817 -0.011546
# 4 -0.034381 0.043472 0.035069 0.058279 -0.011416 0.049068
# 5 -0.010302 0.020650 0.036817 -0.011416 -0.013225 0.038176
# 6 -0.023067 0.024880 -0.011546 0.049068 0.038176 0.046991
#
#
# Mechanical properties :
#
#
# Convention : Reuss Voigt Hill
#
# Bulk Modulus (GPa) = -37.03625 36.23880 -0.39872
# Shear Modulus (GPa) = 14.13103 21.88426 18.00764
#
# Velocity S-wave (km/s) = 2.54121 3.16242 2.86868
# Velocity P-wave (km/s) = 2.88355 5.46766 3.28484
#
# Compressibility (1/GPa) = -0.02700057
#
# Stress axis : x y z
#
# Youngs Moduli (GPa) = 16.00048 19.87666 110.08024
#
# Poissons Ratio (x) = 0.72394 4.40895
# Poissons Ratio (y) = 0.58276 -0.22314
# Poissons Ratio (z) = 0.64085 -0.04029
#
# Static dielectric constant tensor:
#      x y z
#    x 1.951520 0.011950 0.097650 
#    y 0.011950 1.818080 -0.018910 
#    z 0.097650 -0.018910 1.899100 
# 
# From -- ./inp_files/257496.got.cif
#   From: 2010.05.17/outbox.ucp.g08.bks.cvg/sg2_129_cif.got.tgz:257496.got - 2010.06.11 11:32:03.
