data_PCOD9072213
_publ_section_title
;
Structure prediction by ZEFSAII (Michael W. Deem and Ramdas Pophale) SiO2 
 PCOD9072213
Probable space group: P -1
;
_chemical_formula_sum "Si O2"
_cell_formula_units_Z 16
_cell_length_a 8.647764
_cell_length_b 17.025433
_cell_length_c 11.024771
_cell_angle_alpha 89.573500
_cell_angle_beta 107.596699
_cell_angle_gamma 149.380662
_cell_volume 672.878661
_symmetry_space_group_name_H-M "P -1"
_symmetry_group_IT_number 2
_symmetry_cell_setting 'triclinic'
loop_
_space_group_symop_operation_xyz
x,y,z
-x,-y,-z
loop_
_atom_site_type_symbol
_atom_site_label
_atom_site_fract_x
_atom_site_fract_y
_atom_site_fract_z
Si Si1 0.332703 0.903081 0.788893
Si Si2 0.435027 0.367587 0.607486
Si Si3 0.425896 0.094975 0.383519
Si Si4 0.544776 0.849758 0.993564
Si Si5 0.632000 0.945701 0.362490
Si Si6 0.434272 0.243175 0.781752
Si Si7 0.459092 0.552383 0.629614
Si Si8 0.433647 0.242932 0.239572
O O1 0.416483 0.890039 0.686106
O O2 0.444540 0.893975 0.925061
O O3 0.904341 0.734883 0.717929
O O4 0.510683 0.063770 0.784412
O O5 0.624078 0.398250 0.755512
O O6 0.330019 0.408391 0.629328
O O7 0.664051 0.478423 0.536174
O O8 0.058371 0.158730 0.482147
O O9 0.544725 0.120966 0.545659
O O10 0.536787 0.232908 0.378033
O O11 0.971572 0.899137 0.272077
O O12 0.484230 0.768967 0.862163
O O13 0.387458 0.727191 0.066072
O O14 0.982124 0.050252 0.130625
O O15 0.624510 0.851768 0.328120
O O16 0.399350 0.597894 0.705796
#
# Coordination Sequence:
#
# PCOD9072213 Si02
#       8
#     2   2   2   2   2   2   2   2
#     4  10  19  29  47  74 102 125 148 197 245 277
#     4   9  18  32  51  72  93 123 163 198 229 283
#     4   9  16  29  49  73  97 117 152 201 242 271
#     4   9  18  31  48  71  98 123 160 200 231 271
#     4  10  18  30  53  75  94 122 158 200 241 277
#     4  10  18  32  54  72  91 127 164 195 232 279
#     4  10  19  32  51  71  96 128 159 190 238 289
#     4   9  17  31  51  71  93 129 162 191 230 282
#
# _framework density 23.778433
#
# number of rings (size 3 to 8) (size 9 to 14) (size 15 to 20)
#    0.000    2.500    0.000    6.375    0.000    2.000 
#    0.000    1.250    0.000   54.000    0.000    0.000 
#    0.000    0.000    0.000    0.000    0.000    0.000 
#
# Total GULP energy -89280.376165 kJ/mol
# GULP energy per Si atom -5580.023510 kJ/mol
# Density = 2.372431 g / cm^3
# Si number density = 23.778433 Si / 1000 Ang^3
#
#
#
# Elastic Constant Matrix: (Units=GPa)
#
#
# Indices 1 2 3 4 5 6 
#
# 1 86.0604 41.1358 25.8315 -2.6469 0.2789 -20.9948
# 2 41.1358 93.5331 58.2790 -34.1045 11.3473 -43.5720
# 3 25.8315 58.2790 101.9226 -41.1323 11.1081 -18.4017
# 4 -2.6469 -34.1045 -41.1323 48.1686 -16.6827 13.6004
# 5 0.2789 11.3473 11.1081 -16.6827 36.9239 2.9819
# 6 -20.9948 -43.5720 -18.4017 13.6004 2.9819 50.1452
#
#
#
# Elastic Compliance Matrix: (Units=1/GPa)
#
#
# Indices 1 2 3 4 5 6 
#
# 1 0.015967 -0.007501 -0.002252 -0.006804 -0.000309 0.001204
# 2 -0.007501 0.032554 -0.009785 0.006667 -0.005613 0.020081
# 3 -0.002252 -0.009785 0.019596 0.012440 0.003219 -0.005820
# 4 -0.006804 0.006667 0.012440 0.041693 0.013469 -0.004600
# 5 -0.000309 -0.005613 0.003219 0.013469 0.034698 -0.009542
# 6 0.001204 0.020081 -0.005820 -0.004600 -0.009542 0.037574
#
#
# Mechanical properties :
#
#
# Convention : Reuss Voigt Hill
#
# Bulk Modulus (GPa) = 34.43613 59.11206 46.77410
# Shear Modulus (GPa) = 21.66009 37.46553 29.56281
#
# Velocity S-wave (km/s) = 3.02141 3.97370 3.52982
# Velocity P-wave (km/s) = 5.16579 6.77991 6.02713
#
# Compressibility (1/GPa) = 0.02903927
#
# Stress axis : x y z
#
# Youngs Moduli (GPa) = 62.63000 30.71814 51.03077
#
# Poissons Ratio (x) = 0.23042 0.11493
# Poissons Ratio (y) = 0.46980 0.49935
# Poissons Ratio (z) = 0.14105 0.30059
#
# Static dielectric constant tensor:
#      x y z
#    x 1.921870 0.002510 0.033550 
#    y 0.002510 1.998250 -0.025260 
#    z 0.033550 -0.025260 1.990290 
# 
# From -- ./inp_files/254864.got.cif
#   From: 2010.05.17/outbox.cif.g08.bks.cpg/sg2_128_cif.got.tgz:254864.got - 2010.06.03 11:33:40.
