data_PCOD9072580
_publ_section_title
;
Structure prediction by ZEFSAII (Michael W. Deem and Ramdas Pophale) SiO2 
 PCOD9072580
Probable space group: P -1
;
_chemical_formula_sum "Si O2"
_cell_formula_units_Z 16
_cell_length_a 12.000000
_cell_length_b 12.000000
_cell_length_c 15.000000
_cell_angle_alpha 50.000000
_cell_angle_beta 30.000000
_cell_angle_gamma 60.000000
_cell_volume 818.222392
_symmetry_space_group_name_H-M "P -1"
_symmetry_group_IT_number 2
_symmetry_cell_setting 'triclinic'
loop_
_space_group_symop_operation_xyz
x,y,z
-x,-y,-z
loop_
_atom_site_type_symbol
_atom_site_label
_atom_site_fract_x
_atom_site_fract_y
_atom_site_fract_z
Si Si1 0.124931 0.108309 0.584753
Si Si2 0.618782 0.213917 0.221685
Si Si3 0.420709 0.673431 0.616222
Si Si4 0.136884 0.732561 0.457024
Si Si5 0.392579 0.365768 0.881821
Si Si6 0.703859 0.499255 0.928266
Si Si7 0.182766 0.075344 0.765718
Si Si8 0.902317 0.188588 0.352150
O O1 0.359756 0.217814 0.373544
O O2 0.077054 0.076044 0.739293
O O3 0.947548 0.180313 0.612704
O O4 0.159212 0.965933 0.576325
O O5 0.671942 0.263915 0.260180
O O6 0.645949 0.044180 0.288514
O O7 0.751816 0.333894 0.002391
O O8 0.394097 0.500504 0.742255
O O9 0.673649 0.766921 0.388933
O O10 0.270148 0.708301 0.620011
O O11 0.383135 0.699188 0.271905
O O12 0.130971 0.815973 0.514713
O O13 0.937266 0.594412 0.684340
O O14 0.388206 0.437234 0.947825
O O15 0.157349 0.253243 0.109535
O O16 0.500000 0.500000 0.000000
O O17 0.000000 0.000000 0.000000
#
# Coordination Sequence:
#
# PCOD9072580 Si02
#       8
#     2   2   2   2   2   2   2   2
#     4  11  21  43  64  87 130 166 204 258 313 372
#     4  10  19  40  65  88 123 159 207 261 316 362
#     4  10  20  42  64  86 124 166 204 260 314 362
#     4  11  25  41  62  97 128 167 208 250 310 377
#     4  10  25  40  60  95 127 164 213 254 304 369
#     4  10  21  40  65  91 122 166 201 251 323 372
#     4  11  23  37  64 103 117 157 214 265 319 361
#     4  11  22  43  65  87 126 175 211 248 309 368
#
# _framework density 19.554586
#
# number of rings (size 3 to 8) (size 9 to 14) (size 15 to 20)
#    0.000    1.500    3.750    1.500    1.750    3.500 
#    0.000    0.000    0.000    0.000    0.000    0.000 
#    0.000    0.000    0.000    0.000    0.000    0.000 
#
# Total GULP energy -89158.911221 kJ/mol
# GULP energy per Si atom -5572.431951 kJ/mol
# Density = 1.951008 g / cm^3
# Si number density = 19.554586 Si / 1000 Ang^3
#
#
#
# Elastic Constant Matrix: (Units=GPa)
#
#
# Indices 1 2 3 4 5 6 
#
# 1 128.0966 19.2248 39.1902 4.6414 9.7402 -11.2551
# 2 19.2248 44.5382 22.5384 5.3180 4.4177 -12.8011
# 3 39.1902 22.5384 104.7509 12.8120 14.8106 0.9000
# 4 4.6414 5.3180 12.8120 28.3880 -4.8365 -3.3270
# 5 9.7402 4.4177 14.8106 -4.8365 25.3264 -5.9086
# 6 -11.2551 -12.8011 0.9000 -3.3270 -5.9086 29.0111
#
#
#
# Elastic Compliance Matrix: (Units=1/GPa)
#
#
# Indices 1 2 3 4 5 6 
#
# 1 0.009290 -0.001579 -0.003106 0.000394 -0.000729 0.002900
# 2 -0.001579 0.029893 -0.006133 -0.000720 0.001891 0.013070
# 3 -0.003106 -0.006133 0.014243 -0.007139 -0.009065 -0.007018
# 4 0.000394 -0.000720 -0.007139 0.041791 0.013922 0.007685
# 5 -0.000729 0.001891 -0.009065 0.013922 0.050354 0.012685
# 6 0.002900 0.013070 -0.007018 0.007685 0.012685 0.045045
#
#
# Mechanical properties :
#
#
# Convention : Reuss Voigt Hill
#
# Bulk Modulus (GPa) = 31.45638 48.81028 40.13333
# Shear Modulus (GPa) = 22.43686 29.64059 26.03872
#
# Velocity S-wave (km/s) = 3.39100 3.89753 3.65306
# Velocity P-wave (km/s) = 5.60832 6.72827 6.19366
#
# Compressibility (1/GPa) = 0.03179005
#
# Stress axis : x y z
#
# Youngs Moduli (GPa) = 107.64468 33.45300 70.20953
#
# Poissons Ratio (x) = 0.05284 0.21806
# Poissons Ratio (y) = 0.17002 0.43056
# Poissons Ratio (z) = 0.33433 0.20515
#
# Static dielectric constant tensor:
#      x y z
#    x 1.677110 -0.026070 -0.000540 
#    y -0.026070 1.763670 0.013570 
#    z -0.000540 0.013570 1.711350 
# 
# From -- ./inp_files/427835.got.cif
#   From: 2010.05.17/outbox.ucp.g08.bks.cvg/sg2_214_cif.got.tgz:427835.got - 2010.06.11 11:32:03.
