data_PCOD9072892
_publ_section_title
;
Structure prediction by ZEFSAII (Michael W. Deem and Ramdas Pophale) SiO2 
 PCOD9072892
Probable space group: P -1
;
_chemical_formula_sum "Si O2"
_cell_formula_units_Z 16
_cell_length_a 9.000000
_cell_length_b 15.000000
_cell_length_c 9.000000
_cell_angle_alpha 80.000000
_cell_angle_beta 50.000000
_cell_angle_gamma 110.000000
_cell_volume 732.374747
_symmetry_space_group_name_H-M "P -1"
_symmetry_group_IT_number 2
_symmetry_cell_setting 'triclinic'
loop_
_space_group_symop_operation_xyz
x,y,z
-x,-y,-z
loop_
_atom_site_type_symbol
_atom_site_label
_atom_site_fract_x
_atom_site_fract_y
_atom_site_fract_z
Si Si1 0.111191 0.654672 0.242139
Si Si2 0.396736 0.881512 0.671571
Si Si3 0.930203 0.773445 0.200486
Si Si4 0.633321 0.881831 0.806877
Si Si5 0.783243 0.462887 0.035821
Si Si6 0.968601 0.141753 0.549435
Si Si7 0.438127 0.706979 0.526932
Si Si8 0.979347 0.349097 0.375279
O O1 0.199120 0.597786 0.099665
O O2 0.976469 0.604138 0.498877
O O3 0.931715 0.665115 0.253112
O O4 0.368909 0.780502 0.070941
O O5 0.582675 0.892559 0.666291
O O6 0.368791 0.787077 0.610534
O O7 0.500000 0.000000 0.500000
O O8 0.160802 0.846565 0.923991
O O9 0.960155 0.816528 0.338182
O O10 0.706113 0.764705 0.278938
O O11 0.827648 0.855082 0.678779
O O12 0.750757 0.008247 0.750816
O O13 0.818391 0.570548 0.904588
O O14 0.572027 0.369132 0.308345
O O15 0.000000 0.500000 0.000000
O O16 0.929188 0.227492 0.466930
O O17 0.242556 0.649352 0.538459
#
# Coordination Sequence:
#
# PCOD9072892 Si02
#       8
#     2   2   2   2   2   2   2   2
#     4  10  20  41  62  92 122 164 213 252 318 370
#     4  11  22  37  62  90 124 165 206 258 308 368
#     4  10  21  39  66  86 127 169 206 256 310 383
#     4  10  20  38  63  86 130 168 200 262 310 380
#     4  10  20  40  67  86 129 166 201 269 317 363
#     4  10  20  39  61  92 124 169 213 247 320 367
#     4  11  21  43  60  92 128 163 208 256 320 362
#     4  10  23  37  63  94 125 163 215 262 304 376
#
# _framework density 21.846738999999999
#
# number of rings (size 3 to 8) (size 9 to 14) (size 15 to 20)
#    0.000    1.750    3.750    1.125    0.000    6.000 
#    6.750    9.375    0.000    0.000    0.000    0.000 
#    0.000    0.000    0.000    0.000    0.000    0.000 
#
# Total GULP energy -89072.554099 kJ/mol
# GULP energy per Si atom -5567.034631 kJ/mol
# Density = 2.179701 g / cm^3
# Si number density = 21.846739 Si / 1000 Ang^3
#
#
#
# Elastic Constant Matrix: (Units=GPa)
#
#
# Indices 1 2 3 4 5 6 
#
# 1 67.3341 19.8761 48.9967 -5.5147 9.4247 -13.3720
# 2 19.8761 40.3110 14.0078 -13.1498 -13.3002 -19.9191
# 3 48.9967 14.0078 82.0559 -9.3764 11.0083 -21.8820
# 4 -5.5147 -13.1498 -9.3764 20.1881 -5.7694 2.1255
# 5 9.4247 -13.3002 11.0083 -5.7694 34.5758 -6.1943
# 6 -13.3720 -19.9191 -21.8820 2.1255 -6.1943 27.0521
#
#
#
# Elastic Compliance Matrix: (Units=1/GPa)
#
#
# Indices 1 2 3 4 5 6 
#
# 1 0.391538 -1.048932 -0.297616 -0.822764 -0.717422 -0.919177
# 2 -1.048932 3.013607 0.810394 2.361879 2.054363 2.640833
# 3 -0.297616 0.810394 0.243477 0.641269 0.551780 0.722502
# 4 -0.822764 2.361879 0.641269 1.905255 1.617732 2.071844
# 5 -0.717422 2.054363 0.551780 1.617732 1.432402 1.805253
# 6 -0.919177 2.640833 0.722502 2.071844 1.805253 2.362109
#
#
# Mechanical properties :
#
#
# Convention : Reuss Voigt Hill
#
# Bulk Modulus (GPa) = 0.38815 39.49580 19.94198
# Shear Modulus (GPa) = 0.44328 23.48457 11.96393
#
# Velocity S-wave (km/s) = 0.45094 3.28223 2.34269
# Velocity P-wave (km/s) = 0.67021 5.69929 4.05777
#
# Compressibility (1/GPa) = 2.57631379
#
# Stress axis : x y z
#
# Youngs Moduli (GPa) = 2.55403 0.33183 4.10716
#
# Poissons Ratio (x) = 0.34807 1.22236
# Poissons Ratio (y) = 2.67900 -3.32842
# Poissons Ratio (z) = 0.76012 -0.26891
#
# Static dielectric constant tensor:
#      x y z
#    x 1.805760 0.092700 -0.047670 
#    y 0.092700 2.228070 -0.295000 
#    z -0.047670 -0.295000 2.050580 
# 
# From -- ./inp_files/206716.got.cif
#   From: 2010.05.17/outbox.ucp.g08.bks.cvg/sg2_104_cif.got.tgz:206716.got - 2010.06.11 11:32:03.
