data_PCOD9072568
_publ_section_title
;
Structure prediction by ZEFSAII (Michael W. Deem and Ramdas Pophale) SiO2 
 PCOD9072568
Probable space group: P -1
;
_chemical_formula_sum "Si O2"
_cell_formula_units_Z 16
_cell_length_a 9.000000
_cell_length_b 15.000000
_cell_length_c 15.000000
_cell_angle_alpha 130.000000
_cell_angle_beta 100.000000
_cell_angle_gamma 40.000000
_cell_volume 759.999475
_symmetry_space_group_name_H-M "P -1"
_symmetry_group_IT_number 2
_symmetry_cell_setting 'triclinic'
loop_
_space_group_symop_operation_xyz
x,y,z
-x,-y,-z
loop_
_atom_site_type_symbol
_atom_site_label
_atom_site_fract_x
_atom_site_fract_y
_atom_site_fract_z
Si Si1 0.841812 0.324592 0.412670
Si Si2 0.296538 0.042993 0.948526
Si Si3 0.209724 0.474683 0.615222
Si Si4 0.140099 0.954108 0.325870
Si Si5 0.277698 0.996407 0.712892
Si Si6 0.185872 0.459893 0.304002
Si Si7 0.414532 0.467533 0.787518
Si Si8 0.030014 0.750893 0.338838
O O1 0.500000 0.500000 0.500000
O O2 0.902669 0.339122 0.332113
O O3 0.856015 0.419761 0.545071
O O4 0.089042 0.067960 0.307866
O O5 0.278162 0.063917 0.850805
O O6 0.463032 0.810143 0.837687
O O7 0.943411 0.273754 0.085033
O O8 0.500000 0.000000 0.000000
O O9 0.458092 0.356975 0.634438
O O10 0.984101 0.544383 0.690255
O O11 0.380182 0.276801 0.437324
O O12 0.059089 0.091304 0.492562
O O13 0.465159 0.682887 0.210678
O O14 0.929263 0.982697 0.299833
O O15 0.179940 0.119904 0.687778
O O16 0.058097 0.609020 0.299770
O O17 0.637916 0.427031 0.773324
#
# Coordination Sequence:
#
# PCOD9072568 Si02
#       8
#     2   2   2   2   2   2   2   2
#     4  11  20  37  65 102 127 157 218 276 316 378
#     4  12  26  43  61  90 139 179 211 262 325 393
#     4  12  20  38  67  95 126 173 212 263 327 374
#     4  10  19  39  68 102 130 152 217 280 317 374
#     4  11  21  40  68  97 128 170 215 264 324 389
#     4  11  24  39  61  95 131 168 215 269 323 377
#     4  11  22  41  69  90 134 174 206 264 335 371
#     4  10  21  41  68 101 125 160 222 277 315 380
#
# _framework density 21.052645999999999
#
# number of rings (size 3 to 8) (size 9 to 14) (size 15 to 20)
#    0.000    1.000    6.250    1.875    0.000    3.000 
#    0.000    1.875    0.000    0.000    0.000    0.000 
#    0.000    0.000    0.000    0.000    0.000    0.000 
#
# Total GULP energy -89192.972330 kJ/mol
# GULP energy per Si atom -5574.560771 kJ/mol
# Density = 2.100473 g / cm^3
# Si number density = 21.052646 Si / 1000 Ang^3
#
#
#
# Elastic Constant Matrix: (Units=GPa)
#
#
# Indices 1 2 3 4 5 6 
#
# 1 69.7620 61.1512 6.0510 1.7970 3.3457 34.8777
# 2 61.1512 183.0604 20.2674 -2.7751 0.1148 35.1176
# 3 6.0510 20.2674 35.4077 1.5834 -7.4459 2.8948
# 4 1.7970 -2.7751 1.5834 36.0966 -5.4920 10.2471
# 5 3.3457 0.1148 -7.4459 -5.4920 15.7324 -4.0079
# 6 34.8777 35.1176 2.8948 10.2471 -4.0079 34.0765
#
#
#
# Elastic Compliance Matrix: (Units=1/GPa)
#
#
# Indices 1 2 3 4 5 6 
#
# 1 0.039035 -0.005077 -0.004724 0.005969 -0.018161 -0.038251
# 2 -0.005077 0.008354 -0.003927 0.001977 -0.001119 -0.003806
# 3 -0.004724 -0.003927 0.034697 -0.001079 0.019249 0.008523
# 4 0.005969 0.001977 -0.001079 0.033385 0.005412 -0.017458
# 5 -0.018161 -0.001119 0.019249 0.005412 0.085183 0.026497
# 6 -0.038251 -0.003806 0.008523 -0.017458 0.026497 0.080060
#
#
# Mechanical properties :
#
#
# Convention : Reuss Voigt Hill
#
# Bulk Modulus (GPa) = 18.30454 51.46326 34.88390
# Shear Modulus (GPa) = 15.31958 30.56512 22.94235
#
# Velocity S-wave (km/s) = 2.70048 3.81444 3.30473
# Velocity P-wave (km/s) = 4.29383 6.62556 5.58279
#
# Compressibility (1/GPa) = 0.05463126
#
# Stress axis : x y z
#
# Youngs Moduli (GPa) = 25.61789 119.70104 28.82106
#
# Poissons Ratio (x) = 0.60772 0.13614
# Poissons Ratio (y) = 0.13006 0.11318
# Poissons Ratio (z) = 0.12101 0.47005
#
# Static dielectric constant tensor:
#      x y z
#    x 1.792270 0.019850 -0.015910 
#    y 0.019850 1.784520 0.003970 
#    z -0.015910 0.003970 1.828320 
# 
# From -- ./inp_files/446113.got.cif
#   From: 2010.05.17/outbox.ucp.g08.bks.cvg/sg2_224_cif.got.tgz:446113.got - 2010.06.11 11:32:03.
