data_PCOD9072812
_publ_section_title
;
Structure prediction by ZEFSAII (Michael W. Deem and Ramdas Pophale) SiO2 
 PCOD9072812
Probable space group: P -1
;
_chemical_formula_sum "Si O2"
_cell_formula_units_Z 16
_cell_length_a 18.000000
_cell_length_b 12.000000
_cell_length_c 6.000000
_cell_angle_alpha 120.000000
_cell_angle_beta 60.000000
_cell_angle_gamma 130.000000
_cell_volume 828.039435
_symmetry_space_group_name_H-M "P -1"
_symmetry_group_IT_number 2
_symmetry_cell_setting 'triclinic'
loop_
_space_group_symop_operation_xyz
x,y,z
-x,-y,-z
loop_
_atom_site_type_symbol
_atom_site_label
_atom_site_fract_x
_atom_site_fract_y
_atom_site_fract_z
Si Si1 0.945138 0.366657 0.127677
Si Si2 0.670121 0.899516 0.426401
Si Si3 0.329024 0.586682 0.206737
Si Si4 0.859601 0.463591 0.755316
Si Si5 0.620681 0.631718 0.921601
Si Si6 0.380533 0.906952 0.626633
Si Si7 0.477400 0.337276 0.288253
Si Si8 0.777296 0.154750 0.850935
O O1 0.889836 0.417907 0.433991
O O2 0.041452 0.390948 0.145403
O O3 0.863234 0.212317 0.972989
O O4 0.000000 0.500000 0.000000
O O5 0.562089 0.793683 0.603199
O O6 0.660746 0.010122 0.381582
O O7 0.756328 0.015840 0.584254
O O8 0.672953 0.763224 0.160272
O O9 0.229375 0.508367 0.131133
O O10 0.328581 0.467502 0.259890
O O11 0.341021 0.735298 0.446273
O O12 0.425569 0.639379 0.958560
O O13 0.815428 0.310816 0.815653
O O14 0.615352 0.713947 0.792830
O O15 0.500000 0.500000 0.000000
O O16 0.500000 0.000000 0.500000
O O17 0.331437 0.898114 0.930758
O O18 0.500000 0.500000 0.500000
#
# Coordination Sequence:
#
# PCOD9072812 Si02
#       8
#     2   2   2   2   2   2   2   2
#     4   9  19  38  60  89 127 155 195 253 322 373
#     4  12  22  39  58  82 123 169 205 240 306 360
#     4  11  21  38  59  89 122 154 210 257 294 360
#     4  10  20  37  62  93 121 158 201 258 312 364
#     4  10  21  40  54  78 117 164 209 246 287 362
#     4  12  25  36  55  92 131 157 202 262 304 351
#     4  11  23  39  59  81 119 175 211 244 296 360
#     4  11  21  37  59  89 126 163 199 244 318 369
#
# _framework density 19.322751
#
# number of rings (size 3 to 8) (size 9 to 14) (size 15 to 20)
#    0.000    1.250    5.000    3.000    1.750    1.000 
#    0.000    0.000    0.000    0.750    0.000   13.125 
#    0.000    0.000    0.000    0.000    0.000    0.000 
#
# Total GULP energy -89134.253092 kJ/mol
# GULP energy per Si atom -5570.890818 kJ/mol
# Density = 1.927877 g / cm^3
# Si number density = 19.322751 Si / 1000 Ang^3
#
#
#
# Elastic Constant Matrix: (Units=GPa)
#
#
# Indices 1 2 3 4 5 6 
#
# 1 82.2234 32.9623 12.9235 8.8304 1.0230 11.2558
# 2 32.9623 74.6297 33.5438 12.4081 -1.4434 7.8160
# 3 12.9235 33.5438 62.3644 5.5821 11.4480 -1.6346
# 4 8.8304 12.4081 5.5821 49.2668 6.3229 8.7250
# 5 1.0230 -1.4434 11.4480 6.3229 18.8718 13.0451
# 6 11.2558 7.8160 -1.6346 8.7250 13.0451 35.9407
#
#
#
# Elastic Compliance Matrix: (Units=1/GPa)
#
#
# Indices 1 2 3 4 5 6 
#
# 1 0.015219 -0.006007 -0.000313 -0.000717 0.001904 -0.003991
# 2 -0.006007 0.025760 -0.016462 -0.004316 0.021484 -0.011219
# 3 -0.000313 -0.016462 0.031072 0.001908 -0.031944 0.016222
# 4 -0.000717 -0.004316 0.001908 0.022566 -0.008126 -0.001279
# 5 0.001904 0.021484 -0.031944 -0.008126 0.106677 -0.043468
# 6 -0.003991 -0.011219 0.016222 -0.001279 -0.043468 0.048339
#
#
# Mechanical properties :
#
#
# Convention : Reuss Voigt Hill
#
# Bulk Modulus (GPa) = 37.75379 42.00853 39.88116
# Shear Modulus (GPa) = 16.44590 30.13505 23.29048
#
# Velocity S-wave (km/s) = 2.92055 3.95341 3.47557
# Velocity P-wave (km/s) = 5.56361 6.52893 6.06551
#
# Compressibility (1/GPa) = 0.02648741
#
# Stress axis : x y z
#
# Youngs Moduli (GPa) = 65.70697 38.81959 32.18298
#
# Poissons Ratio (x) = 0.23321 0.01006
# Poissons Ratio (y) = 0.39473 0.52980
# Poissons Ratio (z) = 0.02054 0.63905
#
# Static dielectric constant tensor:
#      x y z
#    x 1.751650 -0.002940 0.080510 
#    y -0.002940 1.664760 -0.032300 
#    z 0.080510 -0.032300 1.766930 
# 
# From -- ./inp_files/109330.got.cif
#   From: 2010.05.17/outbox.ucp.g08.bks.cvg/sg2_55_cif.got.tgz:109330.got - 2010.06.11 11:32:03.
