data_PCOD9072325
_publ_section_title
;
Structure prediction by ZEFSAII (Michael W. Deem and Ramdas Pophale) SiO2 
 PCOD9072325
Probable space group: P -1
;
_chemical_formula_sum "Si O2"
_cell_formula_units_Z 16
_cell_length_a 9.000000
_cell_length_b 15.000000
_cell_length_c 9.000000
_cell_angle_alpha 80.000000
_cell_angle_beta 90.000000
_cell_angle_gamma 40.000000
_cell_volume 751.948787
_symmetry_space_group_name_H-M "P -1"
_symmetry_group_IT_number 2
_symmetry_cell_setting 'triclinic'
loop_
_space_group_symop_operation_xyz
x,y,z
-x,-y,-z
loop_
_atom_site_type_symbol
_atom_site_label
_atom_site_fract_x
_atom_site_fract_y
_atom_site_fract_z
Si Si1 0.330728 0.082937 0.835955
Si Si2 0.677479 0.621702 0.198128
Si Si3 0.640827 0.001791 0.605659
Si Si4 0.509813 0.184031 0.144026
Si Si5 0.492355 0.396931 0.527200
Si Si6 0.736075 0.146731 0.424464
Si Si7 0.970911 0.634611 0.368694
Si Si8 0.082975 0.296592 0.299904
O O1 0.085804 0.251702 0.769131
O O2 0.492486 0.068344 0.734793
O O3 0.316525 0.984925 0.820145
O O4 0.500000 0.000000 0.000000
O O5 0.496056 0.659395 0.298934
O O6 0.837139 0.614139 0.299901
O O7 0.845376 0.458383 0.197461
O O8 0.571608 0.730606 0.032734
O O9 0.880274 0.829483 0.680065
O O10 0.500000 0.000000 0.500000
O O11 0.625359 0.109424 0.511845
O O12 0.642959 0.191678 0.245327
O O13 0.286183 0.248173 0.214910
O O14 0.500000 0.500000 0.500000
O O15 0.693272 0.261688 0.466670
O O16 0.248206 0.483830 0.422465
O O17 0.000000 0.000000 0.500000
O O18 0.908882 0.686077 0.527082
#
# Coordination Sequence:
#
# PCOD9072325 Si02
#       8
#     2   2   2   2   2   2   2   2
#     4  11  20  34  62  98 129 153 204 262 319 361
#     4  11  22  37  67  92 127 155 208 264 317 364
#     4  11  20  37  64  90 122 160 213 255 301 371
#     4  11  21  38  61  98 126 157 204 267 313 370
#     4  11  27  44  64  90 127 172 216 254 307 375
#     4  12  26  44  67  88 124 173 214 254 310 381
#     4  11  20  37  65  92 123 165 210 255 309 371
#     4  10  19  34  63  91 124 158 202 250 314 365
#
# _framework density 21.278044999999999
#
# number of rings (size 3 to 8) (size 9 to 14) (size 15 to 20)
#    0.000    1.000    5.000    4.125    5.250    0.000 
#    0.000    2.500    0.000    0.000    0.000    0.000 
#    0.000    0.000    0.000    0.000    0.000    0.000 
#
# Total GULP energy -89136.742183 kJ/mol
# GULP energy per Si atom -5571.046386 kJ/mol
# Density = 2.122962 g / cm^3
# Si number density = 21.278045 Si / 1000 Ang^3
#
#
#
# Elastic Constant Matrix: (Units=GPa)
#
#
# Indices 1 2 3 4 5 6 
#
# 1 44.6927 -1.8983 19.4229 1.7815 -5.9695 10.2264
# 2 -1.8983 93.3916 -0.0913 -19.2886 5.6672 18.2988
# 3 19.4229 -0.0913 108.8955 -24.6035 -12.1221 -3.0016
# 4 1.7815 -19.2886 -24.6035 27.1642 9.9582 -5.0519
# 5 -5.9695 5.6672 -12.1221 9.9582 10.4229 -5.0570
# 6 10.2264 18.2988 -3.0016 -5.0519 -5.0570 30.2308
#
#
#
# Elastic Compliance Matrix: (Units=1/GPa)
#
#
# Indices 1 2 3 4 5 6 
#
# 1 0.033748 -0.006348 -0.008763 -0.029751 0.037552 -0.007133
# 2 -0.006348 0.026227 0.003162 0.041522 -0.062069 -0.016858
# 3 -0.008763 0.003162 0.014526 0.018917 -0.005631 0.004712
# 4 -0.029751 0.041522 0.018917 0.141141 -0.160442 -0.016444
# 5 0.037552 -0.062069 -0.005631 -0.160442 0.322934 0.051518
# 6 -0.007133 -0.016858 0.004712 -0.016444 0.051518 0.052034
#
#
# Mechanical properties :
#
#
# Convention : Reuss Voigt Hill
#
# Bulk Modulus (GPa) = 19.76239 31.31627 25.53933
# Shear Modulus (GPa) = 7.91921 28.86668 18.39294
#
# Velocity S-wave (km/s) = 1.93128 3.68726 2.94327
# Velocity P-wave (km/s) = 3.77902 5.73388 4.85584
#
# Compressibility (1/GPa) = 0.05060118
#
# Stress axis : x y z
#
# Youngs Moduli (GPa) = 29.63178 38.12866 68.84327
#
# Poissons Ratio (x) = 0.24205 0.60326
# Poissons Ratio (y) = 0.18811 -0.21765
# Poissons Ratio (z) = 0.25966 -0.12054
#
# Static dielectric constant tensor:
#      x y z
#    x 1.863780 -0.101920 0.217230 
#    y -0.101920 1.981770 -0.168520 
#    z 0.217230 -0.168520 2.123240 
# 
# From -- ./inp_files/206926.got.cif
#   From: 2010.05.17/outbox.ucp.g08.bks.cvg/sg2_104_cif.got.tgz:206926.got - 2010.06.11 11:32:03.
