data_PCOD9072339
_publ_section_title
;
Structure prediction by ZEFSAII (Michael W. Deem and Ramdas Pophale) SiO2 
 PCOD9072339
Probable space group: P -1
;
_chemical_formula_sum "Si O2"
_cell_formula_units_Z 14
_cell_length_a 6.000000
_cell_length_b 21.000000
_cell_length_c 9.000000
_cell_angle_alpha 140.000000
_cell_angle_beta 90.000000
_cell_angle_gamma 110.000000
_cell_volume 617.169155
_symmetry_space_group_name_H-M "P -1"
_symmetry_group_IT_number 2
_symmetry_cell_setting 'triclinic'
loop_
_space_group_symop_operation_xyz
x,y,z
-x,-y,-z
loop_
_atom_site_type_symbol
_atom_site_label
_atom_site_fract_x
_atom_site_fract_y
_atom_site_fract_z
Si Si1 0.901736 0.108755 0.252132
Si Si2 0.063000 0.396209 0.332057
Si Si3 0.519683 0.657925 0.285680
Si Si4 0.928828 0.014079 0.768137
Si Si5 0.526574 0.496424 0.740722
Si Si6 0.362849 0.807794 0.422868
Si Si7 0.225991 0.866039 0.235917
O O1 0.685807 0.139551 0.337672
O O2 0.196006 0.223070 0.474697
O O3 0.875960 0.064882 0.007166
O O4 0.866887 0.015870 0.214744
O O5 0.241276 0.425712 0.533175
O O6 0.262683 0.427291 0.249158
O O7 0.000000 0.500000 0.500000
O O8 0.833524 0.254879 0.068383
O O9 0.428304 0.594995 0.332460
O O10 0.320602 0.687253 0.260042
O O11 0.546334 0.580379 0.022659
O O12 0.963800 0.098391 0.781987
O O13 0.661496 0.890073 0.513303
O O14 0.182634 0.813625 0.307377
O O15 0.500000 0.000000 0.500000
#
# Coordination Sequence:
#
# PCOD9072339 Si02
#       7
#     2   2   2   2   2   2   2
#     4  10  19  35  57  82 116 155 198 251 303 355
#     4  11  23  42  65  92 125 161 206 256 304 365
#     4  10  21  38  58  86 118 155 204 251 301 363
#     4   9  20  35  53  82 118 154 197 246 302 365
#     4  10  23  40  61  88 122 162 203 250 308 366
#     4  10  20  35  57  84 117 154 200 252 300 358
#     4  10  21  39  61  88 121 160 201 248 306 363
#
# _framework density 22.684218999999999
#
# number of rings (size 3 to 8) (size 9 to 14) (size 15 to 20)
#    0.000    2.000    0.000    3.000    0.000    2.857 
#    0.000   15.000    0.000    0.000    0.000    0.000 
#    0.000    0.000    0.000    0.000    0.000    0.000 
#
# Total GULP energy -77934.012553 kJ/mol
# GULP energy per Si atom -5566.715182 kJ/mol
# Density = 2.263259 g / cm^3
# Si number density = 22.684219 Si / 1000 Ang^3
#
#
#
# Elastic Constant Matrix: (Units=GPa)
#
#
# Indices 1 2 3 4 5 6 
#
# 1 26.6041 26.0734 1.9421 2.4977 -12.3829 -12.7675
# 2 26.0734 115.5604 12.6727 0.3538 5.6738 -52.6261
# 3 1.9421 12.6727 103.5273 9.5033 12.2714 -6.6111
# 4 2.4977 0.3538 9.5033 38.4878 -8.2823 2.2389
# 5 -12.3829 5.6738 12.2714 -8.2823 29.3318 7.7002
# 6 -12.7675 -52.6261 -6.6111 2.2389 7.7002 32.4011
#
#
#
# Elastic Compliance Matrix: (Units=1/GPa)
#
#
# Indices 1 2 3 4 5 6 
#
# 1 0.123841 -0.105624 -0.018618 0.035413 0.132642 -0.160525
# 2 -0.105624 0.161774 0.024860 -0.053665 -0.172560 0.270925
# 3 -0.018618 0.024860 0.015113 -0.012800 -0.034472 0.045202
# 4 0.035413 -0.053665 -0.012800 0.047807 0.069279 -0.095588
# 5 0.132642 -0.172560 -0.034472 0.069279 0.235079 -0.295695
# 6 -0.160525 0.270925 0.045202 -0.095588 -0.295695 0.493749
#
#
# Mechanical properties :
#
#
# Convention : Reuss Voigt Hill
#
# Bulk Modulus (GPa) = 9.80727 36.34090 23.07409
# Shear Modulus (GPa) = 3.81646 33.71103 18.76374
#
# Velocity S-wave (km/s) = 1.29849 3.85918 2.87918
# Velocity P-wave (km/s) = 2.56532 5.99273 4.60943
#
# Compressibility (1/GPa) = 0.10196518
#
# Stress axis : x y z
#
# Youngs Moduli (GPa) = 8.07487 6.18145 66.16811
#
# Poissons Ratio (x) = 0.65291 1.23192
# Poissons Ratio (y) = 0.85290 -1.64494
# Poissons Ratio (z) = 0.15034 -0.15367
#
# Static dielectric constant tensor:
#      x y z
#    x 1.889970 -0.010550 -0.011560 
#    y -0.010550 1.847920 0.035970 
#    z -0.011560 0.035970 1.899300 
# 
# From -- ./inp_files/78645.got.cif
#   From: 2010.05.17/outbox.ucp.g08.bks.cvg/sg2_40_cif.got.tgz:78645.got - 2010.06.11 11:32:03.
