data_PCOD9072295
_publ_section_title
;
Structure prediction by ZEFSAII (Michael W. Deem and Ramdas Pophale) SiO2 
 PCOD9072295
Probable space group: P -1
;
_chemical_formula_sum "Si O2"
_cell_formula_units_Z 14
_cell_length_a 13.934476
_cell_length_b 15.588331
_cell_length_c 6.573175
_cell_angle_alpha 117.449767
_cell_angle_beta 47.741031
_cell_angle_gamma 134.411258
_cell_volume 754.732968
_symmetry_space_group_name_H-M "P -1"
_symmetry_group_IT_number 2
_symmetry_cell_setting 'triclinic'
loop_
_space_group_symop_operation_xyz
x,y,z
-x,-y,-z
loop_
_atom_site_type_symbol
_atom_site_label
_atom_site_fract_x
_atom_site_fract_y
_atom_site_fract_z
Si Si1 0.706821 0.710817 0.483321
Si Si2 0.667030 0.540158 0.701166
Si Si3 0.239018 0.921208 0.769264
Si Si4 0.793869 0.872297 0.917738
Si Si5 0.484067 0.711040 0.483348
Si Si6 0.926413 0.761710 0.843094
Si Si7 0.550238 0.082430 0.216037
O O1 0.674050 0.602817 0.549663
O O2 0.556538 0.687417 0.548656
O O3 0.766114 0.818360 0.674087
O O4 0.835115 0.741008 0.161698
O O5 0.651296 0.419059 0.557229
O O6 0.816921 0.640919 0.734457
O O7 0.500000 0.500000 0.000000
O O8 0.294401 0.892696 0.864188
O O9 0.104689 0.809270 0.702627
O O10 0.173369 0.999824 0.993701
O O11 0.399033 0.004929 0.499196
O O12 0.630404 0.783794 0.188792
O O13 0.925060 0.861855 0.827638
O O14 0.430504 0.794610 0.710175
O O15 0.500000 0.000000 0.000000
#
# Coordination Sequence:
#
# PCOD9072295 Si02
#       7
#     2   2   2   2   2   2   2
#     4  10  18  30  54  83 108 142 169 213 275 318
#     4  11  19  34  53  83 113 139 171 217 268 322
#     4  10  21  38  54  77 111 139 181 224 265 308
#     4   9  18  32  53  81 110 140 170 219 270 318
#     4  10  19  33  54  81 108 137 184 217 259 314
#     4  10  21  32  52  84 112 141 170 218 270 321
#     4  10  22  39  59  76 100 147 187 223 258 311
#
# _framework density 18.549607000000002
#
# number of rings (size 3 to 8) (size 9 to 14) (size 15 to 20)
#    0.000    2.000    4.286    1.714    0.000    2.857 
#    0.000    0.714    0.000    1.714    0.000    0.000 
#    0.000    0.000    0.000    0.000    0.000    0.000 
#
# Total GULP energy -78102.099767 kJ/mol
# GULP energy per Si atom -5578.721412 kJ/mol
# Density = 1.850739 g / cm^3
# Si number density = 18.549607 Si / 1000 Ang^3
#
#
#
# Elastic Constant Matrix: (Units=GPa)
#
#
# Indices 1 2 3 4 5 6 
#
# 1 117.2928 64.7103 24.9846 12.8341 10.0451 21.4182
# 2 64.7103 110.9851 20.8994 28.9879 0.5291 3.8622
# 3 24.9846 20.8994 41.4215 20.9617 17.6838 -7.2148
# 4 12.8341 28.9879 20.9617 28.4352 0.0325 0.6628
# 5 10.0451 0.5291 17.6838 0.0325 23.1296 1.9569
# 6 21.4182 3.8622 -7.2148 0.6628 1.9569 23.0622
#
#
#
# Elastic Compliance Matrix: (Units=1/GPa)
#
#
# Indices 1 2 3 4 5 6 
#
# 1 0.031528 -0.018639 -0.056562 0.047550 0.033982 -0.048104
# 2 -0.018639 0.023369 0.032855 -0.040226 -0.019745 0.026507
# 3 -0.056562 0.032855 0.215286 -0.169575 -0.151725 0.132126
# 4 0.047550 -0.040226 -0.169575 0.182051 0.118611 -0.105771
# 5 0.033982 -0.019745 -0.151725 0.118611 0.152553 -0.092072
# 6 -0.048104 0.026507 0.132126 -0.105771 -0.092072 0.135784
#
#
# Mechanical properties :
#
#
# Convention : Reuss Voigt Hill
#
# Bulk Modulus (GPa) = 5.39113 54.54311 29.96712
# Shear Modulus (GPa) = 5.63639 25.53238 15.58438
#
# Velocity S-wave (km/s) = 1.74503 3.71406 2.90167
# Velocity P-wave (km/s) = 2.64061 6.91810 5.23607
#
# Compressibility (1/GPa) = 0.18549004
#
# Stress axis : x y z
#
# Youngs Moduli (GPa) = 31.71783 42.79159 4.64499
#
# Poissons Ratio (x) = 0.79759 0.26273
# Poissons Ratio (y) = 0.59118 -0.15261
# Poissons Ratio (z) = 1.79404 -1.40592
#
# Static dielectric constant tensor:
#      x y z
#    x 1.648640 0.009270 0.000230 
#    y 0.009270 1.662910 0.000940 
#    z 0.000230 0.000940 1.639710 
# 
# From -- ./inp_files/63476.got.cif
#   From: 2010.05.17/outbox.cif.g08.bks.cpg/sg2_32_cif.got.tgz:63476.got - 2010.06.03 11:33:40.
