data_PCOD9072250
_publ_section_title
;
Structure prediction by ZEFSAII (Michael W. Deem and Ramdas Pophale) SiO2 
 PCOD9072250
Probable space group: P -1
;
_chemical_formula_sum "Si O2"
_cell_formula_units_Z 14
_cell_length_a 6.000000
_cell_length_b 15.000000
_cell_length_c 21.000000
_cell_angle_alpha 150.000000
_cell_angle_beta 70.000000
_cell_angle_gamma 90.000000
_cell_volume 689.324798
_symmetry_space_group_name_H-M "P -1"
_symmetry_group_IT_number 2
_symmetry_cell_setting 'triclinic'
loop_
_space_group_symop_operation_xyz
x,y,z
-x,-y,-z
loop_
_atom_site_type_symbol
_atom_site_label
_atom_site_fract_x
_atom_site_fract_y
_atom_site_fract_z
Si Si1 0.743355 0.187793 0.452230
Si Si2 0.282433 0.021734 0.089048
Si Si3 0.668876 0.521001 0.757109
Si Si4 0.649475 0.567307 0.937098
Si Si5 0.812072 0.513197 0.395180
Si Si6 0.034298 0.690104 0.132005
Si Si7 0.643485 0.940759 0.748239
O O1 0.706979 0.301780 0.593909
O O2 0.458939 0.396569 0.570314
O O3 0.042869 0.118029 0.343669
O O4 0.770060 0.961148 0.313410
O O5 0.376204 0.040688 0.162217
O O6 0.955502 0.267220 0.259334
O O7 0.500000 0.000000 0.000000
O O8 0.349320 0.777481 0.932160
O O9 0.712734 0.510163 0.821468
O O10 0.924068 0.510464 0.685882
O O11 0.890488 0.359326 0.830924
O O12 0.328744 0.629363 0.028303
O O13 0.611817 0.800781 0.094217
O O14 0.668991 0.725906 0.589468
O O15 0.000000 0.500000 0.000000
#
# Coordination Sequence:
#
# PCOD9072250 Si02
#       7
#     2   2   2   2   2   2   2
#     4  10  21  34  52  78 104 133 168 209 257 303
#     4   9  18  34  55  76 102 138 172 205 248 298
#     4   9  20  37  52  74 106 135 169 208 251 303
#     4   9  19  36  55  73 102 138 166 209 258 294
#     4  10  19  33  54  77 104 136 168 208 251 294
#     4  10  20  35  55  77  99 131 175 211 250 306
#     4   9  18  35  54  75 104 134 170 209 248 300
#
# _framework density 20.309729000000001
#
# number of rings (size 3 to 8) (size 9 to 14) (size 15 to 20)
#    0.000    2.571    0.000    1.286    0.000    4.000 
#    0.000   10.000    0.000    0.000    0.000    0.000 
#    0.000    0.000    0.000    0.000    0.000    0.000 
#
# Total GULP energy -78008.766221 kJ/mol
# GULP energy per Si atom -5572.054730 kJ/mol
# Density = 2.026350 g / cm^3
# Si number density = 20.309729 Si / 1000 Ang^3
#
#
#
# Elastic Constant Matrix: (Units=GPa)
#
#
# Indices 1 2 3 4 5 6 
#
# 1 9.0033 -5.9155 3.0216 -3.2575 16.1451 -4.1136
# 2 -5.9155 81.1080 26.4547 -15.4794 16.3485 -11.8671
# 3 3.0216 26.4547 63.4261 -23.4504 29.5888 -2.2505
# 4 -3.2575 -15.4794 -23.4504 18.4751 -8.2971 8.7147
# 5 16.1451 16.3485 29.5888 -8.2971 21.8929 5.6731
# 6 -4.1136 -11.8671 -2.2505 8.7147 5.6731 14.3855
#
#
#
# Elastic Compliance Matrix: (Units=1/GPa)
#
#
# Indices 1 2 3 4 5 6 
#
# 1 -0.010823 -0.010549 -0.019566 0.012163 0.058667 -0.045362
# 2 -0.010549 0.012569 -0.009968 0.001844 0.012646 -0.000312
# 3 -0.019566 -0.009968 0.043042 0.065036 0.000438 -0.046655
# 4 0.012163 0.001844 0.065036 0.181823 -0.005263 -0.092899
# 5 0.058667 0.012646 0.000438 -0.005263 -0.019504 0.038157
# 6 -0.045362 -0.000312 -0.046655 -0.092899 0.038157 0.090217
#
#
# Mechanical properties :
#
#
# Convention : Reuss Voigt Hill
#
# Bulk Modulus (GPa) = -28.26580 22.29544 -2.98518
# Shear Modulus (GPa) = 13.67254 19.61581 16.64418
#
# Velocity S-wave (km/s) = 2.59743 3.11116 2.86583
# Velocity P-wave (km/s) = 2.22533 4.88951 3.07857
#
# Compressibility (1/GPa) = -0.03537845
#
# Stress axis : x y z
#
# Youngs Moduli (GPa) = -92.39215 79.56319 23.23301
#
# Poissons Ratio (x) = 0.83928 0.45458
# Poissons Ratio (y) = -0.97461 0.23160
# Poissons Ratio (z) = -1.80774 0.79312
#
# Static dielectric constant tensor:
#      x y z
#    x 1.752750 -0.027150 0.008260 
#    y -0.027150 1.684040 0.014730 
#    z 0.008260 0.014730 1.744590 
# 
# From -- ./inp_files/33167.got.cif
#   From: 2010.05.17/outbox.ucp.g08.bks.cvg/sg2_17_cif.got.tgz:33167.got - 2010.06.11 11:32:03.
