data_PCOD9072392
_publ_section_title
;
Structure prediction by ZEFSAII (Michael W. Deem and Ramdas Pophale) SiO2 
 PCOD9072392
Probable space group: P -1
;
_chemical_formula_sum "Si O2"
_cell_formula_units_Z 16
_cell_length_a 6.000000
_cell_length_b 12.000000
_cell_length_c 24.000000
_cell_angle_alpha 150.000000
_cell_angle_beta 70.000000
_cell_angle_gamma 120.000000
_cell_volume 731.538865
_symmetry_space_group_name_H-M "P -1"
_symmetry_group_IT_number 2
_symmetry_cell_setting 'triclinic'
loop_
_space_group_symop_operation_xyz
x,y,z
-x,-y,-z
loop_
_atom_site_type_symbol
_atom_site_label
_atom_site_fract_x
_atom_site_fract_y
_atom_site_fract_z
Si Si1 0.123698 0.144991 0.901792
Si Si2 0.262662 0.359300 0.240811
Si Si3 0.535306 0.576956 0.427598
Si Si4 0.646913 0.285134 0.851569
Si Si5 0.910199 0.228581 0.597330
Si Si6 0.824989 0.908228 0.711995
Si Si7 0.744326 0.765261 0.343129
Si Si8 0.672422 0.026411 0.353060
O O1 0.419787 0.186071 0.876776
O O2 0.175344 0.422910 0.033165
O O3 0.959061 0.921855 0.862245
O O4 0.940276 0.048227 0.821019
O O5 0.341052 0.448508 0.336332
O O6 0.550421 0.472617 0.236303
O O7 0.172067 0.554108 0.307381
O O8 0.833196 0.679744 0.425292
O O9 0.452057 0.334109 0.367947
O O10 0.461620 0.788783 0.548428
O O11 0.483439 0.202024 0.773240
O O12 0.807835 0.123492 0.770633
O O13 0.981103 0.219204 0.651753
O O14 0.720108 0.951382 0.473898
O O15 0.039404 0.825924 0.634212
O O16 0.713115 0.901752 0.351373
#
# Coordination Sequence:
#
# PCOD9072392 Si02
#       8
#     2   2   2   2   2   2   2   2
#     4   9  20  39  60  83 104 136 189 231 261 319
#     4  10  19  36  58  80 110 141 182 230 265 307
#     4  10  21  34  54  85 113 140 180 222 266 327
#     4  10  21  37  60  81 107 145 179 222 278 319
#     4  10  20  33  58  80 106 150 182 216 268 321
#     4  10  21  37  57  82 110 145 178 220 274 321
#     4  10  22  34  52  82 112 145 184 217 263 325
#     4  11  23  35  51  81 119 146 174 220 270 328
#
# _framework density 21.871701999999999
#
# number of rings (size 3 to 8) (size 9 to 14) (size 15 to 20)
#    0.000    2.000    1.250    1.875    5.250    0.500 
#    0.000    0.625    0.000    1.500    0.000    0.000 
#    0.000    0.000    0.000    0.000    0.000    0.000 
#
# Total GULP energy -89093.113564 kJ/mol
# GULP energy per Si atom -5568.319598 kJ/mol
# Density = 2.182192 g / cm^3
# Si number density = 21.871702 Si / 1000 Ang^3
#
#
#
# Elastic Constant Matrix: (Units=GPa)
#
#
# Indices 1 2 3 4 5 6 
#
# 1 39.6568 0.6949 6.5315 3.1500 -2.9896 0.8373
# 2 0.6949 41.9637 44.6544 29.5721 12.8098 7.6443
# 3 6.5315 44.6544 73.3792 32.9910 3.6817 16.2070
# 4 3.1500 29.5721 32.9910 41.2932 8.8846 7.3350
# 5 -2.9896 12.8098 3.6817 8.8846 21.9260 6.7614
# 6 0.8373 7.6443 16.2070 7.3350 6.7614 33.3712
#
#
#
# Elastic Compliance Matrix: (Units=1/GPa)
#
#
# Indices 1 2 3 4 5 6 
#
# 1 0.026323 0.006856 -0.005369 -0.003085 0.001504 0.000750
# 2 0.006856 0.136944 -0.071208 -0.032616 -0.060849 0.022539
# 3 -0.005369 -0.071208 0.060774 -0.001628 0.037593 -0.020328
# 4 -0.003085 -0.032616 -0.001628 0.049647 -0.000444 -0.002483
# 5 0.001504 -0.060849 0.037593 -0.000444 0.081645 -0.020801
# 6 0.000750 0.022539 -0.020328 -0.002483 -0.020801 0.039417
#
#
# Mechanical properties :
#
#
# Convention : Reuss Voigt Hill
#
# Bulk Modulus (GPa) = 11.82046 28.75126 20.28586
# Shear Modulus (GPa) = 8.89060 26.19267 17.54163
#
# Velocity S-wave (km/s) = 2.01834 3.46433 2.83508
# Velocity P-wave (km/s) = 3.29360 5.40149 4.47347
#
# Compressibility (1/GPa) = 0.08459909
#
# Stress axis : x y z
#
# Youngs Moduli (GPa) = 37.98936 7.30228 16.45433
#
# Poissons Ratio (x) = -0.05006 0.08835
# Poissons Ratio (y) = -0.26045 1.17167
# Poissons Ratio (z) = 0.20398 0.51998
#
# Static dielectric constant tensor:
#      x y z
#    x 1.904410 0.017020 -0.006210 
#    y 0.017020 1.934820 -0.023950 
#    z -0.006210 -0.023950 1.730910 
# 
# From -- ./inp_files/66803.got.cif
#   From: 2010.05.17/outbox.ucp.g08.bks.cvg/sg2_34_cif.got.tgz:66803.got - 2010.06.11 11:32:03.
