data_PCOD9072502
_publ_section_title
;
Structure prediction by ZEFSAII (Michael W. Deem and Ramdas Pophale) SiO2 
 PCOD9072502
Probable space group: P -1
;
_chemical_formula_sum "Si O2"
_cell_formula_units_Z 14
_cell_length_a 15.000000
_cell_length_b 15.000000
_cell_length_c 9.000000
_cell_angle_alpha 70.000000
_cell_angle_beta 50.000000
_cell_angle_gamma 30.000000
_cell_volume 642.379314
_symmetry_space_group_name_H-M "P -1"
_symmetry_group_IT_number 2
_symmetry_cell_setting 'triclinic'
loop_
_space_group_symop_operation_xyz
x,y,z
-x,-y,-z
loop_
_atom_site_type_symbol
_atom_site_label
_atom_site_fract_x
_atom_site_fract_y
_atom_site_fract_z
Si Si1 0.235914 0.269371 0.191875
Si Si2 0.015908 0.730194 0.614840
Si Si3 0.691795 0.767705 0.529596
Si Si4 0.689860 0.445568 0.894042
Si Si5 0.124543 0.159677 0.823514
Si Si6 0.365516 0.494852 0.636137
Si Si7 0.422368 0.798541 0.189637
O O1 0.356598 0.168596 0.284110
O O2 0.197226 0.199612 0.183875
O O3 0.933012 0.520254 0.400369
O O4 0.378750 0.257040 0.977507
O O5 0.133234 0.641839 0.375686
O O6 0.281066 0.531331 0.540855
O O7 0.858556 0.945142 0.682012
O O8 0.806346 0.780551 0.324818
O O9 0.427470 0.909465 0.671487
O O10 0.931803 0.246141 0.864386
O O11 0.500000 0.500000 0.000000
O O12 0.518843 0.653498 0.041454
O O13 0.928592 0.297168 0.094541
O O14 0.500000 0.500000 0.500000
O O15 0.549006 0.285322 0.644618
#
# Coordination Sequence:
#
# PCOD9072502 Si02
#       7
#     2   2   2   2   2   2   2
#     4  11  20  41  67 103 139 182 227 287 360 421
#     4  12  25  42  71 105 134 188 237 281 357 421
#     4  10  19  37  72  99 142 174 227 297 349 418
#     4  11  23  44  71  98 136 188 238 279 342 423
#     4  10  20  41  66 103 134 185 227 289 357 407
#     4  11  25  45  65  97 144 187 234 289 345 418
#     4  11  25  47  68 102 145 180 229 299 353 408
#
# _framework density 21.793977000000002
#
# number of rings (size 3 to 8) (size 9 to 14) (size 15 to 20)
#    0.000    1.143    4.286    3.857    0.000    4.000 
#    0.000    1.429    0.000   11.143    0.000    0.000 
#    0.000    0.000    0.000    0.000    0.000    0.000 
#
# Total GULP energy -78030.715937 kJ/mol
# GULP energy per Si atom -5573.622567 kJ/mol
# Density = 2.174437 g / cm^3
# Si number density = 21.793977 Si / 1000 Ang^3
#
#
#
# Elastic Constant Matrix: (Units=GPa)
#
#
# Indices 1 2 3 4 5 6 
#
# 1 115.0604 42.1550 -6.4163 13.3004 -27.0920 2.9805
# 2 42.1550 81.3735 30.0306 6.9629 2.5947 12.2863
# 3 -6.4163 30.0306 47.0827 8.0528 -17.2473 4.8891
# 4 13.3004 6.9629 8.0528 27.9597 5.2176 -10.1326
# 5 -27.0920 2.5947 -17.2473 5.2176 50.4344 -2.4602
# 6 2.9805 12.2863 4.8891 -10.1326 -2.4602 34.0679
#
#
#
# Elastic Compliance Matrix: (Units=1/GPa)
#
#
# Indices 1 2 3 4 5 6 
#
# 1 0.040518 -0.038318 0.053015 -0.035080 0.045276 -0.004498
# 2 -0.038318 0.054367 -0.062716 0.031208 -0.048127 -0.001448
# 3 0.053015 -0.062716 0.106059 -0.057083 0.073445 -0.008915
# 4 -0.035080 0.031208 -0.057083 0.076957 -0.046981 0.019502
# 5 0.045276 -0.048127 0.073445 -0.046981 0.076328 -0.005606
# 6 -0.004498 -0.001448 -0.008915 0.019502 -0.005606 0.036944
#
#
# Mechanical properties :
#
#
# Convention : Reuss Voigt Hill
#
# Bulk Modulus (GPa) = 9.53235 41.67281 25.60258
# Shear Modulus (GPa) = 9.57521 34.34224 21.95873
#
# Velocity S-wave (km/s) = 2.09835 3.97390 3.17765
# Velocity P-wave (km/s) = 3.20220 6.34181 5.02358
#
# Compressibility (1/GPa) = 0.10490588
#
# Stress axis : x y z
#
# Youngs Moduli (GPa) = 24.68018 18.39335 9.42869
#
# Poissons Ratio (x) = 0.70480 -0.49986
# Poissons Ratio (y) = 0.94570 0.59133
# Poissons Ratio (z) = -1.30841 1.15356
#
# Static dielectric constant tensor:
#      x y z
#    x 1.800220 -0.023340 0.061210 
#    y -0.023340 1.882990 -0.012730 
#    z 0.061210 -0.012730 1.838460 
# 
# From -- ./inp_files/262513.got.cif
#   From: 2010.05.17/outbox.ucp.g08.bks.cvg/sg2_132_cif.got.tgz:262513.got - 2010.06.11 11:32:03.
