data_PCOD9072618
_publ_section_title
;
Structure prediction by ZEFSAII (Michael W. Deem and Ramdas Pophale) SiO2 
 PCOD9072618
Probable space group: P -1
;
_chemical_formula_sum "Si O2"
_cell_formula_units_Z 16
_cell_length_a 11.042078
_cell_length_b 14.441096
_cell_length_c 11.545858
_cell_angle_alpha 88.784978
_cell_angle_beta 25.755139
_cell_angle_gamma 94.582946
_cell_volume 778.780424
_symmetry_space_group_name_H-M "P -1"
_symmetry_group_IT_number 2
_symmetry_cell_setting 'triclinic'
loop_
_space_group_symop_operation_xyz
x,y,z
-x,-y,-z
loop_
_atom_site_type_symbol
_atom_site_label
_atom_site_fract_x
_atom_site_fract_y
_atom_site_fract_z
Si Si1 0.236662 0.857840 0.676132
Si Si2 0.591134 0.760046 0.197152
Si Si3 0.606423 0.934147 0.569854
Si Si4 0.178064 0.589780 0.477986
Si Si5 0.643192 0.862452 0.904464
Si Si6 0.146031 0.295491 0.394897
Si Si7 0.235271 0.597289 0.164995
Si Si8 0.194647 0.934572 0.141469
O O1 0.408985 0.811662 0.435707
O O2 0.399220 0.869801 0.657924
O O3 0.249559 0.965680 0.619261
O O4 0.917144 0.794364 0.955494
O O5 0.440778 0.648506 0.323336
O O6 0.574663 0.798574 0.079547
O O7 0.872260 0.890547 0.380415
O O8 0.410098 0.952894 0.845278
O O9 0.974859 0.661690 0.617576
O O10 0.978189 0.494043 0.702014
O O11 0.282983 0.567188 0.259044
O O12 0.806220 0.806445 0.678995
O O13 0.819527 0.965518 0.788839
O O14 0.359265 0.880689 0.089516
O O15 0.932091 0.318428 0.675350
O O16 0.458671 0.360199 0.152723
#
# Coordination Sequence:
#
# PCOD9072618 Si02
#       8
#     2   2   2   2   2   2   2   2
#     4  11  23  36  58  74 102 138 191 221 270 309
#     4  12  21  34  54  82 110 140 172 219 269 325
#     4  11  22  42  54  74  98 146 187 234 260 302
#     4   9  20  29  50  74 110 143 167 206 262 321
#     4  11  22  36  51  85 109 147 174 217 267 322
#     4  10  18  31  48  69 109 145 172 200 246 327
#     4   9  19  29  48  72 107 151 166 198 254 331
#     4  11  25  36  57  73 113 141 187 222 261 310
#
# _framework density 20.544943
#
# number of rings (size 3 to 8) (size 9 to 14) (size 15 to 20)
#    0.750    0.750    3.750    1.875    0.000    8.000 
#    0.000    0.000    0.000    0.000    0.000    0.000 
#    0.000   20.000    0.000    0.000    0.000    0.000 
#
# Total GULP energy -89368.889139 kJ/mol
# GULP energy per Si atom -5585.555571 kJ/mol
# Density = 2.049818 g / cm^3
# Si number density = 20.544943 Si / 1000 Ang^3
#
#
#
# Elastic Constant Matrix: (Units=GPa)
#
#
# Indices 1 2 3 4 5 6 
#
# 1 114.8026 36.8639 72.8227 -15.2170 -34.4032 21.8661
# 2 36.8639 80.1210 27.2693 -6.9788 -18.8902 23.2332
# 3 72.8227 27.2693 180.8198 -20.9781 -38.5312 15.0818
# 4 -15.2170 -6.9788 -20.9781 33.1486 6.5864 -15.0910
# 5 -34.4032 -18.8902 -38.5312 6.5864 29.1576 -9.1230
# 6 21.8661 23.2332 15.0818 -15.0910 -9.1230 24.3832
#
#
#
# Elastic Compliance Matrix: (Units=1/GPa)
#
#
# Indices 1 2 3 4 5 6 
#
# 1 0.015940 -0.001618 -0.003210 -0.000394 0.011509 -0.006705
# 2 -0.001618 0.019651 -0.000187 -0.006556 0.006136 -0.018920
# 3 -0.003210 -0.000187 0.008667 0.003770 0.007591 0.002869
# 4 -0.000394 -0.006556 0.003770 0.045850 0.000144 0.032699
# 5 0.011509 0.006136 0.007591 0.000144 0.062689 0.002681
# 6 -0.006705 -0.018920 0.002869 0.032699 0.002681 0.084518
#
#
# Mechanical properties :
#
#
# Convention : Reuss Voigt Hill
#
# Bulk Modulus (GPa) = 29.21513 72.18390 50.69952
# Shear Modulus (GPa) = 19.32335 33.25704 26.29020
#
# Velocity S-wave (km/s) = 3.07015 4.02773 3.58109
# Velocity P-wave (km/s) = 5.17868 7.53930 6.46760
#
# Compressibility (1/GPa) = 0.03422884
#
# Stress axis : x y z
#
# Youngs Moduli (GPa) = 62.73547 50.88761 115.38262
#
# Poissons Ratio (x) = 0.08234 0.37032
# Poissons Ratio (y) = 0.10152 0.02156
# Poissons Ratio (z) = 0.20135 0.00951
#
# Static dielectric constant tensor:
#      x y z
#    x 1.745490 -0.021680 -0.007970 
#    y -0.021680 1.806560 -0.037410 
#    z -0.007970 -0.037410 1.776980 
# 
# From -- ./inp_files/434111.got.cif
#   From: 2010.05.17/outbox.cif.g08.bks.cpg/sg2_218_cif.got.tgz:434111.got - 2010.06.03 11:33:40.
