data_PCOD9072058
_publ_section_title
;
Structure prediction by ZEFSAII (Michael W. Deem and Ramdas Pophale) SiO2 
 PCOD9072058
Probable space group: P -1
;
_chemical_formula_sum "Si O2"
_cell_formula_units_Z 14
_cell_length_a 18.000000
_cell_length_b 15.000000
_cell_length_c 12.000000
_cell_angle_alpha 130.000000
_cell_angle_beta 30.000000
_cell_angle_gamma 150.000000
_cell_volume 731.734496
_symmetry_space_group_name_H-M "P -1"
_symmetry_group_IT_number 2
_symmetry_cell_setting 'triclinic'
loop_
_space_group_symop_operation_xyz
x,y,z
-x,-y,-z
loop_
_atom_site_type_symbol
_atom_site_label
_atom_site_fract_x
_atom_site_fract_y
_atom_site_fract_z
Si Si1 0.431573 0.563528 0.510907
Si Si2 0.109047 0.535604 0.045872
Si Si3 0.665804 0.902096 0.047646
Si Si4 0.434691 0.929564 0.803817
Si Si5 0.574555 0.244471 0.978738
Si Si6 0.229258 0.187340 0.517656
Si Si7 0.518963 0.217820 0.553833
O O1 0.351333 0.379110 0.455250
O O2 0.661085 0.730255 0.433144
O O3 0.492831 0.664992 0.397199
O O4 0.206710 0.489602 0.807927
O O5 0.813851 0.370172 0.296556
O O6 0.253088 0.734564 0.958091
O O7 0.200614 0.578385 0.088769
O O8 0.589106 0.850810 0.235890
O O9 0.696357 0.055830 0.092365
O O10 0.461120 0.730869 0.082017
O O11 0.929424 0.005153 0.765809
O O12 0.583983 0.940217 0.532033
O O13 0.581852 0.109598 0.840933
O O14 0.335215 0.141629 0.278239
#
# Coordination Sequence:
#
# PCOD9072058 Si02
#       7
#     2   2   2   2   2   2   2
#     4   9  20  33  59  78  97 138 180 218 247 297
#     4  10  18  35  56  79 104 132 176 218 251 304
#     4  10  21  32  53  79 108 139 163 213 263 307
#     4   9  19  34  55  79 100 135 176 213 255 301
#     4   9  21  33  57  77 103 138 176 210 254 303
#     4  10  18  38  55  76 101 137 184 210 247 305
#     4  11  20  34  54  81 108 131 171 213 267 305
#
# _framework density 19.132622999999999
#
# number of rings (size 3 to 8) (size 9 to 14) (size 15 to 20)
#    0.857    1.429    0.000    4.714    0.000    1.143 
#    0.000    0.714    0.000    0.000    0.000    0.000 
#    0.000    0.000    0.000    0.000    0.000    0.000 
#
# Total GULP energy -77939.098108 kJ/mol
# GULP energy per Si atom -5567.078436 kJ/mol
# Density = 1.908908 g / cm^3
# Si number density = 19.132623 Si / 1000 Ang^3
#
#
#
# Elastic Constant Matrix: (Units=GPa)
#
#
# Indices 1 2 3 4 5 6 
#
# 1 103.6254 18.8718 17.6498 -1.2380 10.2025 5.0172
# 2 18.8718 34.3149 0.3475 11.7042 10.0729 6.9508
# 3 17.6498 0.3475 27.3955 11.2535 8.3725 2.6521
# 4 -1.2380 11.7042 11.2535 17.1531 7.8475 1.7108
# 5 10.2025 10.0729 8.3725 7.8475 28.1718 10.3397
# 6 5.0172 6.9508 2.6521 1.7108 10.3397 19.0443
#
#
#
# Elastic Compliance Matrix: (Units=1/GPa)
#
#
# Indices 1 2 3 4 5 6 
#
# 1 0.017924 -0.020700 -0.024067 0.031905 -0.002551 0.004703
# 2 -0.020700 0.071281 0.047200 -0.077572 -0.003756 -0.018128
# 3 -0.024067 0.047200 0.091324 -0.090030 -0.005655 -0.012446
# 4 0.031905 -0.077572 -0.090030 0.177245 -0.015610 0.024997
# 5 -0.002551 -0.003756 -0.005655 -0.015610 0.052750 -0.024407
# 6 0.004703 -0.018128 -0.012446 0.024997 -0.024407 0.070625
#
#
# Mechanical properties :
#
#
# Convention : Reuss Voigt Hill
#
# Bulk Modulus (GPa) = 5.39388 26.56376 15.97882
# Shear Modulus (GPa) = 9.29227 21.43828 15.36527
#
# Velocity S-wave (km/s) = 2.20620 3.35103 2.83696
# Velocity P-wave (km/s) = 3.05206 5.37464 4.37046
#
# Compressibility (1/GPa) = 0.18539539
#
# Stress axis : x y z
#
# Youngs Moduli (GPa) = 55.79232 14.02899 10.94998
#
# Poissons Ratio (x) = 0.29040 0.26353
# Poissons Ratio (y) = 1.15489 -0.51684
# Poissons Ratio (z) = 1.34273 -0.66216
#
# Static dielectric constant tensor:
#      x y z
#    x 1.714610 0.023500 -0.039790 
#    y 0.023500 1.703430 0.011030 
#    z -0.039790 0.011030 1.637670 
# 
# From -- ./inp_files/213862.got.cif
#   From: 2010.05.17/outbox.ucp.g08.bks.cvg/sg2_107_cif.got.tgz:213862.got - 2010.06.11 11:32:03.
