data_PCOD9072087
_publ_section_title
;
Structure prediction by ZEFSAII (Michael W. Deem and Ramdas Pophale) SiO2 
 PCOD9072087
Probable space group: P -1
;
_chemical_formula_sum "Si O2"
_cell_formula_units_Z 16
_cell_length_a 15.000000
_cell_length_b 9.000000
_cell_length_c 12.000000
_cell_angle_alpha 130.000000
_cell_angle_beta 50.000000
_cell_angle_gamma 140.000000
_cell_volume 759.581896
_symmetry_space_group_name_H-M "P -1"
_symmetry_group_IT_number 2
_symmetry_cell_setting 'triclinic'
loop_
_space_group_symop_operation_xyz
x,y,z
-x,-y,-z
loop_
_atom_site_type_symbol
_atom_site_label
_atom_site_fract_x
_atom_site_fract_y
_atom_site_fract_z
Si Si1 0.812697 0.785928 0.724986
Si Si2 0.731685 0.082879 0.076806
Si Si3 0.132334 0.986264 0.643306
Si Si4 0.523832 0.350338 0.819353
Si Si5 0.965689 0.200271 0.132138
Si Si6 0.704520 0.886902 0.651063
Si Si7 0.405424 0.461502 0.760492
Si Si8 0.259097 0.684034 0.038521
O O1 0.695176 0.506996 0.726904
O O2 0.791800 0.821275 0.628983
O O3 0.978244 0.913228 0.687372
O O4 0.758733 0.921253 0.900362
O O5 0.843934 0.157365 0.123604
O O6 0.569675 0.917021 0.180401
O O7 0.757088 0.281727 0.064309
O O8 0.086996 0.816502 0.706816
O O9 0.215660 0.990871 0.470102
O O10 0.253084 0.256067 0.725720
O O11 0.448632 0.345091 0.761831
O O12 0.500000 0.500000 0.000000
O O13 0.111740 0.455829 0.101674
O O14 0.000000 0.000000 0.000000
O O15 0.542162 0.635652 0.654107
O O16 0.696890 0.078868 0.817938
O O17 0.377359 0.633899 0.930912
#
# Coordination Sequence:
#
# PCOD9072087 Si02
#       8
#     2   2   2   2   2   2   2   2
#     4   9  19  35  59  89 124 164 199 243 304 367
#     4  10  18  36  57  95 120 154 202 263 298 350
#     4  12  22  38  65  90 125 161 205 250 299 370
#     4   9  18  33  60  90 123 152 201 254 300 352
#     4  12  21  37  64  93 120 159 210 249 306 361
#     4  10  24  40  59  94 128 159 200 250 314 355
#     4  11  21  41  65  93 118 164 209 248 295 368
#     4  11  23  38  63  92 124 157 204 258 303 355
#
# _framework density 21.064219999999999
#
# number of rings (size 3 to 8) (size 9 to 14) (size 15 to 20)
#    0.000    1.500    3.750    2.250    1.750    1.500 
#    0.000    0.000    0.000    0.750    0.000    0.000 
#    0.000    0.000    0.000    0.000    0.000    0.000 
#
# Total GULP energy -89297.802480 kJ/mol
# GULP energy per Si atom -5581.112655 kJ/mol
# Density = 2.101628 g / cm^3
# Si number density = 21.064220 Si / 1000 Ang^3
#
#
#
# Elastic Constant Matrix: (Units=GPa)
#
#
# Indices 1 2 3 4 5 6 
#
# 1 71.5498 59.3795 28.9208 -15.7367 13.6947 6.9033
# 2 59.3795 158.1119 25.0860 -36.3102 7.0121 8.1383
# 3 28.9208 25.0860 54.5711 -26.4988 21.1707 1.2715
# 4 -15.7367 -36.3102 -26.4988 35.0794 -6.8967 5.0610
# 5 13.6947 7.0121 21.1707 -6.8967 24.3133 -10.6199
# 6 6.9033 8.1383 1.2715 5.0610 -10.6199 38.5053
#
#
#
# Elastic Compliance Matrix: (Units=1/GPa)
#
#
# Indices 1 2 3 4 5 6 
#
# 1 0.025638 -0.008983 -0.009713 -0.005933 -0.006564 -0.003407
# 2 -0.008983 0.012013 0.006570 0.013510 -0.001785 -0.003413
# 3 -0.009713 0.006570 0.056518 0.039440 -0.042494 -0.018418
# 4 -0.005933 0.013510 0.039440 0.067615 -0.023820 -0.018551
# 5 -0.006564 -0.001785 -0.042494 -0.023820 0.088963 0.030624
# 6 -0.003407 -0.003413 -0.018418 -0.018551 0.030624 0.038796
#
#
# Mechanical properties :
#
#
# Convention : Reuss Voigt Hill
#
# Bulk Modulus (GPa) = 14.30263 56.77838 35.54051
# Shear Modulus (GPa) = 14.83242 30.96937 22.90090
#
# Velocity S-wave (km/s) = 2.65647 3.83853 3.30084
# Velocity P-wave (km/s) = 4.02664 6.83075 5.60682
#
# Compressibility (1/GPa) = 0.06991720
#
# Stress axis : x y z
#
# Youngs Moduli (GPa) = 39.00499 83.24154 17.69355
#
# Poissons Ratio (x) = 0.74779 0.17185
# Poissons Ratio (y) = 0.35040 -0.11626
# Poissons Ratio (z) = 0.37885 -0.54694
#
# Static dielectric constant tensor:
#      x y z
#    x 1.780240 0.012100 0.017510 
#    y 0.012100 1.798880 0.009110 
#    z 0.017510 0.009110 1.761370 
# 
# From -- ./inp_files/277674.got.cif
#   From: 2010.05.17/outbox.ucp.g08.bks.cvg/sg2_139_cif.got.tgz:277674.got - 2010.06.11 11:32:03.
