data_PCOD9072260
_publ_section_title
;
Structure prediction by ZEFSAII (Michael W. Deem and Ramdas Pophale) SiO2 
 PCOD9072260
Probable space group: P -1
;
_chemical_formula_sum "Si O2"
_cell_formula_units_Z 16
_cell_length_a 16.621929
_cell_length_b 11.130859
_cell_length_c 6.780661
_cell_angle_alpha 119.087088
_cell_angle_beta 119.590987
_cell_angle_gamma 38.930568
_cell_volume 673.452493
_symmetry_space_group_name_H-M "P -1"
_symmetry_group_IT_number 2
_symmetry_cell_setting 'triclinic'
loop_
_space_group_symop_operation_xyz
x,y,z
-x,-y,-z
loop_
_atom_site_type_symbol
_atom_site_label
_atom_site_fract_x
_atom_site_fract_y
_atom_site_fract_z
Si Si1 0.648701 0.004704 0.127245
Si Si2 0.940073 0.625353 0.726179
Si Si3 0.703210 0.701911 0.437693
Si Si4 0.784890 0.584981 0.986136
Si Si5 0.541618 0.379502 0.150382
Si Si6 0.781030 0.020255 0.634427
Si Si7 0.292254 0.635309 0.337634
Si Si8 0.528393 0.151402 0.492739
O O1 0.606226 0.158416 0.034987
O O2 0.766883 0.945345 0.355462
O O3 0.528737 0.128212 0.237415
O O4 0.695747 0.804224 0.972812
O O5 0.831664 0.623646 0.641640
O O6 0.000000 0.500000 0.500000
O O7 0.063714 0.528369 0.932120
O O8 0.869419 0.842900 0.750959
O O9 0.745325 0.615016 0.197814
O O10 0.606375 0.701545 0.435632
O O11 0.613556 0.931612 0.488185
O O12 0.767238 0.451747 0.772910
O O13 0.413985 0.493064 0.222062
O O14 0.645813 0.358505 0.388379
O O15 0.500000 0.500000 0.000000
O O16 0.806615 0.149691 0.709420
O O17 0.629201 0.172016 0.642862
#
# Coordination Sequence:
#
# PCOD9072260 Si02
#       8
#     2   2   2   2   2   2   2   2
#     4   8  16  33  58  85 124 167 205 261 316 368
#     4   9  14  27  51  86 128 175 219 246 294 379
#     4   8  13  24  47  83 126 174 210 246 303 367
#     4  10  18  30  53  92 133 166 213 260 308 354
#     4  10  22  43  64  84 123 170 208 250 330 396
#     4   8  15  30  52  82 128 172 205 246 315 365
#     4  10  22  37  57  93 131 158 203 265 312 382
#     4   7  12  25  47  78 123 165 213 248 297 376
#
# _framework density 23.758171000000001
#
# number of rings (size 3 to 8) (size 9 to 14) (size 15 to 20)
#    0.750    2.500    2.500    0.000    0.000    2.000 
#    0.000    0.625    0.000    0.000    0.000   13.125 
#    0.000    0.125    0.000    0.000    0.000    0.000 
#
# Total GULP energy -89304.335259 kJ/mol
# GULP energy per Si atom -5581.520954 kJ/mol
# Density = 2.370410 g / cm^3
# Si number density = 23.758171 Si / 1000 Ang^3
#
#
#
# Elastic Constant Matrix: (Units=GPa)
#
#
# Indices 1 2 3 4 5 6 
#
# 1 104.3436 46.5586 40.1073 -4.4810 8.9022 1.6103
# 2 46.5586 130.5848 45.5472 1.0389 19.5158 26.8163
# 3 40.1073 45.5472 87.8316 2.7134 16.2051 11.0277
# 4 -4.4810 1.0389 2.7134 37.7525 8.9619 4.6487
# 5 8.9022 19.5158 16.2051 8.9619 40.1506 6.3545
# 6 1.6103 26.8163 11.0277 4.6487 6.3545 35.9390
#
#
#
# Elastic Compliance Matrix: (Units=1/GPa)
#
#
# Indices 1 2 3 4 5 6 
#
# 1 0.013001 -0.003785 -0.004425 0.001580 -0.000151 0.003422
# 2 -0.003785 0.012035 -0.003085 0.001032 -0.002809 -0.007501
# 3 -0.004425 -0.003085 0.015887 -0.000533 -0.003547 -0.001679
# 4 0.001580 0.001032 -0.000533 0.028630 -0.006516 -0.003228
# 5 -0.000151 -0.002809 -0.003547 -0.006516 0.029375 -0.001160
# 6 0.003422 -0.007501 -0.001679 -0.003228 -0.001160 0.034406
#
#
# Mechanical properties :
#
#
# Convention : Reuss Voigt Hill
#
# Bulk Modulus (GPa) = 54.53951 65.24292 59.89122
# Shear Modulus (GPa) = 30.85762 35.47154 33.16458
#
# Velocity S-wave (km/s) = 3.60783 3.86816 3.74026
# Velocity P-wave (km/s) = 6.35304 6.88993 6.62692
#
# Compressibility (1/GPa) = 0.01833533
#
# Stress axis : x y z
#
# Youngs Moduli (GPa) = 76.91611 83.09038 62.94352
#
# Poissons Ratio (x) = 0.31447 0.27850
# Poissons Ratio (y) = 0.29111 0.19416
# Poissons Ratio (z) = 0.34033 0.25631
#
# Static dielectric constant tensor:
#      x y z
#    x 1.951020 0.026000 0.000210 
#    y 0.026000 1.944780 -0.002550 
#    z 0.000210 -0.002550 1.988390 
# 
# From -- ./inp_files/470522.got.cif
#   From: 2010.05.17/outbox.cif.g08.bks.cpg/sg2_236_cif.got.tgz:470522.got - 2010.06.03 11:33:40.
