data_PCOD9072199
_publ_section_title
;
Structure prediction by ZEFSAII (Michael W. Deem and Ramdas Pophale) SiO2 
 PCOD9072199
Probable space group: P -1
;
_chemical_formula_sum "Si O2"
_cell_formula_units_Z 14
_cell_length_a 9.000000
_cell_length_b 12.000000
_cell_length_c 9.000000
_cell_angle_alpha 50.000000
_cell_angle_beta 60.000000
_cell_angle_gamma 60.000000
_cell_volume 621.029576
_symmetry_space_group_name_H-M "P -1"
_symmetry_group_IT_number 2
_symmetry_cell_setting 'triclinic'
loop_
_space_group_symop_operation_xyz
x,y,z
-x,-y,-z
loop_
_atom_site_type_symbol
_atom_site_label
_atom_site_fract_x
_atom_site_fract_y
_atom_site_fract_z
Si Si1 0.799457 0.512670 0.544917
Si Si2 0.685544 0.100420 0.610283
Si Si3 0.014385 0.193353 0.211005
Si Si4 0.457532 0.226493 0.359618
Si Si5 0.420505 0.362103 0.704620
Si Si6 0.240079 0.362101 0.103969
Si Si7 0.779586 0.329727 0.967778
O O1 0.645417 0.640290 0.593176
O O2 0.768957 0.573389 0.340933
O O3 0.776728 0.360553 0.766330
O O4 0.000000 0.500000 0.500000
O O5 0.556090 0.097047 0.536211
O O6 0.556821 0.210357 0.700025
O O7 0.842871 0.168709 0.406503
O O8 0.804836 0.942754 0.750032
O O9 0.064644 0.332878 0.145031
O O10 0.952719 0.216435 0.051078
O O11 0.310199 0.230307 0.305196
O O12 0.610716 0.275999 0.150596
O O13 0.500000 0.500000 0.500000
O O14 0.375501 0.352114 0.907533
O O15 0.227496 0.515306 0.070422
#
# Coordination Sequence:
#
# PCOD9072199 Si02
#       7
#     2   2   2   2   2   2   2
#     4  10  19  31  50  78 107 133 167 215 263 304
#     4   9  21  39  55  74 107 147 175 211 272 316
#     4  10  20  35  57  78 105 141 182 219 254 315
#     4   9  19  36  54  74 107 143 172 211 267 320
#     4  11  21  35  56  81 107 136 175 222 264 311
#     4  11  20  32  56  84 104 135 182 223 256 308
#     4  10  19  36  55  77 108 142 173 209 269 318
#
# _framework density 22.543209999999998
#
# number of rings (size 3 to 8) (size 9 to 14) (size 15 to 20)
#    0.000    2.000    0.000    6.429    0.000    4.571 
#    0.000    0.000    0.000   15.429    0.000    0.000 
#    0.000    0.000    0.000    0.000    0.000    0.000 
#
# Total GULP energy -78022.653111 kJ/mol
# GULP energy per Si atom -5573.046651 kJ/mol
# Density = 2.249190 g / cm^3
# Si number density = 22.543210 Si / 1000 Ang^3
#
#
#
# Elastic Constant Matrix: (Units=GPa)
#
#
# Indices 1 2 3 4 5 6 
#
# 1 77.2598 -10.6731 -15.1804 -5.4743 32.9489 -23.7075
# 2 -10.6731 38.3752 9.4250 -9.9885 25.7477 -13.5185
# 3 -15.1804 9.4250 42.8028 9.3243 28.0154 -7.6929
# 4 -5.4743 -9.9885 9.3243 29.3332 -4.9145 7.7599
# 5 32.9489 25.7477 28.0154 -4.9145 46.2846 -7.3483
# 6 -23.7075 -13.5185 -7.6929 7.7599 -7.3483 30.9192
#
#
#
# Elastic Compliance Matrix: (Units=1/GPa)
#
#
# Indices 1 2 3 4 5 6 
#
# 1 -0.007359 -0.017057 -0.018888 0.006552 0.024700 -0.013573
# 2 -0.017057 0.013249 -0.030689 0.018688 0.023090 -0.014124
# 3 -0.018888 -0.030689 0.006811 -0.007329 0.022601 -0.018995
# 4 0.006552 0.018688 -0.007329 0.043221 -0.006185 -0.000946
# 5 0.024700 0.023090 0.022601 -0.006185 -0.018094 0.031910
# 6 -0.013573 -0.014124 -0.018995 -0.000946 0.031910 0.018855
#
#
# Mechanical properties :
#
#
# Convention : Reuss Voigt Hill
#
# Bulk Modulus (GPa) = -8.29420 13.95341 2.82960
# Shear Modulus (GPa) = 33.38626 32.96514 33.17570
#
# Velocity S-wave (km/s) = 3.85254 3.82816 3.84037
# Velocity P-wave (km/s) = 4.01275 5.07374 4.57411
#
# Compressibility (1/GPa) = -0.12056615
#
# Stress axis : x y z
#
# Youngs Moduli (GPa) = -135.88919 75.47958 146.81105
#
# Poissons Ratio (x) = 1.28743 2.77294
# Poissons Ratio (y) = -2.31782 4.50550
# Poissons Ratio (z) = -2.56665 2.31640
#
# Static dielectric constant tensor:
#      x y z
#    x 2.070190 0.041050 0.053160 
#    y 0.041050 1.841120 -0.067110 
#    z 0.053160 -0.067110 1.895450 
# 
# From -- ./inp_files/175892.got.cif
#   From: 2010.05.17/outbox.ucp.g08.bks.cvg/sg2_88_cif.got.tgz:175892.got - 2010.06.11 11:32:03.
