data_PCOD9072259
_publ_section_title
;
Structure prediction by ZEFSAII (Michael W. Deem and Ramdas Pophale) SiO2 
 PCOD9072259
Probable space group: P -1
;
_chemical_formula_sum "Si O2"
_cell_formula_units_Z 16
_cell_length_a 11.470969
_cell_length_b 23.401363
_cell_length_c 12.053850
_cell_angle_alpha 17.731178
_cell_angle_beta 141.268635
_cell_angle_gamma 136.647769
_cell_volume 614.410733
_symmetry_space_group_name_H-M "P -1"
_symmetry_group_IT_number 2
_symmetry_cell_setting 'triclinic'
loop_
_space_group_symop_operation_xyz
x,y,z
-x,-y,-z
loop_
_atom_site_type_symbol
_atom_site_label
_atom_site_fract_x
_atom_site_fract_y
_atom_site_fract_z
Si Si1 0.540997 0.088874 0.231519
Si Si2 0.733735 0.199438 0.957386
Si Si3 0.120646 0.178073 0.358425
Si Si4 0.967357 0.317124 0.427897
Si Si5 0.552424 0.318424 0.152685
Si Si6 0.033483 0.933970 0.320553
Si Si7 0.339734 0.404854 0.625202
Si Si8 0.499562 0.775525 0.456312
O O1 0.578023 0.185088 0.962356
O O2 0.749895 0.085558 0.443811
O O3 0.455676 0.895427 0.499978
O O4 0.392921 0.196155 0.003667
O O5 0.924136 0.278364 0.991495
O O6 0.808211 0.979596 0.389422
O O7 0.648874 0.294558 0.608779
O O8 0.085895 0.080602 0.629725
O O9 0.290051 0.304757 0.263576
O O10 0.005632 0.224015 0.507242
O O11 0.127081 0.447584 0.347392
O O12 0.750437 0.394376 0.127052
O O13 0.982755 0.137540 0.853624
O O14 0.536377 0.284302 0.334994
O O15 0.387553 0.415529 0.771444
O O16 0.500000 0.500000 0.500000
O O17 0.500000 0.000000 0.000000
#
# Coordination Sequence:
#
# PCOD9072259 Si02
#       8
#     2   2   2   2   2   2   2   2
#     4  11  19  39  61  87 125 147 197 247 295 349
#     4   9  18  28  50  85 118 150 174 231 289 347
#     4   9  17  29  46  86 132 140 176 227 307 349
#     4  11  22  35  60  87 119 154 196 245 305 350
#     4  12  22  39  63  93 122 151 199 249 296 352
#     4  10  19  32  59  98 121 148 186 253 298 353
#     4  12  28  43  57  82 121 166 203 245 296 349
#     4  10  18  30  53  90 125 144 181 236 300 352
#
# _framework density 26.041212000000002
#
# number of rings (size 3 to 8) (size 9 to 14) (size 15 to 20)
#    0.000    1.500    5.000    3.375    1.750    1.500 
#    0.000    0.000    0.000    0.750    0.000    7.000 
#    0.000    0.000    0.000    0.000    0.000    0.000 
#
# Total GULP energy -89493.242742 kJ/mol
# GULP energy per Si atom -5593.327671 kJ/mol
# Density = 2.598194 g / cm^3
# Si number density = 26.041212 Si / 1000 Ang^3
#
#
#
# Elastic Constant Matrix: (Units=GPa)
#
#
# Indices 1 2 3 4 5 6 
#
# 1 123.8623 44.9735 29.1792 10.8611 -30.2342 -4.8403
# 2 44.9735 154.7684 46.5700 29.8844 -7.6518 13.7480
# 3 29.1792 46.5700 91.8525 18.1768 -25.9385 -6.3784
# 4 10.8611 29.8844 18.1768 42.4647 -6.4009 2.3643
# 5 -30.2342 -7.6518 -25.9385 -6.4009 43.4971 10.1786
# 6 -4.8403 13.7480 -6.3784 2.3643 10.1786 54.6614
#
#
#
# Elastic Compliance Matrix: (Units=1/GPa)
#
#
# Indices 1 2 3 4 5 6 
#
# 1 0.010810 -0.002874 -0.000053 0.000305 0.006935 0.000369
# 2 -0.002874 0.009419 -0.003923 -0.004503 -0.002789 -0.002367
# 3 -0.000053 -0.003923 0.015804 -0.002877 0.007929 0.001474
# 4 0.000305 -0.004503 -0.002877 0.028222 0.002039 -0.000777
# 5 0.006935 -0.002789 0.007929 0.002039 0.033295 -0.004047
# 6 0.000369 -0.002367 0.001474 -0.000777 -0.004047 0.019882
#
#
# Mechanical properties :
#
#
# Convention : Reuss Voigt Hill
#
# Bulk Modulus (GPa) = 44.78032 67.99207 56.38620
# Shear Modulus (GPa) = 36.08115 44.77534 40.42824
#
# Velocity S-wave (km/s) = 3.72632 4.15107 3.94442
# Velocity P-wave (km/s) = 5.97890 7.01008 6.51492
#
# Compressibility (1/GPa) = 0.02233124
#
# Stress axis : x y z
#
# Youngs Moduli (GPa) = 92.50624 106.17093 63.27585
#
# Poissons Ratio (x) = 0.30515 0.00337
# Poissons Ratio (y) = 0.26588 0.24825
# Poissons Ratio (z) = 0.00493 0.41654
#
# Static dielectric constant tensor:
#      x y z
#    x 2.064000 -0.014360 0.058200 
#    y -0.014360 2.174650 -0.041280 
#    z 0.058200 -0.041280 2.156370 
# 
# From -- ./inp_files/439448.got.cif
#   From: 2010.05.17/outbox.cif.g08.bks.cpg/sg2_220_cif.got.tgz:439448.got - 2010.06.03 11:33:40.
