data_PCOD9072224
_publ_section_title
;
Structure prediction by ZEFSAII (Michael W. Deem and Ramdas Pophale) SiO2 
 PCOD9072224
Probable space group: P -1
;
_chemical_formula_sum "Si O2"
_cell_formula_units_Z 16
_cell_length_a 12.000000
_cell_length_b 15.000000
_cell_length_c 15.000000
_cell_angle_alpha 160.000000
_cell_angle_beta 110.000000
_cell_angle_gamma 70.000000
_cell_volume 865.974363
_symmetry_space_group_name_H-M "P -1"
_symmetry_group_IT_number 2
_symmetry_cell_setting 'triclinic'
loop_
_space_group_symop_operation_xyz
x,y,z
-x,-y,-z
loop_
_atom_site_type_symbol
_atom_site_label
_atom_site_fract_x
_atom_site_fract_y
_atom_site_fract_z
Si Si1 0.874161 0.542055 0.655750
Si Si2 0.859067 0.535267 0.288360
Si Si3 0.877497 0.105141 0.750595
Si Si4 0.736618 0.696806 0.591734
Si Si5 0.332316 0.102973 0.968053
Si Si6 0.137636 0.900308 0.629228
Si Si7 0.918789 0.267615 0.732752
Si Si8 0.397378 0.805282 0.885501
O O1 0.841803 0.611551 0.610593
O O2 0.768080 0.698590 0.828243
O O3 0.869600 0.250569 0.420160
O O4 0.011802 0.580733 0.749902
O O5 0.784838 0.642277 0.454162
O O6 0.864630 0.797057 0.475018
O O7 0.822175 0.296384 0.991676
O O8 0.835827 0.215047 0.745777
O O9 0.023042 0.106543 0.791447
O O10 0.641208 0.483863 0.381867
O O11 0.676713 0.981421 0.871097
O O12 0.460963 0.197069 0.068242
O O13 0.265811 0.012329 0.776595
O O14 0.363649 0.890681 0.855109
O O15 0.130903 0.718507 0.368771
O O16 0.000000 0.000000 0.500000
O O17 0.000000 0.500000 0.000000
#
# Coordination Sequence:
#
# PCOD9072224 Si02
#       8
#     2   2   2   2   2   2   2   2
#     4  10  20  33  52  81 113 137 179 219 273 322
#     4  11  21  35  55  76 109 146 185 213 266 316
#     4  10  20  35  51  80 108 143 175 220 266 325
#     4  11  22  37  52  77 107 151 184 223 253 315
#     4  10  20  35  54  78 110 147 175 227 270 322
#     4  10  19  32  54  80 113 141 172 214 284 329
#     4  10  20  33  52  79 114 142 170 215 274 337
#     4  10  23  36  54  75 111 144 191 220 263 304
#
# _framework density 18.476298
#
# number of rings (size 3 to 8) (size 9 to 14) (size 15 to 20)
#    0.000    1.750    2.500    3.375    3.500    1.500 
#    0.000    3.750    0.000    0.000    0.000    5.250 
#    0.000    0.000    0.000    0.000    0.000    0.000 
#
# Total GULP energy -89085.315119 kJ/mol
# GULP energy per Si atom -5567.832195 kJ/mol
# Density = 1.843424 g / cm^3
# Si number density = 18.476298 Si / 1000 Ang^3
#
#
#
# Elastic Constant Matrix: (Units=GPa)
#
#
# Indices 1 2 3 4 5 6 
#
# 1 29.1831 -6.6241 -6.9912 -8.7965 -1.8703 -2.0813
# 2 -6.6241 29.3414 10.1522 -4.0727 -1.6908 11.0850
# 3 -6.9912 10.1522 77.7905 -11.6898 -4.9274 -2.9688
# 4 -8.7965 -4.0727 -11.6898 30.8409 5.4909 -4.1300
# 5 -1.8703 -1.6908 -4.9274 5.4909 21.2279 -5.5545
# 6 -2.0813 11.0850 -2.9688 -4.1300 -5.5545 22.0464
#
#
#
# Elastic Compliance Matrix: (Units=1/GPa)
#
#
# Indices 1 2 3 4 5 6 
#
# 1 0.042571 0.008532 0.005346 0.015343 0.002754 0.004017
# 2 0.008532 0.047563 -0.006043 0.003928 -0.004224 -0.024251
# 3 0.005346 -0.006043 0.015737 0.007064 0.003900 0.007968
# 4 0.015343 0.003928 0.007064 0.041936 -0.005756 0.006830
# 5 0.002754 -0.004224 0.003900 -0.005756 0.053408 0.015287
# 6 0.004017 -0.024251 0.007968 0.006830 0.015287 0.064136
#
#
# Mechanical properties :
#
#
# Convention : Reuss Voigt Hill
#
# Bulk Modulus (GPa) = 8.22775 14.37653 11.30214
# Shear Modulus (GPa) = 17.22980 24.14159 20.68569
#
# Velocity S-wave (km/s) = 3.05706 3.61865 3.34964
# Velocity P-wave (km/s) = 4.11383 5.02568 4.59244
#
# Compressibility (1/GPa) = 0.12153984
#
# Stress axis : x y z
#
# Youngs Moduli (GPa) = 23.49000 21.02496 63.54497
#
# Poissons Ratio (x) = -0.17938 -0.33970
# Poissons Ratio (y) = -0.20042 0.38402
# Poissons Ratio (z) = -0.12557 0.12706
#
# Static dielectric constant tensor:
#      x y z
#    x 1.649060 0.027950 0.037240 
#    y 0.027950 1.705920 -0.028760 
#    z 0.037240 -0.028760 1.697200 
# 
# From -- ./inp_files/75161.got.cif
#   From: 2010.05.17/outbox.ucp.g08.bks.cvg/sg2_38_cif.got.tgz:75161.got - 2010.06.11 11:32:03.
