data_PCOD9072212
_publ_section_title
;
Structure prediction by ZEFSAII (Michael W. Deem and Ramdas Pophale) SiO2 
 PCOD9072212
Probable space group: P -1
;
_chemical_formula_sum "Si O2"
_cell_formula_units_Z 16
_cell_length_a 11.315896
_cell_length_b 17.027803
_cell_length_c 22.518488
_cell_angle_alpha 30.013130
_cell_angle_beta 22.936812
_cell_angle_gamma 41.574028
_cell_volume 818.266404
_symmetry_space_group_name_H-M "P -1"
_symmetry_group_IT_number 2
_symmetry_cell_setting 'triclinic'
loop_
_space_group_symop_operation_xyz
x,y,z
-x,-y,-z
loop_
_atom_site_type_symbol
_atom_site_label
_atom_site_fract_x
_atom_site_fract_y
_atom_site_fract_z
Si Si1 0.169509 0.020634 0.345500
Si Si2 0.178474 0.321922 0.323763
Si Si3 0.267034 0.070458 0.659631
Si Si4 0.218139 0.935491 0.898049
Si Si5 0.105795 0.619964 0.084037
Si Si6 0.928061 0.207616 0.634514
Si Si7 0.966107 0.122624 0.257420
Si Si8 0.231557 0.260845 0.931771
O O1 0.516761 0.079649 0.168804
O O2 0.097113 0.141750 0.250784
O O3 0.000000 0.000000 0.500000
O O4 0.049659 0.844694 0.485735
O O5 0.104552 0.463136 0.225960
O O6 0.112056 0.330731 0.418750
O O7 0.541526 0.321807 0.145010
O O8 0.591864 0.084407 0.464897
O O9 0.104576 0.202781 0.618837
O O10 0.323913 0.056650 0.712992
O O11 0.015558 0.900346 0.873708
O O12 0.068305 0.760905 0.053532
O O13 0.000000 0.000000 0.000000
O O14 0.844088 0.602141 0.165571
O O15 0.580418 0.234221 0.784759
O O16 0.933317 0.031910 0.717842
O O17 0.115459 0.267481 0.048690
#
# Coordination Sequence:
#
# PCOD9072212 Si02
#       8
#     2   2   2   2   2   2   2   2
#     4  11  19  36  55  85 108 140 184 221 271 318
#     4  10  21  37  61  78 109 145 183 228 260 326
#     4  10  18  32  50  76 106 142 183 221 266 315
#     4  11  23  34  55  83 115 142 174 225 275 326
#     4  10  21  39  56  82 108 146 185 218 273 319
#     4  10  19  30  50  79 106 139 179 226 272 309
#     4  10  18  30  53  75 106 141 181 227 260 317
#     4  10  19  30  50  79 108 136 179 228 270 314
#
# _framework density 19.553533000000002
#
# number of rings (size 3 to 8) (size 9 to 14) (size 15 to 20)
#    0.000    1.750    2.500    6.000    8.750    0.500 
#    0.000    0.000    0.000    3.000    0.000    0.000 
#    0.000    0.000    0.000    0.000    0.000    0.000 
#
# Total GULP energy -89070.720747 kJ/mol
# GULP energy per Si atom -5566.920047 kJ/mol
# Density = 1.950903 g / cm^3
# Si number density = 19.553533 Si / 1000 Ang^3
#
#
#
# Elastic Constant Matrix: (Units=GPa)
#
#
# Indices 1 2 3 4 5 6 
#
# 1 112.4388 59.3308 64.2510 14.3460 -18.2944 -47.2472
# 2 59.3308 30.9773 -27.4998 9.1159 37.7599 2.9635
# 3 64.2510 -27.4998 -41.0932 -5.4271 57.0275 26.8125
# 4 14.3460 9.1159 -5.4271 22.2273 4.7724 7.6598
# 5 -18.2944 37.7599 57.0275 4.7724 0.0415 -13.8469
# 6 -47.2472 2.9635 26.8125 7.6598 -13.8469 20.5014
#
#
#
# Elastic Compliance Matrix: (Units=1/GPa)
#
#
# Indices 1 2 3 4 5 6 
#
# 1 0.008357 0.001146 0.004448 -0.005514 -0.010165 0.008471
# 2 0.001146 0.031448 -0.013860 -0.022156 -0.007393 0.019506
# 3 0.004448 -0.013860 0.011622 0.001420 0.012132 0.004718
# 4 -0.005514 -0.022156 0.001420 0.063593 0.014510 -0.025323
# 5 -0.010165 -0.007393 0.012132 0.014510 0.029245 -0.023893
# 6 0.008471 0.019506 0.004718 -0.025323 -0.023893 0.052632
#
#
# Mechanical properties :
#
#
# Convention : Reuss Voigt Hill
#
# Bulk Modulus (GPa) = 28.65783 32.72078 30.68930
# Shear Modulus (GPa) = 22.21633 8.97011 15.59322
#
# Velocity S-wave (km/s) = 3.37438 2.14416 2.82700
# Velocity P-wave (km/s) = 5.46533 4.78541 5.13663
#
# Compressibility (1/GPa) = 0.03489447
#
# Stress axis : x y z
#
# Youngs Moduli (GPa) = 119.66622 31.79820 86.04657
#
# Poissons Ratio (x) = -0.03644 -0.38271
# Poissons Ratio (y) = -0.13713 1.19257
# Poissons Ratio (z) = -0.53223 0.44071
#
# Static dielectric constant tensor:
#      x y z
#    x 1.766560 -0.028680 0.042950 
#    y -0.028680 1.678280 -0.032100 
#    z 0.042950 -0.032100 1.688750 
# 
# From -- ./inp_files/305199.got.cif
#   From: 2010.05.17/outbox.cif.g08.bks.cpg/sg2_153_cif.got.tgz:305199.got - 2010.06.03 11:33:40.
