data_PCOD9072360
_publ_section_title
;
Structure prediction by ZEFSAII (Michael W. Deem and Ramdas Pophale) SiO2 
 PCOD9072360
Probable space group: P -1
;
_chemical_formula_sum "Si O2"
_cell_formula_units_Z 16
_cell_length_a 15.000000
_cell_length_b 15.000000
_cell_length_c 15.000000
_cell_angle_alpha 150.000000
_cell_angle_beta 150.000000
_cell_angle_gamma 40.000000
_cell_volume 842.010594
_symmetry_space_group_name_H-M "P -1"
_symmetry_group_IT_number 2
_symmetry_cell_setting 'triclinic'
loop_
_space_group_symop_operation_xyz
x,y,z
-x,-y,-z
loop_
_atom_site_type_symbol
_atom_site_label
_atom_site_fract_x
_atom_site_fract_y
_atom_site_fract_z
Si Si1 0.173374 0.953891 0.725218
Si Si2 0.244722 0.002450 0.621316
Si Si3 0.628908 0.448510 0.192603
Si Si4 0.288968 0.181373 0.514503
Si Si5 0.368825 0.160818 0.229415
Si Si6 0.222457 0.346070 0.779231
Si Si7 0.177467 0.544354 0.441625
Si Si8 0.673149 0.062866 0.820633
O O1 0.192673 0.738517 0.574554
O O2 0.962570 0.024417 0.608879
O O3 0.240809 0.994274 0.718577
O O4 0.284110 0.055487 0.982812
O O5 0.268140 0.197881 0.767282
O O6 0.413364 0.871557 0.620357
O O7 0.664736 0.634168 0.334983
O O8 0.728117 0.444544 0.370241
O O9 0.412203 0.435675 0.004438
O O10 0.706083 0.269267 0.051570
O O11 0.176174 0.242748 0.557367
O O12 0.466604 0.084512 0.628327
O O13 0.225424 0.043844 0.265417
O O14 0.281235 0.365871 0.334283
O O15 0.317637 0.059322 0.188681
O O16 0.040104 0.465450 0.747522
#
# Coordination Sequence:
#
# PCOD9072360 Si02
#       8
#     2   2   2   2   2   2   2   2
#     4  10  23  43  64  91 123 156 202 251 304 361
#     4  10  21  42  68  87 120 166 198 246 308 359
#     4  11  20  39  62  83 121 163 197 246 303 350
#     4  10  20  37  62  86 122 160 205 243 295 360
#     4  12  21  40  64  91 123 160 199 251 303 355
#     4  10  21  40  62  87 123 163 199 249 301 352
#     4  11  24  38  61  94 124 152 206 252 295 362
#     4  10  19  35  60  89 115 161 203 241 292 360
#
# _framework density 19.002136
#
# number of rings (size 3 to 8) (size 9 to 14) (size 15 to 20)
#    0.000    1.500    5.000    1.875    0.000    2.000 
#    0.000    8.750    0.000    0.000    0.000    0.000 
#    0.000    0.000    0.000    0.000    0.000    0.000 
#
# Total GULP energy -89248.416448 kJ/mol
# GULP energy per Si atom -5578.026028 kJ/mol
# Density = 1.895889 g / cm^3
# Si number density = 19.002136 Si / 1000 Ang^3
#
#
#
# Elastic Constant Matrix: (Units=GPa)
#
#
# Indices 1 2 3 4 5 6 
#
# 1 74.2573 56.0321 17.6477 5.5079 -10.2978 12.4237
# 2 56.0321 149.0594 42.5598 4.8944 -6.4612 -12.1809
# 3 17.6477 42.5598 69.9963 8.7670 -13.3949 1.6088
# 4 5.5079 4.8944 8.7670 34.1936 -0.5296 -6.4056
# 5 -10.2978 -6.4612 -13.3949 -0.5296 24.2556 -5.2511
# 6 12.4237 -12.1809 1.6088 -6.4056 -5.2511 49.0564
#
#
#
# Elastic Compliance Matrix: (Units=1/GPa)
#
#
# Indices 1 2 3 4 5 6 
#
# 1 0.022491 -0.009218 0.001844 -0.004161 0.006308 -0.007913
# 2 -0.009218 0.012147 -0.005999 0.002282 -0.002739 0.005552
# 3 0.001844 -0.005999 0.019966 -0.004823 0.009627 -0.002211
# 4 -0.004161 0.002282 -0.004823 0.031871 -0.001884 0.005739
# 5 0.006308 -0.002739 0.009627 -0.001884 0.048971 0.002403
# 6 -0.007913 0.005552 -0.002211 0.005739 0.002403 0.024846
#
#
# Mechanical properties :
#
#
# Convention : Reuss Voigt Hill
#
# Bulk Modulus (GPa) = 35.89515 58.42135 47.15825
# Shear Modulus (GPa) = 25.46806 33.30602 29.38704
#
# Velocity S-wave (km/s) = 3.66495 4.19113 3.93684
# Velocity P-wave (km/s) = 6.06961 7.36425 6.74805
#
# Compressibility (1/GPa) = 0.02785891
#
# Stress axis : x y z
#
# Youngs Moduli (GPa) = 44.46204 82.32739 50.08451
#
# Poissons Ratio (x) = 0.75887 -0.09237
# Poissons Ratio (y) = 0.40984 0.30046
# Poissons Ratio (z) = -0.08200 0.49389
#
# Static dielectric constant tensor:
#      x y z
#    x 1.690620 -0.019720 -0.003050 
#    y -0.019720 1.652410 -0.001900 
#    z -0.003050 -0.001900 1.680550 
# 
# From -- ./inp_files/533703.got.cif
#   From: 2010.05.17/outbox.ucp.g08.bks.cvg/sg2_267_cif.got.tgz:533703.got - 2010.06.11 11:32:03.
