data_PCOD9072952
_publ_section_title
;
Structure prediction by ZEFSAII (Michael W. Deem and Ramdas Pophale) SiO2 
 PCOD9072952
Probable space group: P -1
;
_chemical_formula_sum "Si O2"
_cell_formula_units_Z 16
_cell_length_a 12.000000
_cell_length_b 12.000000
_cell_length_c 12.000000
_cell_angle_alpha 50.000000
_cell_angle_beta 120.000000
_cell_angle_gamma 80.000000
_cell_volume 763.164900
_symmetry_space_group_name_H-M "P -1"
_symmetry_group_IT_number 2
_symmetry_cell_setting 'triclinic'
loop_
_space_group_symop_operation_xyz
x,y,z
-x,-y,-z
loop_
_atom_site_type_symbol
_atom_site_label
_atom_site_fract_x
_atom_site_fract_y
_atom_site_fract_z
Si Si1 0.766557 0.749629 0.104420
Si Si2 0.088376 0.223251 0.622596
Si Si3 0.778450 0.638867 0.823964
Si Si4 0.209378 0.901780 0.691928
Si Si5 0.226466 0.955067 0.222111
Si Si6 0.127187 0.902270 0.974142
Si Si7 0.613452 0.477212 0.814085
Si Si8 0.528175 0.106067 0.289800
O O1 0.776445 0.808822 0.196352
O O2 0.931008 0.483145 0.349249
O O3 0.567061 0.842046 0.911660
O O4 0.775786 0.878457 0.937251
O O5 0.166157 0.073435 0.647121
O O6 0.028281 0.130441 0.724743
O O7 0.762041 0.485940 0.878061
O O8 0.657588 0.729051 0.824331
O O9 0.651573 0.863542 0.548057
O O10 0.000000 0.500000 0.000000
O O11 0.327036 0.878733 0.663676
O O12 0.345952 0.659325 0.969848
O O13 0.000000 0.000000 0.500000
O O14 0.411544 0.732532 0.523589
O O15 0.198115 0.879908 0.147101
O O16 0.034628 0.085908 0.112765
O O17 0.316663 0.692601 0.137399
#
# Coordination Sequence:
#
# PCOD9072952 Si02
#       8
#     2   2   2   2   2   2   2   2
#     4  10  21  42  67 101 133 176 228 278 338 399
#     4   9  22  42  68  97 138 177 223 281 332 402
#     4  11  26  45  67  99 133 172 228 284 337 403
#     4  11  26  46  67 102 139 183 227 279 340 408
#     4  10  20  39  63  98 129 170 217 272 331 396
#     4   9  21  38  64  93 134 169 213 273 333 390
#     4  11  23  40  65  94 129 175 218 273 330 403
#     4  11  26  44  69 101 132 181 228 277 344 404
#
# _framework density 20.965325
#
# number of rings (size 3 to 8) (size 9 to 14) (size 15 to 20)
#    0.000    1.750    1.250    1.125    7.000    3.000 
#    0.000    0.000    0.000    0.000    0.000    0.000 
#    0.000    0.000    0.000    0.000    0.000    0.000 
#
# Total GULP energy -89105.303083 kJ/mol
# GULP energy per Si atom -5569.081443 kJ/mol
# Density = 2.091761 g / cm^3
# Si number density = 20.965325 Si / 1000 Ang^3
#
#
#
# Elastic Constant Matrix: (Units=GPa)
#
#
# Indices 1 2 3 4 5 6 
#
# 1 112.4574 31.2548 46.7287 3.4099 -0.9381 9.0827
# 2 31.2548 93.7898 38.9445 -6.7837 6.0113 3.2772
# 3 46.7287 38.9445 141.8969 -7.9351 -14.5802 4.9182
# 4 3.4099 -6.7837 -7.9351 30.9790 8.9451 -3.5157
# 5 -0.9381 6.0113 -14.5802 8.9451 40.6973 -4.5353
# 6 9.0827 3.2772 4.9182 -3.5157 -4.5353 30.9760
#
#
#
# Elastic Compliance Matrix: (Units=1/GPa)
#
#
# Indices 1 2 3 4 5 6 
#
# 1 0.011191 -0.002555 -0.003060 -0.002857 -0.000153 -0.002872
# 2 -0.002555 0.013273 -0.002994 0.003508 -0.003902 -0.000353
# 3 -0.003060 -0.002994 0.009284 0.001091 0.003500 0.000376
# 4 -0.002857 0.003508 0.001091 0.036265 -0.007800 0.003267
# 5 -0.000153 -0.003902 0.003500 -0.007800 0.028468 0.003185
# 6 -0.002872 -0.000353 0.000376 0.003267 0.003185 0.033940
#
#
# Mechanical properties :
#
#
# Convention : Reuss Voigt Hill
#
# Bulk Modulus (GPa) = 60.49572 64.66667 62.58120
# Shear Modulus (GPa) = 32.22689 35.94486 34.08587
#
# Velocity S-wave (km/s) = 3.92491 4.14513 4.03652
# Velocity P-wave (km/s) = 7.03261 7.33628 7.18605
#
# Compressibility (1/GPa) = 0.01653009
#
# Stress axis : x y z
#
# Youngs Moduli (GPa) = 89.35538 75.34103 107.70719
#
# Poissons Ratio (x) = 0.19251 0.32959
# Poissons Ratio (y) = 0.22833 0.32247
# Poissons Ratio (z) = 0.27344 0.22557
#
# Static dielectric constant tensor:
#      x y z
#    x 1.783260 -0.016500 0.018640 
#    y -0.016500 1.828680 0.053500 
#    z 0.018640 0.053500 1.757730 
# 
# From -- ./inp_files/427633.got.cif
#   From: 2010.05.17/outbox.ucp.g08.bks.cvg/sg2_214_cif.got.tgz:427633.got - 2010.06.11 11:32:03.
