data_PCOD9072089
_publ_section_title
;
Structure prediction by ZEFSAII (Michael W. Deem and Ramdas Pophale) SiO2 
 PCOD9072089
Probable space group: P -1
;
_chemical_formula_sum "Si O2"
_cell_formula_units_Z 16
_cell_length_a 10.626609
_cell_length_b 9.839750
_cell_length_c 9.656192
_cell_angle_alpha 118.535394
_cell_angle_beta 78.339129
_cell_angle_gamma 58.636437
_cell_volume 605.438253
_symmetry_space_group_name_H-M "P -1"
_symmetry_group_IT_number 2
_symmetry_cell_setting 'triclinic'
loop_
_space_group_symop_operation_xyz
x,y,z
-x,-y,-z
loop_
_atom_site_type_symbol
_atom_site_label
_atom_site_fract_x
_atom_site_fract_y
_atom_site_fract_z
Si Si1 0.266785 0.672940 0.083856
Si Si2 0.269800 0.900768 0.859886
Si Si3 0.982090 0.642923 0.453929
Si Si4 0.046430 0.887005 0.730981
Si Si5 0.484837 0.281409 0.035872
Si Si6 0.448621 0.032123 0.324808
Si Si7 0.056501 0.374163 0.069597
Si Si8 0.649551 0.637507 0.307453
O O1 0.355417 0.765767 0.112385
O O2 0.361368 0.511710 0.848495
O O3 0.317657 0.527428 0.133278
O O4 0.050531 0.882858 0.211692
O O5 0.455376 0.752249 0.835376
O O6 0.105640 0.023078 0.072854
O O7 0.232645 0.788563 0.711976
O O8 0.212860 0.110646 0.902381
O O9 0.052981 0.739813 0.552609
O O10 0.768224 0.829470 0.543455
O O11 0.096105 0.471796 0.219592
O O12 0.000000 0.500000 0.500000
O O13 0.498942 0.091639 0.892767
O O14 0.445836 0.215304 0.460997
O O15 0.578421 0.824640 0.301333
O O16 0.866453 0.459054 0.201577
O O17 0.000000 0.500000 0.000000
#
# Coordination Sequence:
#
# PCOD9072089 Si02
#       8
#     2   2   2   2   2   2   2   2
#     4   9  15  27  46  72 105 128 167 211 273 311
#     4  10  18  31  49  77 107 132 176 221 262 312
#     4  11  19  33  54  79 108 134 174 229 266 308
#     4  10  18  30  51  80 104 131 174 225 269 302
#     4   9  16  26  46  76 105 127 161 220 274 310
#     4   9  16  28  46  73 102 128 172 216 267 293
#     4  11  22  35  52  76 110 148 176 210 269 327
#     4   9  18  29  47  71 102 138 170 218 253 313
#
# _framework density 26.427137999999999
#
# number of rings (size 3 to 8) (size 9 to 14) (size 15 to 20)
#    0.000    2.250    5.000    0.000    0.000    0.000 
#    0.000    0.625    0.000    6.750    0.000    0.875 
#    0.000    0.000    0.000    0.000    0.000    0.000 
#
# Total GULP energy -89394.882057 kJ/mol
# GULP energy per Si atom -5587.180129 kJ/mol
# Density = 2.636699 g / cm^3
# Si number density = 26.427138 Si / 1000 Ang^3
#
#
#
# Elastic Constant Matrix: (Units=GPa)
#
#
# Indices 1 2 3 4 5 6 
#
# 1 82.7871 30.2111 50.7673 0.6824 33.6296 -10.6803
# 2 30.2111 161.8561 50.9926 -6.2247 19.6515 -6.5515
# 3 50.7673 50.9926 154.4335 4.5980 51.4527 -5.9135
# 4 0.6824 -6.2247 4.5980 38.4947 -5.8477 6.0667
# 5 33.6296 19.6515 51.4527 -5.8477 59.3693 1.3649
# 6 -10.6803 -6.5515 -5.9135 6.0667 1.3649 30.8303
#
#
#
# Elastic Compliance Matrix: (Units=1/GPa)
#
#
# Indices 1 2 3 4 5 6 
#
# 1 0.018288 -0.001478 -0.002510 -0.002499 -0.008088 0.006390
# 2 -0.001478 0.007112 -0.002013 0.001421 0.000360 0.000318
# 3 -0.002510 -0.002013 0.010584 -0.002929 -0.007411 0.001637
# 4 -0.002499 0.001421 -0.002929 0.028697 0.006472 -0.007059
# 5 -0.008088 0.000360 -0.007411 0.006472 0.028519 -0.006683
# 6 0.006390 0.000318 0.001637 -0.007059 -0.006683 0.036716
#
#
# Mechanical properties :
#
#
# Convention : Reuss Voigt Hill
#
# Bulk Modulus (GPa) = 41.69764 73.66875 57.68320
# Shear Modulus (GPa) = 33.35283 43.54590 38.44937
#
# Velocity S-wave (km/s) = 3.55641 4.06368 3.81848
# Velocity P-wave (km/s) = 5.71635 7.06786 6.42773
#
# Compressibility (1/GPa) = 0.02398217
#
# Stress axis : x y z
#
# Youngs Moduli (GPa) = 54.68010 140.60565 94.48324
#
# Poissons Ratio (x) = 0.20785 0.23717
# Poissons Ratio (y) = 0.08083 0.19015
# Poissons Ratio (z) = 0.13726 0.28297
#
# Static dielectric constant tensor:
#      x y z
#    x 2.172820 -0.010860 -0.022260 
#    y -0.010860 2.082160 -0.040320 
#    z -0.022260 -0.040320 2.070820 
# 
# From -- ./inp_files/308325.got.cif
#   From: 2010.05.17/outbox.cif.g08.bks.cpg/sg2_155_cif.got.tgz:308325.got - 2010.06.03 11:33:40.
