data_PCOD9072225
_publ_section_title
;
Structure prediction by ZEFSAII (Michael W. Deem and Ramdas Pophale) SiO2 
 PCOD9072225
Probable space group: P -1
;
_chemical_formula_sum "Si O2"
_cell_formula_units_Z 16
_cell_length_a 7.222671
_cell_length_b 11.682453
_cell_length_c 20.523524
_cell_angle_alpha 148.712219
_cell_angle_beta 122.834639
_cell_angle_gamma 65.713735
_cell_volume 750.277938
_symmetry_space_group_name_H-M "P -1"
_symmetry_group_IT_number 2
_symmetry_cell_setting 'triclinic'
loop_
_space_group_symop_operation_xyz
x,y,z
-x,-y,-z
loop_
_atom_site_type_symbol
_atom_site_label
_atom_site_fract_x
_atom_site_fract_y
_atom_site_fract_z
Si Si1 0.370826 0.777705 0.839428
Si Si2 0.288946 0.016022 0.376945
Si Si3 0.476951 0.331926 0.684072
Si Si4 0.034170 0.755380 0.655604
Si Si5 0.018466 0.258102 0.146200
Si Si6 0.731257 0.559575 0.607378
Si Si7 0.085412 0.307267 0.704933
Si Si8 0.749424 0.101581 0.435640
O O1 0.516788 0.577835 0.782418
O O2 0.162009 0.721322 0.821025
O O3 0.272425 0.799886 0.758650
O O4 0.500000 0.000000 0.000000
O O5 0.363301 0.184311 0.531862
O O6 0.062592 0.076141 0.330644
O O7 0.489082 0.060447 0.383229
O O8 0.316997 0.777179 0.298573
O O9 0.293427 0.322481 0.701735
O O10 0.864000 0.742307 0.676928
O O11 0.000000 0.500000 0.500000
O O12 0.963646 0.440141 0.170742
O O13 0.247864 0.347427 0.270108
O O14 0.000000 0.000000 0.000000
O O15 0.500000 0.500000 0.500000
O O16 0.815474 0.316237 0.508157
O O17 0.871802 0.182965 0.566252
O O18 0.157908 0.123797 0.679156
#
# Coordination Sequence:
#
# PCOD9072225 Si02
#       8
#     2   2   2   2   2   2   2   2
#     4  10  21  36  53  74 104 142 179 213 256 312
#     4  10  18  30  53  79 106 134 170 216 264 306
#     4   9  18  33  51  78 104 137 175 211 257 315
#     4  11  21  34  53  80 109 137 172 218 266 305
#     4   9  19  33  52  73 101 134 171 210 249 308
#     4  10  19  32  51  80 103 128 167 211 261 308
#     4   8  16  30  49  73 103 132 164 209 257 303
#     4   9  16  28  48  76 103 131 160 211 260 306
#
# _framework density 21.325430999999998
#
# number of rings (size 3 to 8) (size 9 to 14) (size 15 to 20)
#    0.000    2.500    2.500    0.750    0.000    3.000 
#    0.000    0.625    0.000    0.750    0.000    0.000 
#    0.000    0.000    0.000    0.000    0.000    0.000 
#
# Total GULP energy -89108.780414 kJ/mol
# GULP energy per Si atom -5569.298776 kJ/mol
# Density = 2.127689 g / cm^3
# Si number density = 21.325431 Si / 1000 Ang^3
#
#
#
# Elastic Constant Matrix: (Units=GPa)
#
#
# Indices 1 2 3 4 5 6 
#
# 1 45.2044 25.4949 -2.2622 -1.4432 -1.5943 -4.9132
# 2 25.4949 213.7323 80.2485 23.5752 -2.9166 -24.5201
# 3 -2.2622 80.2485 106.4727 19.7762 2.0274 -22.4775
# 4 -1.4432 23.5752 19.7762 36.6629 -8.2394 -2.3526
# 5 -1.5943 -2.9166 2.0274 -8.2394 22.6754 2.0338
# 6 -4.9132 -24.5201 -22.4775 -2.3526 2.0338 30.6729
#
#
#
# Elastic Compliance Matrix: (Units=1/GPa)
#
#
# Indices 1 2 3 4 5 6 
#
# 1 0.025324 -0.004391 0.004226 0.002061 0.001253 0.003718
# 2 -0.004391 0.007501 -0.005057 -0.002131 0.000207 0.001410
# 3 0.004226 -0.005057 0.016244 -0.005858 -0.004688 0.008399
# 4 0.002061 -0.002131 -0.005858 0.034632 0.013328 -0.003894
# 5 0.001253 0.000207 -0.004688 0.013328 0.049958 -0.005359
# 6 0.003718 0.001410 0.008399 -0.003894 -0.005359 0.040536
#
#
# Mechanical properties :
#
#
# Convention : Reuss Voigt Hill
#
# Bulk Modulus (GPa) = 25.89080 63.59687 44.74384
# Shear Modulus (GPa) = 25.31439 35.46411 30.38925
#
# Velocity S-wave (km/s) = 3.44910 4.08241 3.77904
# Velocity P-wave (km/s) = 5.29423 7.21860 6.32997
#
# Compressibility (1/GPa) = 0.03862375
#
# Stress axis : x y z
#
# Youngs Moduli (GPa) = 39.48844 133.31544 61.56051
#
# Poissons Ratio (x) = 0.58540 -0.26014
# Poissons Ratio (y) = 0.17340 0.31133
# Poissons Ratio (z) = -0.16687 0.67422
#
# Static dielectric constant tensor:
#      x y z
#    x 1.914310 0.005500 -0.005010 
#    y 0.005500 1.897410 -0.006810 
#    z -0.005010 -0.006810 1.733930 
# 
# From -- ./inp_files/175313.got.cif
#   From: 2010.05.17/outbox.cif.g08.bks.cpg/sg2_88_cif.got.tgz:175313.got - 2010.06.03 11:33:40.
