data_PCOD9072781
_publ_section_title
;
Structure prediction by ZEFSAII (Michael W. Deem and Ramdas Pophale) SiO2 
 PCOD9072781
Probable space group: P -1
;
_chemical_formula_sum "Si O2"
_cell_formula_units_Z 12
_cell_length_a 14.686785
_cell_length_b 21.487083
_cell_length_c 6.139642
_cell_angle_alpha 97.052983
_cell_angle_beta 105.603853
_cell_angle_gamma 148.570683
_cell_volume 693.494719
_symmetry_space_group_name_H-M "P -1"
_symmetry_group_IT_number 2
_symmetry_cell_setting 'triclinic'
loop_
_space_group_symop_operation_xyz
x,y,z
-x,-y,-z
loop_
_atom_site_type_symbol
_atom_site_label
_atom_site_fract_x
_atom_site_fract_y
_atom_site_fract_z
Si Si1 0.927897 0.535627 0.726146
Si Si2 0.352214 0.089297 0.677124
Si Si3 0.242188 0.700077 0.620129
Si Si4 0.440106 0.890917 0.444843
Si Si5 0.394406 0.229604 0.421110
Si Si6 0.008247 0.952371 0.672126
O O1 0.867153 0.423560 0.649560
O O2 0.673218 0.411895 0.587253
O O3 0.018891 0.598024 0.560546
O O4 0.164946 0.704853 0.089290
O O5 0.361706 0.031587 0.519683
O O6 0.396651 0.174143 0.574794
O O7 0.584267 0.226174 0.053862
O O8 0.105057 0.951117 0.604082
O O9 0.414931 0.852848 0.660089
O O10 0.500000 0.000000 0.500000
O O11 0.255383 0.202709 0.436048
O O12 0.219844 0.100084 0.051319
O O13 0.000000 0.000000 0.500000
#
# Coordination Sequence:
#
# PCOD9072781 Si02
#       6
#     2   2   2   2   2   2
#     4  10  20  31  54  76 105 135 172 217 253 307
#     4  10  18  32  52  75 108 136 169 214 255 306
#     4  10  20  32  53  77 102 138 174 213 262 300
#     4  11  23  35  50  75 109 143 173 209 256 310
#     4  10  18  31  50  81 106 132 168 213 264 301
#     4   9  18  29  49  78 108 132 165 213 262 305
#
# _framework density 17.303664000000001
#
# number of rings (size 3 to 8) (size 9 to 14) (size 15 to 20)
#    0.000    2.000    3.333    0.500    4.667    2.667 
#    0.000    0.000    0.000    1.000    0.000   17.500 
#    0.000    0.000    0.000    0.000    0.000    0.000 
#
# Total GULP energy -66826.715253 kJ/mol
# GULP energy per Si atom -5568.892938 kJ/mol
# Density = 1.726428 g / cm^3
# Si number density = 17.303664 Si / 1000 Ang^3
#
#
#
# Elastic Constant Matrix: (Units=GPa)
#
#
# Indices 1 2 3 4 5 6 
#
# 1 128.7905 67.4564 16.3203 7.2586 9.0093 40.9742
# 2 67.4564 82.6012 34.1984 -8.7896 1.9957 19.2927
# 3 16.3203 34.1984 71.9984 -15.2406 9.1762 -4.4553
# 4 7.2586 -8.7896 -15.2406 20.5456 4.3915 5.8263
# 5 9.0093 1.9957 9.1762 4.3915 14.0961 5.6115
# 6 40.9742 19.2927 -4.4553 5.8263 5.6115 51.5461
#
#
#
# Elastic Compliance Matrix: (Units=1/GPa)
#
#
# Indices 1 2 3 4 5 6 
#
# 1 0.018560 -0.014583 0.000927 -0.008951 -0.004544 -0.007709
# 2 -0.014583 0.029542 -0.010342 0.008642 0.010149 -0.002440
# 3 0.000927 -0.010342 0.025746 0.017745 -0.023782 0.005942
# 4 -0.008951 0.008642 0.017745 0.075158 -0.030567 0.000247
# 5 -0.004544 0.010149 -0.023782 -0.030567 0.101322 -0.009818
# 6 -0.007709 -0.002440 0.005942 0.000247 -0.009818 0.027996
#
#
# Mechanical properties :
#
#
# Convention : Reuss Voigt Hill
#
# Bulk Modulus (GPa) = 38.68091 57.70447 48.19269
# Shear Modulus (GPa) = 14.92821 28.26521 21.59671
#
# Velocity S-wave (km/s) = 2.94040 4.04602 3.53668
# Velocity P-wave (km/s) = 5.82500 7.43287 6.67751
#
# Compressibility (1/GPa) = 0.02585255
#
# Stress axis : x y z
#
# Youngs Moduli (GPa) = 53.87883 33.85050 38.84067
#
# Poissons Ratio (x) = 0.49365 -0.03601
# Poissons Ratio (y) = 0.78573 0.40167
# Poissons Ratio (z) = -0.04995 0.35007
#
# Static dielectric constant tensor:
#      x y z
#    x 1.624090 0.064040 0.012750 
#    y 0.064040 1.603330 -0.035330 
#    z 0.012750 -0.035330 1.613790 
# 
# From -- ./inp_files/19197.got.cif
#   From: 2010.05.17/outbox.cif.g08.bks.cpg/sg2_10_cif.got.tgz:19197.got - 2010.06.03 11:33:40.
