data_PCOD9072107
_publ_section_title
;
Structure prediction by ZEFSAII (Michael W. Deem and Ramdas Pophale) SiO2 
 PCOD9072107
Probable space group: P -1
;
_chemical_formula_sum "Si O2"
_cell_formula_units_Z 16
_cell_length_a 15.000000
_cell_length_b 12.000000
_cell_length_c 12.000000
_cell_angle_alpha 50.000000
_cell_angle_beta 30.000000
_cell_angle_gamma 60.000000
_cell_volume 818.222392
_symmetry_space_group_name_H-M "P -1"
_symmetry_group_IT_number 2
_symmetry_cell_setting 'triclinic'
loop_
_space_group_symop_operation_xyz
x,y,z
-x,-y,-z
loop_
_atom_site_type_symbol
_atom_site_label
_atom_site_fract_x
_atom_site_fract_y
_atom_site_fract_z
Si Si1 0.226034 0.204523 0.396887
Si Si2 0.491717 0.699009 0.787803
Si Si3 0.730093 0.540343 0.350678
Si Si4 0.615720 0.562718 0.081876
Si Si5 0.234934 0.887642 0.671541
Si Si6 0.357878 0.144833 0.691430
Si Si7 0.884530 0.436319 0.023947
Si Si8 0.142577 0.845930 0.056768
O O1 0.397090 0.273736 0.239242
O O2 0.045149 0.231174 0.640066
O O3 0.212497 0.029551 0.533436
O O4 0.272098 0.284304 0.178190
O O5 0.477181 0.538933 0.852299
O O6 0.602015 0.811754 0.508395
O O7 0.295524 0.745243 0.978816
O O8 0.546681 0.438325 0.652958
O O9 0.693883 0.708196 0.292476
O O10 0.800865 0.512440 0.169359
O O11 0.902998 0.516302 0.253411
O O12 0.761587 0.467611 0.034192
O O13 0.449084 0.886318 0.453375
O O14 0.146274 0.737128 0.808160
O O15 0.148291 0.880704 0.894995
O O16 0.209771 0.001325 0.945418
#
# Coordination Sequence:
#
# PCOD9072107 Si02
#       8
#     2   2   2   2   2   2   2   2
#     4  12  24  34  57  90 125 162 186 229 303 350
#     4  10  20  36  53  85 121 161 192 230 284 353
#     4  10  23  40  68  85 110 151 204 249 285 342
#     4  11  24  39  57  88 126 153 189 244 294 349
#     4  11  20  37  62  87 118 153 203 237 281 351
#     4  10  18  36  63  86 114 155 197 247 280 330
#     4  11  22  42  67  88 107 152 207 243 289 343
#     4  11  20  35  59  84 123 157 197 239 278 345
#
# _framework density 19.554586
#
# number of rings (size 3 to 8) (size 9 to 14) (size 15 to 20)
#    0.000    1.250    6.250    2.625    3.500    1.500 
#    0.000    0.625    0.000    2.250    0.000    0.000 
#    0.000    0.000    0.000    0.000    0.000    0.000 
#
# Total GULP energy -89267.695119 kJ/mol
# GULP energy per Si atom -5579.230945 kJ/mol
# Density = 1.951008 g / cm^3
# Si number density = 19.554586 Si / 1000 Ang^3
#
#
#
# Elastic Constant Matrix: (Units=GPa)
#
#
# Indices 1 2 3 4 5 6 
#
# 1 18.9440 4.7732 18.0079 2.3945 -15.9252 -1.0153
# 2 4.7732 102.3758 17.3176 20.8568 16.5222 -17.9682
# 3 18.0079 17.3176 109.9654 9.3214 -11.1175 -17.0328
# 4 2.3945 20.8568 9.3214 15.8179 -3.2123 4.3592
# 5 -15.9252 16.5222 -11.1175 -3.2123 17.4208 -3.9518
# 6 -1.0153 -17.9682 -17.0328 4.3592 -3.9518 23.6559
#
#
#
# Elastic Compliance Matrix: (Units=1/GPa)
#
#
# Indices 1 2 3 4 5 6 
#
# 1 -0.171643 0.093034 0.011590 -0.172165 -0.255735 0.060648
# 2 0.093034 -0.018112 -0.005082 0.034723 0.104862 -0.002304
# 3 0.011590 -0.005082 0.011969 0.000434 0.025264 0.009396
# 4 -0.172165 0.034723 0.000434 0.008227 -0.191756 -0.014252
# 5 -0.255735 0.104862 0.025264 -0.191756 -0.277876 0.075780
# 6 0.060648 -0.002304 0.009396 -0.014252 0.075780 0.065176
#
#
# Mechanical properties :
#
#
# Convention : Reuss Voigt Hill
#
# Bulk Modulus (GPa) = 46.95145 34.60919 40.78032
# Shear Modulus (GPa) = -8.70710 24.12470 7.70880
#
# Velocity S-wave (km/s) = -2.11244 3.51623 1.98765
# Velocity P-wave (km/s) = 4.25591 5.84999 5.11542
#
# Compressibility (1/GPa) = 0.02129860
#
# Stress axis : x y z
#
# Youngs Moduli (GPa) = -5.82606 -55.21124 83.55030
#
# Poissons Ratio (x) = 5.13652 -0.96834
# Poissons Ratio (y) = 0.54202 0.42457
# Poissons Ratio (z) = 0.06752 -0.28056
#
# Static dielectric constant tensor:
#      x y z
#    x 1.730360 -0.005610 -0.014320 
#    y -0.005610 1.710580 0.000950 
#    z -0.014320 0.000950 1.684340 
# 
# From -- ./inp_files/424562.got.cif
#   From: 2010.05.17/outbox.ucp.g08.bks.cvg/sg2_213_cif.got.tgz:424562.got - 2010.06.11 11:32:03.
