data_PCOD9072484
_publ_section_title
;
Structure prediction by ZEFSAII (Michael W. Deem and Ramdas Pophale) SiO2 
 PCOD9072484
Probable space group: P -1
;
_chemical_formula_sum "Si O2"
_cell_formula_units_Z 15
_cell_length_a 15.173009
_cell_length_b 8.116395
_cell_length_c 11.578012
_cell_angle_alpha 75.258783
_cell_angle_beta 64.262508
_cell_angle_gamma 131.743234
_cell_volume 563.637516
_symmetry_space_group_name_H-M "P -1"
_symmetry_group_IT_number 2
_symmetry_cell_setting 'triclinic'
loop_
_space_group_symop_operation_xyz
x,y,z
-x,-y,-z
loop_
_atom_site_type_symbol
_atom_site_label
_atom_site_fract_x
_atom_site_fract_y
_atom_site_fract_z
Si Si1 0.723292 0.245334 0.598033
Si Si2 0.615705 0.392720 0.523440
Si Si3 0.503431 0.533666 0.260259
Si Si4 0.000000 0.000000 0.500000
Si Si5 0.471448 0.647704 0.037217
Si Si6 0.040145 0.688898 0.611891
Si Si7 0.882607 0.465961 0.001741
Si Si8 0.690313 0.485164 0.196708
O O1 0.753557 0.495727 0.518650
O O2 0.942178 0.477381 0.413540
O O3 0.540680 0.929698 0.655361
O O4 0.601448 0.983404 0.826026
O O5 0.603302 0.568063 0.541524
O O6 0.679723 0.455579 0.345690
O O7 0.365656 0.962635 0.759825
O O8 0.554360 0.765065 0.101578
O O9 0.693177 0.692043 0.133245
O O10 0.295818 0.125593 0.394221
O O11 0.777038 0.687627 0.755761
O O12 0.958198 0.724495 0.583112
O O13 0.500000 0.500000 0.000000
O O14 0.952131 0.561421 0.813715
O O15 0.881308 0.661982 0.009036
O O16 0.000000 0.500000 0.000000
#
# Coordination Sequence:
#
# PCOD9072484 Si02
#       8
#     2   2   2   1   2   2   2   2
#     4  10  19  36  59  83 110 156 193 235 285 350
#     4  11  22  37  58  83 119 148 191 242 300 342
#     4  10  22  38  58  85 111 154 191 240 294 345
#     4  10  18  30  60  88 102 144 198 246 266 330
#     4  11  19  37  62  85 116 153 204 237 284 359
#     4  10  20  35  59  83 112 146 201 233 281 352
#     4  11  21  35  58  84 112 149 197 240 281 346
#     4  10  19  36  59  79 110 157 194 226 285 361
#
# _framework density 26.612848
#
# number of rings (size 3 to 8) (size 9 to 14) (size 15 to 20)
#    0.000    1.600    4.000    6.000    0.000    0.533 
#    0.000    4.000    0.000    4.000    0.000    0.000 
#    0.000    0.000    0.000    0.000    0.000    0.000 
#
# Total GULP energy -83618.626553 kJ/mol
# GULP energy per Si atom -5574.575104 kJ/mol
# Density = 2.655228 g / cm^3
# Si number density = 26.612848 Si / 1000 Ang^3
#
#
#
# Elastic Constant Matrix: (Units=GPa)
#
#
# Indices 1 2 3 4 5 6 
#
# 1 176.8125 38.0436 43.2343 25.5297 -14.9963 -9.2858
# 2 38.0436 47.8908 33.7016 8.1343 -10.6625 -14.0946
# 3 43.2343 33.7016 152.3020 33.3978 -8.1587 1.2229
# 4 25.5297 8.1343 33.3978 43.0539 -8.2722 -10.4169
# 5 -14.9963 -10.6625 -8.1587 -8.2722 62.5891 19.8313
# 6 -9.2858 -14.0946 1.2229 -10.4169 19.8313 32.6098
#
#
#
# Elastic Compliance Matrix: (Units=1/GPa)
#
#
# Indices 1 2 3 4 5 6 
#
# 1 0.007364 -0.005653 0.000029 -0.003642 0.000994 -0.002116
# 2 -0.005653 0.034088 -0.007520 0.006455 -0.000713 0.015901
# 3 0.000029 -0.007520 0.010054 -0.007824 0.001166 -0.006827
# 4 -0.003642 0.006455 -0.007824 0.033281 -0.000509 0.012987
# 5 0.000994 -0.000713 0.001166 -0.000509 0.020131 -0.012474
# 6 -0.002116 0.015901 -0.006827 0.012987 -0.012474 0.048927
#
#
# Mechanical properties :
#
#
# Convention : Reuss Voigt Hill
#
# Bulk Modulus (GPa) = 39.65160 67.44048 53.54604
# Shear Modulus (GPa) = 26.51981 45.11894 35.81938
#
# Velocity S-wave (km/s) = 3.16017 4.12197 3.67269
# Velocity P-wave (km/s) = 5.31482 6.93185 6.17648
#
# Compressibility (1/GPa) = 0.02521966
#
# Stress axis : x y z
#
# Youngs Moduli (GPa) = 135.79611 29.33567 99.45796
#
# Poissons Ratio (x) = 0.16584 -0.00293
# Poissons Ratio (y) = 0.76769 0.74790
# Poissons Ratio (z) = -0.00400 0.22060
#
# Static dielectric constant tensor:
#      x y z
#    x 2.317940 -0.177290 0.068090 
#    y -0.177290 2.498040 -0.048550 
#    z 0.068090 -0.048550 1.994720 
# 
# From -- ./inp_files/337663.got.cif
#   From: 2010.05.17/outbox.cif.g08.bks.cpg/sg2_169_cif.got.tgz:337663.got - 2010.06.03 11:33:40.
