data_PCOD9072242
_publ_section_title
;
Structure prediction by ZEFSAII (Michael W. Deem and Ramdas Pophale) SiO2 
 PCOD9072242
Probable space group: P -1
;
_chemical_formula_sum "Si O2"
_cell_formula_units_Z 16
_cell_length_a 11.637852
_cell_length_b 11.962206
_cell_length_c 9.204402
_cell_angle_alpha 120.896600
_cell_angle_beta 56.150628
_cell_angle_gamma 144.507973
_cell_volume 613.063622
_symmetry_space_group_name_H-M "P -1"
_symmetry_group_IT_number 2
_symmetry_cell_setting 'triclinic'
loop_
_space_group_symop_operation_xyz
x,y,z
-x,-y,-z
loop_
_atom_site_type_symbol
_atom_site_label
_atom_site_fract_x
_atom_site_fract_y
_atom_site_fract_z
Si Si1 0.815974 0.240343 0.340265
Si Si2 0.263260 0.224555 0.740186
Si Si3 0.535856 0.224242 0.728377
Si Si4 0.292517 0.527505 0.939614
Si Si5 0.002479 0.209329 0.408388
Si Si6 0.721723 0.037547 0.749092
Si Si7 0.306323 0.259040 0.389395
Si Si8 0.762957 0.298230 0.118077
O O1 0.692924 0.257347 0.536120
O O2 0.005485 0.308879 0.339166
O O3 0.878415 0.351401 0.221130
O O4 0.653996 0.009724 0.268086
O O5 0.442229 0.284882 0.752113
O O6 0.196163 0.320284 0.904995
O O7 0.332663 0.285752 0.562507
O O8 0.083963 0.991083 0.715979
O O9 0.634833 0.336580 0.885123
O O10 0.501651 0.632933 0.777689
O O11 0.175441 0.533994 0.907955
O O12 0.829065 0.146462 0.595625
O O13 0.194781 0.307851 0.437595
O O14 0.815812 0.964489 0.683535
O O15 0.478716 0.848505 0.765738
O O16 0.749815 0.164326 0.934775
#
# Coordination Sequence:
#
# PCOD9072242 Si02
#       8
#     2   2   2   2   2   2   2   2
#     4  10  18  32  54  81 107 138 183 227 266 304
#     4  10  20  35  56  80 108 143 178 217 269 322
#     4  10  19  33  56  83 108 135 180 232 267 305
#     4  11  21  34  55  84 112 139 174 222 272 318
#     4  10  20  35  56  80 110 144 176 218 266 319
#     4   9  16  30  52  78 104 134 177 224 265 303
#     4  10  20  35  55  80 111 143 177 218 266 319
#     4  10  18  30  53  83 107 132 177 231 265 301
#
# _framework density 26.098431999999999
#
# number of rings (size 3 to 8) (size 9 to 14) (size 15 to 20)
#    0.000    2.000    0.000    9.000    0.000    0.000 
#    0.000    6.875    0.000    9.750    0.000    0.000 
#    0.000    0.000    0.000    0.000    0.000    0.000 
#
# Total GULP energy -89709.733343 kJ/mol
# GULP energy per Si atom -5606.858334 kJ/mol
# Density = 2.603903 g / cm^3
# Si number density = 26.098432 Si / 1000 Ang^3
#
#
#
# Elastic Constant Matrix: (Units=GPa)
#
#
# Indices 1 2 3 4 5 6 
#
# 1 199.1014 43.6564 39.4460 5.0804 23.7562 -46.6139
# 2 43.6564 77.3425 45.0342 -2.6274 9.6597 -7.6444
# 3 39.4460 45.0342 96.8662 17.2467 -4.6378 -21.6728
# 4 5.0804 -2.6274 17.2467 37.0076 -5.8306 -1.0315
# 5 23.7562 9.6597 -4.6378 -5.8306 29.3078 0.1773
# 6 -46.6139 -7.6444 -21.6728 -1.0315 0.1773 37.7032
#
#
#
# Elastic Compliance Matrix: (Units=1/GPa)
#
#
# Indices 1 2 3 4 5 6 
#
# 1 0.009094 -0.003622 0.000515 -0.002494 -0.006657 0.010768
# 2 -0.003622 0.021854 -0.011515 0.006485 -0.004760 -0.006466
# 3 0.000515 -0.011515 0.019320 -0.008911 0.004606 0.009143
# 4 -0.002494 0.006485 -0.008911 0.032596 0.004996 -0.006023
# 5 -0.006657 -0.004760 0.004606 0.004996 0.042848 -0.006612
# 6 0.010768 -0.006466 0.009143 -0.006023 -0.006612 0.043646
#
#
# Mechanical properties :
#
#
# Convention : Reuss Voigt Hill
#
# Bulk Modulus (GPa) = 47.56252 69.95369 58.75811
# Shear Modulus (GPa) = 24.31805 37.14863 30.73334
#
# Velocity S-wave (km/s) = 3.05582 3.77690 3.43533
# Velocity P-wave (km/s) = 5.54207 6.77362 6.18856
#
# Compressibility (1/GPa) = 0.02102496
#
# Stress axis : x y z
#
# Youngs Moduli (GPa) = 109.96842 45.75773 51.76100
#
# Poissons Ratio (x) = 0.16574 -0.02668
# Poissons Ratio (y) = 0.39831 0.59600
# Poissons Ratio (z) = -0.05668 0.52688
#
# Static dielectric constant tensor:
#      x y z
#    x 2.097250 0.012500 -0.020960 
#    y 0.012500 2.115150 -0.004460 
#    z -0.020960 -0.004460 1.972190 
# 
# From -- ./inp_files/259917.got.cif
#   From: 2010.05.17/outbox.cif.g08.bks.cpg/sg2_130_cif.got.tgz:259917.got - 2010.06.03 11:33:40.
