data_PCOD9072631
_publ_section_title
;
Structure prediction by ZEFSAII (Michael W. Deem and Ramdas Pophale) SiO2 
 PCOD9072631
Probable space group: P -1
;
_chemical_formula_sum "Si O2"
_cell_formula_units_Z 16
_cell_length_a 15.000000
_cell_length_b 15.000000
_cell_length_c 15.000000
_cell_angle_alpha 140.000000
_cell_angle_beta 20.000000
_cell_angle_gamma 140.000000
_cell_volume 725.414092
_symmetry_space_group_name_H-M "P -1"
_symmetry_group_IT_number 2
_symmetry_cell_setting 'triclinic'
loop_
_space_group_symop_operation_xyz
x,y,z
-x,-y,-z
loop_
_atom_site_type_symbol
_atom_site_label
_atom_site_fract_x
_atom_site_fract_y
_atom_site_fract_z
Si Si1 0.604057 0.757583 0.275417
Si Si2 0.593297 0.668841 0.562543
Si Si3 0.383773 0.232012 0.972352
Si Si4 0.470328 0.441733 0.211143
Si Si5 0.881492 0.332129 0.478537
Si Si6 0.986460 0.573374 0.240540
Si Si7 0.066850 0.718543 0.036578
Si Si8 0.194990 0.896734 0.876625
O O1 0.633096 0.597978 0.149659
O O2 0.372556 0.721558 0.389014
O O3 0.436636 0.836061 0.560225
O O4 0.907061 0.853224 0.062187
O O5 0.500000 0.500000 0.500000
O O6 0.813090 0.679106 0.441774
O O7 0.785313 0.735507 0.352999
O O8 0.325888 0.729580 0.865417
O O9 0.704116 0.279842 0.692518
O O10 0.298440 0.063679 0.921749
O O11 0.352382 0.326758 0.160220
O O12 0.146709 0.272969 0.165207
O O13 0.211665 0.478107 0.530533
O O14 0.701763 0.379029 0.994986
O O15 0.000000 0.500000 0.500000
O O16 0.976798 0.441517 0.082433
O O17 0.139372 0.823595 0.968022
#
# Coordination Sequence:
#
# PCOD9072631 Si02
#       8
#     2   2   2   2   2   2   2   2
#     4  12  24  42  69  93 126 170 213 262 319 377
#     4  10  20  32  56  94 129 159 204 262 319 359
#     4  12  28  45  66  96 129 171 212 260 325 384
#     4  12  22  39  65  92 125 166 213 260 312 370
#     4  12  26  45  70  95 128 166 213 270 319 374
#     4  11  20  35  61  95 125 159 215 263 304 367
#     4  11  19  36  59  88 131 166 198 260 321 369
#     4  12  26  43  65  97 132 168 213 260 319 385
#
# _framework density 22.056367999999999
#
# number of rings (size 3 to 8) (size 9 to 14) (size 15 to 20)
#    0.000    0.500    3.750    7.125    1.750    3.000 
#    0.000    0.000    0.000    4.500    0.000    0.000 
#    0.000    0.000    0.000    0.000    0.000    0.000 
#
# Total GULP energy -89138.575593 kJ/mol
# GULP energy per Si atom -5571.160975 kJ/mol
# Density = 2.200617 g / cm^3
# Si number density = 22.056368 Si / 1000 Ang^3
#
#
#
# Elastic Constant Matrix: (Units=GPa)
#
#
# Indices 1 2 3 4 5 6 
#
# 1 101.8236 12.6696 8.7470 5.2062 -45.2169 -6.5800
# 2 12.6696 100.7256 43.9948 -3.6401 2.9113 28.9038
# 3 8.7470 43.9948 112.5384 -26.9939 -22.4153 16.4770
# 4 5.2062 -3.6401 -26.9939 32.8029 6.6918 -8.5919
# 5 -45.2169 2.9113 -22.4153 6.6918 45.3110 3.7166
# 6 -6.5800 28.9038 16.4770 -8.5919 3.7166 24.4752
#
#
#
# Elastic Compliance Matrix: (Units=1/GPa)
#
#
# Indices 1 2 3 4 5 6 
#
# 1 0.021790 -0.007209 0.003994 -0.004216 0.024271 0.006518
# 2 -0.007209 0.020555 -0.007805 -0.006774 -0.009581 -0.021881
# 3 0.003994 -0.007805 0.015921 0.009750 0.010812 0.001354
# 4 -0.004216 -0.006774 0.009750 0.044248 -0.006868 0.016879
# 5 0.024271 -0.009581 0.010812 -0.006868 0.053264 0.000062
# 6 0.006518 -0.021881 0.001354 0.016879 0.000062 0.073455
#
#
# Mechanical properties :
#
#
# Convention : Reuss Voigt Hill
#
# Bulk Modulus (GPa) = 27.60566 49.54560 38.57563
# Shear Modulus (GPa) = 18.98631 37.16291 28.07461
#
# Velocity S-wave (km/s) = 2.93714 4.10921 3.57158
# Velocity P-wave (km/s) = 4.90362 6.71015 5.87672
#
# Compressibility (1/GPa) = 0.03622445
#
# Stress axis : x y z
#
# Youngs Moduli (GPa) = 45.89288 48.65065 62.81195
#
# Poissons Ratio (x) = 0.35073 -0.25084
# Poissons Ratio (y) = 0.33085 0.49023
# Poissons Ratio (z) = -0.18327 0.37970
#
# Static dielectric constant tensor:
#      x y z
#    x 2.127170 -0.086550 0.111960 
#    y -0.086550 1.775900 -0.047440 
#    z 0.111960 -0.047440 1.868080 
# 
# From -- ./inp_files/226239.got.cif
#   From: 2010.05.17/outbox.ucp.g08.bks.cvg/sg2_114_cif.got.tgz:226239.got - 2010.06.11 11:32:03.
