data_PCOD9072381
_publ_section_title
;
Structure prediction by ZEFSAII (Michael W. Deem and Ramdas Pophale) SiO2 
 PCOD9072381
Probable space group: P -1
;
_chemical_formula_sum "Si O2"
_cell_formula_units_Z 16
_cell_length_a 13.968525
_cell_length_b 8.285913
_cell_length_c 26.880143
_cell_angle_alpha 41.385777
_cell_angle_beta 24.496002
_cell_angle_gamma 46.002609
_cell_volume 852.037175
_symmetry_space_group_name_H-M "P -1"
_symmetry_group_IT_number 2
_symmetry_cell_setting 'triclinic'
loop_
_space_group_symop_operation_xyz
x,y,z
-x,-y,-z
loop_
_atom_site_type_symbol
_atom_site_label
_atom_site_fract_x
_atom_site_fract_y
_atom_site_fract_z
Si Si1 0.228062 0.944130 0.340875
Si Si2 0.484324 0.093861 0.874829
Si Si3 0.262216 0.498363 0.205319
Si Si4 0.768904 0.172486 0.170245
Si Si5 0.915666 0.606615 0.949303
Si Si6 0.082558 0.726525 0.146386
Si Si7 0.737451 0.810935 0.631430
Si Si8 0.757244 0.711647 0.895510
O O1 0.399745 0.809462 0.252355
O O2 0.239133 0.229415 0.254496
O O3 0.289175 0.970968 0.364456
O O4 0.970074 0.853668 0.481831
O O5 0.677103 0.967790 0.849152
O O6 0.309386 0.881258 0.992679
O O7 0.316034 0.283386 0.939387
O O8 0.091336 0.675354 0.213429
O O9 0.228637 0.433569 0.293979
O O10 0.516329 0.594402 0.053784
O O11 0.495951 0.191134 0.288402
O O12 0.870894 0.307528 0.138980
O O13 0.886432 0.316192 0.035408
O O14 0.867088 0.895518 0.191933
O O15 0.909464 0.714005 0.872491
O O16 0.118708 0.475171 0.158148
#
# Coordination Sequence:
#
# PCOD9072381 Si02
#       8
#     2   2   2   2   2   2   2   2
#     4   9  16  31  56  78  98 126 173 218 243 293
#     4  10  18  32  52  83 101 129 168 215 256 291
#     4   9  15  31  53  80 100 121 169 218 251 284
#     4  10  21  36  45  78 106 140 162 202 260 302
#     4  10  21  33  48  73 112 137 163 202 255 314
#     4  10  18  30  56  80 106 124 163 219 258 296
#     4   9  17  33  55  73 103 131 172 209 247 296
#     4  11  16  31  55  80 103 129 167 214 254 299
#
# _framework density 18.778523
#
# number of rings (size 3 to 8) (size 9 to 14) (size 15 to 20)
#    0.750    1.500    3.750    1.125    0.000    0.500 
#    4.500    1.250    0.000    0.750    0.000    0.000 
#    0.000    0.000    0.000    0.000    0.000    0.000 
#
# Total GULP energy -89087.329449 kJ/mol
# GULP energy per Si atom -5567.958091 kJ/mol
# Density = 1.873578 g / cm^3
# Si number density = 18.778523 Si / 1000 Ang^3
#
#
#
# Elastic Constant Matrix: (Units=GPa)
#
#
# Indices 1 2 3 4 5 6 
#
# 1 91.0963 22.3007 32.8455 16.1038 -13.4149 -13.7867
# 2 22.3007 60.0402 5.2430 7.5417 -5.2903 -14.6529
# 3 32.8455 5.2430 69.6495 1.9625 -9.9971 -2.2290
# 4 16.1038 7.5417 1.9625 8.9542 0.7402 -4.6098
# 5 -13.4149 -5.2903 -9.9971 0.7402 25.3764 1.5476
# 6 -13.7867 -14.6529 -2.2290 -4.6098 1.5476 14.3427
#
#
#
# Elastic Compliance Matrix: (Units=1/GPa)
#
#
# Indices 1 2 3 4 5 6 
#
# 1 0.022932 -0.000625 -0.008173 -0.035771 0.009351 0.007629
# 2 -0.000625 0.023118 -0.000071 -0.008352 0.003488 0.019946
# 3 -0.008173 -0.000071 0.018272 0.009294 0.002738 -0.002398
# 4 -0.035771 -0.008352 0.009294 0.195312 -0.024145 0.023907
# 5 0.009351 0.003488 0.002738 -0.024145 0.046850 0.000162
# 6 0.007629 0.019946 -0.002398 0.023907 0.000162 0.104726
#
#
# Mechanical properties :
#
#
# Convention : Reuss Voigt Hill
#
# Bulk Modulus (GPa) = 21.46698 37.95162 29.70930
# Shear Modulus (GPa) = 11.24919 20.42777 15.83848
#
# Velocity S-wave (km/s) = 2.45020 3.30180 2.90735
# Velocity P-wave (km/s) = 4.41147 5.89829 5.20821
#
# Compressibility (1/GPa) = 0.04658318
#
# Stress axis : x y z
#
# Youngs Moduli (GPa) = 43.60644 43.25625 54.72941
#
# Poissons Ratio (x) = 0.02704 0.44732
# Poissons Ratio (y) = 0.02726 0.00389
# Poissons Ratio (z) = 0.35641 0.00308
#
# Static dielectric constant tensor:
#      x y z
#    x 1.707480 0.011350 0.003760 
#    y 0.011350 1.704740 -0.022590 
#    z 0.003760 -0.022590 1.615470 
# 
# From -- ./inp_files/623443.got.cif
#   From: 2010.05.17/outbox.cif.g08.bks.cpg/sg2_312_cif.got.tgz:623443.got - 2010.06.03 11:33:40.
