data_PCOD9072518
_publ_section_title
;
Structure prediction by ZEFSAII (Michael W. Deem and Ramdas Pophale) SiO2 
 PCOD9072518
Probable space group: P -1
;
_chemical_formula_sum "Si O2"
_cell_formula_units_Z 14
_cell_length_a 9.000000
_cell_length_b 9.000000
_cell_length_c 15.000000
_cell_angle_alpha 120.000000
_cell_angle_beta 130.000000
_cell_angle_gamma 90.000000
_cell_volume 705.144057
_symmetry_space_group_name_H-M "P -1"
_symmetry_group_IT_number 2
_symmetry_cell_setting 'triclinic'
loop_
_space_group_symop_operation_xyz
x,y,z
-x,-y,-z
loop_
_atom_site_type_symbol
_atom_site_label
_atom_site_fract_x
_atom_site_fract_y
_atom_site_fract_z
Si Si1 0.068021 0.719166 0.657042
Si Si2 0.792891 0.759177 0.413316
Si Si3 0.248281 0.551624 0.401199
Si Si4 0.027976 0.807779 0.341721
Si Si5 0.900295 0.897821 0.132346
Si Si6 0.489750 0.661271 0.787237
Si Si7 0.287696 0.196618 0.263441
O O1 0.270954 0.677303 0.727271
O O2 0.000400 0.759903 0.545872
O O3 0.858540 0.539683 0.570742
O O4 0.120179 0.913511 0.788819
O O5 0.587466 0.569428 0.318577
O O6 0.829928 0.743431 0.318277
O O7 0.804341 0.965338 0.499418
O O8 0.130937 0.666353 0.351492
O O9 0.206727 0.359238 0.273416
O O10 0.508537 0.701938 0.557916
O O11 0.960990 0.814928 0.217289
O O12 0.669333 0.742491 0.957613
O O13 0.098512 0.990889 0.164397
O O14 0.605730 0.797599 0.788063
#
# Coordination Sequence:
#
# PCOD9072518 Si02
#       7
#     2   2   2   2   2   2   2
#     4  10  19  38  63  88 104 148 202 239 272 322
#     4  10  20  35  62  89 110 142 198 242 275 324
#     4  10  19  38  63  84 110 148 196 239 276 326
#     4  10  21  38  57  86 118 148 185 236 287 337
#     4  10  24  38  55  86 124 151 180 225 298 348
#     4  12  20  37  63  85 115 149 191 239 276 334
#     4  10  22  37  61  87 110 149 196 236 274 334
#
# _framework density 19.854099000000001
#
# number of rings (size 3 to 8) (size 9 to 14) (size 15 to 20)
#    0.000    1.714    2.857    2.143    2.000    1.143 
#    0.000    0.714    3.143    0.000    0.000    0.000 
#    0.000    0.000    0.000    0.000    0.000    0.000 
#
# Total GULP energy -78092.833368 kJ/mol
# GULP energy per Si atom -5578.059526 kJ/mol
# Density = 1.980891 g / cm^3
# Si number density = 19.854099 Si / 1000 Ang^3
#
#
#
# Elastic Constant Matrix: (Units=GPa)
#
#
# Indices 1 2 3 4 5 6 
#
# 1 55.4637 24.4285 11.3704 -0.5106 10.4533 9.6102
# 2 24.4285 88.2094 26.6118 -6.4957 7.7886 5.5356
# 3 11.3704 26.6118 60.2453 0.5119 6.3931 3.1510
# 4 -0.5106 -6.4957 0.5119 1.5378 2.0852 4.5991
# 5 10.4533 7.7886 6.3931 2.0852 6.8518 1.2275
# 6 9.6102 5.5356 3.1510 4.5991 1.2275 27.3649
#
#
#
# Elastic Compliance Matrix: (Units=1/GPa)
#
#
# Indices 1 2 3 4 5 6 
#
# 1 0.020363 -0.012797 0.001578 -0.078437 0.004403 0.008241
# 2 -0.012797 0.005157 -0.004356 -0.086475 0.041062 0.016645
# 3 0.001578 -0.004356 0.020175 0.006220 -0.017772 -0.002244
# 4 -0.078437 -0.086475 0.006220 -0.797092 0.426229 0.159169
# 5 0.004403 0.041062 -0.017772 0.426229 -0.006401 -0.079154
# 6 0.008241 0.016645 -0.002244 0.159169 -0.079154 0.007340
#
#
# Mechanical properties :
#
#
# Convention : Reuss Voigt Hill
#
# Bulk Modulus (GPa) = 68.75335 36.52666 52.64000
# Shear Modulus (GPa) = -6.99829 16.58474 4.79322
#
# Velocity S-wave (km/s) = -1.87950 2.89334 1.55546
# Velocity P-wave (km/s) = 5.47672 5.44053 5.45866
#
# Compressibility (1/GPa) = 0.01454475
#
# Stress axis : x y z
#
# Youngs Moduli (GPa) = 49.10884 193.92774 49.56524
#
# Poissons Ratio (x) = 2.48176 -0.07821
# Poissons Ratio (y) = 0.62846 0.21589
# Poissons Ratio (z) = -0.07749 0.84468
#
# Static dielectric constant tensor:
#      x y z
#    x 1.752240 0.014660 -0.034780 
#    y 0.014660 1.659200 0.005940 
#    z -0.034780 0.005940 1.722010 
# 
# From -- ./inp_files/153716.got.cif
#   From: 2010.05.17/outbox.ucp.g08.bks.cvg/sg2_77_cif.got.tgz:153716.got - 2010.06.11 11:32:03.
