data_PCOD9072542
_publ_section_title
;
Structure prediction by ZEFSAII (Michael W. Deem and Ramdas Pophale) SiO2 
 PCOD9072542
Probable space group: P -1
;
_chemical_formula_sum "Si O2"
_cell_formula_units_Z 16
_cell_length_a 12.000000
_cell_length_b 9.000000
_cell_length_c 27.000000
_cell_angle_alpha 150.000000
_cell_angle_beta 30.000000
_cell_angle_gamma 140.000000
_cell_volume 727.497153
_symmetry_space_group_name_H-M "P -1"
_symmetry_group_IT_number 2
_symmetry_cell_setting 'triclinic'
loop_
_space_group_symop_operation_xyz
x,y,z
-x,-y,-z
loop_
_atom_site_type_symbol
_atom_site_label
_atom_site_fract_x
_atom_site_fract_y
_atom_site_fract_z
Si Si1 0.632637 0.731920 0.390845
Si Si2 0.000727 0.865284 0.781654
Si Si3 0.647631 0.259222 0.981305
Si Si4 0.139901 0.682449 0.179182
Si Si5 0.763524 0.911638 0.977413
Si Si6 0.342662 0.697205 0.261497
Si Si7 0.463645 0.096718 0.232995
Si Si8 0.519383 0.839689 0.573262
O O1 0.498210 0.426617 0.337598
O O2 0.655675 0.807718 0.461721
O O3 0.886644 0.715966 0.272598
O O4 0.500000 0.000000 0.500000
O O5 0.976009 0.994338 0.884765
O O6 0.885276 0.523091 0.720827
O O7 0.261214 0.904440 0.680024
O O8 0.842223 0.059477 0.865745
O O9 0.746776 0.439652 0.948722
O O10 0.437287 0.084217 0.984292
O O11 0.539269 0.467613 0.122846
O O12 0.189060 0.426916 0.125229
O O13 0.262491 0.987551 0.241173
O O14 0.679896 0.056665 0.102056
O O15 0.408198 0.889719 0.242671
O O16 0.363777 0.924427 0.365131
O O17 0.500000 0.500000 0.500000
#
# Coordination Sequence:
#
# PCOD9072542 Si02
#       8
#     2   2   2   2   2   2   2   2
#     4  12  29  45  61  93 130 168 222 264 297 365
#     4  11  24  40  66  98 132 162 200 268 326 362
#     4  10  20  40  67 102 131 152 202 267 328 384
#     4  11  21  42  71  93 126 165 207 259 321 378
#     4  10  19  38  69 101 122 157 208 257 318 395
#     4  11  22  41  69  94 126 166 206 261 321 375
#     4  11  22  41  70  94 125 163 211 262 317 375
#     4  12  27  44  62  92 128 173 228 252 290 384
#
# _framework density 21.993213000000001
#
# number of rings (size 3 to 8) (size 9 to 14) (size 15 to 20)
#    0.000    1.000    5.000    3.750    0.000    7.000 
#    0.000    0.000    0.000    0.000    0.000    0.000 
#    0.000    0.000    0.000    0.000    0.000    0.000 
#
# Total GULP energy -89127.401110 kJ/mol
# GULP energy per Si atom -5570.462569 kJ/mol
# Density = 2.194316 g / cm^3
# Si number density = 21.993213 Si / 1000 Ang^3
#
#
#
# Elastic Constant Matrix: (Units=GPa)
#
#
# Indices 1 2 3 4 5 6 
#
# 1 40.2761 2.9732 -2.6051 23.8999 10.0960 5.4491
# 2 2.9732 39.2047 -3.5610 13.4644 -3.3727 6.7940
# 3 -2.6051 -3.5610 30.3099 15.4454 4.8862 0.7760
# 4 23.8999 13.4644 15.4454 37.8285 5.9836 -1.3875
# 5 10.0960 -3.3727 4.8862 5.9836 46.6108 -3.7946
# 6 5.4491 6.7940 0.7760 -1.3875 -3.7946 22.0776
#
#
#
# Elastic Compliance Matrix: (Units=1/GPa)
#
#
# Indices 1 2 3 4 5 6 
#
# 1 0.103507 0.044574 0.074762 -0.110997 -0.016999 -0.051790
# 2 0.044574 0.054925 0.046099 -0.067055 -0.004718 -0.034549
# 3 0.074762 0.046099 0.101489 -0.104561 -0.013749 -0.045141
# 4 -0.110997 -0.067055 -0.104561 0.163200 0.014447 0.064446
# 5 -0.016999 -0.004718 -0.013749 0.014447 0.025309 0.011389
# 6 -0.051790 -0.034549 -0.045141 0.064446 0.011389 0.076304
#
#
# Mechanical properties :
#
#
# Convention : Reuss Voigt Hill
#
# Bulk Modulus (GPa) = 1.69265 11.48944 6.59105
# Shear Modulus (GPa) = 12.79445 28.83563 20.81504
#
# Velocity S-wave (km/s) = 2.41456 3.62486 3.07975
# Velocity P-wave (km/s) = 2.92314 4.77021 3.95599
#
# Compressibility (1/GPa) = 0.59079077
#
# Stress axis : x y z
#
# Youngs Moduli (GPa) = 9.66115 18.20681 9.85328
#
# Poissons Ratio (x) = -0.81156 -0.73665
# Poissons Ratio (y) = -0.43064 -0.45423
# Poissons Ratio (z) = -0.72228 -0.83932
#
# Static dielectric constant tensor:
#      x y z
#    x 1.795450 -0.045030 0.002890 
#    y -0.045030 1.850370 -0.024920 
#    z 0.002890 -0.024920 1.786480 
# 
# From -- ./inp_files/308829.got.cif
#   From: 2010.05.17/outbox.ucp.g08.bks.cvg/sg2_155_cif.got.tgz:308829.got - 2010.06.11 11:32:03.
