data_PCOD9072434
_publ_section_title
;
Structure prediction by ZEFSAII (Michael W. Deem and Ramdas Pophale) SiO2 
 PCOD9072434
Probable space group: P -1
;
_chemical_formula_sum "Si O2"
_cell_formula_units_Z 12
_cell_length_a 14.503223
_cell_length_b 11.143946
_cell_length_c 8.670818
_cell_angle_alpha 58.049344
_cell_angle_beta 108.163004
_cell_angle_gamma 153.089229
_cell_volume 489.150026
_symmetry_space_group_name_H-M "P -1"
_symmetry_group_IT_number 2
_symmetry_cell_setting 'triclinic'
loop_
_space_group_symop_operation_xyz
x,y,z
-x,-y,-z
loop_
_atom_site_type_symbol
_atom_site_label
_atom_site_fract_x
_atom_site_fract_y
_atom_site_fract_z
Si Si1 0.462657 0.883093 0.228631
Si Si2 0.949016 0.180975 0.440838
Si Si3 0.358172 0.190256 0.715410
Si Si4 0.331705 0.152216 0.091211
Si Si5 0.052786 0.179393 0.772515
Si Si6 0.576893 0.910421 0.556705
O O1 0.529413 0.808633 0.276355
O O2 0.590663 0.063318 0.342073
O O3 0.199583 0.562332 0.338150
O O4 0.500000 0.000000 0.000000
O O5 0.945254 0.032616 0.643332
O O6 0.889360 0.104389 0.282197
O O7 0.758509 0.035817 0.503742
O O8 0.500000 0.500000 0.500000
O O9 0.353267 0.183733 0.899399
O O10 0.391530 0.081344 0.249982
O O11 0.500000 0.500000 0.000000
O O12 0.075610 0.851477 0.208694
O O13 0.317994 0.528024 0.658129
O O14 0.000000 0.000000 0.000000
#
# Coordination Sequence:
#
# PCOD9072434 Si02
#       6
#     2   2   2   2   2   2
#     4  10  22  43  67  89 118 164 210 254 307 367
#     4   9  21  38  58  90 122 158 206 256 301 366
#     4  11  24  37  59  95 130 157 202 256 311 363
#     4  11  20  35  55  84 124 167 197 245 306 366
#     4  10  18  30  57  81 116 164 202 237 299 364
#     4   9  19  35  57  85 114 157 204 243 297 362
#
# _framework density 24.532349
#
# number of rings (size 3 to 8) (size 9 to 14) (size 15 to 20)
#    0.000    2.000    1.667    3.000    2.333    4.667 
#    0.000    0.833    0.000   10.000    0.000    0.000 
#    0.000    0.000    0.000    0.000    0.000    0.000 
#
# Total GULP energy -66812.662496 kJ/mol
# GULP energy per Si atom -5567.721875 kJ/mol
# Density = 2.447651 g / cm^3
# Si number density = 24.532349 Si / 1000 Ang^3
#
#
#
# Elastic Constant Matrix: (Units=GPa)
#
#
# Indices 1 2 3 4 5 6 
#
# 1 78.8982 45.5093 41.6240 15.2558 17.8221 29.7612
# 2 45.5093 153.8017 74.7098 45.7584 -1.3736 38.2098
# 3 41.6240 74.7098 207.4962 71.6495 4.4743 22.2322
# 4 15.2558 45.7584 71.6495 65.0177 15.0432 -2.4070
# 5 17.8221 -1.3736 4.4743 15.0432 47.2135 10.0708
# 6 29.7612 38.2098 22.2322 -2.4070 10.0708 43.2136
#
#
#
# Elastic Compliance Matrix: (Units=1/GPa)
#
#
# Indices 1 2 3 4 5 6 
#
# 1 0.019944 -0.003068 -0.002186 0.000941 -0.005904 -0.008470
# 2 -0.003068 0.014274 0.001430 -0.013436 0.008710 -0.014022
# 3 -0.002186 0.001430 0.009752 -0.012751 0.005446 -0.006756
# 4 0.000941 -0.013436 -0.012751 0.043925 -0.018784 0.024616
# 5 -0.005904 0.008710 0.005446 -0.018784 0.032335 -0.015019
# 6 -0.008470 -0.014022 -0.006756 0.024616 -0.015019 0.049719
#
#
# Mechanical properties :
#
#
# Convention : Reuss Voigt Hill
#
# Bulk Modulus (GPa) = 27.53157 84.87578 56.20367
# Shear Modulus (GPa) = 26.35683 49.64584 38.00133
#
# Velocity S-wave (km/s) = 3.28131 4.50342 3.94004
# Velocity P-wave (km/s) = 5.05994 7.85581 6.60744
#
# Compressibility (1/GPa) = 0.03632194
#
# Stress axis : x y z
#
# Youngs Moduli (GPa) = 50.14018 70.05865 102.53957
#
# Poissons Ratio (x) = 0.21494 0.22420
# Poissons Ratio (y) = 0.15383 -0.14666
# Poissons Ratio (z) = 0.10963 -0.10021
#
# Static dielectric constant tensor:
#      x y z
#    x 2.116890 -0.135600 -0.072140 
#    y -0.135600 2.094970 0.099710 
#    z -0.072140 0.099710 2.115850 
# 
# From -- ./inp_files/26853.got.cif
#   From: 2010.05.17/outbox.cif.g08.bks.cpg/sg2_14_cif.got.tgz:26853.got - 2010.06.03 11:33:40.
