data_PCOD9072600
_publ_section_title
;
Structure prediction by ZEFSAII (Michael W. Deem and Ramdas Pophale) SiO2 
 PCOD9072600
Probable space group: P -1
;
_chemical_formula_sum "Si O2"
_cell_formula_units_Z 16
_cell_length_a 12.000000
_cell_length_b 12.000000
_cell_length_c 12.000000
_cell_angle_alpha 140.000000
_cell_angle_beta 100.000000
_cell_angle_gamma 110.000000
_cell_volume 722.981415
_symmetry_space_group_name_H-M "P -1"
_symmetry_group_IT_number 2
_symmetry_cell_setting 'triclinic'
loop_
_space_group_symop_operation_xyz
x,y,z
-x,-y,-z
loop_
_atom_site_type_symbol
_atom_site_label
_atom_site_fract_x
_atom_site_fract_y
_atom_site_fract_z
Si Si1 0.851590 0.480493 0.149495
Si Si2 0.682001 0.783694 0.223189
Si Si3 0.811892 0.813049 0.503871
Si Si4 0.582110 0.456880 0.396711
Si Si5 0.244249 0.854460 0.926113
Si Si6 0.779342 0.267036 0.571045
Si Si7 0.118613 0.437811 0.407289
Si Si8 0.171392 0.374398 0.987469
O O1 0.856013 0.664866 0.362927
O O2 0.742162 0.211429 0.995975
O O3 0.813429 0.506986 0.038336
O O4 0.035482 0.599632 0.262085
O O5 0.778064 0.870025 0.423767
O O6 0.759858 0.740996 0.113044
O O7 0.664041 0.963793 0.326215
O O8 0.500000 0.500000 0.000000
O O9 0.651926 0.615288 0.411399
O O10 0.980499 0.112536 0.802135
O O11 0.500000 0.500000 0.500000
O O12 0.761252 0.591055 0.580936
O O13 0.425952 0.133307 0.122279
O O14 0.161997 0.598856 0.648189
O O15 0.085007 0.808375 0.845288
O O16 0.799696 0.355150 0.517807
O O17 0.738594 0.388479 0.731037
#
# Coordination Sequence:
#
# PCOD9072600 Si02
#       8
#     2   2   2   2   2   2   2   2
#     4  10  19  41  72  97 130 179 235 288 347 420
#     4  11  25  42  66 105 140 182 227 287 361 414
#     4  11  23  44  68  99 136 182 236 285 354 423
#     4  12  28  44  67 106 145 183 236 297 352 424
#     4  10  23  44  71  99 132 188 238 287 349 422
#     4  11  23  41  71 101 139 179 232 290 350 418
#     4  10  24  45  69 101 128 190 236 280 360 416
#     4  11  23  42  71 103 134 182 234 289 345 426
#
# _framework density 22.130583000000001
#
# number of rings (size 3 to 8) (size 9 to 14) (size 15 to 20)
#    0.000    1.250    3.750    1.500    5.250    3.000 
#    0.000    0.000    0.000    0.000    0.000    0.000 
#    0.000    0.000    0.000    0.000    0.000    0.000 
#
# Total GULP energy -89247.922305 kJ/mol
# GULP energy per Si atom -5577.995144 kJ/mol
# Density = 2.208021 g / cm^3
# Si number density = 22.130583 Si / 1000 Ang^3
#
#
#
# Elastic Constant Matrix: (Units=GPa)
#
#
# Indices 1 2 3 4 5 6 
#
# 1 79.7617 6.2651 7.8110 -1.8076 -3.8735 11.7013
# 2 6.2651 107.5316 19.2991 9.8415 -10.5061 11.0582
# 3 7.8110 19.2991 51.1757 19.0429 -8.4134 7.7984
# 4 -1.8076 9.8415 19.0429 15.6519 -1.8365 12.1564
# 5 -3.8735 -10.5061 -8.4134 -1.8365 24.4263 1.9958
# 6 11.7013 11.0582 7.7984 12.1564 1.9958 35.0484
#
#
#
# Elastic Compliance Matrix: (Units=1/GPa)
#
#
# Indices 1 2 3 4 5 6 
#
# 1 0.015303 -0.000038 -0.007538 0.019100 0.002080 -0.010163
# 2 -0.000038 0.010488 -0.002543 -0.001064 0.003759 -0.002576
# 3 -0.007538 -0.002543 0.044435 -0.064488 0.006909 0.015406
# 4 0.019100 -0.001064 -0.064488 0.189790 -0.000675 -0.057482
# 5 0.002080 0.003759 0.006909 -0.000675 0.045688 -0.005786
# 6 -0.010163 -0.002576 0.015406 -0.057482 -0.005786 0.049577
#
#
# Mechanical properties :
#
#
# Convention : Reuss Voigt Hill
#
# Bulk Modulus (GPa) = 20.00496 33.91327 26.95911
# Shear Modulus (GPa) = 12.74920 28.69823 20.72371
#
# Velocity S-wave (km/s) = 2.40279 3.60497 3.06343
# Velocity P-wave (km/s) = 4.09353 5.71710 4.97203
#
# Compressibility (1/GPa) = 0.04998759
#
# Stress axis : x y z
#
# Youngs Moduli (GPa) = 65.34518 95.34965 22.50490
#
# Poissons Ratio (x) = 0.00367 0.16964
# Poissons Ratio (y) = 0.00251 0.05723
# Poissons Ratio (z) = 0.49256 0.24246
#
# Static dielectric constant tensor:
#      x y z
#    x 1.993950 -0.164360 0.344830 
#    y -0.164360 2.166300 -0.716290 
#    z 0.344830 -0.716290 3.288970 
# 
# From -- ./inp_files/429084.got.cif
#   From: 2010.05.17/outbox.ucp.g08.bks.cvg/sg2_215_cif.got.tgz:429084.got - 2010.06.11 11:32:03.
