data_PCOD9072452
_publ_section_title
;
Structure prediction by ZEFSAII (Michael W. Deem and Ramdas Pophale) SiO2 
 PCOD9072452
Probable space group: P -1
;
_chemical_formula_sum "Si O2"
_cell_formula_units_Z 16
_cell_length_a 9.000000
_cell_length_b 15.000000
_cell_length_c 12.000000
_cell_angle_alpha 100.000000
_cell_angle_beta 90.000000
_cell_angle_gamma 150.000000
_cell_volume 759.581896
_symmetry_space_group_name_H-M "P -1"
_symmetry_group_IT_number 2
_symmetry_cell_setting 'triclinic'
loop_
_space_group_symop_operation_xyz
x,y,z
-x,-y,-z
loop_
_atom_site_type_symbol
_atom_site_label
_atom_site_fract_x
_atom_site_fract_y
_atom_site_fract_z
Si Si1 0.200435 0.173953 0.798516
Si Si2 0.197889 0.975165 0.049786
Si Si3 0.121316 0.943389 0.671165
Si Si4 0.096600 0.863411 0.401282
Si Si5 0.197940 0.691842 0.010433
Si Si6 0.568241 0.040546 0.772075
Si Si7 0.520174 0.546119 0.635755
Si Si8 0.219216 0.401841 0.138479
O O1 0.473094 0.391251 0.874758
O O2 0.977489 0.046938 0.877920
O O3 0.029226 0.127664 0.682129
O O4 0.302784 0.130545 0.747036
O O5 0.381398 0.010502 0.148051
O O6 0.934969 0.771886 0.947302
O O7 0.453326 0.142255 0.996594
O O8 0.148767 0.935421 0.537945
O O9 0.758978 0.757286 0.668694
O O10 0.253581 0.928141 0.734295
O O11 0.369025 0.964204 0.351758
O O12 0.837207 0.644630 0.366681
O O13 0.202146 0.760638 0.132380
O O14 0.000000 0.500000 0.000000
O O15 0.035042 0.658575 0.902195
O O16 0.500000 0.500000 0.500000
O O17 0.670184 0.556847 0.726792
#
# Coordination Sequence:
#
# PCOD9072452 Si02
#       8
#     2   2   2   2   2   2   2   2
#     4  10  21  35  56  85 113 145 186 234 282 326
#     4  10  21  38  57  80 113 152 185 223 280 344
#     4  11  19  34  56  83 111 142 185 238 277 318
#     4   9  20  36  55  78 110 150 188 224 276 338
#     4  11  22  36  56  85 115 145 187 237 280 327
#     4  10  20  36  56  79 108 149 189 224 275 337
#     4   9  19  34  55  80 108 145 187 224 271 333
#     4  10  19  37  58  80 113 152 186 226 278 339
#
# _framework density 21.064219999999999
#
# number of rings (size 3 to 8) (size 9 to 14) (size 15 to 20)
#    0.000    2.000    0.000    4.875    0.000    2.000 
#    0.000    4.375    0.000    0.000    0.000   25.375 
#    0.000    0.000    0.000    0.000    0.000    0.000 
#
# Total GULP energy -89096.858653 kJ/mol
# GULP energy per Si atom -5568.553666 kJ/mol
# Density = 2.101628 g / cm^3
# Si number density = 21.064220 Si / 1000 Ang^3
#
#
#
# Elastic Constant Matrix: (Units=GPa)
#
#
# Indices 1 2 3 4 5 6 
#
# 1 52.4378 21.1938 26.2866 0.0136 -13.4660 9.1853
# 2 21.1938 89.5828 38.2074 -1.1487 -30.5945 -3.6484
# 3 26.2866 38.2074 110.0149 -6.8011 -8.9869 6.7871
# 4 0.0136 -1.1487 -6.8011 24.0305 1.9690 -2.6526
# 5 -13.4660 -30.5945 -8.9869 1.9690 24.4240 6.3528
# 6 9.1853 -3.6484 6.7871 -2.6526 6.3528 10.7742
#
#
#
# Elastic Compliance Matrix: (Units=1/GPa)
#
#
# Indices 1 2 3 4 5 6 
#
# 1 0.040551 0.004256 -0.004904 -0.010948 0.041672 -0.057307
# 2 0.004256 0.023470 -0.005962 -0.004689 0.033225 -0.012670
# 3 -0.004904 -0.005962 0.012169 0.003476 -0.005629 -0.001328
# 4 -0.010948 -0.004689 0.003476 0.047578 -0.022392 0.030472
# 5 0.041672 0.033225 -0.005629 -0.022392 0.132404 -0.104313
# 6 -0.057307 -0.012670 -0.001328 0.030472 -0.104313 0.207225
#
#
# Mechanical properties :
#
#
# Convention : Reuss Voigt Hill
#
# Bulk Modulus (GPa) = 15.88082 47.04568 31.46325
# Shear Modulus (GPa) = 10.04806 22.93558 16.49182
#
# Velocity S-wave (km/s) = 2.18645 3.30334 2.80112
# Velocity P-wave (km/s) = 3.73225 6.07719 5.04291
#
# Compressibility (1/GPa) = 0.06296902
#
# Stress axis : x y z
#
# Youngs Moduli (GPa) = 24.66018 42.60781 82.17561
#
# Poissons Ratio (x) = -0.18132 0.40302
# Poissons Ratio (y) = -0.10495 0.48992
# Poissons Ratio (z) = 0.12094 0.25402
#
# Static dielectric constant tensor:
#      x y z
#    x 1.770310 0.040960 0.034970 
#    y 0.040960 1.816810 0.017210 
#    z 0.034970 0.017210 1.741630 
# 
# From -- ./inp_files/245002.got.cif
#   From: 2010.05.17/outbox.ucp.g08.bks.cvg/sg2_123_cif.got.tgz:245002.got - 2010.06.11 11:32:03.
