data_PCOD9072355
_publ_section_title
;
Structure prediction by ZEFSAII (Michael W. Deem and Ramdas Pophale) SiO2 
 PCOD9072355
Probable space group: P -1
;
_chemical_formula_sum "Si O2"
_cell_formula_units_Z 16
_cell_length_a 15.000000
_cell_length_b 9.000000
_cell_length_c 15.000000
_cell_angle_alpha 70.000000
_cell_angle_beta 140.000000
_cell_angle_gamma 80.000000
_cell_volume 847.243846
_symmetry_space_group_name_H-M "P -1"
_symmetry_group_IT_number 2
_symmetry_cell_setting 'triclinic'
loop_
_space_group_symop_operation_xyz
x,y,z
-x,-y,-z
loop_
_atom_site_type_symbol
_atom_site_label
_atom_site_fract_x
_atom_site_fract_y
_atom_site_fract_z
Si Si1 0.980740 0.082148 0.610591
Si Si2 0.766275 0.575531 0.357086
Si Si3 0.988492 0.259582 0.210032
Si Si4 0.774903 0.623154 0.824658
Si Si5 0.339130 0.781696 0.807379
Si Si6 0.510050 0.993771 0.840833
Si Si7 0.109204 0.480584 0.733640
Si Si8 0.598445 0.893218 0.468064
O O1 0.872036 0.325906 0.516248
O O2 0.817063 0.145082 0.403303
O O3 0.012712 0.925970 0.742283
O O4 0.190742 0.931766 0.748247
O O5 0.554233 0.818128 0.176443
O O6 0.779237 0.553400 0.264296
O O7 0.904624 0.592460 0.508514
O O8 0.930083 0.375604 0.240811
O O9 0.210759 0.142171 0.379530
O O10 0.828781 0.445052 0.975130
O O11 0.672699 0.693589 0.633568
O O12 0.609299 0.867693 0.699067
O O13 0.000000 0.500000 0.000000
O O14 0.428507 0.880439 0.824388
O O15 0.500000 0.500000 0.000000
O O16 0.438340 0.106330 0.664753
O O17 0.748916 0.774982 0.069895
#
# Coordination Sequence:
#
# PCOD9072355 Si02
#       8
#     2   2   2   2   2   2   2   2
#     4  11  22  35  52  81 116 154 187 227 278 326
#     4  11  23  36  50  78 122 158 194 221 261 333
#     4  11  19  36  59  85 113 144 185 236 284 326
#     4   9  20  35  59  89 109 131 177 246 296 333
#     4  11  22  35  55  80 111 152 196 236 273 319
#     4  12  21  37  58  81 114 155 193 229 274 328
#     4  11  21  35  55  78 112 158 193 230 269 317
#     4  10  19  35  59  89 108 135 184 239 289 333
#
# _framework density 18.884764000000001
#
# number of rings (size 3 to 8) (size 9 to 14) (size 15 to 20)
#    0.000    1.250    3.750    4.875    0.000    1.000 
#    0.000    0.000    0.000    0.750    0.000    5.250 
#    0.000    0.000    0.000    0.000    0.000    0.000 
#
# Total GULP energy -89086.894895 kJ/mol
# GULP energy per Si atom -5567.930931 kJ/mol
# Density = 1.884178 g / cm^3
# Si number density = 18.884764 Si / 1000 Ang^3
#
#
#
# Elastic Constant Matrix: (Units=GPa)
#
#
# Indices 1 2 3 4 5 6 
#
# 1 75.5024 29.4912 27.4023 -3.3163 -25.7081 -17.2750
# 2 29.4912 77.2897 17.7901 -28.3891 -8.8191 -6.2035
# 3 27.4023 17.7901 115.1931 -19.0978 -23.7040 -0.8404
# 4 -3.3163 -28.3891 -19.0978 36.0825 -2.6631 4.7781
# 5 -25.7081 -8.8191 -23.7040 -2.6631 47.4458 -14.2114
# 6 -17.2750 -6.2035 -0.8404 4.7781 -14.2114 12.0423
#
#
#
# Elastic Compliance Matrix: (Units=1/GPa)
#
#
# Indices 1 2 3 4 5 6 
#
# 1 -0.047497 0.001499 -0.003704 0.010511 -0.074587 -0.159815
# 2 0.001499 0.021020 0.001902 0.015671 0.013323 0.022617
# 3 -0.003704 0.001902 0.011311 0.007704 0.003793 -0.002126
# 4 0.010511 0.015671 0.007704 0.042000 0.026169 0.037907
# 5 -0.074587 0.013323 0.003793 0.026169 -0.071957 -0.195170
# 6 -0.159815 0.022617 -0.002126 0.037907 -0.195170 -0.380081
#
#
# Mechanical properties :
#
#
# Convention : Reuss Voigt Hill
#
# Bulk Modulus (GPa) = -63.39823 46.37246 -8.51289
# Shear Modulus (GPa) = -11.63185 32.00091 10.18453
#
# Velocity S-wave (km/s) = -2.48450 4.12094 2.32480
# Velocity P-wave (km/s) = 6.47104 6.87398 1.63972
#
# Compressibility (1/GPa) = -0.01577331
#
# Stress axis : x y z
#
# Youngs Moduli (GPa) = -21.05396 47.57279 88.41129
#
# Poissons Ratio (x) = -0.07130 0.32752
# Poissons Ratio (y) = 0.03155 -0.16815
# Poissons Ratio (z) = -0.07799 -0.09048
#
# Static dielectric constant tensor:
#      x y z
#    x 1.702620 0.013980 0.009100 
#    y 0.013980 1.652370 -0.017650 
#    z 0.009100 -0.017650 1.740850 
# 
# From -- ./inp_files/315478.got.cif
#   From: 2010.05.17/outbox.ucp.g08.bks.cvg/sg2_158_cif.got.tgz:315478.got - 2010.06.11 11:32:03.
