data_PCOD9072814
_publ_section_title
;
Structure prediction by ZEFSAII (Michael W. Deem and Ramdas Pophale) SiO2 
 PCOD9072814
Probable space group: P -1
;
_chemical_formula_sum "Si O2"
_cell_formula_units_Z 16
_cell_length_a 24.000000
_cell_length_b 18.000000
_cell_length_c 12.000000
_cell_angle_alpha 160.000000
_cell_angle_beta 150.000000
_cell_angle_gamma 30.000000
_cell_volume 844.160077
_symmetry_space_group_name_H-M "P -1"
_symmetry_group_IT_number 2
_symmetry_cell_setting 'triclinic'
loop_
_space_group_symop_operation_xyz
x,y,z
-x,-y,-z
loop_
_atom_site_type_symbol
_atom_site_label
_atom_site_fract_x
_atom_site_fract_y
_atom_site_fract_z
Si Si1 0.718433 0.751953 0.741959
Si Si2 0.742245 0.280290 0.256516
Si Si3 0.027320 0.413675 0.106503
Si Si4 0.382450 0.997507 0.726703
Si Si5 0.248841 0.850530 0.480446
Si Si6 0.994754 0.146637 0.448888
Si Si7 0.535397 0.227334 0.690672
Si Si8 0.771285 0.471947 0.818553
O O1 0.732859 0.520818 0.514626
O O2 0.833321 0.696358 0.781995
O O3 0.587556 0.819070 0.559496
O O4 0.725539 0.951002 0.119286
O O5 0.743657 0.341994 0.476931
O O6 0.868632 0.113502 0.201831
O O7 0.638807 0.184101 0.900292
O O8 0.010622 0.672331 0.403421
O O9 0.012423 0.274258 0.773395
O O10 0.913752 0.419351 0.991687
O O11 0.320409 0.851882 0.492485
O O12 0.417431 0.890670 0.513308
O O13 0.295633 0.258003 0.932127
O O14 0.500000 0.000000 0.000000
O O15 0.270870 0.630350 0.287981
O O16 0.109792 0.935882 0.335023
O O17 0.500000 0.500000 0.000000
#
# Coordination Sequence:
#
# PCOD9072814 Si02
#       8
#     2   2   2   2   2   2   2   2
#     4   9  16  33  57  84 116 151 195 236 279 334
#     4   9  17  34  58  87 119 155 192 231 288 348
#     4   8  14  28  54  84 115 144 187 242 281 323
#     4  12  22  40  62  84 119 150 190 247 284 338
#     4  11  20  34  60  92 116 148 196 238 290 337
#     4   8  14  28  53  83 118 147 190 236 281 336
#     4  10  20  37  63  83 112 159 196 230 291 349
#     4  11  21  35  62  93 115 148 190 242 292 336
#
# _framework density 18.953751
#
# number of rings (size 3 to 8) (size 9 to 14) (size 15 to 20)
#    0.000    2.250    3.750    2.250    0.000    5.000 
#    0.000    1.250    5.500    0.750    0.000    0.000 
#    0.000    0.000    0.000    0.000    0.000    0.000 
#
# Total GULP energy -89190.578110 kJ/mol
# GULP energy per Si atom -5574.411132 kJ/mol
# Density = 1.891061 g / cm^3
# Si number density = 18.953751 Si / 1000 Ang^3
#
#
#
# Elastic Constant Matrix: (Units=GPa)
#
#
# Indices 1 2 3 4 5 6 
#
# 1 101.1961 46.6730 27.3179 -2.4918 12.9334 -11.2199
# 2 46.6730 86.9222 32.4501 -28.6880 14.6336 -24.1365
# 3 27.3179 32.4501 52.7731 -19.0670 2.0518 -11.4186
# 4 -2.4918 -28.6880 -19.0670 33.8571 -6.0737 10.9358
# 5 12.9334 14.6336 2.0518 -6.0737 28.1004 0.0627
# 6 -11.2199 -24.1365 -11.4186 10.9358 0.0627 29.7496
#
#
#
# Elastic Compliance Matrix: (Units=1/GPa)
#
#
# Indices 1 2 3 4 5 6 
#
# 1 0.016178 -0.009005 -0.006591 -0.011106 -0.004677 0.000358
# 2 -0.009005 0.027044 -0.003699 0.015305 -0.006386 0.011513
# 3 -0.006591 -0.003699 0.029571 0.013824 0.005786 0.000770
# 4 -0.011106 0.015305 0.013824 0.052717 0.007539 -0.005860
# 5 -0.004677 -0.006386 0.005786 0.007539 0.042289 -0.007585
# 6 0.000358 0.011513 0.000770 -0.005860 -0.007585 0.045555
#
#
# Mechanical properties :
#
#
# Convention : Reuss Voigt Hill
#
# Bulk Modulus (GPa) = 29.23591 50.41926 39.82759
# Shear Modulus (GPa) = 18.98652 27.30479 23.14566
#
# Velocity S-wave (km/s) = 3.16844 3.79964 3.49831
# Velocity P-wave (km/s) = 5.37064 6.77559 6.11361
#
# Compressibility (1/GPa) = 0.03420451
#
# Stress axis : x y z
#
# Youngs Moduli (GPa) = 61.81182 36.97675 33.81676
#
# Poissons Ratio (x) = 0.33298 0.22287
# Poissons Ratio (y) = 0.55662 0.12508
# Poissons Ratio (z) = 0.40738 0.13677
#
# Static dielectric constant tensor:
#      x y z
#    x 1.659130 -0.018730 0.028280 
#    y -0.018730 1.716960 -0.022840 
#    z 0.028280 -0.022840 1.648790 
# 
# From -- ./inp_files/390022.got.cif
#   From: 2010.05.17/outbox.ucp.g08.bks.cvg/sg2_196_cif.got.tgz:390022.got - 2010.06.11 11:32:03.
