data_PCOD9072954
_publ_section_title
;
Structure prediction by ZEFSAII (Michael W. Deem and Ramdas Pophale) SiO2 
 PCOD9072954
Probable space group: P -1
;
_chemical_formula_sum "Si O2"
_cell_formula_units_Z 16
_cell_length_a 12.000000
_cell_length_b 9.000000
_cell_length_c 21.000000
_cell_angle_alpha 130.000000
_cell_angle_beta 140.000000
_cell_angle_gamma 30.000000
_cell_volume 727.418465
_symmetry_space_group_name_H-M "P -1"
_symmetry_group_IT_number 2
_symmetry_cell_setting 'triclinic'
loop_
_space_group_symop_operation_xyz
x,y,z
-x,-y,-z
loop_
_atom_site_type_symbol
_atom_site_label
_atom_site_fract_x
_atom_site_fract_y
_atom_site_fract_z
Si Si1 0.180762 0.926255 0.750295
Si Si2 0.840318 0.896319 0.070980
Si Si3 0.686613 0.629881 0.355452
Si Si4 0.187400 0.722927 0.423532
Si Si5 0.737323 0.963865 0.827717
Si Si6 0.911230 0.372246 0.512508
Si Si7 0.799918 0.224646 0.034430
Si Si8 0.634146 0.788167 0.854328
O O1 0.186401 0.688332 0.691476
O O2 0.410313 0.817658 0.775178
O O3 0.240351 0.942682 0.852931
O O4 0.916990 0.229788 0.681338
O O5 0.084370 0.553920 0.104762
O O6 0.926884 0.979269 0.077755
O O7 0.624469 0.953347 0.953231
O O8 0.427184 0.877790 0.265592
O O9 0.675686 0.625256 0.427488
O O10 0.874479 0.645832 0.418058
O O11 0.500000 0.500000 0.500000
O O12 0.142438 0.603365 0.428076
O O13 0.029734 0.057436 0.462224
O O14 0.634324 0.895720 0.815464
O O15 0.759536 0.148479 0.927937
O O16 0.053243 0.691315 0.877230
O O17 0.500000 0.500000 0.000000
#
# Coordination Sequence:
#
# PCOD9072954 Si02
#       8
#     2   2   2   2   2   2   2   2
#     4  11  22  37  61  88 116 155 200 241 289 352
#     4  10  22  38  59  86 120 156 196 241 289 346
#     4  10  20  39  64  86 116 157 196 241 298 349
#     4  10  22  40  63  89 118 153 195 242 296 352
#     4  10  21  36  57  84 113 149 194 236 284 348
#     4   9  21  42  62  86 121 152 189 249 300 345
#     4  10  21  37  56  82 117 152 188 237 288 338
#     4  10  22  39  59  87 121 156 194 242 295 344
#
# _framework density 21.995591999999998
#
# number of rings (size 3 to 8) (size 9 to 14) (size 15 to 20)
#    0.000    2.000    0.000    2.625    0.000   11.000 
#    0.000   10.625    0.000    0.000    0.000    0.000 
#    0.000    0.000    0.000    0.000    0.000    0.000 
#
# Total GULP energy -89189.296902 kJ/mol
# GULP energy per Si atom -5574.331056 kJ/mol
# Density = 2.194553 g / cm^3
# Si number density = 21.995592 Si / 1000 Ang^3
#
#
#
# Elastic Constant Matrix: (Units=GPa)
#
#
# Indices 1 2 3 4 5 6 
#
# 1 142.3952 13.8669 38.8553 -10.2994 -9.1141 41.3574
# 2 13.8669 28.3967 20.8857 -20.1623 -10.5222 22.3214
# 3 38.8553 20.8857 82.8538 -23.1348 -5.4353 15.0264
# 4 -10.2994 -20.1623 -23.1348 39.1591 10.5333 -3.5327
# 5 -9.1141 -10.5222 -5.4353 10.5333 37.6365 -7.4647
# 6 41.3574 22.3214 15.0264 -3.5327 -7.4647 30.0578
#
#
#
# Elastic Compliance Matrix: (Units=1/GPa)
#
#
# Indices 1 2 3 4 5 6 
#
# 1 -0.066026 -0.329147 0.016206 -0.148638 -0.002781 0.309015
# 2 -0.329147 -1.382421 0.080300 -0.625450 -0.009107 1.363577
# 3 0.016206 0.080300 0.011855 0.045425 -0.001044 -0.082778
# 4 -0.148638 -0.625450 0.045425 -0.249995 -0.012596 0.613766
# 5 -0.002781 -0.009107 -0.001044 -0.012596 0.030118 0.017112
# 6 0.309015 1.363577 -0.082778 0.613766 0.017112 -1.286759
#
#
# Mechanical properties :
#
#
# Convention : Reuss Voigt Hill
#
# Bulk Modulus (GPa) = -0.52580 44.54015 22.00718
# Shear Modulus (GPa) = -1.60673 33.37320 15.88323
#
# Velocity S-wave (km/s) = -0.85561 3.89944 2.69013
# Velocity P-wave (km/s) = 1.10257 6.36928 4.43577
#
# Compressibility (1/GPa) = -1.90187384
#
# Stress axis : x y z
#
# Youngs Moduli (GPa) = -15.14564 -0.72337 84.35124
#
# Poissons Ratio (x) = -0.23809 -1.36700
# Poissons Ratio (y) = -4.98515 -6.77344
# Poissons Ratio (z) = 0.24545 0.05809
#
# Static dielectric constant tensor:
#      x y z
#    x 2.708320 -0.515460 0.080010 
#    y -0.515460 2.111260 -0.017490 
#    z 0.080010 -0.017490 1.874610 
# 
# From -- ./inp_files/135318.got.cif
#   From: 2010.05.17/outbox.ucp.g08.bks.cvg/sg2_68_cif.got.tgz:135318.got - 2010.06.11 11:32:03.
