data_PCOD9072112
_publ_section_title
;
Structure prediction by ZEFSAII (Michael W. Deem and Ramdas Pophale) SiO2 
 PCOD9072112
Probable space group: P -1
;
_chemical_formula_sum "Si O2"
_cell_formula_units_Z 16
_cell_length_a 12.000000
_cell_length_b 9.000000
_cell_length_c 9.000000
_cell_angle_alpha 100.000000
_cell_angle_beta 50.000000
_cell_angle_gamma 100.000000
_cell_volume 730.800219
_symmetry_space_group_name_H-M "P -1"
_symmetry_group_IT_number 2
_symmetry_cell_setting 'triclinic'
loop_
_space_group_symop_operation_xyz
x,y,z
-x,-y,-z
loop_
_atom_site_type_symbol
_atom_site_label
_atom_site_fract_x
_atom_site_fract_y
_atom_site_fract_z
Si Si1 0.588031 0.336627 0.305299
Si Si2 0.375427 0.896495 0.225529
Si Si3 0.898350 0.284407 0.452770
Si Si4 0.900859 0.864942 0.981152
Si Si5 0.282338 0.337021 0.666543
Si Si6 0.864156 0.638425 0.511548
Si Si7 0.556753 0.643698 0.885489
Si Si8 0.331629 0.949525 0.943660
O O1 0.447892 0.283377 0.518203
O O2 0.680317 0.482615 0.315883
O O3 0.505390 0.378817 0.231530
O O4 0.693999 0.212036 0.142819
O O5 0.254071 0.815101 0.418608
O O6 0.491908 0.018076 0.219106
O O7 0.482797 0.778650 0.048963
O O8 0.303058 0.950211 0.145113
O O9 0.875305 0.457889 0.464220
O O10 0.997356 0.213058 0.234811
O O11 0.985748 0.289086 0.535785
O O12 0.822230 0.739067 0.133576
O O13 0.767569 0.937169 0.027759
O O14 0.000000 0.000000 0.000000
O O15 0.193225 0.303276 0.584786
O O16 0.730367 0.663821 0.740430
O O17 0.500000 0.500000 0.000000
#
# Coordination Sequence:
#
# PCOD9072112 Si02
#       8
#     2   2   2   2   2   2   2   2
#     4   9  22  41  72  99 125 178 233 283 340 392
#     4  10  22  41  71 100 132 178 230 293 333 400
#     4  11  25  42  68 103 134 183 231 273 347 403
#     4  12  30  46  63 102 148 192 219 272 348 416
#     4  10  24  45  68 100 137 177 228 285 342 401
#     4  10  23  42  70 103 134 174 227 289 337 405
#     4  10  18  36  68 101 134 166 226 282 342 394
#     4  10  24  44  68  99 135 180 232 280 341 401
#
# _framework density 21.893808
#
# number of rings (size 3 to 8) (size 9 to 14) (size 15 to 20)
#    0.000    1.750    1.250    0.750    8.750    4.500 
#    0.000    0.000    0.000    0.000    0.000    0.000 
#    0.000    0.000    0.000    0.000    0.000    0.000 
#
# Total GULP energy -89378.019804 kJ/mol
# GULP energy per Si atom -5586.126238 kJ/mol
# Density = 2.184398 g / cm^3
# Si number density = 21.893808 Si / 1000 Ang^3
#
#
#
# Elastic Constant Matrix: (Units=GPa)
#
#
# Indices 1 2 3 4 5 6 
#
# 1 56.9179 20.6446 26.5210 6.8657 -12.3316 -2.5160
# 2 20.6446 57.8937 51.8144 -7.5669 2.0071 7.1959
# 3 26.5210 51.8144 109.0866 3.5130 -13.3221 5.8874
# 4 6.8657 -7.5669 3.5130 6.7228 13.8311 -9.6716
# 5 -12.3316 2.0071 -13.3221 13.8311 14.0788 2.6331
# 6 -2.5160 7.1959 5.8874 -9.6716 2.6331 25.1256
#
#
#
# Elastic Compliance Matrix: (Units=1/GPa)
#
#
# Indices 1 2 3 4 5 6 
#
# 1 0.017395 0.000491 -0.006351 0.014917 -0.007293 0.009596
# 2 0.000491 0.022223 -0.007451 -0.021753 0.014283 -0.014439
# 3 -0.006351 -0.007451 0.012580 0.014437 -0.007700 0.004914
# 4 0.014917 -0.021753 0.014437 -0.021974 0.053229 -0.009696
# 5 -0.007293 0.014283 -0.007700 0.053229 -0.000247 0.017499
# 6 0.009596 -0.014439 0.004914 -0.009696 0.017499 0.038179
#
#
# Mechanical properties :
#
#
# Convention : Reuss Voigt Hill
#
# Bulk Modulus (GPa) = 39.09956 46.87311 42.98634
# Shear Modulus (GPa) = 48.40174 17.51333 32.95753
#
# Velocity S-wave (km/s) = 4.70696 2.83136 3.88407
# Velocity P-wave (km/s) = 6.88754 5.66962 6.30804
#
# Compressibility (1/GPa) = 0.02557573
#
# Stress axis : x y z
#
# Youngs Moduli (GPa) = 57.48774 44.99942 79.49317
#
# Poissons Ratio (x) = -0.02212 0.50490
# Poissons Ratio (y) = -0.02825 0.59228
# Poissons Ratio (z) = 0.36513 0.33528
#
# Static dielectric constant tensor:
#      x y z
#    x 1.318340 -0.061870 -0.075810 
#    y -0.061870 1.708960 0.008980 
#    z -0.075810 0.008980 1.777860 
# 
# From -- ./inp_files/244399.got.cif
#   From: 2010.05.17/outbox.ucp.g08.bks.cvg/sg2_123_cif.got.tgz:244399.got - 2010.06.11 11:32:03.
