data_PCOD9072483
_publ_section_title
;
Structure prediction by ZEFSAII (Michael W. Deem and Ramdas Pophale) SiO2 
 PCOD9072483
Probable space group: P -1
;
_chemical_formula_sum "Si O2"
_cell_formula_units_Z 14
_cell_length_a 15.000000
_cell_length_b 12.000000
_cell_length_c 30.000000
_cell_angle_alpha 20.000000
_cell_angle_beta 160.000000
_cell_angle_gamma 150.000000
_cell_volume 624.976433
_symmetry_space_group_name_H-M "P -1"
_symmetry_group_IT_number 2
_symmetry_cell_setting 'triclinic'
loop_
_space_group_symop_operation_xyz
x,y,z
-x,-y,-z
loop_
_atom_site_type_symbol
_atom_site_label
_atom_site_fract_x
_atom_site_fract_y
_atom_site_fract_z
Si Si1 0.876658 0.229689 0.072950
Si Si2 0.949875 0.207640 0.765744
Si Si3 0.674858 0.400131 0.338814
Si Si4 0.476633 0.378293 0.983881
Si Si5 0.916390 0.569391 0.053044
Si Si6 0.271520 0.385864 0.615110
Si Si7 0.441976 0.336538 0.432815
O O1 0.970735 0.269868 0.153683
O O2 0.564666 0.345641 0.888058
O O3 0.939809 0.935173 0.177322
O O4 0.000000 0.500000 0.000000
O O5 0.659485 0.410044 0.543636
O O6 0.171390 0.403922 0.816146
O O7 0.917119 0.900828 0.899193
O O8 0.696711 0.498623 0.363341
O O9 0.963176 0.400801 0.454241
O O10 0.596843 0.037505 0.435716
O O11 0.500000 0.500000 0.000000
O O12 0.654140 0.539781 0.969876
O O13 0.589300 0.988720 0.183008
O O14 0.153272 0.536122 0.213158
O O15 0.414030 0.615846 0.563975
#
# Coordination Sequence:
#
# PCOD9072483 Si02
#       7
#     2   2   2   2   2   2   2
#     4  10  19  37  65 102 140 167 217 266 344 419
#     4  11  25  43  67 106 134 176 229 276 342 403
#     4  11  21  38  64 104 142 173 209 282 347 415
#     4  12  27  49  69  92 137 189 236 279 323 394
#     4  11  24  43  70  98 139 176 219 280 343 405
#     4  11  24  39  64 104 137 175 230 268 345 402
#     4  12  23  39  72  99 139 173 212 283 345 408
#
# _framework density 22.400845
#
# number of rings (size 3 to 8) (size 9 to 14) (size 15 to 20)
#    0.000    0.857    7.143    1.286    4.000    1.143 
#    0.000    1.429    0.000    0.000    0.000    0.000 
#    0.000    0.000    0.000    0.000    0.000    0.000 
#
# Total GULP energy -78251.658944 kJ/mol
# GULP energy per Si atom -5589.404210 kJ/mol
# Density = 2.234986 g / cm^3
# Si number density = 22.400845 Si / 1000 Ang^3
#
#
#
# Elastic Constant Matrix: (Units=GPa)
#
#
# Indices 1 2 3 4 5 6 
#
# 1 94.6336 44.2191 2.6679 4.4874 -11.0919 19.0053
# 2 44.2191 111.6129 24.6647 47.1392 -7.1789 16.3968
# 3 2.6679 24.6647 81.7562 43.7385 -29.0304 5.5562
# 4 4.4874 47.1392 43.7385 39.4307 1.9847 -2.9659
# 5 -11.0919 -7.1789 -29.0304 1.9847 19.8964 2.7481
# 6 19.0053 16.3968 5.5562 -2.9659 2.7481 33.4506
#
#
#
# Elastic Compliance Matrix: (Units=1/GPa)
#
#
# Indices 1 2 3 4 5 6 
#
# 1 0.015715 -0.008706 -0.000194 0.008254 0.005109 -0.004317
# 2 -0.008706 0.011088 -0.014860 0.005747 -0.023721 0.004438
# 3 -0.000194 -0.014860 -0.010699 0.032042 -0.026235 0.014168
# 4 0.008254 0.005747 0.032042 -0.022404 0.058370 -0.019610
# 5 0.005109 -0.023721 -0.026235 0.058370 -0.002097 0.018430
# 6 -0.004317 0.004438 0.014168 -0.019610 0.018430 0.024566
#
#
# Mechanical properties :
#
#
# Convention : Reuss Voigt Hill
#
# Bulk Modulus (GPa) = -31.82882 47.90069 8.03593
# Shear Modulus (GPa) = 93.95628 32.98560 63.47094
#
# Velocity S-wave (km/s) = 6.48338 3.84150 5.32876
# Velocity P-wave (km/s) = 6.46576 6.41140 6.43864
#
# Compressibility (1/GPa) = -0.03141807
#
# Stress axis : x y z
#
# Youngs Moduli (GPa) = 63.63357 90.19015 -93.46303
#
# Poissons Ratio (x) = 0.78521 -0.01817
# Poissons Ratio (y) = 0.55400 -1.38887
# Poissons Ratio (z) = 0.01237 1.34023
#
# Static dielectric constant tensor:
#      x y z
#    x 1.770090 0.014600 -0.016640 
#    y 0.014600 1.885780 0.014020 
#    z -0.016640 0.014020 1.914470 
# 
# From -- ./inp_files/518471.got.cif
#   From: 2010.05.17/outbox.ucp.g08.bks.cvg/sg2_260_cif.got.tgz:518471.got - 2010.06.11 11:32:03.
