data_PCOD9072519
_publ_section_title
;
Structure prediction by ZEFSAII (Michael W. Deem and Ramdas Pophale) SiO2 
 PCOD9072519
Probable space group: P -1
;
_chemical_formula_sum "Si O2"
_cell_formula_units_Z 16
_cell_length_a 27.000000
_cell_length_b 24.000000
_cell_length_c 15.000000
_cell_angle_alpha 150.000000
_cell_angle_beta 150.000000
_cell_angle_gamma 10.000000
_cell_volume 834.184372
_symmetry_space_group_name_H-M "P -1"
_symmetry_group_IT_number 2
_symmetry_cell_setting 'triclinic'
loop_
_space_group_symop_operation_xyz
x,y,z
-x,-y,-z
loop_
_atom_site_type_symbol
_atom_site_label
_atom_site_fract_x
_atom_site_fract_y
_atom_site_fract_z
Si Si1 0.670870 0.334579 0.728936
Si Si2 0.040717 0.136279 0.339017
Si Si3 0.803771 0.619841 0.958439
Si Si4 0.941736 0.819585 0.125981
Si Si5 0.545068 0.276161 0.311279
Si Si6 0.148257 0.993951 0.933298
Si Si7 0.070436 0.274607 0.735027
Si Si8 0.404473 0.730351 0.162480
O O1 0.638532 0.281978 0.524594
O O2 0.369613 0.680964 0.788487
O O3 0.854917 0.082350 0.745331
O O4 0.850377 0.247371 0.846713
O O5 0.097438 0.177511 0.552537
O O6 0.698296 0.489417 0.287731
O O7 0.201256 0.970535 0.264214
O O8 0.913919 0.443520 0.973618
O O9 0.833423 0.501898 0.758155
O O10 0.997750 0.525921 0.119119
O O11 0.500000 0.000000 0.000000
O O12 0.200344 0.636488 0.272622
O O13 0.698808 0.108919 0.222014
O O14 0.866814 0.890855 0.003339
O O15 0.652795 0.054346 0.229475
O O16 0.271482 0.890785 0.079878
O O17 0.500000 0.500000 0.000000
#
# Coordination Sequence:
#
# PCOD9072519 Si02
#       8
#     2   2   2   2   2   2   2   2
#     4  11  21  36  56  82 114 152 186 231 276 342
#     4  11  22  37  62  87 115 145 196 244 279 327
#     4  10  19  38  63  84 118 144 186 232 289 353
#     4  11  23  37  54  83 115 151 185 229 279 349
#     4  10  21  36  55  83 117 147 186 223 282 344
#     4  12  24  36  55  80 113 155 195 225 282 329
#     4   9  21  35  60  93 112 145 185 239 291 336
#     4  12  22  39  59  81 114 157 199 238 276 322
#
# _framework density 19.180412
#
# number of rings (size 3 to 8) (size 9 to 14) (size 15 to 20)
#    0.000    1.250    3.750    2.625    1.750    5.000 
#    0.000    0.000    0.000    1.500    0.000    0.000 
#    0.000    0.000    0.000    0.000    0.000    0.000 
#
# Total GULP energy -89089.862589 kJ/mol
# GULP energy per Si atom -5568.116412 kJ/mol
# Density = 1.913676 g / cm^3
# Si number density = 19.180412 Si / 1000 Ang^3
#
#
#
# Elastic Constant Matrix: (Units=GPa)
#
#
# Indices 1 2 3 4 5 6 
#
# 1 183.5843 51.8285 49.9006 0.3849 -36.0029 5.3242
# 2 51.8285 79.4835 20.8229 -1.5411 -9.8176 -7.6064
# 3 49.9006 20.8229 44.6255 7.0132 -22.0481 0.7047
# 4 0.3849 -1.5411 7.0132 25.5176 -4.8236 -4.0813
# 5 -36.0029 -9.8176 -22.0481 -4.8236 29.0793 2.6321
# 6 5.3242 -7.6064 0.7047 -4.0813 2.6321 39.4913
#
#
#
# Elastic Compliance Matrix: (Units=1/GPa)
#
#
# Indices 1 2 3 4 5 6 
#
# 1 0.009509 -0.004037 -0.005808 0.002099 0.006552 -0.002176
# 2 -0.004037 0.016684 -0.005464 0.002611 -0.003470 0.004356
# 3 -0.005808 -0.005464 0.044527 -0.008579 0.023621 -0.003525
# 4 0.002099 0.002611 -0.008579 0.043107 0.003712 0.004581
# 5 0.006552 -0.003470 0.023621 0.003712 0.060362 -0.005613
# 6 -0.002176 0.004356 -0.003525 0.004581 -0.005613 0.027365
#
#
# Mechanical properties :
#
#
# Convention : Reuss Voigt Hill
#
# Bulk Modulus (GPa) = 24.93632 61.42191 43.17912
# Shear Modulus (GPa) = 20.36327 31.16040 25.76183
#
# Velocity S-wave (km/s) = 3.26186 4.03500 3.66885
# Velocity P-wave (km/s) = 5.21685 7.33492 6.36461
#
# Compressibility (1/GPa) = 0.04010214
#
# Stress axis : x y z
#
# Youngs Moduli (GPa) = 105.16272 59.93695 22.45821
#
# Poissons Ratio (x) = 0.24198 0.13043
# Poissons Ratio (y) = 0.42457 0.12271
# Poissons Ratio (z) = 0.61077 0.32750
#
# Static dielectric constant tensor:
#      x y z
#    x 1.741570 -0.001690 0.048990 
#    y -0.001690 1.796500 -0.055630 
#    z 0.048990 -0.055630 1.720610 
# 
# From -- ./inp_files/70565.got.cif
#   From: 2010.05.17/outbox.ucp.g08.bks.cvg/sg2_36_cif.got.tgz:70565.got - 2010.06.11 11:32:03.
