data_PCOD9072594
_publ_section_title
;
Structure prediction by ZEFSAII (Michael W. Deem and Ramdas Pophale) SiO2 
 PCOD9072594
Probable space group: P -1
;
_chemical_formula_sum "Si O2"
_cell_formula_units_Z 16
_cell_length_a 9.000000
_cell_length_b 12.000000
_cell_length_c 9.000000
_cell_angle_alpha 130.000000
_cell_angle_beta 100.000000
_cell_angle_gamma 80.000000
_cell_volume 730.800219
_symmetry_space_group_name_H-M "P -1"
_symmetry_group_IT_number 2
_symmetry_cell_setting 'triclinic'
loop_
_space_group_symop_operation_xyz
x,y,z
-x,-y,-z
loop_
_atom_site_type_symbol
_atom_site_label
_atom_site_fract_x
_atom_site_fract_y
_atom_site_fract_z
Si Si1 0.872377 0.190838 0.303956
Si Si2 0.860420 0.412903 0.263283
Si Si3 0.623283 0.065151 0.476641
Si Si4 0.117676 0.558020 0.256392
Si Si5 0.816612 0.292377 0.875832
Si Si6 0.654100 0.575996 0.607132
Si Si7 0.081154 0.066601 0.713417
Si Si8 0.470295 0.853906 0.788458
O O1 0.941487 0.284430 0.268531
O O2 0.886131 0.278966 0.535457
O O3 0.694736 0.193612 0.235716
O O4 0.930796 0.030108 0.223131
O O5 0.766638 0.521743 0.449263
O O6 0.978491 0.492432 0.255002
O O7 0.753827 0.341230 0.065525
O O8 0.712439 0.180920 0.683813
O O9 0.541097 0.139462 0.384968
O O10 0.500000 0.000000 0.500000
O O11 0.745689 0.945632 0.320568
O O12 0.150356 0.571799 0.102871
O O13 0.266778 0.475148 0.273972
O O14 0.985660 0.215183 0.857614
O O15 0.500000 0.500000 0.500000
O O16 0.611925 0.744374 0.752861
O O17 0.000000 0.000000 0.500000
O O18 0.500000 0.000000 0.000000
#
# Coordination Sequence:
#
# PCOD9072594 Si02
#       8
#     2   2   2   2   2   2   2   2
#     4  10  19  41  63  92 128 161 218 272 314 383
#     4  11  25  38  65  98 124 173 225 263 320 397
#     4  10  22  40  62  95 130 168 211 271 327 392
#     4  11  21  42  64  89 132 172 219 264 317 388
#     4  11  22  43  63  93 136 168 215 273 321 388
#     4  11  21  43  68  90 130 176 208 270 335 379
#     4   9  18  38  66  85 128 175 198 262 344 361
#     4  11  23  41  67  93 127 169 213 269 329 385
#
# _framework density 21.893808
#
# number of rings (size 3 to 8) (size 9 to 14) (size 15 to 20)
#    0.000    1.500    6.250    1.875    1.750    3.500 
#    4.500    3.750    0.000    0.000    0.000    0.000 
#    0.000    0.000    0.000    0.000    0.000    0.000 
#
# Total GULP energy -89126.239159 kJ/mol
# GULP energy per Si atom -5570.389947 kJ/mol
# Density = 2.184398 g / cm^3
# Si number density = 21.893808 Si / 1000 Ang^3
#
#
#
# Elastic Constant Matrix: (Units=GPa)
#
#
# Indices 1 2 3 4 5 6 
#
# 1 44.7421 59.7406 3.4588 6.8583 9.7538 15.9622
# 2 59.7406 129.9127 58.6602 -5.5904 -20.5269 -9.6921
# 3 3.4588 58.6602 76.5489 -2.3599 0.7075 4.8423
# 4 6.8583 -5.5904 -2.3599 17.4224 -1.1265 -7.1926
# 5 9.7538 -20.5269 0.7075 -1.1265 11.7086 7.0566
# 6 15.9622 -9.6921 4.8423 -7.1926 7.0566 37.0197
#
#
#
# Elastic Compliance Matrix: (Units=1/GPa)
#
#
# Indices 1 2 3 4 5 6 
#
# 1 -0.009094 0.015924 -0.012094 0.011487 0.034067 0.005410
# 2 0.015924 -0.005569 0.003830 -0.011849 -0.019989 -0.007317
# 3 -0.012094 0.003830 0.010596 0.010017 0.014719 0.003972
# 4 0.011487 -0.011849 0.010017 0.051079 -0.029793 0.006238
# 5 0.034067 -0.019989 0.014719 -0.029793 0.039411 -0.035149
# 6 0.005410 -0.007317 0.003972 0.006238 -0.035149 0.030157
#
#
# Mechanical properties :
#
#
# Convention : Reuss Voigt Hill
#
# Bulk Modulus (GPa) = 88.86865 54.99143 71.93004
# Shear Modulus (GPa) = 47.61293 21.85310 34.73301
#
# Velocity S-wave (km/s) = 4.66845 3.16276 3.98732
# Velocity P-wave (km/s) = 8.35093 6.20559 7.35688
#
# Compressibility (1/GPa) = 0.01125256
#
# Stress axis : x y z
#
# Youngs Moduli (GPa) = -109.96678 -179.57845 94.37089
#
# Poissons Ratio (x) = 2.85952 1.14136
# Poissons Ratio (y) = 1.75106 -0.36145
# Poissons Ratio (z) = -1.32999 0.68780
#
# Static dielectric constant tensor:
#      x y z
#    x 1.893200 0.012610 0.102950 
#    y 0.012610 1.868100 0.017250 
#    z 0.102950 0.017250 1.879940 
# 
# From -- ./inp_files/190895.got.cif
#   From: 2010.05.17/outbox.ucp.g08.bks.cvg/sg2_96_cif.got.tgz:190895.got - 2010.06.11 11:32:03.
