data_PCOD9072191
_publ_section_title
;
Structure prediction by ZEFSAII (Michael W. Deem and Ramdas Pophale) SiO2 
 PCOD9072191
Probable space group: P -1
;
_chemical_formula_sum "Si O2"
_cell_formula_units_Z 16
_cell_length_a 27.000000
_cell_length_b 21.000000
_cell_length_c 15.000000
_cell_angle_alpha 30.000000
_cell_angle_beta 30.000000
_cell_angle_gamma 10.000000
_cell_volume 729.911325
_symmetry_space_group_name_H-M "P -1"
_symmetry_group_IT_number 2
_symmetry_cell_setting 'triclinic'
loop_
_space_group_symop_operation_xyz
x,y,z
-x,-y,-z
loop_
_atom_site_type_symbol
_atom_site_label
_atom_site_fract_x
_atom_site_fract_y
_atom_site_fract_z
Si Si1 0.520334 0.613995 0.380429
Si Si2 0.965778 0.008278 0.147169
Si Si3 0.301278 0.732969 0.311196
Si Si4 0.605165 0.884506 0.212201
Si Si5 0.956892 0.474238 0.800823
Si Si6 0.979090 0.668297 0.930537
Si Si7 0.957488 0.910679 0.899053
Si Si8 0.926475 0.395463 0.461105
O O1 0.500000 0.500000 0.500000
O O2 0.697076 0.378946 0.481700
O O3 0.711371 0.472393 0.189672
O O4 0.213709 0.037584 0.381666
O O5 0.626619 0.392716 0.221289
O O6 0.062122 0.996086 0.087221
O O7 0.100507 0.706825 0.323955
O O8 0.000000 0.000000 0.000000
O O9 0.116086 0.073374 0.223173
O O10 0.222609 0.800633 0.248841
O O11 0.668103 0.727728 0.392113
O O12 0.822389 0.587946 0.153268
O O13 0.295499 0.230741 0.235074
O O14 0.701762 0.910522 0.058408
O O15 0.061292 0.495547 0.624346
O O16 0.131739 0.131655 0.918150
O O17 0.868475 0.554379 0.944544
#
# Coordination Sequence:
#
# PCOD9072191 Si02
#       8
#     2   2   2   2   2   2   2   2
#     4  11  20  35  57  89 133 159 192 235 294 366
#     4  11  25  46  65  82 113 155 208 263 302 344
#     4  10  21  37  59  90 119 154 199 247 293 360
#     4  10  19  30  53  81 127 164 184 223 283 350
#     4  10  22  35  55  88 128 156 192 229 289 361
#     4   9  19  30  51  85 124 159 190 223 277 359
#     4  11  23  38  63  89 120 164 194 239 306 357
#     4  10  23  37  56  91 120 153 197 241 290 360
#
# _framework density 21.920470999999999
#
# number of rings (size 3 to 8) (size 9 to 14) (size 15 to 20)
#    0.000    1.750    2.500    2.250    8.750    2.500 
#    0.000    0.625    0.000   10.500    0.000    0.000 
#    0.000    0.000    0.000    0.000    0.000    0.000 
#
# Total GULP energy -89301.863477 kJ/mol
# GULP energy per Si atom -5581.366467 kJ/mol
# Density = 2.187058 g / cm^3
# Si number density = 21.920471 Si / 1000 Ang^3
#
#
#
# Elastic Constant Matrix: (Units=GPa)
#
#
# Indices 1 2 3 4 5 6 
#
# 1 182.7005 17.3190 57.6996 -16.9740 0.5429 -14.3624
# 2 17.3190 16.1792 15.8564 -18.8643 6.3875 -19.8500
# 3 57.6996 15.8564 98.5453 -23.1152 -0.6709 6.2677
# 4 -16.9740 -18.8643 -23.1152 21.3855 -7.9327 9.2490
# 5 0.5429 6.3875 -0.6709 -7.9327 40.0994 -12.6286
# 6 -14.3624 -19.8500 6.2677 9.2490 -12.6286 38.4223
#
#
#
# Elastic Compliance Matrix: (Units=1/GPa)
#
#
# Indices 1 2 3 4 5 6 
#
# 1 0.007150 -0.001708 -0.004550 -0.001869 0.000746 0.003228
# 2 -0.001708 -0.206323 0.002556 -0.155285 -0.022217 -0.077569
# 3 -0.004550 0.002556 0.018227 0.022567 0.001848 -0.008178
# 4 -0.001869 -0.155285 0.022567 -0.035967 -0.006575 -0.078107
# 5 0.000746 -0.022217 0.001848 -0.006575 0.026853 -0.001091
# 6 0.003228 -0.077569 -0.008178 -0.078107 -0.001091 0.006936
#
#
# Mechanical properties :
#
#
# Convention : Reuss Voigt Hill
#
# Bulk Modulus (GPa) = -5.30927 53.24166 23.96620
# Shear Modulus (GPa) = -20.96408 33.75144 6.39368
#
# Velocity S-wave (km/s) = -3.09588 3.92819 1.70971
# Velocity P-wave (km/s) = 3.89956 6.70190 3.85415
#
# Compressibility (1/GPa) = -0.18834986
#
# Stress axis : x y z
#
# Youngs Moduli (GPa) = 139.85391 -4.84677 54.86451
#
# Poissons Ratio (x) = -0.00828 0.24966
# Poissons Ratio (y) = 0.23885 -0.14025
# Poissons Ratio (z) = 0.63639 0.01239
#
# Static dielectric constant tensor:
#      x y z
#    x 1.780250 -0.041440 -0.000300 
#    y -0.041440 1.875290 -0.021360 
#    z -0.000300 -0.021360 1.871140 
# 
# From -- ./inp_files/532342.got.cif
#   From: 2010.05.17/outbox.ucp.g08.bks.cvg/sg2_267_cif.got.tgz:532342.got - 2010.06.11 11:32:03.
