data_PCOD9072510
_publ_section_title
;
Structure prediction by ZEFSAII (Michael W. Deem and Ramdas Pophale) SiO2 
 PCOD9072510
Probable space group: P -1
;
_chemical_formula_sum "Si O2"
_cell_formula_units_Z 15
_cell_length_a 8.044161
_cell_length_b 14.969847
_cell_length_c 11.953685
_cell_angle_alpha 132.419899
_cell_angle_beta 118.866316
_cell_angle_gamma 98.402984
_cell_volume 636.254148
_symmetry_space_group_name_H-M "P -1"
_symmetry_group_IT_number 2
_symmetry_cell_setting 'triclinic'
loop_
_space_group_symop_operation_xyz
x,y,z
-x,-y,-z
loop_
_atom_site_type_symbol
_atom_site_label
_atom_site_fract_x
_atom_site_fract_y
_atom_site_fract_z
Si Si1 0.464931 0.167081 0.800466
Si Si2 0.287817 0.008686 0.075490
Si Si3 0.966074 0.721535 0.900931
Si Si4 0.824545 0.142464 0.694755
Si Si5 0.746090 0.007848 0.209307
Si Si6 0.619675 0.660874 0.253102
Si Si7 0.587810 0.367040 0.589586
Si Si8 0.000000 0.500000 0.000000
O O1 0.476577 0.267217 0.788361
O O2 0.203490 0.961727 0.504078
O O3 0.376648 0.155065 0.888391
O O4 0.762471 0.240354 0.970613
O O5 0.535850 0.023987 0.171108
O O6 0.379661 0.169694 0.309312
O O7 0.023276 0.822692 0.892637
O O8 0.246416 0.020147 0.942460
O O9 0.691429 0.515210 0.659753
O O10 0.013972 0.825422 0.115280
O O11 0.500000 0.000000 0.500000
O O12 0.933802 0.324154 0.852555
O O13 0.053916 0.189337 0.496879
O O14 0.503213 0.621424 0.308560
O O15 0.500000 0.500000 0.000000
O O16 0.863304 0.424389 0.766434
#
# Coordination Sequence:
#
# PCOD9072510 Si02
#       8
#     2   2   2   2   2   2   2   1
#     4  10  20  40  63  93 130 180 211 273 341 389
#     4  10  22  46  70  93 127 176 228 268 324 397
#     4   9  19  35  66  99 122 161 223 271 317 394
#     4   9  16  29  55  91 122 155 207 265 319 369
#     4  10  24  44  66  94 133 176 215 274 333 402
#     4  12  27  41  62 101 138 171 217 283 348 390
#     4  11  22  38  66  97 126 175 215 273 331 393
#     4  10  18  30  62  96 124 156 210 268 312 380
#
# _framework density 23.575486000000001
#
# number of rings (size 3 to 8) (size 9 to 14) (size 15 to 20)
#    0.000    1.867    0.000    6.000    7.467    0.533 
#    4.800    2.667    0.000    0.000    0.000    0.000 
#    0.000    0.000    0.000    0.000    0.000    0.000 
#
# Total GULP energy -83501.009205 kJ/mol
# GULP energy per Si atom -5566.733947 kJ/mol
# Density = 2.352183 g / cm^3
# Si number density = 23.575486 Si / 1000 Ang^3
#
#
#
# Elastic Constant Matrix: (Units=GPa)
#
#
# Indices 1 2 3 4 5 6 
#
# 1 -365.4115 2059.9697 1164.3603 282.7267 -332.7274 256.3315
# 2 2059.9697-8627.8154-4880.7239-1218.7032 1415.0399 -981.1494
# 3 1164.3603-4880.7239-2685.9958 -667.1787 784.5844 -561.1904
# 4 282.7267-1218.7032 -667.1787 -133.9228 198.1278 -134.4992
# 5 -332.7274 1415.0399 784.5844 198.1278 -195.2948 158.5890
# 6 256.3315 -981.1494 -561.1904 -134.4992 158.5890 -76.2771
#
#
#
# Elastic Compliance Matrix: (Units=1/GPa)
#
#
# Indices 1 2 3 4 5 6 
#
# 1 0.009454 0.003288 -0.002131 0.003905 -0.002490 -0.006901
# 2 0.003288 0.006139 -0.009038 0.003035 -0.000219 -0.007220
# 3 -0.002131 -0.009038 0.019174 -0.011937 0.008435 0.006617
# 4 0.003905 0.003035 -0.011937 0.034686 -0.004613 -0.008848
# 5 -0.002490 -0.000219 0.008435 -0.004613 0.031315 0.005628
# 6 -0.006901 -0.007220 0.006617 -0.008848 0.005628 0.035196
#
#
# Mechanical properties :
#
#
# Convention : Reuss Voigt Hill
#
# Bulk Modulus (GPa) = 52.62353 -1665.77895 -806.57771
# Shear Modulus (GPa) = 31.63344 -749.28754 -358.82705
#
# Velocity S-wave (km/s) = 3.66702 -17.84698 -12.35046
# Velocity P-wave (km/s) = 6.34816 33.65699 23.37192
#
# Compressibility (1/GPa) = 0.01900291
#
# Stress axis : x y z
#
# Youngs Moduli (GPa) = 105.77253 162.90581 52.15502
#
# Poissons Ratio (x) = -0.53558 0.11115
# Poissons Ratio (y) = -0.34775 0.47139
# Poissons Ratio (z) = 0.22541 1.47239
#
# Static dielectric constant tensor:
#      x y z
#    x 2.133350 -0.009210 0.042670 
#    y -0.009210 1.950240 0.010630 
#    z 0.042670 0.010630 1.943810 
# 
# From -- ./inp_files/397842.got.cif
#   From: 2010.05.17/outbox.cif.g08.bks.cpg/sg2_199_cif.got.tgz:397842.got - 2010.06.03 11:33:40.
