data_PCOD9072448
_publ_section_title
;
Structure prediction by ZEFSAII (Michael W. Deem and Ramdas Pophale) SiO2 
 PCOD9072448
Probable space group: P -1
;
_chemical_formula_sum "Si O2"
_cell_formula_units_Z 14
_cell_length_a 7.648695
_cell_length_b 16.918284
_cell_length_c 5.760231
_cell_angle_alpha 61.476095
_cell_angle_beta 114.353151
_cell_angle_gamma 117.092889
_cell_volume 564.664134
_symmetry_space_group_name_H-M "P -1"
_symmetry_group_IT_number 2
_symmetry_cell_setting 'triclinic'
loop_
_space_group_symop_operation_xyz
x,y,z
-x,-y,-z
loop_
_atom_site_type_symbol
_atom_site_label
_atom_site_fract_x
_atom_site_fract_y
_atom_site_fract_z
Si Si1 0.441725 0.890908 0.067006
Si Si2 0.235373 0.500175 0.616026
Si Si3 0.758877 0.432870 0.972444
Si Si4 0.885755 0.708613 0.129990
Si Si5 0.839214 0.894610 0.101309
Si Si6 0.959469 0.172036 0.329739
Si Si7 0.279618 0.757479 0.548035
O O1 0.604509 0.886745 0.969151
O O2 0.449683 0.821444 0.381802
O O3 0.206572 0.866808 0.903292
O O4 0.500000 0.000000 0.000000
O O5 0.318113 0.554831 0.345145
O O6 0.257108 0.395759 0.746920
O O7 0.000000 0.500000 0.500000
O O8 0.315719 0.536870 0.865298
O O9 0.706755 0.320018 0.150600
O O10 0.000000 0.500000 0.000000
O O11 0.849370 0.801818 0.092062
O O12 0.098133 0.702535 0.353063
O O13 0.906615 0.726614 0.840190
O O14 0.892785 0.880102 0.419720
O O15 0.000000 0.000000 0.000000
O O16 0.815262 0.173618 0.462612
#
# Coordination Sequence:
#
# PCOD9072448 Si02
#       7
#     2   2   2   2   2   2   2
#     4  11  25  43  64  96 132 170 226 278 338 410
#     4  10  18  30  57  94 134 172 228 278 336 405
#     4  10  18  30  57  94 134 172 228 278 336 405
#     4  10  20  35  60  95 127 173 222 274 333 409
#     4  11  25  43  64  96 132 170 226 278 338 410
#     4  10  22  40  68  90 134 168 220 270 346 396
#     4  10  20  35  60  95 127 173 222 274 333 409
#
# _framework density 24.793499000000001
#
# number of rings (size 3 to 8) (size 9 to 14) (size 15 to 20)
#    0.000    1.714    2.857    4.286    4.000    5.714 
#    0.000    0.000    0.000    1.714    0.000    0.000 
#    0.000    0.000    0.000    0.000    0.000    0.000 
#
# Total GULP energy -77986.929446 kJ/mol
# GULP energy per Si atom -5570.494960 kJ/mol
# Density = 2.473707 g / cm^3
# Si number density = 24.793499 Si / 1000 Ang^3
#
#
#
# Elastic Constant Matrix: (Units=GPa)
#
#
# Indices 1 2 3 4 5 6 
#
# 1 103.3980 32.8665 27.3452 -3.9857 -0.6863 -3.4734
# 2 32.8665 80.3962 28.8913 -22.3481 -3.8110 -9.5415
# 3 27.3452 28.8913 149.2154 -7.7886 -30.0757 11.8473
# 4 -3.9857 -22.3481 -7.7886 33.5401 -5.0835 -4.8306
# 5 -0.6863 -3.8110 -30.0757 -5.0835 32.1962 -1.4876
# 6 -3.4734 -9.5415 11.8473 -4.8306 -1.4876 28.7676
#
#
#
# Elastic Compliance Matrix: (Units=1/GPa)
#
#
# Indices 1 2 3 4 5 6 
#
# 1 0.011607 -0.004996 -0.001790 -0.002753 -0.002456 -0.000108
# 2 -0.004996 0.020731 -0.002594 0.014447 0.002663 0.009904
# 3 -0.001790 -0.002594 0.009679 0.000976 0.008644 -0.004451
# 4 -0.002753 0.014447 0.000976 0.042514 0.009816 0.011704
# 5 -0.002456 0.002663 0.008644 0.009816 0.040984 0.000794
# 6 -0.000108 0.009904 -0.004451 0.011704 0.000794 0.041873
#
#
# Mechanical properties :
#
#
# Convention : Reuss Voigt Hill
#
# Bulk Modulus (GPa) = 42.99886 56.80172 49.90029
# Shear Modulus (GPa) = 25.78662 35.16121 30.47392
#
# Velocity S-wave (km/s) = 3.22849 3.76994 3.50967
# Velocity P-wave (km/s) = 5.59267 6.47376 6.04928
#
# Compressibility (1/GPa) = 0.02325643
#
# Stress axis : x y z
#
# Youngs Moduli (GPa) = 86.15656 48.23779 103.32024
#
# Poissons Ratio (x) = 0.24101 0.18492
# Poissons Ratio (y) = 0.43046 0.26799
# Poissons Ratio (z) = 0.15420 0.12512
#
# Static dielectric constant tensor:
#      x y z
#    x 2.120960 -0.026140 -0.001400 
#    y -0.026140 2.304740 0.015870 
#    z -0.001400 0.015870 2.044620 
# 
# From -- ./inp_files/46430.got.cif
#   From: 2010.05.17/outbox.cif.g08.bks.cpg/sg2_24_cif.got.tgz:46430.got - 2010.06.03 11:33:40.
