data_PCOD9072573
_publ_section_title
;
Structure prediction by ZEFSAII (Michael W. Deem and Ramdas Pophale) SiO2 
 PCOD9072573
Probable space group: P -1
;
_chemical_formula_sum "Si O2"
_cell_formula_units_Z 14
_cell_length_a 12.000000
_cell_length_b 9.000000
_cell_length_c 9.000000
_cell_angle_alpha 110.000000
_cell_angle_beta 70.000000
_cell_angle_gamma 60.000000
_cell_volume 614.029152
_symmetry_space_group_name_H-M "P -1"
_symmetry_group_IT_number 2
_symmetry_cell_setting 'triclinic'
loop_
_space_group_symop_operation_xyz
x,y,z
-x,-y,-z
loop_
_atom_site_type_symbol
_atom_site_label
_atom_site_fract_x
_atom_site_fract_y
_atom_site_fract_z
Si Si1 0.264689 0.822025 0.094394
Si Si2 0.541623 0.065215 0.644819
Si Si3 0.180568 0.410175 0.070460
Si Si4 0.384601 0.641722 0.306524
Si Si5 0.117080 0.822289 0.722082
Si Si6 0.316446 0.149561 0.201269
Si Si7 0.013778 0.243240 0.977583
O O1 0.303307 0.711537 0.202050
O O2 0.278482 0.999234 0.147839
O O3 0.426983 0.602334 0.857694
O O4 0.072008 0.982661 0.189306
O O5 0.609167 0.174667 0.606488
O O6 0.500000 0.000000 0.500000
O O7 0.664239 0.857387 0.631183
O O8 0.368306 0.257942 0.875589
O O9 0.196763 0.371542 0.229739
O O10 0.107732 0.311317 0.012638
O O11 0.070610 0.638015 0.103498
O O12 0.260469 0.667299 0.482965
O O13 0.112583 0.699433 0.815771
O O14 0.141067 0.978406 0.824552
O O15 0.500000 0.000000 0.000000
#
# Coordination Sequence:
#
# PCOD9072573 Si02
#       7
#     2   2   2   2   2   2   2
#     4  10  20  40  65  94 129 175 214 273 325 393
#     4  10  20  37  63  95 130 166 216 276 324 388
#     4  10  19  40  61  88 126 181 216 262 326 391
#     4  10  22  38  66  99 129 170 222 264 336 391
#     4  11  21  40  61  98 132 170 212 277 328 390
#     4   9  19  37  65  89 123 174 215 262 332 382
#     4  10  22  36  64  90 131 175 218 267 331 387
#
# _framework density 22.800219999999999
#
# number of rings (size 3 to 8) (size 9 to 14) (size 15 to 20)
#    0.000    2.000    1.429    2.143    0.000    1.143 
#    5.143    3.571    0.000    4.286    0.000    0.000 
#    0.000    0.000    0.000    0.000    0.000    0.000 
#
# Total GULP energy -78180.536707 kJ/mol
# GULP energy per Si atom -5584.324050 kJ/mol
# Density = 2.274833 g / cm^3
# Si number density = 22.800220 Si / 1000 Ang^3
#
#
#
# Elastic Constant Matrix: (Units=GPa)
#
#
# Indices 1 2 3 4 5 6 
#
# 1 86.4156 34.9033 22.1583 -12.5320 2.0175 -0.4124
# 2 34.9033 129.2269 9.4481 -24.4778 0.3572 -7.9020
# 3 22.1583 9.4481 71.5291 -16.7480 -15.2721 2.8094
# 4 -12.5320 -24.4778 -16.7480 29.7185 1.4156 -4.8246
# 5 2.0175 0.3572 -15.2721 1.4156 33.7578 -7.1944
# 6 -0.4124 -7.9020 2.8094 -4.8246 -7.1944 45.7371
#
#
#
# Elastic Compliance Matrix: (Units=1/GPa)
#
#
# Indices 1 2 3 4 5 6 
#
# 1 0.014254 -0.003409 -0.004393 0.000775 -0.002958 -0.000574
# 2 -0.003409 0.010288 0.001810 0.008441 0.001136 0.002705
# 3 -0.004393 0.001810 0.019375 0.010389 0.008910 0.001580
# 4 0.000775 0.008441 0.010389 0.047646 0.003946 0.006474
# 5 -0.002958 0.001136 0.008910 0.003946 0.034829 0.005517
# 6 -0.000574 0.002705 0.001580 0.006474 0.005517 0.023780
#
#
# Mechanical properties :
#
#
# Convention : Reuss Voigt Hill
#
# Bulk Modulus (GPa) = 31.31556 46.68787 39.00171
# Shear Modulus (GPa) = 28.93526 36.55347 32.74436
#
# Velocity S-wave (km/s) = 3.56628 4.00835 3.79376
# Velocity P-wave (km/s) = 5.54277 6.47641 6.02770
#
# Compressibility (1/GPa) = 0.03193301
#
# Stress axis : x y z
#
# Youngs Moduli (GPa) = 70.15607 97.20221 51.61318
#
# Poissons Ratio (x) = 0.33135 0.22673
# Poissons Ratio (y) = 0.23915 -0.09341
# Poissons Ratio (z) = 0.30818 -0.17592
#
# Static dielectric constant tensor:
#      x y z
#    x 1.923620 -0.016380 0.055000 
#    y -0.016380 1.848380 -0.032350 
#    z 0.055000 -0.032350 1.891120 
# 
# From -- ./inp_files/206907.got.cif
#   From: 2010.05.17/outbox.ucp.g08.bks.cvg/sg2_104_cif.got.tgz:206907.got - 2010.06.11 11:32:03.
