data_PCOD9072348
_publ_section_title
;
Structure prediction by ZEFSAII (Michael W. Deem and Ramdas Pophale) SiO2 
 PCOD9072348
Probable space group: P -1
;
_chemical_formula_sum "Si O2"
_cell_formula_units_Z 12
_cell_length_a 15.224550
_cell_length_b 12.028572
_cell_length_c 9.334348
_cell_angle_alpha 50.425007
_cell_angle_beta 141.287642
_cell_angle_gamma 154.342530
_cell_volume 448.823593
_symmetry_space_group_name_H-M "P -1"
_symmetry_group_IT_number 2
_symmetry_cell_setting 'triclinic'
loop_
_space_group_symop_operation_xyz
x,y,z
-x,-y,-z
loop_
_atom_site_type_symbol
_atom_site_label
_atom_site_fract_x
_atom_site_fract_y
_atom_site_fract_z
Si Si1 0.893532 0.407685 0.143853
Si Si2 0.717243 0.819904 0.315918
Si Si3 0.995481 0.211836 0.580933
Si Si4 0.746644 0.092538 0.659014
Si Si5 0.544550 0.963042 0.863297
Si Si6 0.292407 0.262910 0.091382
O O1 0.036130 0.380505 0.387023
O O2 0.676131 0.233075 0.134137
O O3 0.069710 0.697047 0.152740
O O4 0.743150 0.255250 0.931222
O O5 0.486628 0.511212 0.242523
O O6 0.755269 0.918626 0.443549
O O7 0.666208 0.911066 0.071800
O O8 0.000000 0.000000 0.500000
O O9 0.919277 0.213752 0.635116
O O10 0.230897 0.306822 0.836008
O O11 0.580680 0.085595 0.399155
O O12 0.628606 0.834791 0.749715
O O13 0.000000 0.000000 0.000000
#
# Coordination Sequence:
#
# PCOD9072348 Si02
#       6
#     2   2   2   2   2   2
#     4   9  16  29  53  81 103 132 176 225 266 306
#     4  11  23  38  55  77 110 150 184 214 258 322
#     4   9  19  34  56  81 108 141 180 220 265 318
#     4  10  18  30  55  84 107 130 170 229 277 308
#     4   9  17  31  52  76 104 139 179 217 260 313
#     4  10  21  35  55  83 111 138 175 224 274 316
#
# _framework density 26.736560000000001
#
# number of rings (size 3 to 8) (size 9 to 14) (size 15 to 20)
#    0.000    2.333    0.000    6.000    0.000    4.667 
#    0.000    0.833    0.000    5.000    0.000    0.000 
#    0.000    0.000    0.000    0.000    0.000    0.000 
#
# Total GULP energy -67202.131369 kJ/mol
# GULP energy per Si atom -5600.177614 kJ/mol
# Density = 2.667571 g / cm^3
# Si number density = 26.736560 Si / 1000 Ang^3
#
#
#
# Elastic Constant Matrix: (Units=GPa)
#
#
# Indices 1 2 3 4 5 6 
#
# 1 70.9268 26.5183 23.6931 17.6069 -7.2396 -14.7214
# 2 26.5183 207.7433 68.1047 37.2881 -4.9170 -47.6633
# 3 23.6931 68.1047 161.6472 -4.0024 18.7632 -26.0179
# 4 17.6069 37.2881 -4.0024 64.4008 -13.6203 -8.9270
# 5 -7.2396 -4.9170 18.7632 -13.6203 55.2975 13.7524
# 6 -14.7214 -47.6633 -26.0179 -8.9270 13.7524 44.3657
#
#
#
# Elastic Compliance Matrix: (Units=1/GPa)
#
#
# Indices 1 2 3 4 5 6 
#
# 1 0.016570 0.000069 -0.002189 -0.004031 0.001149 0.003122
# 2 0.000069 0.007710 -0.002152 -0.003952 -0.001195 0.006619
# 3 -0.002189 -0.002152 0.008456 0.002070 -0.003704 0.003485
# 4 -0.004031 -0.003952 0.002070 0.019600 0.003632 -0.001551
# 5 0.001149 -0.001195 -0.003704 0.003632 0.022605 -0.009351
# 6 0.003122 0.006619 0.003485 -0.001551 -0.009351 0.035317
#
#
# Mechanical properties :
#
#
# Convention : Reuss Voigt Hill
#
# Bulk Modulus (GPa) = 41.33443 75.21661 58.27552
# Shear Modulus (GPa) = 39.41178 54.27955 46.84566
#
# Velocity S-wave (km/s) = 3.84354 4.51062 4.19037
# Velocity P-wave (km/s) = 5.93216 7.43782 6.72725
#
# Compressibility (1/GPa) = 0.02419291
#
# Stress axis : x y z
#
# Youngs Moduli (GPa) = 60.34989 129.69981 118.25830
#
# Poissons Ratio (x) = -0.00898 0.25881
# Poissons Ratio (y) = -0.00418 0.25454
# Poissons Ratio (z) = 0.13208 0.27916
#
# Static dielectric constant tensor:
#      x y z
#    x 2.344010 0.119060 0.084960 
#    y 0.119060 2.110220 0.018080 
#    z 0.084960 0.018080 2.057800 
# 
# From -- ./inp_files/162481.got.cif
#   From: 2010.05.17/outbox.cif.g08.bks.cpg/sg2_82_cif.got.tgz:162481.got - 2010.06.03 11:33:40.
