data_PCOD9072316
_publ_section_title
;
Structure prediction by ZEFSAII (Michael W. Deem and Ramdas Pophale) SiO2 
 PCOD9072316
Probable space group: P -1
;
_chemical_formula_sum "Si O2"
_cell_formula_units_Z 12
_cell_length_a 11.687032
_cell_length_b 5.670666
_cell_length_c 20.134005
_cell_angle_alpha 115.791008
_cell_angle_beta 25.380711
_cell_angle_gamma 121.795682
_cell_volume 483.031929
_symmetry_space_group_name_H-M "P -1"
_symmetry_group_IT_number 2
_symmetry_cell_setting 'triclinic'
loop_
_space_group_symop_operation_xyz
x,y,z
-x,-y,-z
loop_
_atom_site_type_symbol
_atom_site_label
_atom_site_fract_x
_atom_site_fract_y
_atom_site_fract_z
Si Si1 0.116214 0.288166 0.250403
Si Si2 0.141362 0.569277 0.725415
Si Si3 0.299741 0.881849 0.020820
Si Si4 0.723734 0.091945 0.722035
Si Si5 0.136115 0.837051 0.959172
Si Si6 0.255838 0.123240 0.513039
O O1 0.292142 0.607346 0.214401
O O2 0.919526 0.280480 0.288497
O O3 0.310306 0.122577 0.097003
O O4 0.892936 0.179920 0.414704
O O5 0.200463 0.309512 0.626156
O O6 0.406606 0.757180 0.652214
O O7 0.876289 0.415879 0.892594
O O8 0.128217 0.931475 0.051673
O O9 0.590003 0.900845 0.833508
O O10 0.057076 0.136879 0.556668
O O11 0.479941 0.946166 0.778928
O O12 0.000000 0.500000 0.000000
O O13 0.000000 0.000000 0.000000
#
# Coordination Sequence:
#
# PCOD9072316 Si02
#       6
#     2   2   2   2   2   2
#     4  10  18  30  54  88 116 144 184 226 300 340
#     4   9  18  32  50  80 118 151 180 222 286 356
#     4   9  21  33  57  82 113 145 189 239 289 340
#     4   9  21  33  57  82 113 145 189 239 289 340
#     4  10  24  41  61  83 113 154 202 243 294 338
#     4   9  18  32  50  80 118 151 180 222 286 356
#
# _framework density 24.843077000000001
#
# number of rings (size 3 to 8) (size 9 to 14) (size 15 to 20)
#    1.000    1.667    0.000    1.000    4.667    8.667 
#    0.000    0.000    0.000    2.000    0.000    0.000 
#    0.000    0.000    0.000    0.000    0.000    0.000 
#
# Total GULP energy -66838.027200 kJ/mol
# GULP energy per Si atom -5569.835600 kJ/mol
# Density = 2.478653 g / cm^3
# Si number density = 24.843077 Si / 1000 Ang^3
#
#
#
# Elastic Constant Matrix: (Units=GPa)
#
#
# Indices 1 2 3 4 5 6 
#
# 1 112.0257 23.6209 11.3786 -6.8304 -35.6292 10.7322
# 2 23.6209 73.4827 42.1072 -15.5639 -22.5686 5.1682
# 3 11.3786 42.1072 121.4492 -24.1385 -49.5340 9.7638
# 4 -6.8304 -15.5639 -24.1385 22.0646 15.8731 -9.5292
# 5 -35.6292 -22.5686 -49.5340 15.8731 43.8171 -1.3834
# 6 10.7322 5.1682 9.7638 -9.5292 -1.3834 32.9656
#
#
#
# Elastic Compliance Matrix: (Units=1/GPa)
#
#
# Indices 1 2 3 4 5 6 
#
# 1 0.017298 -0.004427 0.008977 -0.010302 0.025365 -0.009510
# 2 -0.004427 0.019157 -0.006269 0.009535 -0.004184 0.002876
# 3 0.008977 -0.006269 0.021589 -0.002289 0.029059 -0.007776
# 4 -0.010302 0.009535 -0.002289 0.082343 -0.035097 0.024866
# 5 0.025365 -0.004184 0.029059 -0.035097 0.086139 -0.022739
# 6 -0.009510 0.002876 -0.007776 0.024866 -0.022739 0.041517
#
#
# Mechanical properties :
#
#
# Convention : Reuss Voigt Hill
#
# Bulk Modulus (GPa) = 18.31368 51.24121 34.77744
# Shear Modulus (GPa) = 17.26022 35.09286 26.17654
#
# Velocity S-wave (km/s) = 2.63871 3.76251 3.24956
# Velocity P-wave (km/s) = 4.08307 6.28856 5.30177
#
# Compressibility (1/GPa) = 0.05460400
#
# Stress axis : x y z
#
# Youngs Moduli (GPa) = 57.80863 52.20134 46.32058
#
# Poissons Ratio (x) = 0.23110 -0.41580
# Poissons Ratio (y) = 0.25593 0.29040
# Poissons Ratio (z) = -0.51892 0.32727
#
# Static dielectric constant tensor:
#      x y z
#    x 2.083990 -0.037030 -0.077670 
#    y -0.037030 2.006470 0.069630 
#    z -0.077670 0.069630 2.075170 
# 
# From -- ./inp_files/362222.got.cif
#   From: 2010.05.17/outbox.cif.g08.bks.cpg/sg2_182_cif.got.tgz:362222.got - 2010.06.03 11:33:40.
