data_PCOD9072976
_publ_section_title
;
Structure prediction by ZEFSAII (Michael W. Deem and Ramdas Pophale) SiO2 
 PCOD9072976
Probable space group: P -1
;
_chemical_formula_sum "Si O2"
_cell_formula_units_Z 16
_cell_length_a 21.000000
_cell_length_b 9.000000
_cell_length_c 15.000000
_cell_angle_alpha 110.000000
_cell_angle_beta 160.000000
_cell_angle_gamma 60.000000
_cell_volume 757.501203
_symmetry_space_group_name_H-M "P -1"
_symmetry_group_IT_number 2
_symmetry_cell_setting 'triclinic'
loop_
_space_group_symop_operation_xyz
x,y,z
-x,-y,-z
loop_
_atom_site_type_symbol
_atom_site_label
_atom_site_fract_x
_atom_site_fract_y
_atom_site_fract_z
Si Si1 0.741658 0.609592 0.208509
Si Si2 0.190924 0.392241 0.330181
Si Si3 0.975032 0.220594 0.902899
Si Si4 0.775479 0.254115 0.239922
Si Si5 0.653295 0.145191 0.387533
Si Si6 0.373704 0.923364 0.264104
Si Si7 0.002669 0.938741 0.337288
Si Si8 0.370393 0.210357 0.712630
O O1 0.668638 0.469135 0.116217
O O2 0.704031 0.736157 0.271727
O O3 0.000000 0.500000 0.500000
O O4 0.591988 0.713225 0.946663
O O5 0.064722 0.615244 0.186290
O O6 0.240921 0.361684 0.494228
O O7 0.420709 0.278638 0.547859
O O8 0.056104 0.294261 0.106122
O O9 0.748453 0.222736 0.602759
O O10 0.167898 0.002815 0.081847
O O11 0.900123 0.218574 0.490293
O O12 0.936896 0.126268 0.345358
O O13 0.611348 0.182574 0.021169
O O14 0.817399 0.102041 0.509755
O O15 0.651597 0.963526 0.376217
O O16 0.500000 0.000000 0.500000
O O17 0.220648 0.022322 0.995571
#
# Coordination Sequence:
#
# PCOD9072976 Si02
#       8
#     2   2   2   2   2   2   2   2
#     4  12  27  41  60  89 129 163 208 258 319 371
#     4  10  20  39  66  96 121 162 217 258 310 376
#     4   9  21  40  65  92 127 163 206 264 315 373
#     4  11  23  38  64  89 117 163 208 258 304 378
#     4  11  24  41  59  88 129 166 200 257 322 371
#     4   9  18  34  61  92 122 156 200 256 314 367
#     4  10  21  37  63  86 123 158 209 251 314 373
#     4  12  24  40  63  90 126 164 211 258 309 381
#
# _framework density 21.122078999999999
#
# number of rings (size 3 to 8) (size 9 to 14) (size 15 to 20)
#    0.000    1.500    2.500    2.250    7.000    0.500 
#    0.000    0.000    0.000    0.750    0.000    0.000 
#    0.000    0.000    0.000    0.000    0.000    0.000 
#
# Total GULP energy -89118.349009 kJ/mol
# GULP energy per Si atom -5569.896813 kJ/mol
# Density = 2.107400 g / cm^3
# Si number density = 21.122079 Si / 1000 Ang^3
#
#
#
# Elastic Constant Matrix: (Units=GPa)
#
#
# Indices 1 2 3 4 5 6 
#
# 1 18.4593 -1.4779 16.9255 5.5342 -2.2112 -3.5309
# 2 -1.4779 74.9925 10.8184 13.7286 2.1592 3.3401
# 3 16.9255 10.8184 127.7141 18.5575 -6.2803 -2.8327
# 4 5.5342 13.7286 18.5575 31.8117 -2.7692 -2.5986
# 5 -2.2112 2.1592 -6.2803 -2.7692 35.3349 -3.2653
# 6 -3.5309 3.3401 -2.8327 -2.5986 -3.2653 22.9192
#
#
#
# Elastic Compliance Matrix: (Units=1/GPa)
#
#
# Indices 1 2 3 4 5 6 
#
# 1 0.065516 0.003312 -0.007555 -0.007511 0.002725 0.008213
# 2 0.003312 0.014959 -0.000845 -0.006911 -0.001657 -0.002794
# 3 -0.007555 -0.000845 0.009497 -0.003791 0.000955 -0.000161
# 4 -0.007511 -0.006911 -0.003791 0.038506 0.002678 0.004129
# 5 0.002725 -0.001657 0.000955 0.002678 0.029440 0.005277
# 6 0.008213 -0.002794 -0.000161 0.004129 0.005277 0.046504
#
#
# Mechanical properties :
#
#
# Convention : Reuss Voigt Hill
#
# Bulk Modulus (GPa) = 12.53225 30.41087 21.47156
# Shear Modulus (GPa) = 20.72987 31.00647 25.86817
#
# Velocity S-wave (km/s) = 3.13618 3.83556 3.50337
# Velocity P-wave (km/s) = 4.36581 5.83475 5.15289
#
# Compressibility (1/GPa) = 0.07979415
#
# Stress axis : x y z
#
# Youngs Moduli (GPa) = 15.26355 66.84829 105.29493
#
# Poissons Ratio (x) = -0.22139 0.79555
# Poissons Ratio (y) = -0.05055 0.08900
# Poissons Ratio (z) = 0.11532 0.05651
#
# Static dielectric constant tensor:
#      x y z
#    x 1.766730 -0.036110 0.007280 
#    y -0.036110 1.771580 -0.033640 
#    z 0.007280 -0.033640 1.841630 
# 
# From -- ./inp_files/177415.got.cif
#   From: 2010.05.17/outbox.ucp.g08.bks.cvg/sg2_89_cif.got.tgz:177415.got - 2010.06.11 11:32:03.
