data_PCOD9072833
_publ_section_title
;
Structure prediction by ZEFSAII (Michael W. Deem and Ramdas Pophale) SiO2 
 PCOD9072833
Probable space group: P -1
;
_chemical_formula_sum "Si O2"
_cell_formula_units_Z 14
_cell_length_a 15.000000
_cell_length_b 6.000000
_cell_length_c 15.000000
_cell_angle_alpha 110.000000
_cell_angle_beta 150.000000
_cell_angle_gamma 70.000000
_cell_volume 631.268861
_symmetry_space_group_name_H-M "P -1"
_symmetry_group_IT_number 2
_symmetry_cell_setting 'triclinic'
loop_
_space_group_symop_operation_xyz
x,y,z
-x,-y,-z
loop_
_atom_site_type_symbol
_atom_site_label
_atom_site_fract_x
_atom_site_fract_y
_atom_site_fract_z
Si Si1 0.762023 0.886248 0.473260
Si Si2 0.656128 0.097889 0.855382
Si Si3 0.052088 0.540726 0.350544
Si Si4 0.318794 0.852700 0.729667
Si Si5 0.255825 0.607257 0.377263
Si Si6 0.276929 0.059413 0.914689
Si Si7 0.328729 0.492935 0.227355
O O1 0.560087 0.838754 0.320184
O O2 0.933786 0.705901 0.618437
O O3 0.746785 0.921011 0.358238
O O4 0.783305 0.127637 0.580016
O O5 0.712961 0.305360 0.862016
O O6 0.694998 0.799972 0.834235
O O7 0.726036 0.095818 0.018204
O O8 0.204871 0.661833 0.557476
O O9 0.124599 0.467289 0.304466
O O10 0.881166 0.729959 0.212536
O O11 0.285487 0.898066 0.810965
O O12 0.533913 0.818471 0.898103
O O13 0.234288 0.589964 0.250604
O O14 0.458296 0.514848 0.568455
#
# Coordination Sequence:
#
# PCOD9072833 Si02
#       7
#     2   2   2   2   2   2   2
#     4   9  19  35  61  88 127 157 215 265 322 376
#     4  10  21  39  59  93 128 174 214 271 314 395
#     4  11  20  39  63  93 122 167 210 274 318 391
#     4   9  21  43  59  91 126 164 215 268 316 398
#     4   9  20  34  61  92 123 164 212 267 315 385
#     4  10  22  41  63  90 128 166 217 259 336 376
#     4  10  20  37  65  91 130 171 223 261 326 380
#
# _framework density 22.177555000000002
#
# number of rings (size 3 to 8) (size 9 to 14) (size 15 to 20)
#    0.000    2.286    1.429    1.286    2.000    2.286 
#    7.714    3.571    0.000    0.000    0.000    0.000 
#    0.000    0.000    0.000    0.000    0.000    0.000 
#
# Total GULP energy -77948.202821 kJ/mol
# GULP energy per Si atom -5567.728773 kJ/mol
# Density = 2.212708 g / cm^3
# Si number density = 22.177555 Si / 1000 Ang^3
#
#
#
# Elastic Constant Matrix: (Units=GPa)
#
#
# Indices 1 2 3 4 5 6 
#
# 1 115.7013 35.5816 56.2054 -6.7023 -48.0360 7.8029
# 2 35.5816 97.3820 53.6453 -28.6372 -22.0686 12.1960
# 3 56.2054 53.6453 114.0557 -17.5035 -7.1575 5.2265
# 4 -6.7023 -28.6372 -17.5035 36.1571 4.6712 -3.9791
# 5 -48.0360 -22.0686 -7.1575 4.6712 37.0186 -11.0736
# 6 7.8029 12.1960 5.2265 -3.9791 -11.0736 28.0827
#
#
#
# Elastic Compliance Matrix: (Units=1/GPa)
#
#
# Indices 1 2 3 4 5 6 
#
# 1 0.034771 0.006160 -0.017815 -0.002501 0.048590 0.009785
# 2 0.006160 0.020401 -0.009980 0.010233 0.016735 -0.000665
# 3 -0.017815 -0.009980 0.021083 0.001910 -0.026696 -0.004896
# 4 -0.002501 0.010233 0.001910 0.036442 -0.001198 0.000586
# 5 0.048590 0.016735 -0.026696 -0.001198 0.102323 0.024378
# 6 0.009785 -0.000665 -0.004896 0.000586 0.024378 0.043786
#
#
# Mechanical properties :
#
#
# Convention : Reuss Voigt Hill
#
# Bulk Modulus (GPa) = 30.31699 68.66706 49.49203
# Shear Modulus (GPa) = 15.97079 32.36548 24.16813
#
# Velocity S-wave (km/s) = 2.68644 3.82433 3.30473
# Velocity P-wave (km/s) = 4.82933 7.10846 6.07671
#
# Compressibility (1/GPa) = 0.03298481
#
# Stress axis : x y z
#
# Youngs Moduli (GPa) = 28.75932 49.01755 47.43235
#
# Poissons Ratio (x) = -0.30193 0.84501
# Poissons Ratio (y) = -0.17715 0.47336
# Poissons Ratio (z) = 0.51235 0.48918
#
# Static dielectric constant tensor:
#      x y z
#    x 1.877910 0.063690 0.042510 
#    y 0.063690 1.915500 0.057240 
#    z 0.042510 0.057240 1.831600 
# 
# From -- ./inp_files/36172.got.cif
#   From: 2010.05.17/outbox.ucp.g08.bks.cvg/sg2_19_cif.got.tgz:36172.got - 2010.06.11 11:32:03.
