data_PCOD9072139
_publ_section_title
;
Structure prediction by ZEFSAII (Michael W. Deem and Ramdas Pophale) SiO2 
 PCOD9072139
Probable space group: P -1
;
_chemical_formula_sum "Si O2"
_cell_formula_units_Z 14
_cell_length_a 15.000000
_cell_length_b 15.000000
_cell_length_c 15.000000
_cell_angle_alpha 140.000000
_cell_angle_beta 40.000000
_cell_angle_gamma 160.000000
_cell_volume 725.414092
_symmetry_space_group_name_H-M "P -1"
_symmetry_group_IT_number 2
_symmetry_cell_setting 'triclinic'
loop_
_space_group_symop_operation_xyz
x,y,z
-x,-y,-z
loop_
_atom_site_type_symbol
_atom_site_label
_atom_site_fract_x
_atom_site_fract_y
_atom_site_fract_z
Si Si1 0.264752 0.228403 0.086238
Si Si2 0.930434 0.136182 0.570468
Si Si3 0.235941 0.138009 0.245685
Si Si4 0.270842 0.853529 0.940207
Si Si5 0.198610 0.664223 0.219917
Si Si6 0.160960 0.351686 0.111666
Si Si7 0.404424 0.660140 0.728582
O O1 0.267402 0.224338 0.187883
O O2 0.168051 0.289287 0.158386
O O3 0.565413 0.463356 0.002638
O O4 0.080654 0.941694 0.973894
O O5 0.041152 0.088103 0.402845
O O6 0.151764 0.375079 0.655721
O O7 0.873625 0.232416 0.630939
O O8 0.655003 0.870556 0.629529
O O9 0.500399 0.347420 0.264833
O O10 0.184083 0.924986 0.108945
O O11 0.349387 0.779137 0.878607
O O12 0.018771 0.583707 0.871145
O O13 0.517167 0.094521 0.866696
O O14 0.170628 0.527294 0.218427
#
# Coordination Sequence:
#
# PCOD9072139 Si02
#       7
#     2   2   2   2   2   2   2
#     4  10  22  31  59  83 106 137 184 227 272 318
#     4  10  24  37  56  80 114 152 180 217 281 329
#     4  12  21  38  57  87 109 143 191 233 260 320
#     4  10  21  34  58  83 105 144 189 223 267 319
#     4  10  18  38  56  78 112 148 175 219 281 329
#     4  10  18  38  53  82 110 140 173 227 283 320
#     4  10  23  40  54  78 116 153 179 221 276 327
#
# _framework density 19.299322
#
# number of rings (size 3 to 8) (size 9 to 14) (size 15 to 20)
#    0.000    1.714    2.857    1.286    0.000    4.571 
#    0.000    5.000    0.000    0.000    0.000   12.000 
#    0.000    0.000    0.000    0.000    0.000    0.000 
#
# Total GULP energy -78040.437867 kJ/mol
# GULP energy per Si atom -5574.316990 kJ/mol
# Density = 1.925540 g / cm^3
# Si number density = 19.299322 Si / 1000 Ang^3
#
#
#
# Elastic Constant Matrix: (Units=GPa)
#
#
# Indices 1 2 3 4 5 6 
#
# 1 140.0929 -10.1084 26.1725 -0.2888 -12.3668 -10.7664
# 2 -10.1084 95.5397 3.7793 2.0419 3.3295 7.7588
# 3 26.1725 3.7793 113.1526 -0.0525 -30.6406 -0.6810
# 4 -0.2888 2.0419 -0.0525 14.6261 -3.7226 -10.5184
# 5 -12.3668 3.3295 -30.6406 -3.7226 37.7801 0.2536
# 6 -10.7664 7.7588 -0.6810 -10.5184 0.2536 22.3512
#
#
#
# Elastic Compliance Matrix: (Units=1/GPa)
#
#
# Indices 1 2 3 4 5 6 
#
# 1 0.008053 0.000229 -0.001281 0.005029 0.002031 0.006104
# 2 0.000229 0.011393 -0.001182 -0.007585 -0.002585 -0.007421
# 3 -0.001281 -0.001182 0.011796 0.004029 0.009636 0.001939
# 4 0.005029 -0.007585 0.004029 0.116969 0.016705 0.060034
# 5 0.002031 -0.002585 0.009636 0.016705 0.036758 0.009614
# 6 0.006104 -0.007421 0.001939 0.060034 0.009614 0.078458
#
#
# Mechanical properties :
#
#
# Convention : Reuss Voigt Hill
#
# Bulk Modulus (GPa) = 37.35025 43.16354 40.25690
# Shear Modulus (GPa) = 18.06230 36.88095 27.47162
#
# Velocity S-wave (km/s) = 3.06257 4.37624 3.77696
# Velocity P-wave (km/s) = 5.64809 6.92453 6.31863
#
# Compressibility (1/GPa) = 0.02677358
#
# Stress axis : x y z
#
# Youngs Moduli (GPa) = 124.18070 87.77626 84.77293
#
# Poissons Ratio (x) = -0.02007 0.10860
# Poissons Ratio (y) = -0.02840 0.10016
# Poissons Ratio (z) = 0.15909 0.10371
#
# Static dielectric constant tensor:
#      x y z
#    x 1.760470 0.000730 -0.020930 
#    y 0.000730 1.672090 0.003820 
#    z -0.020930 0.003820 1.676840 
# 
# From -- ./inp_files/85269.got.cif
#   From: 2010.05.17/outbox.ucp.g08.bks.cvg/sg2_43_cif.got.tgz:85269.got - 2010.06.11 11:32:03.
