data_PCOD9072494
_publ_section_title
;
Structure prediction by ZEFSAII (Michael W. Deem and Ramdas Pophale) SiO2 
 PCOD9072494
Probable space group: P -1
;
_chemical_formula_sum "Si O2"
_cell_formula_units_Z 16
_cell_length_a 8.301029
_cell_length_b 16.186280
_cell_length_c 13.594523
_cell_angle_alpha 34.923861
_cell_angle_beta 58.890573
_cell_angle_gamma 86.378666
_cell_volume 606.679749
_symmetry_space_group_name_H-M "P -1"
_symmetry_group_IT_number 2
_symmetry_cell_setting 'triclinic'
loop_
_space_group_symop_operation_xyz
x,y,z
-x,-y,-z
loop_
_atom_site_type_symbol
_atom_site_label
_atom_site_fract_x
_atom_site_fract_y
_atom_site_fract_z
Si Si1 0.133255 0.951329 0.194869
Si Si2 0.805374 0.709029 0.237666
Si Si3 0.907614 0.421415 0.767657
Si Si4 0.485917 0.726398 0.784284
Si Si5 0.725521 0.244084 0.352386
Si Si6 0.652050 0.545215 0.654327
Si Si7 0.583708 0.132773 0.721942
Si Si8 0.830651 0.713898 0.799028
O O1 0.311239 0.974026 0.201032
O O2 0.830403 0.712146 0.524538
O O3 0.111347 0.107379 0.032676
O O4 0.295120 0.987517 0.010223
O O5 0.500000 0.500000 0.500000
O O6 0.735263 0.687499 0.396151
O O7 0.018442 0.697511 0.171236
O O8 0.770846 0.449560 0.701710
O O9 0.194634 0.653272 0.490886
O O10 0.698612 0.313592 0.030364
O O11 0.487100 0.841330 0.583607
O O12 0.309208 0.493161 0.020346
O O13 0.765140 0.818560 0.653385
O O14 0.595593 0.198046 0.544821
O O15 0.000000 0.500000 0.000000
O O16 0.860394 0.161893 0.395237
O O17 0.340839 0.371998 0.960779
#
# Coordination Sequence:
#
# PCOD9072494 Si02
#       8
#     2   2   2   2   2   2   2   2
#     4  10  23  39  58  88 129 162 200 250 310 366
#     4  12  24  36  60  89 120 165 206 247 300 371
#     4  10  19  38  58  85 124 149 203 250 306 358
#     4   9  18  30  53  91 113 152 192 261 299 342
#     4  10  18  30  60  93 117 150 207 261 299 346
#     4  10  23  39  60  90 122 160 201 256 307 361
#     4  10  19  38  60  91 122 162 202 257 304 358
#     4   9  18  32  56  92 121 145 207 262 298 346
#
# _framework density 26.373059000000001
#
# number of rings (size 3 to 8) (size 9 to 14) (size 15 to 20)
#    0.000    2.000    3.750    0.750    7.000    0.000 
#    0.000    0.000    0.000    1.500    0.000    0.000 
#    0.000    0.000    0.000    0.000    0.000    0.000 
#
# Total GULP energy -89592.651334 kJ/mol
# GULP energy per Si atom -5599.540708 kJ/mol
# Density = 2.631303 g / cm^3
# Si number density = 26.373059 Si / 1000 Ang^3
#
#
#
# Elastic Constant Matrix: (Units=GPa)
#
#
# Indices 1 2 3 4 5 6 
#
# 1 133.5147 21.8287 35.7195 5.9736 20.9194 -24.6782
# 2 21.8287 62.7478 26.8919 -3.3338 4.0516 -30.3383
# 3 35.7195 26.8919 94.5236 16.9374 17.8983 -1.4813
# 4 5.9736 -3.3338 16.9374 42.2238 1.9944 0.8806
# 5 20.9194 4.0516 17.8983 1.9944 49.0109 0.0550
# 6 -24.6782 -30.3383 -1.4813 0.8806 0.0550 41.7461
#
#
#
# Elastic Compliance Matrix: (Units=1/GPa)
#
#
# Indices 1 2 3 4 5 6 
#
# 1 0.009931 0.001619 -0.003546 0.000147 -0.003092 0.006923
# 2 0.001619 0.031272 -0.010231 0.005851 0.000196 0.023197
# 3 -0.003546 -0.010231 0.016515 -0.006587 -0.003394 -0.008802
# 4 0.000147 0.005851 -0.006587 0.026656 0.000770 0.003542
# 5 -0.003092 0.000196 -0.003394 0.000770 0.022917 -0.001852
# 6 0.006923 0.023197 -0.008802 0.003542 -0.001852 0.044520
#
#
# Mechanical properties :
#
#
# Convention : Reuss Voigt Hill
#
# Bulk Modulus (GPa) = 29.93699 51.07402 40.50551
# Shear Modulus (GPa) = 26.70072 40.35257 33.52664
#
# Velocity S-wave (km/s) = 3.18531 3.91585 3.56932
# Velocity P-wave (km/s) = 4.99042 6.31294 5.69023
#
# Compressibility (1/GPa) = 0.03340349
#
# Stress axis : x y z
#
# Youngs Moduli (GPa) = 100.69348 31.97760 60.55102
#
# Poissons Ratio (x) = -0.05179 0.21472
# Poissons Ratio (y) = -0.16307 0.61948
# Poissons Ratio (z) = 0.35706 0.32715
#
# Static dielectric constant tensor:
#      x y z
#    x 2.164200 -0.004770 0.098110 
#    y -0.004770 2.115270 -0.008040 
#    z 0.098110 -0.008040 2.050000 
# 
# From -- ./inp_files/507650.got.cif
#   From: 2010.05.17/outbox.cif.g08.bks.cpg/sg2_254_cif.got.tgz:507650.got - 2010.06.03 11:33:40.
