data_PCOD9072959
_publ_section_title
;
Structure prediction by ZEFSAII (Michael W. Deem and Ramdas Pophale) SiO2 
 PCOD9072959
Probable space group: P -1
;
_chemical_formula_sum "Si O2"
_cell_formula_units_Z 14
_cell_length_a 12.641970
_cell_length_b 9.363428
_cell_length_c 20.927069
_cell_angle_alpha 44.384765
_cell_angle_beta 23.360031
_cell_angle_gamma 56.869582
_cell_volume 631.189324
_symmetry_space_group_name_H-M "P -1"
_symmetry_group_IT_number 2
_symmetry_cell_setting 'triclinic'
loop_
_space_group_symop_operation_xyz
x,y,z
-x,-y,-z
loop_
_atom_site_type_symbol
_atom_site_label
_atom_site_fract_x
_atom_site_fract_y
_atom_site_fract_z
Si Si1 0.975186 0.144608 0.139563
Si Si2 0.231862 0.760411 0.653173
Si Si3 0.296945 0.597314 0.873603
Si Si4 0.421777 0.273877 0.200676
Si Si5 0.247271 0.049753 0.901419
Si Si6 0.065126 0.356931 0.270995
Si Si7 0.624828 0.534595 0.491809
O O1 0.847944 0.089383 0.299640
O O2 0.745569 0.213806 0.204960
O O3 0.247839 0.384841 0.924856
O O4 0.099032 0.015585 0.064086
O O5 0.534617 0.731942 0.503041
O O6 0.165274 0.791282 0.606732
O O7 0.991603 0.512836 0.885770
O O8 0.569603 0.684198 0.741554
O O9 0.139914 0.232172 0.327747
O O10 0.566756 0.097388 0.165644
O O11 0.646720 0.510051 0.971850
O O12 0.452454 0.307695 0.697582
O O13 0.000000 0.000000 0.000000
O O14 0.942082 0.533109 0.309986
O O15 0.500000 0.500000 0.500000
#
# Coordination Sequence:
#
# PCOD9072959 Si02
#       7
#     2   2   2   2   2   2   2
#     4   9  15  27  50  77  98 124 171 201 251 292
#     4   8  14  29  50  72  91 133 167 192 239 309
#     4   8  13  27  47  73  95 124 161 202 243 290
#     4  10  19  32  52  77 101 127 179 206 241 291
#     4  12  19  30  52  85  96 124 175 222 236 285
#     4   9  19  34  51  72 103 142 161 201 254 308
#     4  10  18  31  52  76 104 131 165 204 257 301
#
# _framework density 22.180347999999999
#
# number of rings (size 3 to 8) (size 9 to 14) (size 15 to 20)
#    0.857    1.714    2.857    1.714    0.000    0.571 
#    0.000    0.714    0.000   11.143    0.000    0.000 
#    0.000    0.000    0.000    0.000    0.000    0.000 
#
# Total GULP energy -78018.720890 kJ/mol
# GULP energy per Si atom -5572.765778 kJ/mol
# Density = 2.212986 g / cm^3
# Si number density = 22.180348 Si / 1000 Ang^3
#
#
#
# Elastic Constant Matrix: (Units=GPa)
#
#
# Indices 1 2 3 4 5 6 
#
# 1 163.3376 68.2154 12.2850 12.3186 -23.0974 6.8094
# 2 68.2154 110.5814 2.3138 11.8515 -13.0083 15.4768
# 3 12.2850 2.3138 44.6303 -0.8500 11.7185 0.1750
# 4 12.3186 11.8515 -0.8500 25.3857 -5.9257 5.4835
# 5 -23.0974 -13.0083 11.7185 -5.9257 22.9162 6.0954
# 6 6.8094 15.4768 0.1750 5.4835 6.0954 34.6152
#
#
#
# Elastic Compliance Matrix: (Units=1/GPa)
#
#
# Indices 1 2 3 4 5 6 
#
# 1 0.010014 -0.004555 -0.005323 -0.000028 0.010697 -0.001786
# 2 -0.004555 0.013337 -0.000570 -0.001848 0.004263 -0.005522
# 3 -0.005323 -0.000570 0.029924 -0.002798 -0.023226 0.005684
# 4 -0.000028 -0.001848 -0.002798 0.045480 0.014483 -0.008909
# 5 0.010697 0.004263 -0.023226 0.014483 0.077748 -0.019878
# 6 -0.001786 -0.005522 0.005684 -0.008909 -0.019878 0.036592
#
#
# Mechanical properties :
#
#
# Convention : Reuss Voigt Hill
#
# Bulk Modulus (GPa) = 30.88400 53.79752 42.34076
# Shear Modulus (GPa) = 20.42614 32.29910 26.36262
#
# Velocity S-wave (km/s) = 3.03794 3.82016 3.45129
# Velocity P-wave (km/s) = 5.12443 6.61555 5.91714
#
# Compressibility (1/GPa) = 0.03237923
#
# Stress axis : x y z
#
# Youngs Moduli (GPa) = 99.85889 74.97853 33.41816
#
# Poissons Ratio (x) = 0.34151 0.17787
# Poissons Ratio (y) = 0.45484 0.01906
# Poissons Ratio (z) = 0.53152 0.04277
#
# Static dielectric constant tensor:
#      x y z
#    x 1.840720 0.040080 -0.016180 
#    y 0.040080 1.848230 -0.067640 
#    z -0.016180 -0.067640 1.944940 
# 
# From -- ./inp_files/592930.got.cif
#   From: 2010.05.17/outbox.cif.g08.bks.cpg/sg2_297_cif.got.tgz:592930.got - 2010.06.03 11:33:40.
