data_PCOD9072856
_publ_section_title
;
Structure prediction by ZEFSAII (Michael W. Deem and Ramdas Pophale) SiO2 
 PCOD9072856
Probable space group: P -1
;
_chemical_formula_sum "Si O2"
_cell_formula_units_Z 14
_cell_length_a 9.033953
_cell_length_b 22.342665
_cell_length_c 5.546408
_cell_angle_alpha 96.389777
_cell_angle_beta 86.220840
_cell_angle_gamma 40.646935
_cell_volume 704.890732
_symmetry_space_group_name_H-M "P -1"
_symmetry_group_IT_number 2
_symmetry_cell_setting 'triclinic'
loop_
_space_group_symop_operation_xyz
x,y,z
-x,-y,-z
loop_
_atom_site_type_symbol
_atom_site_label
_atom_site_fract_x
_atom_site_fract_y
_atom_site_fract_z
Si Si1 0.898315 0.006070 0.763394
Si Si2 0.538347 0.884799 0.924468
Si Si3 0.816322 0.200448 0.344125
Si Si4 0.702720 0.943530 0.256029
Si Si5 0.726771 0.387567 0.939700
Si Si6 0.261851 0.756466 0.139673
Si Si7 0.971638 0.293351 0.371879
O O1 0.969963 0.913107 0.715557
O O2 0.000000 0.000000 0.500000
O O3 0.619571 0.100867 0.860578
O O4 0.000000 0.000000 0.000000
O O5 0.750323 0.787326 0.721643
O O6 0.354202 0.972761 0.801771
O O7 0.653152 0.905611 0.056767
O O8 0.658787 0.240622 0.615469
O O9 0.901907 0.243435 0.354736
O O10 0.689547 0.229386 0.116271
O O11 0.976674 0.849683 0.237929
O O12 0.500000 0.000000 0.500000
O O13 0.663547 0.336314 0.921547
O O14 0.878870 0.347648 0.660724
O O15 0.500000 0.500000 0.000000
O O16 0.858013 0.355583 0.167124
#
# Coordination Sequence:
#
# PCOD9072856 Si02
#       7
#     2   2   2   2   2   2   2
#     4  12  26  37  48  71 109 154 183 217 264 295
#     4  11  21  34  50  76 106 139 187 218 246 319
#     4  10  18  36  50  72 102 133 179 216 236 319
#     4  11  19  29  55  78  98 141 172 220 252 297
#     4  10  19  32  49  80 119 134 154 208 278 342
#     4  10  18  31  51  77 100 134 173 202 251 308
#     4  10  20  34  56  81  99 143 176 213 264 311
#
# _framework density 19.861235000000001
#
# number of rings (size 3 to 8) (size 9 to 14) (size 15 to 20)
#    0.000    1.429    4.286    4.714    2.000    0.000 
#    0.000    0.000    0.000    0.000    0.000    0.000 
#    0.000   91.429    0.000    0.000    0.000    0.000 
#
# Total GULP energy -78063.579044 kJ/mol
# GULP energy per Si atom -5575.969932 kJ/mol
# Density = 1.981603 g / cm^3
# Si number density = 19.861235 Si / 1000 Ang^3
#
#
#
# Elastic Constant Matrix: (Units=GPa)
#
#
# Indices 1 2 3 4 5 6 
#
# 1 34.7489 16.6721 26.2431 -0.9722 -5.1603 -5.9058
# 2 16.6721 133.2780 54.8573 6.8856 -8.4224 0.7887
# 3 26.2431 54.8573 185.8823 -8.8438 -11.9955 -4.2011
# 4 -0.9722 6.8856 -8.8438 30.2563 -1.6618 0.1528
# 5 -5.1603 -8.4224 -11.9955 -1.6618 26.4872 2.0386
# 6 -5.9058 0.7887 -4.2011 0.1528 2.0386 8.3644
#
#
#
# Elastic Compliance Matrix: (Units=1/GPa)
#
#
# Indices 1 2 3 4 5 6 
#
# 1 0.037627 -0.003248 -0.003574 0.000938 0.002863 0.024364
# 2 -0.003248 0.009152 -0.002391 -0.002787 0.001377 -0.004642
# 3 -0.003574 -0.002391 0.006838 0.002521 0.001747 0.000665
# 4 0.000938 -0.002787 0.002521 0.034587 0.002535 0.000941
# 5 0.002863 0.001377 0.001747 0.002535 0.040245 -0.007086
# 6 0.024364 -0.004642 0.000665 0.000941 -0.007086 0.139237
#
#
# Mechanical properties :
#
#
# Convention : Reuss Voigt Hill
#
# Bulk Modulus (GPa) = 28.41563 61.05047 44.73305
# Shear Modulus (GPa) = 16.78745 30.09737 23.44241
#
# Velocity S-wave (km/s) = 2.91045 3.89701 3.43929
# Velocity P-wave (km/s) = 5.06285 7.14522 6.19220
#
# Compressibility (1/GPa) = 0.03519190
#
# Stress axis : x y z
#
# Youngs Moduli (GPa) = 26.57651 109.26575 146.24944
#
# Poissons Ratio (x) = 0.35485 0.52267
# Poissons Ratio (y) = 0.08631 0.34969
# Poissons Ratio (z) = 0.09498 0.26126
#
# Static dielectric constant tensor:
#      x y z
#    x 1.739140 0.008120 0.001450 
#    y 0.008120 1.695040 -0.058660 
#    z 0.001450 -0.058660 1.850390 
# 
# From -- ./inp_files/43669.got.cif
#   From: 2010.05.17/outbox.cif.g08.bks.cpg/sg2_22_cif.got.tgz:43669.got - 2010.06.03 11:33:40.
