data_PCOD9072446
_publ_section_title
;
Structure prediction by ZEFSAII (Michael W. Deem and Ramdas Pophale) SiO2 
 PCOD9072446
Probable space group: P -1
;
_chemical_formula_sum "Si O2"
_cell_formula_units_Z 16
_cell_length_a 12.000000
_cell_length_b 12.000000
_cell_length_c 9.000000
_cell_angle_alpha 100.000000
_cell_angle_beta 60.000000
_cell_angle_gamma 130.000000
_cell_volume 838.191741
_symmetry_space_group_name_H-M "P -1"
_symmetry_group_IT_number 2
_symmetry_cell_setting 'triclinic'
loop_
_space_group_symop_operation_xyz
x,y,z
-x,-y,-z
loop_
_atom_site_type_symbol
_atom_site_label
_atom_site_fract_x
_atom_site_fract_y
_atom_site_fract_z
Si Si1 0.525338 0.402532 0.151030
Si Si2 0.446317 0.699353 0.378989
Si Si3 0.403015 0.989234 0.708350
Si Si4 0.878165 0.934966 0.422629
Si Si5 0.255620 0.422798 0.248211
Si Si6 0.512590 0.825395 0.690049
Si Si7 0.254802 0.302479 0.768562
Si Si8 0.976923 0.166307 0.178745
O O1 0.342604 0.357302 0.238174
O O2 0.519867 0.270381 0.168977
O O3 0.625675 0.519997 0.248009
O O4 0.629049 0.480827 0.949559
O O5 0.293062 0.540272 0.373271
O O6 0.429963 0.728177 0.569046
O O7 0.615018 0.718994 0.267426
O O8 0.499246 0.839236 0.281163
O O9 0.438555 0.907882 0.778141
O O10 0.207994 0.900792 0.771615
O O11 0.500000 0.000000 0.500000
O O12 0.715484 0.923986 0.554541
O O13 0.808494 0.774711 0.368672
O O14 0.965344 0.040412 0.243747
O O15 0.000000 0.000000 0.500000
O O16 0.069654 0.297346 0.273291
O O17 0.101119 0.228836 0.969293
#
# Coordination Sequence:
#
# PCOD9072446 Si02
#       8
#     2   2   2   2   2   2   2   2
#     4   9  18  35  55  77 115 138 172 223 274 322
#     4   9  18  34  57  80 107 143 181 215 265 327
#     4  10  19  37  56  73 109 154 183 204 264 334
#     4  11  21  31  54  85 111 131 174 238 269 305
#     4   9  19  33  55  85 105 137 176 227 275 305
#     4  10  20  36  54  76 106 152 179 210 264 330
#     4   9  19  34  55  83 104 144 179 216 276 320
#     4  11  19  35  58  80 108 141 180 223 264 323
#
# _framework density 19.088711
#
# number of rings (size 3 to 8) (size 9 to 14) (size 15 to 20)
#    0.000    2.250    3.750    1.875    0.000    5.500 
#    0.000    5.625    2.750    0.000    0.000    0.000 
#    0.000    0.000    0.000    0.000    0.000    0.000 
#
# Total GULP energy -89120.043738 kJ/mol
# GULP energy per Si atom -5570.002734 kJ/mol
# Density = 1.904526 g / cm^3
# Si number density = 19.088711 Si / 1000 Ang^3
#
#
#
# Elastic Constant Matrix: (Units=GPa)
#
#
# Indices 1 2 3 4 5 6 
#
# 1 71.4698 13.0439 3.0132 -4.6074 25.5291 -9.9846
# 2 13.0439 37.2257 -10.2276 4.8522 19.1978 -0.5163
# 3 3.0132 -10.2276 22.6557 -4.1773 5.3196 -0.3807
# 4 -4.6074 4.8522 -4.1773 23.3242 1.9283 10.4160
# 5 25.5291 19.1978 5.3196 1.9283 22.8953 -2.2953
# 6 -9.9846 -0.5163 -0.3807 10.4160 -2.2953 42.7176
#
#
#
# Elastic Compliance Matrix: (Units=1/GPa)
#
#
# Indices 1 2 3 4 5 6 
#
# 1 0.032998 0.030574 0.027575 0.009859 -0.069448 0.002193
# 2 0.030574 0.119259 0.088247 0.010606 -0.155645 -0.001575
# 3 0.027575 0.088247 0.115392 0.020420 -0.133635 -0.003619
# 4 0.009859 0.010606 0.020420 0.054259 -0.030428 -0.012251
# 5 -0.069448 -0.155645 -0.133635 -0.030428 0.285582 0.003460
# 6 0.002193 -0.001575 -0.003619 -0.012251 0.003460 0.027044
#
#
# Mechanical properties :
#
#
# Convention : Reuss Voigt Hill
#
# Bulk Modulus (GPa) = 1.78431 15.89002 8.83717
# Shear Modulus (GPa) = 9.45974 26.15555 17.80764
#
# Velocity S-wave (km/s) = 2.22855 3.70565 3.05764
# Velocity P-wave (km/s) = 2.74931 5.16251 4.13583
#
# Compressibility (1/GPa) = 0.56044002
#
# Stress axis : x y z
#
# Youngs Moduli (GPa) = 30.30482 8.38508 8.66613
#
# Poissons Ratio (x) = -0.25636 -0.23897
# Poissons Ratio (y) = -0.92654 -0.76476
# Poissons Ratio (z) = -0.83565 -0.73996
#
# Static dielectric constant tensor:
#      x y z
#    x 1.654380 -0.037680 0.021890 
#    y -0.037680 1.791730 -0.019960 
#    z 0.021890 -0.019960 1.676320 
# 
# From -- ./inp_files/262672.got.cif
#   From: 2010.05.17/outbox.ucp.g08.bks.cvg/sg2_132_cif.got.tgz:262672.got - 2010.06.11 11:32:03.
