data_PCOD9072810
_publ_section_title
;
Structure prediction by ZEFSAII (Michael W. Deem and Ramdas Pophale) SiO2 
 PCOD9072810
Probable space group: P -1
;
_chemical_formula_sum "Si O2"
_cell_formula_units_Z 16
_cell_length_a 12.000000
_cell_length_b 15.000000
_cell_length_c 15.000000
_cell_angle_alpha 140.000000
_cell_angle_beta 30.000000
_cell_angle_gamma 120.000000
_cell_volume 747.221570
_symmetry_space_group_name_H-M "P -1"
_symmetry_group_IT_number 2
_symmetry_cell_setting 'triclinic'
loop_
_space_group_symop_operation_xyz
x,y,z
-x,-y,-z
loop_
_atom_site_type_symbol
_atom_site_label
_atom_site_fract_x
_atom_site_fract_y
_atom_site_fract_z
Si Si1 0.979596 0.397511 0.017806
Si Si2 0.482457 0.838122 0.481675
Si Si3 0.767737 0.496309 0.789727
Si Si4 0.725994 0.595247 0.513991
Si Si5 0.274356 0.164375 0.951392
Si Si6 0.022736 0.846821 0.692309
Si Si7 0.195100 0.847810 0.031939
Si Si8 0.735671 0.290968 0.320627
O O1 0.225312 0.302572 0.842875
O O2 0.000000 0.500000 0.000000
O O3 0.773252 0.531327 0.330429
O O4 0.929123 0.252092 0.912585
O O5 0.260226 0.856144 0.581673
O O6 0.421624 0.769440 0.560194
O O7 0.474697 0.005013 0.635343
O O8 0.697012 0.676959 0.945633
O O9 0.887788 0.341878 0.523176
O O10 0.005304 0.439229 0.653137
O O11 0.500000 0.500000 0.000000
O O12 0.480396 0.775249 0.821521
O O13 0.634874 0.480359 0.536035
O O14 0.223157 0.101212 0.032195
O O15 0.011137 0.217717 0.121334
O O16 0.948644 0.959979 0.741950
O O17 0.226128 0.779074 0.857579
#
# Coordination Sequence:
#
# PCOD9072810 Si02
#       8
#     2   2   2   2   2   2   2   2
#     4  11  23  35  59  93 123 152 190 248 305 342
#     4  11  19  35  63  95 122 143 197 249 294 338
#     4  11  25  42  59  85 123 157 197 244 296 348
#     4  10  22  39  58  82 122 162 193 236 296 355
#     4  10  20  37  62  90 119 155 195 243 290 349
#     4  11  22  38  64  91 116 160 200 237 290 353
#     4  11  20  36  60  86 121 153 200 236 290 354
#     4   9  16  35  58  90 117 152 187 243 286 346
#
# _framework density 21.412658
#
# number of rings (size 3 to 8) (size 9 to 14) (size 15 to 20)
#    0.000    1.500    2.500    4.875    1.750    1.000 
#    0.000    1.250    0.000    1.500    0.000    0.000 
#    0.000    0.000    0.000    0.000    0.000    0.000 
#
# Total GULP energy -89130.741593 kJ/mol
# GULP energy per Si atom -5570.671350 kJ/mol
# Density = 2.136392 g / cm^3
# Si number density = 21.412658 Si / 1000 Ang^3
#
#
#
# Elastic Constant Matrix: (Units=GPa)
#
#
# Indices 1 2 3 4 5 6 
#
# 1 37.9009 28.7565 7.8329 3.0102 -10.4671 6.7945
# 2 28.7565 145.9402 28.2828 14.7672 -6.5752 4.4701
# 3 7.8329 28.2828 67.8542 20.5872 -9.4935 3.9417
# 4 3.0102 14.7672 20.5872 36.7045 0.8582 -2.4006
# 5 -10.4671 -6.5752 -9.4935 0.8582 35.1021 6.0624
# 6 6.7945 4.4701 3.9417 -2.4006 6.0624 39.0435
#
#
#
# Elastic Compliance Matrix: (Units=1/GPa)
#
#
# Indices 1 2 3 4 5 6 
#
# 1 0.035427 -0.006286 0.001000 -0.001675 0.010968 -0.007352
# 2 -0.006286 0.008688 -0.002616 -0.001461 -0.000993 0.000428
# 3 0.001000 -0.002616 0.019983 -0.010608 0.006075 -0.003487
# 4 -0.001675 -0.001461 -0.010608 0.034334 -0.005251 0.004456
# 5 0.010968 -0.000993 0.006075 -0.005251 0.034748 -0.008127
# 6 -0.007352 0.000428 -0.003487 0.004456 -0.008127 0.028731
#
#
# Mechanical properties :
#
#
# Convention : Reuss Voigt Hill
#
# Bulk Modulus (GPa) = 20.70591 42.38218 31.54404
# Shear Modulus (GPa) = 25.79817 34.62489 30.21153
#
# Velocity S-wave (km/s) = 3.47480 4.02559 3.76030
# Velocity P-wave (km/s) = 5.07838 6.43764 5.79798
#
# Compressibility (1/GPa) = 0.04829540
#
# Stress axis : x y z
#
# Youngs Moduli (GPa) = 28.22697 115.10559 50.04155
#
# Poissons Ratio (x) = 0.72351 -0.05005
# Poissons Ratio (y) = 0.17743 0.13090
# Poissons Ratio (z) = -0.02823 0.30110
#
# Static dielectric constant tensor:
#      x y z
#    x 1.778620 -0.027670 0.009210 
#    y -0.027670 1.818830 -0.033870 
#    z 0.009210 -0.033870 1.948230 
# 
# From -- ./inp_files/205213.got.cif
#   From: 2010.05.17/outbox.ucp.g08.bks.cvg/sg2_103_cif.got.tgz:205213.got - 2010.06.11 11:32:03.
