data_PCOD9072546
_publ_section_title
;
Structure prediction by ZEFSAII (Michael W. Deem and Ramdas Pophale) SiO2 
 PCOD9072546
Probable space group: P -1
;
_chemical_formula_sum "Si O2"
_cell_formula_units_Z 16
_cell_length_a 9.000000
_cell_length_b 18.000000
_cell_length_c 12.000000
_cell_angle_alpha 30.000000
_cell_angle_beta 70.000000
_cell_angle_gamma 60.000000
_cell_volume 822.981223
_symmetry_space_group_name_H-M "P -1"
_symmetry_group_IT_number 2
_symmetry_cell_setting 'triclinic'
loop_
_space_group_symop_operation_xyz
x,y,z
-x,-y,-z
loop_
_atom_site_type_symbol
_atom_site_label
_atom_site_fract_x
_atom_site_fract_y
_atom_site_fract_z
Si Si1 0.912744 0.397544 0.964235
Si Si2 0.126021 0.578817 0.662561
Si Si3 0.705437 0.310942 0.326857
Si Si4 0.351165 0.334259 0.473614
Si Si5 0.042480 0.053542 0.300508
Si Si6 0.116915 0.845622 0.017657
Si Si7 0.164643 0.108239 0.794505
Si Si8 0.333839 0.481862 0.517691
O O1 0.815323 0.510583 0.736580
O O2 0.017181 0.494205 0.861417
O O3 0.782013 0.368106 0.124100
O O4 0.052544 0.221869 0.109914
O O5 0.248576 0.609055 0.681100
O O6 0.227711 0.473032 0.665860
O O7 0.992027 0.755117 0.417092
O O8 0.504976 0.343702 0.347725
O O9 0.803080 0.112658 0.566475
O O10 0.310977 0.175654 0.675913
O O11 0.378432 0.351379 0.576059
O O12 0.899513 0.106730 0.169283
O O13 0.000000 0.000000 0.500000
O O14 0.212679 0.937156 0.942338
O O15 0.216288 0.653111 0.263613
O O16 0.925679 0.898985 0.055349
O O17 0.500000 0.500000 0.500000
#
# Coordination Sequence:
#
# PCOD9072546 Si02
#       8
#     2   2   2   2   2   2   2   2
#     4  10  22  38  61  84 112 163 198 234 287 346
#     4  10  20  36  60  86 113 153 200 237 283 352
#     4  11  21  39  59  85 123 148 197 245 287 340
#     4  11  22  38  59  89 121 150 193 245 295 346
#     4  10  21  37  61  85 113 155 200 236 280 347
#     4  10  19  39  60  81 119 158 193 235 294 346
#     4   9  21  35  61  85 110 157 194 235 292 354
#     4  11  22  37  58  88 122 151 190 247 298 345
#
# _framework density 19.441513
#
# number of rings (size 3 to 8) (size 9 to 14) (size 15 to 20)
#    0.000    1.750    3.750    0.750    1.750    1.500 
#    2.250    1.250    0.000    1.500    0.000    0.000 
#    0.000    0.000    0.000    0.000    0.000    0.000 
#
# Total GULP energy -89103.117303 kJ/mol
# GULP energy per Si atom -5568.944831 kJ/mol
# Density = 1.939726 g / cm^3
# Si number density = 19.441513 Si / 1000 Ang^3
#
#
#
# Elastic Constant Matrix: (Units=GPa)
#
#
# Indices 1 2 3 4 5 6 
#
# 1 78.1478 20.5154 24.9569 9.6472 -22.6785 6.0301
# 2 20.5154 57.5168 28.3073 16.1244 -10.2837 10.6440
# 3 24.9569 28.3073 64.1943 6.7989 -18.1779 8.0090
# 4 9.6472 16.1244 6.7989 27.5814 4.4851 3.0765
# 5 -22.6785 -10.2837 -18.1779 4.4851 34.6443 4.2824
# 6 6.0301 10.6440 8.0090 3.0765 4.2824 22.8033
#
#
#
# Elastic Compliance Matrix: (Units=1/GPa)
#
#
# Indices 1 2 3 4 5 6 
#
# 1 0.018476 -0.000322 -0.002062 -0.007200 0.012516 -0.005391
# 2 -0.000322 0.028547 -0.007533 -0.014819 0.007465 -0.009997
# 3 -0.002062 -0.007533 0.023270 -0.001525 0.009526 -0.005695
# 4 -0.007200 -0.014819 -0.001525 0.049944 -0.017099 0.005829
# 5 0.012516 0.007465 0.009526 -0.017099 0.048581 -0.016956
# 6 -0.005391 -0.009997 -0.005695 0.005829 -0.016956 0.054343
#
#
# Mechanical properties :
#
#
# Convention : Reuss Voigt Hill
#
# Bulk Modulus (GPa) = 19.81715 38.60201 29.20958
# Shear Modulus (GPa) = 19.24448 25.41108 22.32778
#
# Velocity S-wave (km/s) = 3.14963 3.61924 3.39257
# Velocity P-wave (km/s) = 4.84171 6.11259 5.51389
#
# Compressibility (1/GPa) = 0.05046133
#
# Stress axis : x y z
#
# Youngs Moduli (GPa) = 54.12426 35.02966 42.97316
#
# Poissons Ratio (x) = 0.01126 0.08861
# Poissons Ratio (y) = 0.01740 0.32370
# Poissons Ratio (z) = 0.11160 0.26387
#
# Static dielectric constant tensor:
#      x y z
#    x 1.707900 -0.011390 0.014450 
#    y -0.011390 1.718700 -0.020390 
#    z 0.014450 -0.020390 1.681570 
# 
# From -- ./inp_files/176036.got.cif
#   From: 2010.05.17/outbox.ucp.g08.bks.cvg/sg2_89_cif.got.tgz:176036.got - 2010.06.11 11:32:03.
