data_PCOD9072866
_publ_section_title
;
Structure prediction by ZEFSAII (Michael W. Deem and Ramdas Pophale) SiO2 
 PCOD9072866
Probable space group: P -1
;
_chemical_formula_sum "Si O2"
_cell_formula_units_Z 16
_cell_length_a 9.000000
_cell_length_b 15.000000
_cell_length_c 12.000000
_cell_angle_alpha 40.000000
_cell_angle_beta 60.000000
_cell_angle_gamma 80.000000
_cell_volume 835.587839
_symmetry_space_group_name_H-M "P -1"
_symmetry_group_IT_number 2
_symmetry_cell_setting 'triclinic'
loop_
_space_group_symop_operation_xyz
x,y,z
-x,-y,-z
loop_
_atom_site_type_symbol
_atom_site_label
_atom_site_fract_x
_atom_site_fract_y
_atom_site_fract_z
Si Si1 0.531234 0.080274 0.592942
Si Si2 0.771695 0.379666 0.790740
Si Si3 0.868188 0.811077 0.000495
Si Si4 0.724454 0.195061 0.188828
Si Si5 0.526108 0.540734 0.319242
Si Si6 0.949164 0.286164 0.629767
Si Si7 0.684297 0.052725 0.800403
Si Si8 0.277720 0.224754 0.654583
O O1 0.664280 0.193871 0.341720
O O2 0.637679 0.061449 0.680659
O O3 0.360700 0.111463 0.682519
O O4 0.435773 0.934804 0.693166
O O5 0.614813 0.395749 0.751762
O O6 0.836810 0.263303 0.809927
O O7 0.944245 0.536484 0.586740
O O8 0.727502 0.333697 0.978983
O O9 0.731231 0.665743 0.122872
O O10 0.811579 0.791816 0.172282
O O11 0.078228 0.826332 0.880857
O O12 0.800228 0.945360 0.867565
O O13 0.500000 0.500000 0.500000
O O14 0.459149 0.378988 0.441574
O O15 0.812573 0.211508 0.652648
O O16 0.112818 0.225439 0.636933
O O17 0.500000 0.000000 0.000000
#
# Coordination Sequence:
#
# PCOD9072866 Si02
#       8
#     2   2   2   2   2   2   2   2
#     4  11  25  41  59  88 125 160 196 251 302 355
#     4  10  20  38  61  88 122 159 195 242 304 355
#     4  11  21  36  63  89 119 157 203 246 298 353
#     4  11  24  42  61  85 124 165 198 238 306 366
#     4   9  20  35  58  94 125 150 192 256 300 341
#     4  10  21  35  61  92 117 150 203 253 288 349
#     4  12  23  36  60  92 121 152 203 255 299 342
#     4  10  20  38  60  90 119 152 203 249 293 350
#
# _framework density 19.148195999999999
#
# number of rings (size 3 to 8) (size 9 to 14) (size 15 to 20)
#    0.000    1.500    2.500    3.000    3.500    1.500 
#    0.000    6.250    0.000    0.000    0.000    0.000 
#    0.000    0.000    0.000    0.000    0.000    0.000 
#
# Total GULP energy -89077.906375 kJ/mol
# GULP energy per Si atom -5567.369148 kJ/mol
# Density = 1.910461 g / cm^3
# Si number density = 19.148196 Si / 1000 Ang^3
#
#
#
# Elastic Constant Matrix: (Units=GPa)
#
#
# Indices 1 2 3 4 5 6 
#
# 1 84.6502 49.0800 46.7171 -5.7396 0.3523 44.1941
# 2 49.0800 33.2248 16.5541 17.1395 9.6101 14.4092
# 3 46.7171 16.5541 82.2191 17.1152 6.6703 18.3868
# 4 -5.7396 17.1395 17.1152 21.4592 0.9936 3.6227
# 5 0.3523 9.6101 6.6703 0.9936 24.5451 -3.4108
# 6 44.1941 14.4092 18.3868 3.6227 -3.4108 24.9290
#
#
#
# Elastic Compliance Matrix: (Units=1/GPa)
#
#
# Indices 1 2 3 4 5 6 
#
# 1 -0.007519 0.028893 0.006845 -0.028953 -0.012720 -0.005953
# 2 0.028893 0.009170 -0.009038 0.017122 -0.009700 -0.053671
# 3 0.006845 -0.009038 0.014133 0.000930 -0.002921 -0.017869
# 4 -0.028953 0.017122 0.000930 0.018146 -0.002018 0.037833
# 5 -0.012720 -0.009700 -0.002921 -0.002018 0.050816 0.037556
# 6 -0.005953 -0.053671 -0.017869 0.037833 0.037556 0.094509
#
#
# Mechanical properties :
#
#
# Convention : Reuss Voigt Hill
#
# Bulk Modulus (GPa) = 14.45435 47.19960 30.82698
# Shear Modulus (GPa) = 33.57576 20.03619 26.80598
#
# Velocity S-wave (km/s) = 4.19199 3.23828 3.74561
# Velocity P-wave (km/s) = 5.56735 6.21973 5.90256
#
# Compressibility (1/GPa) = 0.06918332
#
# Stress axis : x y z
#
# Youngs Moduli (GPa) = -133.00178 109.05077 70.75863
#
# Poissons Ratio (x) = -3.15077 -0.48435
# Poissons Ratio (y) = 3.84278 0.63952
# Poissons Ratio (z) = 0.91040 0.98561
#
# Static dielectric constant tensor:
#      x y z
#    x 1.691560 -0.028790 0.018180 
#    y -0.028790 1.675100 -0.019000 
#    z 0.018180 -0.019000 1.800310 
# 
# From -- ./inp_files/272814.got.cif
#   From: 2010.05.17/outbox.ucp.g08.bks.cvg/sg2_137_cif.got.tgz:272814.got - 2010.06.11 11:32:03.
