data_PCOD9072039
_publ_section_title
;
Structure prediction by ZEFSAII (Michael W. Deem and Ramdas Pophale) SiO2 
 PCOD9072039
Probable space group: P -1
;
_chemical_formula_sum "Si O2"
_cell_formula_units_Z 16
_cell_length_a 11.933435
_cell_length_b 14.539054
_cell_length_c 11.944930
_cell_angle_alpha 84.801238
_cell_angle_beta 37.023593
_cell_angle_gamma 59.927368
_cell_volume 868.874936
_symmetry_space_group_name_H-M "P -1"
_symmetry_group_IT_number 2
_symmetry_cell_setting 'triclinic'
loop_
_space_group_symop_operation_xyz
x,y,z
-x,-y,-z
loop_
_atom_site_type_symbol
_atom_site_label
_atom_site_fract_x
_atom_site_fract_y
_atom_site_fract_z
Si Si1 0.598595 0.592529 0.504118
Si Si2 0.380810 0.687031 0.016381
Si Si3 0.860768 0.106330 0.199072
Si Si4 0.183113 0.399522 0.465208
Si Si5 0.814945 0.430814 0.132730
Si Si6 0.735401 0.475817 0.938290
Si Si7 0.785322 0.864556 0.151206
Si Si8 0.179971 0.064328 0.633358
O O1 0.420287 0.748589 0.625676
O O2 0.789804 0.536479 0.463376
O O3 0.748953 0.522894 0.275707
O O4 0.399235 0.577461 0.684243
O O5 0.389683 0.581884 0.964691
O O6 0.071590 0.820998 0.253754
O O7 0.528822 0.706340 0.812572
O O8 0.541863 0.614792 0.010940
O O9 0.824843 0.043758 0.329768
O O10 0.053008 0.125295 0.061112
O O11 0.000000 0.000000 0.000000
O O12 0.000000 0.500000 0.500000
O O13 0.018903 0.375431 0.657026
O O14 0.782516 0.482229 0.028919
O O15 0.098079 0.279410 0.935722
O O16 0.847635 0.875306 0.228986
O O17 0.473331 0.985105 0.367305
#
# Coordination Sequence:
#
# PCOD9072039 Si02
#       8
#     2   2   2   2   2   2   2   2
#     4  10  20  34  56  82 110 142 175 220 275 315
#     4  10  19  35  51  79 110 136 183 220 266 317
#     4   9  18  31  49  74 104 136 171 219 264 311
#     4  10  20  33  52  79 109 137 176 220 266 315
#     4  10  19  36  55  80 114 140 175 222 268 328
#     4  10  20  32  55  76 109 145 171 222 273 313
#     4   9  18  31  47  77 103 134 177 216 265 310
#     4  10  18  30  51  72 105 135 176 222 260 309
#
# _framework density 18.414617
#
# number of rings (size 3 to 8) (size 9 to 14) (size 15 to 20)
#    0.000    2.250    2.500    1.500    1.750    2.500 
#    0.000    0.000    0.000    0.750    3.250    2.625 
#    0.000    0.000    0.000    0.000    0.000    0.000 
#
# Total GULP energy -89146.994328 kJ/mol
# GULP energy per Si atom -5571.687145 kJ/mol
# Density = 1.837270 g / cm^3
# Si number density = 18.414617 Si / 1000 Ang^3
#
#
#
# Elastic Constant Matrix: (Units=GPa)
#
#
# Indices 1 2 3 4 5 6 
#
# 1 68.2420 30.6090 32.7597 14.4955 3.8206 -15.7308
# 2 30.6090 64.2649 31.3331 4.1171 3.3799 -11.6235
# 3 32.7597 31.3331 86.5971 6.3673 -5.4798 -11.8377
# 4 14.4955 4.1171 6.3673 29.1593 0.6506 -1.1263
# 5 3.8206 3.3799 -5.4798 0.6506 29.4943 -0.6505
# 6 -15.7308 -11.6235 -11.8377 -1.1263 -0.6505 18.2210
#
#
#
# Elastic Compliance Matrix: (Units=1/GPa)
#
#
# Indices 1 2 3 4 5 6 
#
# 1 0.025348 -0.006409 -0.004810 -0.010042 -0.002914 0.013946
# 2 -0.006409 0.022102 -0.005126 0.001444 -0.002571 0.005233
# 3 -0.004810 -0.005126 0.015934 -0.000341 0.004246 0.003060
# 4 -0.010042 0.001444 -0.000341 0.038940 0.000090 -0.005560
# 5 -0.002914 -0.002571 0.004246 0.000090 0.035361 -0.000129
# 6 0.013946 0.005233 0.003060 -0.005560 -0.000129 0.071900
#
#
# Mechanical properties :
#
#
# Convention : Reuss Voigt Hill
#
# Bulk Modulus (GPa) = 32.57947 45.38972 38.98460
# Shear Modulus (GPa) = 19.80147 23.66842 21.73495
#
# Velocity S-wave (km/s) = 3.28275 3.58901 3.43929
# Velocity P-wave (km/s) = 5.66562 6.47123 6.08178
#
# Compressibility (1/GPa) = 0.03069417
#
# Stress axis : x y z
#
# Youngs Moduli (GPa) = 39.45009 45.24548 62.75858
#
# Poissons Ratio (x) = 0.28999 0.30186
# Poissons Ratio (y) = 0.25284 0.32170
# Poissons Ratio (z) = 0.18975 0.23193
#
# Static dielectric constant tensor:
#      x y z
#    x 1.642670 0.013190 -0.035570 
#    y 0.013190 1.665050 -0.036560 
#    z -0.035570 -0.036560 1.683760 
# 
# From -- ./inp_files/335087.got.cif
#   From: 2010.05.17/outbox.cif.g08.bks.cpg/sg2_168_cif.got.tgz:335087.got - 2010.06.03 11:33:40.
