data_PCOD9072720
_publ_section_title
;
Structure prediction by ZEFSAII (Michael W. Deem and Ramdas Pophale) SiO2 
 PCOD9072720
Probable space group: P -1
;
_chemical_formula_sum "Si O2"
_cell_formula_units_Z 16
_cell_length_a 12.124828
_cell_length_b 14.021643
_cell_length_c 18.406581
_cell_angle_alpha 163.714369
_cell_angle_beta 44.909492
_cell_angle_gamma 136.978371
_cell_volume 598.380119
_symmetry_space_group_name_H-M "P -1"
_symmetry_group_IT_number 2
_symmetry_cell_setting 'triclinic'
loop_
_space_group_symop_operation_xyz
x,y,z
-x,-y,-z
loop_
_atom_site_type_symbol
_atom_site_label
_atom_site_fract_x
_atom_site_fract_y
_atom_site_fract_z
Si Si1 0.241500 0.071919 0.539025
Si Si2 0.969390 0.608116 0.823808
Si Si3 0.483177 0.619689 0.682754
Si Si4 0.595387 0.432410 0.977807
Si Si5 0.146749 0.872071 0.667510
Si Si6 0.443308 0.650494 0.323299
Si Si7 0.140444 0.574845 0.868410
Si Si8 0.821106 0.624989 0.550923
O O1 0.402807 0.331038 0.684325
O O2 0.111695 0.275864 0.724341
O O3 0.161646 0.754480 0.399272
O O4 0.317200 0.869964 0.295422
O O5 0.017053 0.557653 0.848010
O O6 0.891128 0.935438 0.100488
O O7 0.125001 0.615763 0.710093
O O8 0.500000 0.500000 0.500000
O O9 0.294617 0.492067 0.695527
O O10 0.630684 0.494059 0.558626
O O11 0.500000 0.000000 0.000000
O O12 0.500000 0.500000 0.000000
O O13 0.744259 0.781008 0.172069
O O14 0.457427 0.348444 0.041114
O O15 0.969493 0.685122 0.583090
O O16 0.274747 0.636354 0.429551
O O17 0.500000 0.000000 0.500000
O O18 0.167544 0.963499 0.174525
#
# Coordination Sequence:
#
# PCOD9072720 Si02
#       8
#     2   2   2   2   2   2   2   2
#     4  11  21  32  52  78 117 146 173 229 274 339
#     4  10  19  32  52  78 113 143 177 218 282 334
#     4  10  20  40  63  80 109 149 199 242 276 336
#     4  10  18  31  50  74 105 148 186 222 263 330
#     4   9  19  29  50  80 103 137 187 224 264 325
#     4  10  18  32  49  72 105 143 188 214 265 321
#     4  10  22  36  50  83 111 142 185 224 288 335
#     4  10  20  34  57  78 108 146 184 232 276 332
#
# _framework density 26.738854
#
# number of rings (size 3 to 8) (size 9 to 14) (size 15 to 20)
#    0.000    2.000    3.750    1.875    1.750    1.500 
#    0.000    0.000    0.000    0.750    0.000    1.750 
#    0.000    0.000    0.000    0.000    0.000    0.000 
#
# Total GULP energy -89071.824810 kJ/mol
# GULP energy per Si atom -5566.989051 kJ/mol
# Density = 2.667800 g / cm^3
# Si number density = 26.738854 Si / 1000 Ang^3
#
#
#
# Elastic Constant Matrix: (Units=GPa)
#
#
# Indices 1 2 3 4 5 6 
#
# 1 137.7098 38.0589 32.7313 -9.4624 -0.3592 23.9927
# 2 38.0589 90.3491 49.9662 -28.5787 -18.6360 28.0529
# 3 32.7313 49.9662 136.3392 -33.2039 -11.4927 -3.3058
# 4 -9.4624 -28.5787 -33.2039 53.8611 14.7722 -17.7994
# 5 -0.3592 -18.6360 -11.4927 14.7722 41.6977 -5.6619
# 6 23.9927 28.0529 -3.3058 -17.7994 -5.6619 41.5459
#
#
#
# Elastic Compliance Matrix: (Units=1/GPa)
#
#
# Indices 1 2 3 4 5 6 
#
# 1 0.009087 -0.001922 -0.002247 -0.002173 -0.001342 -0.005243
# 2 -0.001922 0.020925 -0.006812 0.000978 0.005427 -0.012403
# 3 -0.002247 -0.006812 0.012238 0.006988 -0.000843 0.009750
# 4 -0.002173 0.000978 0.006988 0.028898 -0.006170 0.012690
# 5 -0.001342 0.005427 -0.000843 -0.006170 0.028109 -0.001769
# 6 -0.005243 -0.012403 0.009750 0.012690 -0.001769 0.041443
#
#
# Mechanical properties :
#
#
# Convention : Reuss Voigt Hill
#
# Bulk Modulus (GPa) = 49.28810 67.32345 58.30577
# Shear Modulus (GPa) = 29.51158 43.66374 36.58766
#
# Velocity S-wave (km/s) = 3.32580 4.04539 3.70311
# Velocity P-wave (km/s) = 5.76377 6.85952 6.33538
#
# Compressibility (1/GPa) = 0.02028887
#
# Stress axis : x y z
#
# Youngs Moduli (GPa) = 110.04234 47.78986 81.71314
#
# Poissons Ratio (x) = 0.09183 0.18359
# Poissons Ratio (y) = 0.21146 0.55665
# Poissons Ratio (z) = 0.24724 0.32556
#
# Static dielectric constant tensor:
#      x y z
#    x 2.751540 -0.607050 -0.058750 
#    y -0.607050 2.663720 0.133520 
#    z -0.058750 0.133520 2.276610 
# 
# From -- ./inp_files/570005.got.cif
#   From: 2010.05.17/outbox.cif.g08.bks.cpg/sg2_286_cif.got.tgz:570005.got - 2010.06.03 11:33:40.
