data_PCOD9072129
_publ_section_title
;
Structure prediction by ZEFSAII (Michael W. Deem and Ramdas Pophale) SiO2 
 PCOD9072129
Probable space group: P -1
;
_chemical_formula_sum "Si O2"
_cell_formula_units_Z 16
_cell_length_a 15.000000
_cell_length_b 9.000000
_cell_length_c 21.000000
_cell_angle_alpha 130.000000
_cell_angle_beta 20.000000
_cell_angle_gamma 130.000000
_cell_volume 734.602417
_symmetry_space_group_name_H-M "P -1"
_symmetry_group_IT_number 2
_symmetry_cell_setting 'triclinic'
loop_
_space_group_symop_operation_xyz
x,y,z
-x,-y,-z
loop_
_atom_site_type_symbol
_atom_site_label
_atom_site_fract_x
_atom_site_fract_y
_atom_site_fract_z
Si Si1 0.571420 0.307852 0.438030
Si Si2 0.000787 0.219102 0.778781
Si Si3 0.239027 0.078822 0.223117
Si Si4 0.473839 0.589165 0.353321
Si Si5 0.882512 0.666721 0.983407
Si Si6 0.467705 0.846802 0.828028
Si Si7 0.881551 0.618573 0.721588
Si Si8 0.566123 0.747134 0.092328
O O1 0.500000 0.500000 0.500000
O O2 0.587302 0.345820 0.514600
O O3 0.817729 0.236611 0.214901
O O4 0.289145 0.173550 0.589010
O O5 0.931955 0.439654 0.882533
O O6 0.960460 0.118350 0.709059
O O7 0.799294 0.139315 0.948365
O O8 0.301873 0.138760 0.269319
O O9 0.171667 0.245376 0.265807
O O10 0.500000 0.000000 0.000000
O O11 0.539004 0.366967 0.256447
O O12 0.191906 0.602243 0.512889
O O13 0.719832 0.683185 0.165066
O O14 0.698544 0.716735 0.062975
O O15 0.496993 0.032999 0.813943
O O16 0.700022 0.408405 0.776991
O O17 0.761962 0.700806 0.889988
#
# Coordination Sequence:
#
# PCOD9072129 Si02
#       8
#     2   2   2   2   2   2   2   2
#     4  10  22  41  69  96 123 173 226 262 316 385
#     4   9  19  37  65  93 125 175 216 261 318 389
#     4  10  18  37  61  99 127 173 213 257 329 386
#     4  11  24  44  66  98 130 172 214 267 327 380
#     4  10  22  40  64  92 133 166 215 270 316 381
#     4  10  22  37  66  97 137 166 211 271 325 382
#     4  11  22  36  66  93 131 174 215 260 321 393
#     4  11  21  37  63  98 130 173 214 261 324 388
#
# _framework density 21.780488999999999
#
# number of rings (size 3 to 8) (size 9 to 14) (size 15 to 20)
#    0.000    1.750    3.750    2.250    1.750    7.000 
#    0.000    5.000    0.000    6.000    0.000    0.000 
#    0.000    0.000    0.000    0.000    0.000    0.000 
#
# Total GULP energy -89125.573002 kJ/mol
# GULP energy per Si atom -5570.348313 kJ/mol
# Density = 2.173092 g / cm^3
# Si number density = 21.780489 Si / 1000 Ang^3
#
#
#
# Elastic Constant Matrix: (Units=GPa)
#
#
# Indices 1 2 3 4 5 6 
#
# 1 91.7995 5.9123 31.2908 -5.6881 -7.2690 -20.2643
# 2 5.9123 34.6368 8.1856 5.5953 -12.1949 -19.0428
# 3 31.2908 8.1856 135.4818 -10.6840 -12.9272 -2.7214
# 4 -5.6881 5.5953 -10.6840 13.1566 0.4664 -4.9813
# 5 -7.2690 -12.1949 -12.9272 0.4664 33.3071 -0.4456
# 6 -20.2643 -19.0428 -2.7214 -4.9813 -0.4456 30.7382
#
#
#
# Elastic Compliance Matrix: (Units=1/GPa)
#
#
# Indices 1 2 3 4 5 6 
#
# 1 0.015722 0.007366 -0.002680 0.007345 0.005198 0.015956
# 2 0.007366 0.060712 -0.003160 -0.010575 0.023304 0.040813
# 3 -0.002680 -0.003160 0.008823 0.006593 0.001565 -0.001852
# 4 0.007345 -0.010575 0.006593 0.094427 -0.000843 0.014165
# 5 0.005198 0.023304 0.001565 -0.000843 0.040557 0.018454
# 6 0.015956 0.040813 -0.001852 0.014165 0.018454 0.070735
#
#
# Mechanical properties :
#
#
# Convention : Reuss Voigt Hill
#
# Bulk Modulus (GPa) = 11.32393 39.18840 25.25616
# Shear Modulus (GPa) = 15.75495 29.87568 22.81531
#
# Velocity S-wave (km/s) = 2.69244 3.70763 3.24004
# Velocity P-wave (km/s) = 3.85695 6.02994 5.06143
#
# Compressibility (1/GPa) = 0.08830859
#
# Stress axis : x y z
#
# Youngs Moduli (GPa) = 63.60696 16.47119 113.33856
#
# Poissons Ratio (x) = -0.12133 0.30379
# Poissons Ratio (y) = -0.46855 0.35815
# Poissons Ratio (z) = 0.17049 0.05205
#
# Static dielectric constant tensor:
#      x y z
#    x 1.948160 0.113810 -0.037740 
#    y 0.113810 1.936260 -0.112100 
#    z -0.037740 -0.112100 1.836060 
# 
# From -- ./inp_files/537644.got.cif
#   From: 2010.05.17/outbox.ucp.g08.bks.cvg/sg2_269_cif.got.tgz:537644.got - 2010.06.11 11:32:03.
