data_PCOD9072800
_publ_section_title
;
Structure prediction by ZEFSAII (Michael W. Deem and Ramdas Pophale) SiO2 
 PCOD9072800
Probable space group: P -1
;
_chemical_formula_sum "Si O2"
_cell_formula_units_Z 16
_cell_length_a 14.132918
_cell_length_b 20.421189
_cell_length_c 22.937177
_cell_angle_alpha 161.811836
_cell_angle_beta 157.928133
_cell_angle_gamma 30.082316
_cell_volume 769.998798
_symmetry_space_group_name_H-M "P -1"
_symmetry_group_IT_number 2
_symmetry_cell_setting 'triclinic'
loop_
_space_group_symop_operation_xyz
x,y,z
-x,-y,-z
loop_
_atom_site_type_symbol
_atom_site_label
_atom_site_fract_x
_atom_site_fract_y
_atom_site_fract_z
Si Si1 0.194154 0.093066 0.640248
Si Si2 0.248101 0.846376 0.960433
Si Si3 0.351699 0.592727 0.597139
Si Si4 0.265456 0.999241 0.970317
Si Si5 0.215777 0.650560 0.214038
Si Si6 0.092348 0.215593 0.947926
Si Si7 0.819575 0.199466 0.429736
Si Si8 0.247042 0.299113 0.392470
O O1 0.461134 0.199082 0.907609
O O2 0.044466 0.238131 0.636592
O O3 0.226507 0.883371 0.444853
O O4 0.000000 0.000000 0.500000
O O5 0.186656 0.919688 0.922218
O O6 0.253769 0.049479 0.178082
O O7 0.020550 0.677278 0.710568
O O8 0.648616 0.625271 0.778364
O O9 0.201787 0.614365 0.470351
O O10 0.267137 0.390821 0.416499
O O11 0.305487 0.791869 0.779909
O O12 0.088961 0.130868 0.940813
O O13 0.544505 0.136353 0.248765
O O14 0.499583 0.596029 0.341166
O O15 0.000000 0.500000 0.000000
O O16 0.128080 0.680408 0.122744
O O17 0.135313 0.007115 0.757736
#
# Coordination Sequence:
#
# PCOD9072800 Si02
#       8
#     2   2   2   2   2   2   2   2
#     4  10  18  31  51  72  95 124 161 200 235 278
#     4  10  21  34  47  69 103 135 156 186 241 295
#     4   9  16  30  51  72  94 122 161 201 236 278
#     4   9  16  30  51  72  94 122 161 201 236 278
#     4  10  18  31  51  72  95 124 161 200 235 278
#     4   8  15  28  49  74  95 118 155 204 244 272
#     4   8  15  28  49  74  95 118 155 204 244 272
#     4  10  21  34  47  69 103 135 156 186 241 295
#
# _framework density 20.779253000000001
#
# number of rings (size 3 to 8) (size 9 to 14) (size 15 to 20)
#    0.000    2.750    2.500    1.500    0.000    0.500 
#    0.000    5.000    0.000    0.000    0.000    0.000 
#    0.000    0.000    0.000    0.000    0.000    0.000 
#
# Total GULP energy -89246.616491 kJ/mol
# GULP energy per Si atom -5577.913531 kJ/mol
# Density = 2.073196 g / cm^3
# Si number density = 20.779253 Si / 1000 Ang^3
#
#
#
# Elastic Constant Matrix: (Units=GPa)
#
#
# Indices 1 2 3 4 5 6 
#
# 1 59.3431 26.4053 33.7268 -30.0565 7.4277 20.8052
# 2 26.4053 79.9399 47.1619 -37.6222 8.7060 33.2617
# 3 33.7268 47.1619 79.0298 -21.3986 10.5913 6.0062
# 4 -30.0565 -37.6222 -21.3986 38.9783 -12.8028 -16.8864
# 5 7.4277 8.7060 10.5913 -12.8028 33.3391 8.0516
# 6 20.8052 33.2617 6.0062 -16.8864 8.0516 34.7551
#
#
#
# Elastic Compliance Matrix: (Units=1/GPa)
#
#
# Indices 1 2 3 4 5 6 
#
# 1 0.067056 0.056029 -0.043428 0.063164 0.023200 -0.060943
# 2 0.056029 0.098517 -0.059045 0.078731 0.031725 -0.086716
# 3 -0.043428 -0.059045 0.053209 -0.043867 -0.022470 0.057202
# 4 0.063164 0.078731 -0.043867 0.112667 0.036913 -0.059389
# 5 0.023200 0.031725 -0.022470 0.036913 0.045837 -0.033051
# 6 -0.060943 -0.086716 0.057202 -0.059389 -0.033051 0.117161
#
#
# Mechanical properties :
#
#
# Convention : Reuss Voigt Hill
#
# Bulk Modulus (GPa) = 7.94320 48.10011 28.02166
# Shear Modulus (GPa) = 7.94534 28.81575 18.38055
#
# Velocity S-wave (km/s) = 1.95755 3.72796 2.97739
# Velocity P-wave (km/s) = 2.99003 6.45977 5.03333
#
# Compressibility (1/GPa) = 0.12589380
#
# Stress axis : x y z
#
# Youngs Moduli (GPa) = 14.91287 10.15058 18.79378
#
# Poissons Ratio (x) = -0.56873 0.81617
# Poissons Ratio (y) = -0.83556 1.10969
# Poissons Ratio (z) = 0.64763 0.59935
#
# Static dielectric constant tensor:
#      x y z
#    x 1.877210 -0.177870 -0.092880 
#    y -0.177870 1.975400 0.069070 
#    z -0.092880 0.069070 1.775720 
# 
# From -- ./inp_files/253186.got.cif
#   From: 2010.05.17/outbox.cif.g08.bks.cpg/sg2_127_cif.got.tgz:253186.got - 2010.06.03 11:33:40.
