data_PCOD9072815
_publ_section_title
;
Structure prediction by ZEFSAII (Michael W. Deem and Ramdas Pophale) SiO2 
 PCOD9072815
Probable space group: P -1
;
_chemical_formula_sum "Si O2"
_cell_formula_units_Z 16
_cell_length_a 12.000000
_cell_length_b 15.000000
_cell_length_c 15.000000
_cell_angle_alpha 140.000000
_cell_angle_beta 150.000000
_cell_angle_gamma 40.000000
_cell_volume 822.330465
_symmetry_space_group_name_H-M "P -1"
_symmetry_group_IT_number 2
_symmetry_cell_setting 'triclinic'
loop_
_space_group_symop_operation_xyz
x,y,z
-x,-y,-z
loop_
_atom_site_type_symbol
_atom_site_label
_atom_site_fract_x
_atom_site_fract_y
_atom_site_fract_z
Si Si1 0.358864 0.427856 0.774332
Si Si2 0.825250 0.471080 0.476505
Si Si3 0.324908 0.050614 0.738501
Si Si4 0.087124 0.091893 0.204156
Si Si5 0.741466 0.778925 0.738694
Si Si6 0.197974 0.822424 0.186470
Si Si7 0.970048 0.977468 0.312762
Si Si8 0.315739 0.792682 0.851939
O O1 0.257223 0.496711 0.659674
O O2 0.566540 0.288161 0.775632
O O3 0.114363 0.415231 0.637477
O O4 0.500000 0.500000 0.000000
O O5 0.743241 0.613970 0.593497
O O6 0.697851 0.350770 0.318581
O O7 0.189394 0.052208 0.739974
O O8 0.528280 0.896065 0.734441
O O9 0.450443 0.176224 0.927133
O O10 0.132258 0.062096 0.536754
O O11 0.239002 0.165728 0.307132
O O12 0.856405 0.194229 0.172124
O O13 0.208074 0.978966 0.278348
O O14 0.000000 0.000000 0.000000
O O15 0.978697 0.783736 0.958061
O O16 0.139151 0.842405 0.266957
O O17 0.798473 0.074667 0.193800
#
# Coordination Sequence:
#
# PCOD9072815 Si02
#       8
#     2   2   2   2   2   2   2   2
#     4  11  22  38  58  84 130 171 198 241 293 367
#     4  11  25  38  56  91 129 165 201 233 309 369
#     4  11  22  41  71  85 120 152 206 265 298 353
#     4   9  17  32  58  88 116 151 199 237 300 349
#     4  11  20  39  62  90 125 166 193 248 303 356
#     4  10  20  37  63  90 120 158 206 252 298 350
#     4  10  23  41  65  96 107 156 214 252 309 349
#     4  11  22  39  60  89 125 159 195 254 300 364
#
# _framework density 19.456897999999999
#
# number of rings (size 3 to 8) (size 9 to 14) (size 15 to 20)
#    0.000    1.500    5.000    2.625    1.750    2.000 
#    0.000    3.750    0.000    2.250    0.000    0.000 
#    0.000    0.000    0.000    0.000    0.000    0.000 
#
# Total GULP energy -89096.117286 kJ/mol
# GULP energy per Si atom -5568.507330 kJ/mol
# Density = 1.941261 g / cm^3
# Si number density = 19.456898 Si / 1000 Ang^3
#
#
#
# Elastic Constant Matrix: (Units=GPa)
#
#
# Indices 1 2 3 4 5 6 
#
# 1 103.9633 25.8431 20.8624 11.1253 -8.4508 -25.2309
# 2 25.8431 47.1837 30.7212 18.1411 12.0029 -21.3495
# 3 20.8624 30.7212 135.2039 14.1518 0.3605 -10.0747
# 4 11.1253 18.1411 14.1518 41.1323 -3.2882 -5.5487
# 5 -8.4508 12.0029 0.3605 -3.2882 34.1030 -4.7707
# 6 -25.2309 -21.3495 -10.0747 -5.5487 -4.7707 21.7086
#
#
#
# Elastic Compliance Matrix: (Units=1/GPa)
#
#
# Indices 1 2 3 4 5 6 
#
# 1 0.014748 -0.001801 -0.000633 -0.000230 0.006576 0.016462
# 2 -0.001801 0.057560 -0.007707 -0.017781 -0.016351 0.042800
# 3 -0.000633 -0.007707 0.008949 0.000150 0.001959 -0.003694
# 4 -0.000230 -0.017781 0.000150 0.031771 0.008176 -0.007768
# 5 0.006576 -0.016351 0.001959 0.008176 0.037878 0.002886
# 6 0.016462 0.042800 -0.003694 -0.007768 0.002886 0.104225
#
#
# Mechanical properties :
#
#
# Convention : Reuss Voigt Hill
#
# Bulk Modulus (GPa) = 16.40023 49.02271 32.71147
# Shear Modulus (GPa) = 16.90692 33.31705 25.11199
#
# Velocity S-wave (km/s) = 2.95098 4.14255 3.59646
# Velocity P-wave (km/s) = 4.47866 6.93766 5.83907
#
# Compressibility (1/GPa) = 0.06097474
#
# Stress axis : x y z
#
# Youngs Moduli (GPa) = 67.80641 17.37326 111.74423
#
# Poissons Ratio (x) = 0.03128 0.07076
# Poissons Ratio (y) = 0.12210 0.86121
# Poissons Ratio (z) = 0.04294 0.13390
#
# Static dielectric constant tensor:
#      x y z
#    x 1.687400 0.003670 0.013830 
#    y 0.003670 1.796140 0.011140 
#    z 0.013830 0.011140 1.704440 
# 
# From -- ./inp_files/521816.got.cif
#   From: 2010.05.17/outbox.ucp.g08.bks.cvg/sg2_261_cif.got.tgz:521816.got - 2010.06.11 11:32:03.
