data_PCOD9072540
_publ_section_title
;
Structure prediction by ZEFSAII (Michael W. Deem and Ramdas Pophale) SiO2 
 PCOD9072540
Probable space group: P -1
;
_chemical_formula_sum "Si O2"
_cell_formula_units_Z 16
_cell_length_a 9.000000
_cell_length_b 9.000000
_cell_length_c 27.000000
_cell_angle_alpha 140.000000
_cell_angle_beta 50.000000
_cell_angle_gamma 100.000000
_cell_volume 820.799433
_symmetry_space_group_name_H-M "P -1"
_symmetry_group_IT_number 2
_symmetry_cell_setting 'triclinic'
loop_
_space_group_symop_operation_xyz
x,y,z
-x,-y,-z
loop_
_atom_site_type_symbol
_atom_site_label
_atom_site_fract_x
_atom_site_fract_y
_atom_site_fract_z
Si Si1 0.553719 0.227608 0.560331
Si Si2 0.617508 0.634343 0.586974
Si Si3 0.397311 0.448206 0.960762
Si Si4 0.851859 0.667100 0.162015
Si Si5 0.839782 0.835148 0.665807
Si Si6 0.334269 0.689783 0.928476
Si Si7 0.106437 0.743279 0.305564
Si Si8 0.957056 0.416942 0.185877
O O1 0.548995 0.429298 0.569482
O O2 0.317828 0.465969 0.707270
O O3 0.500000 0.000000 0.500000
O O4 0.847923 0.990199 0.455044
O O5 0.735001 0.694318 0.622534
O O6 0.869582 0.426309 0.444501
O O7 0.377875 0.968921 0.703850
O O8 0.385911 0.623158 0.959526
O O9 0.609652 0.086334 0.814527
O O10 0.500000 0.500000 0.000000
O O11 0.114474 0.563754 0.057075
O O12 0.776946 0.475441 0.105685
O O13 0.910477 0.569910 0.181896
O O14 0.868541 0.039663 0.676586
O O15 0.611552 0.505183 0.796169
O O16 0.152658 0.049467 0.049132
O O17 0.051731 0.553440 0.236336
#
# Coordination Sequence:
#
# PCOD9072540 Si02
#       8
#     2   2   2   2   2   2   2   2
#     4   9  20  38  61  89 119 161 201 251 313 374
#     4  10  19  38  68  89 120 162 207 258 309 367
#     4  11  23  40  62  92 128 159 212 263 306 374
#     4  12  23  38  60  96 124 162 212 258 304 373
#     4   9  19  37  64  92 118 159 207 256 314 358
#     4  11  22  40  60  87 123 166 207 254 319 360
#     4   9  18  39  61  83 117 161 212 248 304 368
#     4  11  23  38  59  87 130 166 202 253 310 370
#
# _framework density 19.493190999999999
#
# number of rings (size 3 to 8) (size 9 to 14) (size 15 to 20)
#    0.000    1.750    2.500    3.375    1.750    0.000 
#    0.000   15.625    0.000    0.000    0.000    0.000 
#    0.000    0.000    0.000    0.000    0.000    0.000 
#
# Total GULP energy -89169.273539 kJ/mol
# GULP energy per Si atom -5573.079596 kJ/mol
# Density = 1.944882 g / cm^3
# Si number density = 19.493191 Si / 1000 Ang^3
#
#
#
# Elastic Constant Matrix: (Units=GPa)
#
#
# Indices 1 2 3 4 5 6 
#
# 1 61.3636 17.4005 30.7250 2.0633 -10.4161 20.0975
# 2 17.4005 79.9208 37.3979 20.2017 -13.9417 11.7982
# 3 30.7250 37.3979 172.5790 18.3668 -46.8493 7.8496
# 4 2.0633 20.2017 18.3668 38.9285 14.9725 0.8906
# 5 -10.4161 -13.9417 -46.8493 14.9725 33.8304 -5.3725
# 6 20.0975 11.7982 7.8496 0.8906 -5.3725 29.6035
#
#
#
# Elastic Compliance Matrix: (Units=1/GPa)
#
#
# Indices 1 2 3 4 5 6 
#
# 1 0.023148 -0.002690 -0.004615 0.004456 -0.004630 -0.014394
# 2 -0.002690 0.021079 0.005030 -0.022457 0.024315 -0.002820
# 3 -0.004615 0.005030 0.018579 -0.026046 0.038541 0.003980
# 4 0.004456 -0.022457 -0.026046 0.080318 -0.080155 -0.004132
# 5 -0.004630 0.024315 0.038541 -0.080155 0.128422 0.008951
# 6 -0.014394 -0.002820 0.003980 -0.004132 0.008951 0.045369
#
#
# Mechanical properties :
#
#
# Convention : Reuss Voigt Hill
#
# Bulk Modulus (GPa) = 17.16519 53.87891 35.52205
# Shear Modulus (GPa) = 14.66779 35.69516 25.18147
#
# Velocity S-wave (km/s) = 2.74607 4.28385 3.59807
# Velocity P-wave (km/s) = 4.34504 7.22277 5.96019
#
# Compressibility (1/GPa) = 0.05825743
#
# Stress axis : x y z
#
# Youngs Moduli (GPa) = 43.20017 47.44148 53.82284
#
# Poissons Ratio (x) = 0.12760 0.24838
# Poissons Ratio (y) = 0.11619 -0.27074
# Poissons Ratio (z) = 0.19936 -0.23864
#
# Static dielectric constant tensor:
#      x y z
#    x 1.687210 0.003610 -0.005250 
#    y 0.003610 1.667050 -0.027610 
#    z -0.005250 -0.027610 1.761370 
# 
# From -- ./inp_files/238731.got.cif
#   From: 2010.05.17/outbox.ucp.g08.bks.cvg/sg2_120_cif.got.tgz:238731.got - 2010.06.11 11:32:03.
