data_PCOD9072895
_publ_section_title
;
Structure prediction by ZEFSAII (Michael W. Deem and Ramdas Pophale) SiO2 
 PCOD9072895
Probable space group: P -1
;
_chemical_formula_sum "Si O2"
_cell_formula_units_Z 16
_cell_length_a 9.000000
_cell_length_b 9.000000
_cell_length_c 18.000000
_cell_angle_alpha 90.000000
_cell_angle_beta 90.000000
_cell_angle_gamma 150.000000
_cell_volume 729.000000
_symmetry_space_group_name_H-M "P -1"
_symmetry_group_IT_number 2
_symmetry_cell_setting 'triclinic'
loop_
_space_group_symop_operation_xyz
x,y,z
-x,-y,-z
loop_
_atom_site_type_symbol
_atom_site_label
_atom_site_fract_x
_atom_site_fract_y
_atom_site_fract_z
Si Si1 0.614055 0.029519 0.616815
Si Si2 0.295488 0.539713 0.386067
Si Si3 0.823224 0.581664 0.447784
Si Si4 0.160356 0.024057 0.941399
Si Si5 0.134126 0.085952 0.653913
Si Si6 0.195622 0.343543 0.854633
Si Si7 0.697802 0.891099 0.754313
Si Si8 0.781828 0.454936 0.992832
O O1 0.660788 0.246003 0.623003
O O2 0.834117 0.169111 0.550348
O O3 0.317777 0.680849 0.596229
O O4 0.689363 0.017954 0.695812
O O5 0.339918 0.546679 0.473965
O O6 0.528792 0.664432 0.330950
O O7 0.996982 0.185740 0.373557
O O8 0.831000 0.746128 0.404716
O O9 0.247350 0.216171 0.877444
O O10 0.435398 0.162039 0.970125
O O11 0.000000 0.000000 0.000000
O O12 0.917781 0.686295 0.931470
O O13 0.911048 0.955005 0.715313
O O14 0.386715 0.557947 0.782891
O O15 0.233772 0.478406 0.926761
O O16 0.857457 0.071502 0.830323
O O17 0.000000 0.500000 0.000000
#
# Coordination Sequence:
#
# PCOD9072895 Si02
#       8
#     2   2   2   2   2   2   2   2
#     4  11  23  39  59  85 122 157 198 253 306 375
#     4  12  22  38  61  89 115 151 201 266 321 354
#     4  11  21  39  61  86 114 157 202 249 319 384
#     4  10  20  38  63  92 121 158 201 244 294 359
#     4  11  23  38  58  85 119 153 201 262 300 355
#     4  11  21  40  65  84 115 166 205 233 288 378
#     4  11  23  41  58  82 117 167 206 233 293 374
#     4  11  22  39  64  99 130 149 191 264 317 345
#
# _framework density 21.947873999999999
#
# number of rings (size 3 to 8) (size 9 to 14) (size 15 to 20)
#    0.000    1.000    0.000   10.875    0.000    0.000 
#    0.000    7.500    0.000    0.000    0.000    0.000 
#    0.000    0.000    0.000    0.000    0.000    0.000 
#
# Total GULP energy -89086.388443 kJ/mol
# GULP energy per Si atom -5567.899278 kJ/mol
# Density = 2.189792 g / cm^3
# Si number density = 21.947874 Si / 1000 Ang^3
#
#
#
# Elastic Constant Matrix: (Units=GPa)
#
#
# Indices 1 2 3 4 5 6 
#
# 1 68.9697 40.2166 18.9002 -41.3989 -2.3673 3.0797
# 2 40.2166 128.4889 14.9073 -1.4018 4.5162 -13.7375
# 3 18.9002 14.9073 56.3526 -10.5103 2.9554 -13.3985
# 4 -41.3989 -1.4018 -10.5103 30.1314 2.2018 12.2338
# 5 -2.3673 4.5162 2.9554 2.2018 20.8632 -6.2161
# 6 3.0797 -13.7375 -13.3985 12.2338 -6.2161 35.2660
#
#
#
# Elastic Compliance Matrix: (Units=1/GPa)
#
#
# Indices 1 2 3 4 5 6 
#
# 1 -0.047942 0.017686 0.005971 -0.081528 0.011496 0.043653
# 2 0.017686 0.001778 -0.003924 0.028696 -0.004765 -0.013137
# 3 0.005971 -0.003924 0.019692 0.015268 -0.002991 -0.000392
# 4 -0.081528 0.028696 0.015268 -0.097134 0.010391 0.059626
# 5 0.011496 -0.004765 -0.002991 0.010391 0.049953 0.001204
# 6 0.043653 -0.013137 -0.000392 0.059626 0.001204 -0.001195
#
#
# Mechanical properties :
#
#
# Convention : Reuss Voigt Hill
#
# Bulk Modulus (GPa) = 76.94674 44.65105 60.79890
# Shear Modulus (GPa) = -45.46139 29.23791 -8.11174
#
# Velocity S-wave (km/s) = -4.55613 3.65383 -1.92456
# Velocity P-wave (km/s) = 2.73079 6.17972 4.77735
#
# Compressibility (1/GPa) = 0.01299600
#
# Stress axis : x y z
#
# Youngs Moduli (GPa) = -20.85870 562.37144 50.78203
#
# Poissons Ratio (x) = -9.94636 -0.30322
# Poissons Ratio (y) = 0.36892 0.19926
# Poissons Ratio (z) = 0.12455 2.20663
#
# Static dielectric constant tensor:
#      x y z
#    x 1.812550 0.024550 0.016800 
#    y 0.024550 1.964490 0.083390 
#    z 0.016800 0.083390 1.811840 
# 
# From -- ./inp_files/225482.got.cif
#   From: 2010.05.17/outbox.ucp.g08.bks.cvg/sg2_113_cif.got.tgz:225482.got - 2010.06.11 11:32:03.
