data_PCOD9072566
_publ_section_title
;
Structure prediction by ZEFSAII (Michael W. Deem and Ramdas Pophale) SiO2 
 PCOD9072566
Probable space group: P -1
;
_chemical_formula_sum "Si O2"
_cell_formula_units_Z 16
_cell_length_a 21.000000
_cell_length_b 9.000000
_cell_length_c 12.000000
_cell_angle_alpha 110.000000
_cell_angle_beta 20.000000
_cell_angle_gamma 110.000000
_cell_volume 727.418465
_symmetry_space_group_name_H-M "P -1"
_symmetry_group_IT_number 2
_symmetry_cell_setting 'triclinic'
loop_
_space_group_symop_operation_xyz
x,y,z
-x,-y,-z
loop_
_atom_site_type_symbol
_atom_site_label
_atom_site_fract_x
_atom_site_fract_y
_atom_site_fract_z
Si Si1 0.082498 0.169862 0.933704
Si Si2 0.171215 0.224220 0.244292
Si Si3 0.643584 0.403512 0.360759
Si Si4 0.816334 0.400985 0.318453
Si Si5 0.299391 0.521164 0.231342
Si Si6 0.905365 0.636730 0.834838
Si Si7 0.264539 0.865051 0.014723
Si Si8 0.499667 0.702843 0.765511
O O1 0.287595 0.223769 0.564504
O O2 0.099270 0.202884 0.045494
O O3 0.917430 0.263697 0.177474
O O4 0.000000 0.000000 0.000000
O O5 0.294526 0.339145 0.153083
O O6 0.154971 0.316777 0.177120
O O7 0.955873 0.194677 0.633161
O O8 0.258788 0.052785 0.049437
O O9 0.706966 0.370578 0.375116
O O10 0.495120 0.537331 0.659139
O O11 0.788328 0.507005 0.069924
O O12 0.625699 0.235730 0.283592
O O13 0.709976 0.470517 0.617268
O O14 0.000000 0.500000 0.000000
O O15 0.110945 0.577290 0.495072
O O16 0.445698 0.644613 0.962616
O O17 0.363918 0.818437 0.955619
#
# Coordination Sequence:
#
# PCOD9072566 Si02
#       8
#     2   2   2   2   2   2   2   2
#     4  10  24  44  67  94 131 180 217 279 343 397
#     4  11  22  39  66 101 137 178 218 279 335 391
#     4  11  22  42  67  96 133 180 222 273 326 407
#     4  11  20  43  69  94 128 184 235 255 328 410
#     4  11  21  40  68  97 132 177 230 272 320 402
#     4  10  19  39  67  91 126 183 225 259 330 407
#     4  11  23  39  65 103 140 170 221 280 339 388
#     4  11  23  43  67  99 134 172 229 279 331 395
#
# _framework density 21.995591999999998
#
# number of rings (size 3 to 8) (size 9 to 14) (size 15 to 20)
#    0.000    1.250    6.250    1.500    1.750    1.500 
#    2.250    5.625    0.000    0.000    0.000    0.000 
#    0.000    0.000    0.000    0.000    0.000    0.000 
#
# Total GULP energy -89225.038571 kJ/mol
# GULP energy per Si atom -5576.564911 kJ/mol
# Density = 2.194553 g / cm^3
# Si number density = 21.995592 Si / 1000 Ang^3
#
#
#
# Elastic Constant Matrix: (Units=GPa)
#
#
# Indices 1 2 3 4 5 6 
#
# 1 156.7576 52.7911 27.3613 3.0941 16.5854 -9.5218
# 2 52.7911 91.1063 35.6858 2.3778 14.4843 12.8135
# 3 27.3613 35.6858 72.1297 -4.7989 7.9437 -3.0401
# 4 3.0941 2.3778 -4.7989 25.6241 -5.6933 -11.1515
# 5 16.5854 14.4843 7.9437 -5.6933 41.2495 6.2388
# 6 -9.5218 12.8135 -3.0401 -11.1515 6.2388 30.7908
#
#
#
# Elastic Compliance Matrix: (Units=1/GPa)
#
#
# Indices 1 2 3 4 5 6 
#
# 1 0.008881 -0.005737 0.000094 0.001674 -0.002283 0.006212
# 2 -0.005737 0.020380 -0.008879 -0.009516 -0.002319 -0.014109
# 3 0.000094 -0.008879 0.019211 0.008008 -0.000829 0.008689
# 4 0.001674 -0.009516 0.008008 0.052408 0.004841 0.023268
# 5 -0.002283 -0.002319 -0.000829 0.004841 0.027349 -0.003611
# 6 0.006212 -0.014109 0.008689 0.023268 -0.003611 0.050286
#
#
# Mechanical properties :
#
#
# Convention : Reuss Voigt Hill
#
# Bulk Modulus (GPa) = 51.47191 61.29666 56.38429
# Shear Modulus (GPa) = 23.36073 33.14323 28.25198
#
# Velocity S-wave (km/s) = 3.26247 3.88598 3.58779
# Velocity P-wave (km/s) = 6.13542 6.93272 6.54622
#
# Compressibility (1/GPa) = 0.01942807
#
# Stress axis : x y z
#
# Youngs Moduli (GPa) = 112.60264 49.06831 52.05322
#
# Poissons Ratio (x) = 0.28152 -0.00491
# Poissons Ratio (y) = 0.64604 0.46217
# Poissons Ratio (z) = -0.01062 0.43567
#
# Static dielectric constant tensor:
#      x y z
#    x 1.782170 0.054400 0.033240 
#    y 0.054400 1.764190 -0.011500 
#    z 0.033240 -0.011500 1.882540 
# 
# From -- ./inp_files/470044.got.cif
#   From: 2010.05.17/outbox.ucp.g08.bks.cvg/sg2_236_cif.got.tgz:470044.got - 2010.06.11 11:32:03.
