data_PCOD9072469
_publ_section_title
;
Structure prediction by ZEFSAII (Michael W. Deem and Ramdas Pophale) SiO2 
 PCOD9072469
Probable space group: P -1
;
_chemical_formula_sum "Si O2"
_cell_formula_units_Z 16
_cell_length_a 21.000000
_cell_length_b 9.000000
_cell_length_c 21.000000
_cell_angle_alpha 140.000000
_cell_angle_beta 160.000000
_cell_angle_gamma 40.000000
_cell_volume 853.086973
_symmetry_space_group_name_H-M "P -1"
_symmetry_group_IT_number 2
_symmetry_cell_setting 'triclinic'
loop_
_space_group_symop_operation_xyz
x,y,z
-x,-y,-z
loop_
_atom_site_type_symbol
_atom_site_label
_atom_site_fract_x
_atom_site_fract_y
_atom_site_fract_z
Si Si1 0.540684 0.218447 0.432947
Si Si2 0.136406 0.170548 0.337960
Si Si3 0.564044 0.630533 0.870735
Si Si4 0.069483 0.127680 0.701083
Si Si5 0.819310 0.338288 0.412237
Si Si6 0.690058 0.314681 0.476290
Si Si7 0.705618 0.832432 0.652629
Si Si8 0.243855 0.910799 0.096945
O O1 0.500000 0.500000 0.500000
O O2 0.607844 0.183075 0.411802
O O3 0.718595 0.074616 0.592718
O O4 0.373181 0.078868 0.243408
O O5 0.170349 0.383996 0.485681
O O6 0.186209 0.236234 0.334385
O O7 0.924504 0.126284 0.119624
O O8 0.395063 0.693704 0.784620
O O9 0.445840 0.678240 0.710025
O O10 0.643467 0.350990 0.864089
O O11 0.739224 0.765990 0.080104
O O12 0.959269 0.236766 0.569150
O O13 0.910508 0.208015 0.632091
O O14 0.113681 0.843020 0.641804
O O15 0.675539 0.586515 0.571547
O O16 0.500000 0.000000 0.500000
O O17 0.815106 0.959744 0.848486
#
# Coordination Sequence:
#
# PCOD9072469 Si02
#       8
#     2   2   2   2   2   2   2   2
#     4  12  25  43  58  82 128 166 196 240 293 352
#     4  12  23  40  63  90 119 156 200 248 294 352
#     4  11  19  38  65  92 117 150 199 249 296 351
#     4  10  21  36  63  95 117 148 198 252 299 349
#     4  10  19  37  62  94 120 148 190 255 308 338
#     4  11  22  39  58  86 123 160 196 241 295 351
#     4  12  18  39  60  86 118 155 194 246 297 344
#     4  12  23  37  63  90 117 158 201 242 294 357
#
# _framework density 18.755414999999999
#
# number of rings (size 3 to 8) (size 9 to 14) (size 15 to 20)
#    0.000    0.750    8.750    0.750    0.000    1.500 
#    0.000    0.625    0.000    1.500    0.000    0.000 
#    0.000    0.000    0.000    0.000    0.000    0.000 
#
# Total GULP energy -89212.406154 kJ/mol
# GULP energy per Si atom -5575.775385 kJ/mol
# Density = 1.871273 g / cm^3
# Si number density = 18.755415 Si / 1000 Ang^3
#
#
#
# Elastic Constant Matrix: (Units=GPa)
#
#
# Indices 1 2 3 4 5 6 
#
# 1 68.5799 40.3901 37.5183 7.3922 19.8589 0.6965
# 2 40.3901 101.7980 45.6142 15.5043 2.4702 -13.4283
# 3 37.5183 45.6142 133.3673 6.4536 26.0863 -8.7129
# 4 7.3922 15.5043 6.4536 26.0394 -3.7774 -3.4364
# 5 19.8589 2.4702 26.0863 -3.7774 13.8258 0.7562
# 6 0.6965 -13.4283 -8.7129 -3.4364 0.7562 28.4105
#
#
#
# Elastic Compliance Matrix: (Units=1/GPa)
#
#
# Indices 1 2 3 4 5 6 
#
# 1 0.051138 -0.021524 0.012825 -0.020194 -0.098922 -0.007303
# 2 -0.021524 0.022381 -0.010551 0.003186 0.047312 0.006996
# 3 0.012825 -0.010551 0.018676 -0.009801 -0.054490 0.000691
# 4 -0.020194 0.003186 -0.009801 0.054104 0.061497 0.003902
# 5 -0.098922 0.047312 -0.054490 0.061497 0.325201 0.006859
# 6 -0.007303 0.006996 0.000691 0.003902 0.006859 0.039186
#
#
# Mechanical properties :
#
#
# Convention : Reuss Voigt Hill
#
# Bulk Modulus (GPa) = 18.62371 61.19894 39.91132
# Shear Modulus (GPa) = 8.81704 25.66998 17.24351
#
# Velocity S-wave (km/s) = 2.17055 3.70357 3.03543
# Velocity P-wave (km/s) = 4.02902 7.14069 5.79752
#
# Compressibility (1/GPa) = 0.05369500
#
# Stress axis : x y z
#
# Youngs Moduli (GPa) = 19.55498 44.68170 53.54346
#
# Poissons Ratio (x) = 0.96171 -0.68668
# Poissons Ratio (y) = 0.42090 0.56493
# Poissons Ratio (z) = -0.25079 0.47143
#
# Static dielectric constant tensor:
#      x y z
#    x 1.694080 -0.020960 0.011320 
#    y -0.020960 1.660170 -0.004480 
#    z 0.011320 -0.004480 1.635780 
# 
# From -- ./inp_files/285184.got.cif
#   From: 2010.05.17/outbox.ucp.g08.bks.cvg/sg2_143_cif.got.tgz:285184.got - 2010.06.11 11:32:03.
