data_PCOD9072783
_publ_section_title
;
Structure prediction by ZEFSAII (Michael W. Deem and Ramdas Pophale) SiO2 
 PCOD9072783
Probable space group: P -1
;
_chemical_formula_sum "Si O2"
_cell_formula_units_Z 16
_cell_length_a 9.000000
_cell_length_b 15.000000
_cell_length_c 18.000000
_cell_angle_alpha 20.000000
_cell_angle_beta 80.000000
_cell_angle_gamma 80.000000
_cell_volume 818.086842
_symmetry_space_group_name_H-M "P -1"
_symmetry_group_IT_number 2
_symmetry_cell_setting 'triclinic'
loop_
_space_group_symop_operation_xyz
x,y,z
-x,-y,-z
loop_
_atom_site_type_symbol
_atom_site_label
_atom_site_fract_x
_atom_site_fract_y
_atom_site_fract_z
Si Si1 0.037600 0.149296 0.476757
Si Si2 0.838622 0.132804 0.892048
Si Si3 0.387720 0.283733 0.739875
Si Si4 0.182050 0.357277 0.442273
Si Si5 0.236623 0.068094 0.228687
Si Si6 0.902598 0.401896 0.154593
Si Si7 0.467421 0.242888 0.595148
Si Si8 0.868617 0.275090 0.613767
O O1 0.151567 0.246699 0.451483
O O2 0.993513 0.373608 0.246025
O O3 0.119487 0.901199 0.624081
O O4 0.883478 0.056985 0.604681
O O5 0.793785 0.334776 0.802048
O O6 0.867462 0.270189 0.704764
O O7 0.700096 0.947281 0.035797
O O8 0.000000 0.000000 0.000000
O O9 0.452303 0.199044 0.719885
O O10 0.501877 0.445966 0.651811
O O11 0.255277 0.504068 0.568360
O O12 0.312423 0.209569 0.592180
O O13 0.026847 0.333479 0.518777
O O14 0.400158 0.924781 0.325170
O O15 0.176061 0.994623 0.209620
O O16 0.229009 0.378586 0.997388
O O17 0.000000 0.500000 0.000000
#
# Coordination Sequence:
#
# PCOD9072783 Si02
#       8
#     2   2   2   2   2   2   2   2
#     4   9  20  38  64  86 110 138 186 242 287 335
#     4  12  22  32  57  82 111 158 203 236 276 323
#     4  10  21  39  52  75 116 167 201 229 270 328
#     4  11  21  37  56  86 120 152 190 244 285 324
#     4   9  20  35  60  84 110 151 189 226 280 346
#     4   9  18  39  65  88 105 137 185 238 289 345
#     4  10  21  39  53  78 127 156 188 236 282 329
#     4  10  20  37  55  80 116 153 198 243 268 317
#
# _framework density 19.557825999999999
#
# number of rings (size 3 to 8) (size 9 to 14) (size 15 to 20)
#    0.000    2.000    2.500    1.125    1.750    0.500 
#    4.500    0.625    0.000    6.750    0.000    0.000 
#    0.000    0.000    0.000    0.000    0.000    0.000 
#
# Total GULP energy -89102.572092 kJ/mol
# GULP energy per Si atom -5568.910756 kJ/mol
# Density = 1.951331 g / cm^3
# Si number density = 19.557826 Si / 1000 Ang^3
#
#
#
# Elastic Constant Matrix: (Units=GPa)
#
#
# Indices 1 2 3 4 5 6 
#
# 1 68.5014 32.3943 11.9892 -1.9021 17.8337 -0.1403
# 2 32.3943 83.0916 18.9886 -16.1836 15.4701 0.6926
# 3 11.9892 18.9886 52.8273 -8.7225 17.3723 -0.6223
# 4 -1.9021 -16.1836 -8.7225 16.5738 -8.5483 11.6832
# 5 17.8337 15.4701 17.3723 -8.5483 24.6231 -6.2865
# 6 -0.1403 0.6926 -0.6223 11.6832 -6.2865 24.8015
#
#
#
# Elastic Compliance Matrix: (Units=1/GPa)
#
#
# Indices 1 2 3 4 5 6 
#
# 1 0.022653 -0.009580 0.000577 -0.018072 -0.015814 0.004915
# 2 -0.009580 0.021997 -0.001066 0.030769 0.000721 -0.015007
# 3 0.000577 -0.001066 0.026312 0.009977 -0.016969 -0.008308
# 4 -0.018072 0.030769 0.009977 0.152188 0.022526 -0.066692
# 5 -0.015814 0.000721 -0.016969 0.022526 0.073303 0.007434
# 6 0.004915 -0.015007 -0.008308 -0.066692 0.007434 0.073860
#
#
# Mechanical properties :
#
#
# Convention : Reuss Voigt Hill
#
# Bulk Modulus (GPa) = 19.67604 36.79608 28.23606
# Shear Modulus (GPa) = 12.27320 22.60290 17.43805
#
# Velocity S-wave (km/s) = 2.50778 3.40324 2.98923
# Velocity P-wave (km/s) = 4.29739 5.85641 5.13640
#
# Compressibility (1/GPa) = 0.05082324
#
# Stress axis : x y z
#
# Youngs Moduli (GPa) = 44.14445 45.46065 38.00610
#
# Poissons Ratio (x) = 0.43551 -0.02192
# Poissons Ratio (y) = 0.42290 0.04052
# Poissons Ratio (z) = -0.02546 0.04846
#
# Static dielectric constant tensor:
#      x y z
#    x 1.700290 0.042590 -0.042960 
#    y 0.042590 1.681540 -0.031280 
#    z -0.042960 -0.031280 1.746070 
# 
# From -- ./inp_files/110566.got.cif
#   From: 2010.05.17/outbox.ucp.g08.bks.cvg/sg2_56_cif.got.tgz:110566.got - 2010.06.11 11:32:03.
