data_PCOD9072117
_publ_section_title
;
Structure prediction by ZEFSAII (Michael W. Deem and Ramdas Pophale) SiO2 
 PCOD9072117
Probable space group: P -1
;
_chemical_formula_sum "Si O2"
_cell_formula_units_Z 16
_cell_length_a 18.000000
_cell_length_b 12.000000
_cell_length_c 18.000000
_cell_angle_alpha 160.000000
_cell_angle_beta 140.000000
_cell_angle_gamma 40.000000
_cell_volume 835.677035
_symmetry_space_group_name_H-M "P -1"
_symmetry_group_IT_number 2
_symmetry_cell_setting 'triclinic'
loop_
_space_group_symop_operation_xyz
x,y,z
-x,-y,-z
loop_
_atom_site_type_symbol
_atom_site_label
_atom_site_fract_x
_atom_site_fract_y
_atom_site_fract_z
Si Si1 0.016843 0.628964 0.813577
Si Si2 0.684961 0.256406 0.109276
Si Si3 0.556700 0.745823 0.748309
Si Si4 0.566898 0.520784 0.898337
Si Si5 0.672298 0.267468 0.667531
Si Si6 0.265745 0.430955 0.806392
Si Si7 0.112557 0.585541 0.545614
Si Si8 0.925391 0.073094 0.806918
O O1 0.138529 0.434194 0.746926
O O2 0.916870 0.466831 0.595933
O O3 0.028836 0.687415 0.947684
O O4 0.000000 0.000000 0.000000
O O5 0.557640 0.504560 0.176256
O O6 0.741795 0.316677 0.111425
O O7 0.763033 0.337125 0.287758
O O8 0.655672 0.892811 0.870356
O O9 0.500000 0.500000 0.500000
O O10 0.612347 0.560854 0.749417
O O11 0.459533 0.088009 0.902170
O O12 0.604510 0.304675 0.718273
O O13 0.659255 0.473351 0.007240
O O14 0.807331 0.259331 0.791212
O O15 0.678850 0.925698 0.411874
O O16 0.104921 0.239271 0.365031
O O17 0.019427 0.886349 0.701937
#
# Coordination Sequence:
#
# PCOD9072117 Si02
#       8
#     2   2   2   2   2   2   2   2
#     4  10  20  33  60  91 122 156 193 244 301 357
#     4  10  22  38  59  90 128 155 192 249 310 349
#     4  10  23  42  60  84 121 169 199 239 301 362
#     4  10  24  38  61  87 121 157 206 242 295 355
#     4  12  20  39  64  86 116 162 207 240 288 360
#     4  12  20  38  63  94 120 151 203 254 292 349
#     4  10  18  37  55  89 125 150 189 249 304 345
#     4  10  19  33  61  88 116 155 201 238 293 357
#
# _framework density 19.146153000000002
#
# number of rings (size 3 to 8) (size 9 to 14) (size 15 to 20)
#    0.750    0.750    5.000    2.250    0.000    0.500 
#    0.000    6.875    0.000    0.750    0.000    0.000 
#    0.000    0.000    0.000    0.000    0.000    0.000 
#
# Total GULP energy -89172.028640 kJ/mol
# GULP energy per Si atom -5573.251790 kJ/mol
# Density = 1.910258 g / cm^3
# Si number density = 19.146153 Si / 1000 Ang^3
#
#
#
# Elastic Constant Matrix: (Units=GPa)
#
#
# Indices 1 2 3 4 5 6 
#
# 1 19.0878 10.6470 21.9872 -3.5889 -18.2822 14.5294
# 2 10.6470 89.7014 23.1384 -34.2775 -4.2639 11.4680
# 3 21.9872 23.1384 97.5614 -20.4182 -14.3295 12.6046
# 4 -3.5889 -34.2775 -20.4182 34.7915 -0.7995 -7.5572
# 5 -18.2822 -4.2639 -14.3295 -0.7995 31.7762 -4.9249
# 6 14.5294 11.4680 12.6046 -7.5572 -4.9249 29.8892
#
#
#
# Elastic Compliance Matrix: (Units=1/GPa)
#
#
# Indices 1 2 3 4 5 6 
#
# 1 0.379884 -0.020305 -0.044347 -0.032797 0.173649 -0.137853
# 2 -0.020305 0.019350 0.002373 0.019344 -0.006719 0.005229
# 3 -0.044347 0.002373 0.018087 0.010944 -0.014693 0.013365
# 4 -0.032797 0.019344 0.010944 0.054230 -0.007434 0.016393
# 5 0.173649 -0.006719 -0.014693 -0.007434 0.114575 -0.058639
# 6 -0.137853 0.005229 0.013365 0.016393 -0.058639 0.087308
#
#
# Mechanical properties :
#
#
# Convention : Reuss Voigt Hill
#
# Bulk Modulus (GPa) = 3.41574 35.32176 19.36875
# Shear Modulus (GPa) = 5.58298 29.32991 17.45645
#
# Velocity S-wave (km/s) = 1.70948 3.91819 3.02279
# Velocity P-wave (km/s) = 2.38418 6.24165 4.72454
#
# Compressibility (1/GPa) = 0.29276260
#
# Stress axis : x y z
#
# Youngs Moduli (GPa) = 2.63238 51.67980 55.28821
#
# Poissons Ratio (x) = 1.04937 2.45185
# Poissons Ratio (y) = 0.05345 -0.13119
# Poissons Ratio (z) = 0.11674 -0.12263
#
# Static dielectric constant tensor:
#      x y z
#    x 1.680480 -0.043580 0.006700 
#    y -0.043580 1.699370 -0.005910 
#    z 0.006700 -0.005910 1.672430 
# 
# From -- ./inp_files/576029.got.cif
#   From: 2010.05.17/outbox.ucp.g08.bks.cvg/sg2_289_cif.got.tgz:576029.got - 2010.06.11 11:32:03.
