data_PCOD9072587
_publ_section_title
;
Structure prediction by ZEFSAII (Michael W. Deem and Ramdas Pophale) SiO2 
 PCOD9072587
Probable space group: P -1
;
_chemical_formula_sum "Si O2"
_cell_formula_units_Z 16
_cell_length_a 9.000000
_cell_length_b 9.000000
_cell_length_c 12.000000
_cell_angle_alpha 50.000000
_cell_angle_beta 90.000000
_cell_angle_gamma 80.000000
_cell_volume 725.212580
_symmetry_space_group_name_H-M "P -1"
_symmetry_group_IT_number 2
_symmetry_cell_setting 'triclinic'
loop_
_space_group_symop_operation_xyz
x,y,z
-x,-y,-z
loop_
_atom_site_type_symbol
_atom_site_label
_atom_site_fract_x
_atom_site_fract_y
_atom_site_fract_z
Si Si1 0.743089 0.492568 0.627913
Si Si2 0.988589 0.842382 0.978061
Si Si3 0.714865 0.094549 0.717702
Si Si4 0.763161 0.880689 0.331157
Si Si5 0.510170 0.797743 0.871141
Si Si6 0.924387 0.150149 0.522101
Si Si7 0.684930 0.424657 0.912153
Si Si8 0.902963 0.604976 0.275019
O O1 0.681373 0.320931 0.649747
O O2 0.696730 0.711740 0.474318
O O3 0.703201 0.496018 0.754510
O O4 0.928118 0.424504 0.655606
O O5 0.868139 0.968142 0.835307
O O6 0.918421 0.672939 0.116832
O O7 0.153033 0.727521 0.987762
O O8 0.000000 0.000000 0.000000
O O9 0.771214 0.090802 0.593059
O O10 0.588128 0.978811 0.803652
O O11 0.792098 0.784913 0.253443
O O12 0.931317 0.873072 0.382392
O O13 0.647035 0.092636 0.243311
O O14 0.625854 0.617819 0.895897
O O15 0.446081 0.699230 0.023263
O O16 0.872670 0.385939 0.384147
O O17 0.000000 0.000000 0.500000
#
# Coordination Sequence:
#
# PCOD9072587 Si02
#       8
#     2   2   2   2   2   2   2   2
#     4  10  20  39  70  90 120 162 218 260 298 371
#     4  11  20  40  74  91 117 165 215 262 309 360
#     4  12  23  41  63 102 122 157 218 264 302 368
#     4  11  21  44  66  89 130 173 199 250 324 380
#     4  11  27  41  61  91 135 169 201 257 319 379
#     4  11  23  41  66  97 127 158 215 268 303 364
#     4  10  23  46  60  89 127 172 209 248 323 379
#     4  10  19  40  67  98 119 164 210 260 314 367
#
# _framework density 22.062495999999999
#
# number of rings (size 3 to 8) (size 9 to 14) (size 15 to 20)
#    0.000    1.250    5.000    2.250    5.250    2.000 
#    4.500    0.000    0.000    0.000    0.000    0.000 
#    0.000    0.000    0.000    0.000    0.000    0.000 
#
# Total GULP energy -89242.625015 kJ/mol
# GULP energy per Si atom -5577.664063 kJ/mol
# Density = 2.201228 g / cm^3
# Si number density = 22.062496 Si / 1000 Ang^3
#
#
#
# Elastic Constant Matrix: (Units=GPa)
#
#
# Indices 1 2 3 4 5 6 
#
# 1 52.4804 13.5504 32.8292 -0.7821 -20.4184 -7.8776
# 2 13.5504 38.3295 5.6451 -4.6166 11.2706 -15.3991
# 3 32.8292 5.6451 61.4068 -11.6086 -11.1223 1.6070
# 4 -0.7821 -4.6166 -11.6086 24.9406 -9.2309 -2.0476
# 5 -20.4184 11.2706 -11.1223 -9.2309 15.6092 -21.0407
# 6 -7.8776 -15.3991 1.6070 -2.0476 -21.0407 32.9447
#
#
#
# Elastic Compliance Matrix: (Units=1/GPa)
#
#
# Indices 1 2 3 4 5 6 
#
# 1 0.012990 -0.003123 -0.016869 -0.022957 -0.035547 -0.021660
# 2 -0.003123 0.034510 0.001884 0.012295 0.009017 0.021815
# 3 -0.016869 0.001884 0.028565 0.014401 0.003753 -0.001255
# 4 -0.022957 0.012295 0.014401 0.038374 -0.023997 -0.013386
# 5 -0.035547 0.009017 0.003753 -0.023997 -0.061079 -0.044969
# 6 -0.021660 0.021815 -0.001255 -0.013386 -0.044969 0.005881
#
#
# Mechanical properties :
#
#
# Convention : Reuss Voigt Hill
#
# Bulk Modulus (GPa) = 25.09481 28.47401 26.78441
# Shear Modulus (GPa) = 45.98099 21.37836 33.67967
#
# Velocity S-wave (km/s) = 4.57017 3.11624 3.91136
# Velocity P-wave (km/s) = 6.26480 5.08744 5.70657
#
# Compressibility (1/GPa) = 0.03984888
#
# Stress axis : x y z
#
# Youngs Moduli (GPa) = 76.98234 28.97697 35.00765
#
# Poissons Ratio (x) = 0.09049 0.59055
# Poissons Ratio (y) = 0.24040 -0.06594
# Poissons Ratio (z) = 1.29862 -0.05458
#
# Static dielectric constant tensor:
#      x y z
#    x 1.850840 0.008060 -0.024020 
#    y 0.008060 1.778110 0.051690 
#    z -0.024020 0.051690 2.152600 
# 
# From -- ./inp_files/217671.got.cif
#   From: 2010.05.17/outbox.ucp.g08.bks.cvg/sg2_109_cif.got.tgz:217671.got - 2010.06.11 11:32:03.
