data_PCOD9072674
_publ_section_title
;
Structure prediction by ZEFSAII (Michael W. Deem and Ramdas Pophale) SiO2 
 PCOD9072674
Probable space group: P -1
;
_chemical_formula_sum "Si O2"
_cell_formula_units_Z 16
_cell_length_a 9.000000
_cell_length_b 21.000000
_cell_length_c 27.000000
_cell_angle_alpha 160.000000
_cell_angle_beta 30.000000
_cell_angle_gamma 150.000000
_cell_volume 830.970076
_symmetry_space_group_name_H-M "P -1"
_symmetry_group_IT_number 2
_symmetry_cell_setting 'triclinic'
loop_
_space_group_symop_operation_xyz
x,y,z
-x,-y,-z
loop_
_atom_site_type_symbol
_atom_site_label
_atom_site_fract_x
_atom_site_fract_y
_atom_site_fract_z
Si Si1 0.223602 0.780538 0.674647
Si Si2 0.066853 0.208323 0.503804
Si Si3 0.717308 0.426028 0.701423
Si Si4 0.375362 0.215576 0.969762
Si Si5 0.916427 0.772494 0.204197
Si Si6 0.725025 0.380357 0.556648
Si Si7 0.011141 0.214515 0.636807
Si Si8 0.624548 0.437718 0.968374
O O1 0.561222 0.755768 0.572874
O O2 0.217035 0.772878 0.611134
O O3 0.949150 0.593912 0.634794
O O4 0.207274 0.985862 0.849520
O O5 0.917322 0.193288 0.590795
O O6 0.962731 0.375592 0.629666
O O7 0.939742 0.999874 0.360376
O O8 0.363418 0.319806 0.743911
O O9 0.775282 0.344428 0.572524
O O10 0.740407 0.654631 0.862596
O O11 0.365494 0.318714 0.995140
O O12 0.744375 0.238892 0.886244
O O13 0.821518 0.634499 0.083136
O O14 0.361751 0.360496 0.642598
O O15 0.816677 0.296810 0.791580
O O16 0.000000 0.000000 0.500000
O O17 0.500000 0.500000 0.000000
#
# Coordination Sequence:
#
# PCOD9072674 Si02
#       8
#     2   2   2   2   2   2   2   2
#     4   9  21  39  55  73 102 144 183 216 259 314
#     4  10  21  35  53  78 110 139 174 221 266 315
#     4  11  20  32  54  81 106 134 173 225 270 306
#     4  10  20  36  54  75 108 143 175 214 262 319
#     4  10  20  35  52  77 110 142 172 209 265 323
#     4  10  20  35  58  78 101 138 184 220 254 315
#     4  11  20  35  58  82 105 140 180 213 259 319
#     4  11  21  33  53  82 113 137 168 219 272 314
#
# _framework density 19.254604
#
# number of rings (size 3 to 8) (size 9 to 14) (size 15 to 20)
#    0.000    1.750    0.000    7.875    0.000    3.000 
#    0.000    0.000    0.000   13.500    0.000    0.000 
#    0.000    0.000    0.000    0.000    0.000    0.000 
#
# Total GULP energy -89241.393067 kJ/mol
# GULP energy per Si atom -5577.587067 kJ/mol
# Density = 1.921078 g / cm^3
# Si number density = 19.254604 Si / 1000 Ang^3
#
#
#
# Elastic Constant Matrix: (Units=GPa)
#
#
# Indices 1 2 3 4 5 6 
#
# 1 82.1741 10.2776 32.1985 4.0140 8.8816 -6.6904
# 2 10.2776 45.7383 33.7989 13.9517 7.9770 13.7257
# 3 32.1985 33.7989 95.0930 10.1695 13.2882 12.7234
# 4 4.0140 13.9517 10.1695 20.9934 0.1066 13.8857
# 5 8.8816 7.9770 13.2882 0.1066 17.4059 2.4727
# 6 -6.6904 13.7257 12.7234 13.8857 2.4727 10.5618
#
#
#
# Elastic Compliance Matrix: (Units=1/GPa)
#
#
# Indices 1 2 3 4 5 6 
#
# 1 -0.007056 0.010227 0.006098 0.076809 0.012102 -0.128921
# 2 0.010227 0.033007 -0.014450 -0.052164 -0.016588 0.053456
# 3 0.006098 -0.014450 0.011142 -0.039394 -0.013883 0.064261
# 4 0.076809 -0.052164 -0.039394 -0.224816 -0.050798 0.471360
# 5 0.012102 -0.016588 -0.013883 -0.050798 0.055624 0.099709
# 6 -0.128921 0.053456 0.064261 0.471360 0.099709 -0.776908
#
#
# Mechanical properties :
#
#
# Convention : Reuss Voigt Hill
#
# Bulk Modulus (GPa) = 24.48372 41.72837 33.10604
# Shear Modulus (GPa) = -5.56085 19.57424 7.00669
#
# Velocity S-wave (km/s) = -1.70127 3.19188 1.90968
# Velocity P-wave (km/s) = 2.98065 5.94164 4.70039
#
# Compressibility (1/GPa) = 0.04084347
#
# Stress axis : x y z
#
# Youngs Moduli (GPa) = -141.72748 30.29664 89.75081
#
# Poissons Ratio (x) = -0.30985 -0.54733
# Poissons Ratio (y) = 1.44946 1.29693
# Poissons Ratio (z) = 0.86431 0.43780
#
# Static dielectric constant tensor:
#      x y z
#    x 1.740870 -0.010260 0.029850 
#    y -0.010260 1.661770 0.009210 
#    z 0.029850 0.009210 1.592820 
# 
# From -- ./inp_files/200956.got.cif
#   From: 2010.05.17/outbox.ucp.g08.bks.cvg/sg2_101_cif.got.tgz:200956.got - 2010.06.11 11:32:03.
