data_PCOD9072426
_publ_section_title
;
Structure prediction by ZEFSAII (Michael W. Deem and Ramdas Pophale) SiO2 
 PCOD9072426
Probable space group: P -1
;
_chemical_formula_sum "Si O2"
_cell_formula_units_Z 14
_cell_length_a 26.657062
_cell_length_b 14.332228
_cell_length_c 13.997575
_cell_angle_alpha 30.393288
_cell_angle_beta 27.289697
_cell_angle_gamma 13.666989
_cell_volume 579.315534
_symmetry_space_group_name_H-M "P -1"
_symmetry_group_IT_number 2
_symmetry_cell_setting 'triclinic'
loop_
_space_group_symop_operation_xyz
x,y,z
-x,-y,-z
loop_
_atom_site_type_symbol
_atom_site_label
_atom_site_fract_x
_atom_site_fract_y
_atom_site_fract_z
Si Si1 0.496766 0.524062 0.597506
Si Si2 0.142008 0.104032 0.892907
Si Si3 0.581919 0.885722 0.352518
Si Si4 0.709804 0.304745 0.606739
Si Si5 0.749385 0.039979 0.952950
Si Si6 0.146741 0.761595 0.058016
Si Si7 0.800541 0.683582 0.526459
O O1 0.500000 0.500000 0.500000
O O2 0.726234 0.224952 0.538519
O O3 0.392365 0.489529 0.849206
O O4 0.336956 0.946014 0.512721
O O5 0.428243 0.692101 0.760409
O O6 0.065915 0.025266 0.044412
O O7 0.043929 0.419770 0.716720
O O8 0.109173 0.168106 0.004080
O O9 0.741156 0.472991 0.423368
O O10 0.500000 0.000000 0.500000
O O11 0.365642 0.181737 0.384644
O O12 0.691550 0.920445 0.126015
O O13 0.841330 0.002585 0.735033
O O14 0.500000 0.500000 0.000000
O O15 0.132775 0.572844 0.284360
O O16 0.000000 0.000000 0.000000
#
# Coordination Sequence:
#
# PCOD9072426 Si02
#       7
#     2   2   2   2   2   2   2
#     4   9  19  34  47  67  95 125 160 195 229 270
#     4   8  16  24  38  63  90 120 144 182 229 276
#     4  10  13  20  37  62  91 120 137 169 238 291
#     4   8  16  23  37  62  89 118 142 181 225 276
#     4  10  13  20  35  58  90 115 137 172 227 280
#     4  10  20  32  47  67  93 127 162 193 227 273
#     4   9  17  29  44  68  97 123 151 192 234 278
#
# _framework density 24.166452
#
# number of rings (size 3 to 8) (size 9 to 14) (size 15 to 20)
#    0.000    3.429    4.286    2.571    0.000    2.857 
#    0.000    0.000    0.000    0.000    0.000    1.000 
#    0.000    6.857    0.000    0.000    0.000    0.000 
#
# Total GULP energy -78073.842936 kJ/mol
# GULP energy per Si atom -5576.703067 kJ/mol
# Density = 2.411145 g / cm^3
# Si number density = 24.166452 Si / 1000 Ang^3
#
#
#
# Elastic Constant Matrix: (Units=GPa)
#
#
# Indices 1 2 3 4 5 6 
#
# 1 165.6520 25.7706 40.5994 -18.0493 7.2095 -2.3786
# 2 25.7706 46.9438 34.0305 -13.3035 4.3224 7.8819
# 3 40.5994 34.0305 144.5713 -40.2411 10.3350 -8.8035
# 4 -18.0493 -13.3035 -40.2411 44.2231 -6.1422 4.5691
# 5 7.2095 4.3224 10.3350 -6.1422 46.4987 -9.9435
# 6 -2.3786 7.8819 -8.8035 4.5691 -9.9435 19.6797
#
#
#
# Elastic Compliance Matrix: (Units=1/GPa)
#
#
# Indices 1 2 3 4 5 6 
#
# 1 0.006855 -0.003113 -0.000835 0.000933 -0.000165 0.001402
# 2 -0.003113 0.032645 -0.006571 0.003943 -0.004789 -0.019725
# 3 -0.000835 -0.006571 0.011023 0.007159 0.000534 0.006069
# 4 0.000933 0.003943 0.007159 0.031350 0.000957 -0.005059
# 5 -0.000165 -0.004789 0.000534 0.000957 0.025106 0.014600
# 6 0.001402 -0.019725 0.006069 -0.005059 0.014600 0.070150
#
#
# Mechanical properties :
#
#
# Convention : Reuss Voigt Hill
#
# Bulk Modulus (GPa) = 33.91782 61.99645 47.95713
# Shear Modulus (GPa) = 24.03892 39.19809 31.61851
#
# Velocity S-wave (km/s) = 3.15734 4.03178 3.62106
# Velocity P-wave (km/s) = 5.23042 6.88355 6.11313
#
# Compressibility (1/GPa) = 0.02948303
#
# Stress axis : x y z
#
# Youngs Moduli (GPa) = 145.88337 30.63246 90.72291
#
# Poissons Ratio (x) = 0.09537 0.07577
# Poissons Ratio (y) = 0.45417 0.59616
# Poissons Ratio (z) = 0.12184 0.20129
#
# Static dielectric constant tensor:
#      x y z
#    x 2.062690 0.134300 0.189590 
#    y 0.134300 2.303930 0.247730 
#    z 0.189590 0.247730 2.198600 
# 
# From -- ./inp_files/544035.got.cif
#   From: 2010.05.17/outbox.cif.g08.bks.cpg/sg2_273_cif.got.tgz:544035.got - 2010.06.03 11:33:40.
