data_PCOD9072802
_publ_section_title
;
Structure prediction by ZEFSAII (Michael W. Deem and Ramdas Pophale) SiO2 
 PCOD9072802
Probable space group: P -1
;
_chemical_formula_sum "Si O2"
_cell_formula_units_Z 16
_cell_length_a 15.000000
_cell_length_b 9.000000
_cell_length_c 15.000000
_cell_angle_alpha 40.000000
_cell_angle_beta 140.000000
_cell_angle_gamma 140.000000
_cell_volume 753.872439
_symmetry_space_group_name_H-M "P -1"
_symmetry_group_IT_number 2
_symmetry_cell_setting 'triclinic'
loop_
_space_group_symop_operation_xyz
x,y,z
-x,-y,-z
loop_
_atom_site_type_symbol
_atom_site_label
_atom_site_fract_x
_atom_site_fract_y
_atom_site_fract_z
Si Si1 0.860380 0.890677 0.725006
Si Si2 0.754205 0.559360 0.389848
Si Si3 0.004929 0.387736 0.723945
Si Si4 0.653463 0.876257 0.890451
Si Si5 0.026095 0.656988 0.082695
Si Si6 0.996072 0.090065 0.352815
Si Si7 0.686049 0.382363 0.220036
Si Si8 0.565277 0.788704 0.657050
O O1 0.876320 0.900631 0.625988
O O2 0.691715 0.820275 0.666364
O O3 0.967569 0.169923 0.720583
O O4 0.923024 0.701254 0.907203
O O5 0.866048 0.471079 0.571902
O O6 0.726516 0.416993 0.339442
O O7 0.588324 0.475092 0.344979
O O8 0.840193 0.861133 0.302648
O O9 0.009234 0.274490 0.876090
O O10 0.169899 0.619513 0.721435
O O11 0.487076 0.840160 0.816203
O O12 0.635933 0.825189 0.793788
O O13 0.796857 0.148399 0.891382
O O14 0.680027 0.644076 0.061036
O O15 0.996997 0.365193 0.212224
O O16 0.000000 0.000000 0.500000
O O17 0.500000 0.000000 0.500000
#
# Coordination Sequence:
#
# PCOD9072802 Si02
#       8
#     2   2   2   2   2   2   2   2
#     4  12  24  42  70 101 127 178 226 273 335 391
#     4  11  22  40  63  92 136 169 213 272 336 382
#     4  12  20  37  69  99 129 166 225 279 328 394
#     4  10  20  37  60  97 135 162 212 275 333 383
#     4  12  23  43  68  98 140 173 221 269 331 406
#     4  12  27  45  64  94 139 184 223 267 326 407
#     4  10  21  34  62 101 130 163 212 277 334 387
#     4  11  22  39  66 100 129 163 219 289 335 382
#
# _framework density 21.223749999999999
#
# number of rings (size 3 to 8) (size 9 to 14) (size 15 to 20)
#    0.000    0.750    6.250    1.875    0.000    0.000 
#    0.000    2.500    0.000    0.000    0.000    0.000 
#    0.000    0.000    0.000    0.000    0.000    0.000 
#
# Total GULP energy -89394.659658 kJ/mol
# GULP energy per Si atom -5587.166229 kJ/mol
# Density = 2.117544 g / cm^3
# Si number density = 21.223750 Si / 1000 Ang^3
#
#
#
# Elastic Constant Matrix: (Units=GPa)
#
#
# Indices 1 2 3 4 5 6 
#
# 1 139.7628 38.5806 34.4420 10.6535 -8.4472 44.5319
# 2 38.5806 82.2389 23.6402 -15.2318 16.1960 39.7945
# 3 34.4420 23.6402 107.7736 -4.4815 -13.8245 11.4474
# 4 10.6535 -15.2318 -4.4815 34.4474 3.6797 5.4824
# 5 -8.4472 16.1960 -13.8245 3.6797 32.4057 8.0595
# 6 44.5319 39.7945 11.4474 5.4824 8.0595 47.1446
#
#
#
# Elastic Compliance Matrix: (Units=1/GPa)
#
#
# Indices 1 2 3 4 5 6 
#
# 1 0.011991 -0.002912 -0.001552 -0.004462 0.006693 -0.009116
# 2 -0.002912 0.033617 -0.005097 0.020648 -0.016102 -0.024036
# 3 -0.001552 -0.005097 0.011486 -0.001311 0.006698 0.001987
# 4 -0.004462 0.020648 -0.001311 0.043261 -0.013051 -0.015695
# 5 0.006693 -0.016102 0.006698 -0.013051 0.045128 -0.000554
# 6 -0.009116 -0.024036 0.001987 -0.015695 -0.000554 0.051549
#
#
# Mechanical properties :
#
#
# Convention : Reuss Voigt Hill
#
# Bulk Modulus (GPa) = 26.33531 58.12232 42.22882
# Shear Modulus (GPa) = 21.85202 38.34037 30.09619
#
# Velocity S-wave (km/s) = 3.21222 4.25489 3.76978
# Velocity P-wave (km/s) = 5.11793 7.18218 6.23606
#
# Compressibility (1/GPa) = 0.03797183
#
# Stress axis : x y z
#
# Youngs Moduli (GPa) = 83.39790 29.74669 87.06029
#
# Poissons Ratio (x) = 0.08663 0.13510
# Poissons Ratio (y) = 0.24288 0.44375
# Poissons Ratio (z) = 0.12942 0.15162
#
# Static dielectric constant tensor:
#      x y z
#    x 1.828720 0.002050 0.013300 
#    y 0.002050 1.818770 -0.007170 
#    z 0.013300 -0.007170 1.778240 
# 
# From -- ./inp_files/312311.got.cif
#   From: 2010.05.17/outbox.ucp.g08.bks.cvg/sg2_157_cif.got.tgz:312311.got - 2010.06.11 11:32:03.
