data_PCOD9072200
_publ_section_title
;
Structure prediction by ZEFSAII (Michael W. Deem and Ramdas Pophale) SiO2 
 PCOD9072200
Probable space group: P -1
;
_chemical_formula_sum "Si O2"
_cell_formula_units_Z 15
_cell_length_a 17.319070
_cell_length_b 9.885320
_cell_length_c 11.302974
_cell_angle_alpha 130.325069
_cell_angle_beta 34.575335
_cell_angle_gamma 150.431435
_cell_volume 525.183680
_symmetry_space_group_name_H-M "P -1"
_symmetry_group_IT_number 2
_symmetry_cell_setting 'triclinic'
loop_
_space_group_symop_operation_xyz
x,y,z
-x,-y,-z
loop_
_atom_site_type_symbol
_atom_site_label
_atom_site_fract_x
_atom_site_fract_y
_atom_site_fract_z
Si Si1 0.500000 0.500000 0.000000
Si Si2 0.293621 0.575301 0.987066
Si Si3 0.776519 0.019892 0.720344
Si Si4 0.651805 0.126389 0.133445
Si Si5 0.206064 0.947219 0.903277
Si Si6 0.293989 0.168843 0.678714
Si Si7 0.787887 0.726842 0.388053
Si Si8 0.200186 0.529534 0.341648
O O1 0.405328 0.276204 0.878728
O O2 0.307046 0.447267 0.187242
O O3 0.263946 0.661026 0.955587
O O4 0.256327 0.331159 0.867570
O O5 0.550626 0.850334 0.849658
O O6 0.173086 0.506729 0.220706
O O7 0.987768 0.324216 0.572615
O O8 0.799375 0.834871 0.560278
O O9 0.725153 0.008608 0.914857
O O10 0.392009 0.864000 0.316091
O O11 0.747902 0.200865 0.184368
O O12 0.190526 0.938908 0.776565
O O13 0.986273 0.804769 0.152808
O O14 0.553171 0.400033 0.481802
O O15 0.214759 0.112502 0.612806
#
# Coordination Sequence:
#
# PCOD9072200 Si02
#       8
#     1   2   2   2   2   2   2   2
#     4  10  18  30  52  86 114 138 174 230 290 332
#     4  10  20  38  53  80 114 154 191 229 275 341
#     4  10  19  35  58  83 113 149 187 236 279 344
#     4  10  24  34  53  86 120 147 183 231 293 341
#     4  11  21  37  56  85 117 148 184 238 291 334
#     4  10  21  39  62  80 112 150 197 241 268 332
#     4  10  21  36  60  88 107 148 200 234 282 328
#     4  10  18  33  52  79 115 149 181 223 287 339
#
# _framework density 28.561434999999999
#
# number of rings (size 3 to 8) (size 9 to 14) (size 15 to 20)
#    0.000    1.867    2.667    2.000    1.867    4.800 
#    0.000    0.667    0.000    7.200    0.000    0.000 
#    0.000    0.000    0.000    0.000    0.000    0.000 
#
# Total GULP energy -83915.649554 kJ/mol
# GULP energy per Si atom -5594.376637 kJ/mol
# Density = 2.849643 g / cm^3
# Si number density = 28.561435 Si / 1000 Ang^3
#
#
#
# Elastic Constant Matrix: (Units=GPa)
#
#
# Indices 1 2 3 4 5 6 
#
# 1 158.5724 9.6821 22.2221 -14.9955 4.7388 -11.3846
# 2 9.6821 83.0094 34.0803 -28.0796 11.0856 9.1215
# 3 22.2221 34.0803 144.6673 -37.0805 19.6069 -14.5209
# 4 -14.9955 -28.0796 -37.0805 57.4736 -1.3896 7.3974
# 5 4.7388 11.0856 19.6069 -1.3896 34.2389 -6.5250
# 6 -11.3846 9.1215 -14.5209 7.3974 -6.5250 17.0776
#
#
#
# Elastic Compliance Matrix: (Units=1/GPa)
#
#
# Indices 1 2 3 4 5 6 
#
# 1 0.006792 -0.001174 -0.000232 0.000421 0.000539 0.004981
# 2 -0.001174 0.020515 -0.003054 0.010384 -0.008519 -0.022089
# 3 -0.000232 -0.003054 0.009749 0.003768 -0.003084 0.006956
# 4 0.000421 0.010384 0.003768 0.026974 -0.007660 -0.016673
# 5 0.000539 -0.008519 -0.003084 -0.007660 0.037116 0.019788
# 6 0.004981 -0.022089 0.006956 -0.016673 0.019788 0.094373
#
#
# Mechanical properties :
#
#
# Convention : Reuss Voigt Hill
#
# Bulk Modulus (GPa) = 35.54081 57.57978 46.56029
# Shear Modulus (GPa) = 23.38453 43.10897 33.24675
#
# Velocity S-wave (km/s) = 2.86448 3.88924 3.41551
# Velocity P-wave (km/s) = 4.83849 6.35390 5.64725
#
# Compressibility (1/GPa) = 0.02813667
#
# Stress axis : x y z
#
# Youngs Moduli (GPa) = 147.23728 48.74496 102.57211
#
# Poissons Ratio (x) = 0.05723 0.02379
# Poissons Ratio (y) = 0.17286 0.31322
# Poissons Ratio (z) = 0.03415 0.14885
#
# Static dielectric constant tensor:
#      x y z
#    x 2.200450 -0.067850 0.016950 
#    y -0.067850 2.507090 0.003560 
#    z 0.016950 0.003560 2.171370 
# 
# From -- ./inp_files/464660.got.cif
#   From: 2010.05.17/outbox.cif.g08.bks.cpg/sg2_233_cif.got.tgz:464660.got - 2010.06.03 11:33:40.
