data_PCOD9072384
_publ_section_title
;
Structure prediction by ZEFSAII (Michael W. Deem and Ramdas Pophale) SiO2 
 PCOD9072384
Probable space group: P -1
;
_chemical_formula_sum "Si O2"
_cell_formula_units_Z 16
_cell_length_a 12.000000
_cell_length_b 15.000000
_cell_length_c 15.000000
_cell_angle_alpha 30.000000
_cell_angle_beta 140.000000
_cell_angle_gamma 120.000000
_cell_volume 747.221570
_symmetry_space_group_name_H-M "P -1"
_symmetry_group_IT_number 2
_symmetry_cell_setting 'triclinic'
loop_
_space_group_symop_operation_xyz
x,y,z
-x,-y,-z
loop_
_atom_site_type_symbol
_atom_site_label
_atom_site_fract_x
_atom_site_fract_y
_atom_site_fract_z
Si Si1 0.199894 0.348136 0.119440
Si Si2 0.053600 0.674425 0.166495
Si Si3 0.576429 0.758753 0.272126
Si Si4 0.570387 0.383737 0.341538
Si Si5 0.096526 0.225621 0.339783
Si Si6 0.331256 0.846643 0.210149
Si Si7 0.299572 0.784501 0.930127
Si Si8 0.007330 0.284110 0.698099
O O1 0.403820 0.349246 0.220260
O O2 0.222055 0.234176 0.325923
O O3 0.126008 0.267163 0.062545
O O4 0.012407 0.576032 0.833953
O O5 0.206189 0.424291 0.469101
O O6 0.185410 0.778181 0.133445
O O7 0.984622 0.749686 0.160448
O O8 0.528767 0.756792 0.348453
O O9 0.423415 0.722788 0.149926
O O10 0.500000 0.000000 0.000000
O O11 0.611835 0.261810 0.565601
O O12 0.794467 0.314248 0.505315
O O13 0.448393 0.625895 0.083953
O O14 0.900896 0.228561 0.175774
O O15 0.225154 0.017794 0.653933
O O16 0.197027 0.093408 0.930919
O O17 0.000000 0.500000 0.500000
#
# Coordination Sequence:
#
# PCOD9072384 Si02
#       8
#     2   2   2   2   2   2   2   2
#     4  10  21  36  61  92 127 165 207 253 316 372
#     4  11  22  41  64  94 127 160 212 262 310 373
#     4  12  23  33  62  99 128 157 214 264 312 361
#     4  10  22  39  64  89 123 168 213 250 316 382
#     4   9  20  33  56  86 137 166 197 251 324 374
#     4  11  24  40  64  90 126 169 210 258 316 377
#     4  10  19  36  54  91 130 165 204 255 313 369
#     4  11  24  46  65  89 124 170 212 261 318 377
#
# _framework density 21.412658
#
# number of rings (size 3 to 8) (size 9 to 14) (size 15 to 20)
#    0.000    1.500    2.500    4.125    7.000    0.000 
#    0.000    4.375    0.000    0.000    0.000    0.000 
#    0.000    0.000    0.000    0.000    0.000    0.000 
#
# Total GULP energy -89365.304847 kJ/mol
# GULP energy per Si atom -5585.331553 kJ/mol
# Density = 2.136392 g / cm^3
# Si number density = 21.412658 Si / 1000 Ang^3
#
#
#
# Elastic Constant Matrix: (Units=GPa)
#
#
# Indices 1 2 3 4 5 6 
#
# 1 27.3378 0.7676 -4.7983 4.6320 7.7508 0.1158
# 2 0.7676 99.4116 6.0663 21.0996 1.4315 4.1471
# 3 -4.7983 6.0663 54.6285 -1.9925 4.2247 -1.3410
# 4 4.6320 21.0996 -1.9925 45.3419 4.9127 2.7438
# 5 7.7508 1.4315 4.2247 4.9127 24.5345 -4.5182
# 6 0.1158 4.1471 -1.3410 2.7438 -4.5182 23.4095
#
#
#
# Elastic Compliance Matrix: (Units=1/GPa)
#
#
# Indices 1 2 3 4 5 6 
#
# 1 0.041760 0.000234 0.004569 -0.002521 -0.013926 -0.002379
# 2 0.000234 0.011330 -0.001491 -0.005312 0.000326 -0.001408
# 3 0.004569 -0.001491 0.019320 0.001602 -0.004967 0.000202
# 4 -0.002521 -0.005312 0.001602 0.025550 -0.004816 -0.002879
# 5 -0.013926 0.000326 -0.004967 -0.004816 0.048745 0.009699
# 6 -0.002379 -0.001408 0.000202 -0.002879 0.009699 0.045200
#
#
# Mechanical properties :
#
#
# Convention : Reuss Voigt Hill
#
# Bulk Modulus (GPa) = 12.65306 20.60546 16.62926
# Shear Modulus (GPa) = 23.62643 30.61331 27.11987
#
# Velocity S-wave (km/s) = 3.32533 3.78522 3.56270
# Velocity P-wave (km/s) = 4.54596 5.36169 4.97059
#
# Compressibility (1/GPa) = 0.07903229
#
# Stress axis : x y z
#
# Youngs Moduli (GPa) = 23.94619 88.26262 51.76032
#
# Poissons Ratio (x) = -0.02062 -0.23648
# Poissons Ratio (y) = -0.00559 0.07718
# Poissons Ratio (z) = -0.10940 0.13161
#
# Static dielectric constant tensor:
#      x y z
#    x 1.790510 0.045690 -0.018610 
#    y 0.045690 1.825010 -0.010170 
#    z -0.018610 -0.010170 1.767900 
# 
# From -- ./inp_files/238712.got.cif
#   From: 2010.05.17/outbox.ucp.g08.bks.cvg/sg2_120_cif.got.tgz:238712.got - 2010.06.11 11:32:03.
