data_PCOD9072292
_publ_section_title
;
Structure prediction by ZEFSAII (Michael W. Deem and Ramdas Pophale) SiO2 
 PCOD9072292
Probable space group: P -1
;
_chemical_formula_sum "Si O2"
_cell_formula_units_Z 10
_cell_length_a 13.812035
_cell_length_b 5.459874
_cell_length_c 20.391787
_cell_angle_alpha 110.679582
_cell_angle_beta 156.756533
_cell_angle_gamma 55.949263
_cell_volume 437.343010
_symmetry_space_group_name_H-M "P -1"
_symmetry_group_IT_number 2
_symmetry_cell_setting 'triclinic'
loop_
_space_group_symop_operation_xyz
x,y,z
-x,-y,-z
loop_
_atom_site_type_symbol
_atom_site_label
_atom_site_fract_x
_atom_site_fract_y
_atom_site_fract_z
Si Si1 0.809060 0.651287 0.461902
Si Si2 0.789657 0.501480 0.632847
Si Si3 0.130053 0.703382 0.782918
Si Si4 0.295146 0.761819 0.229638
Si Si5 0.229982 0.341119 0.215481
O O1 0.994512 0.617734 0.749947
O O2 0.578796 0.568045 0.333422
O O3 0.000000 0.500000 0.500000
O O4 0.059634 0.557984 0.664710
O O5 0.508207 0.680591 0.420295
O O6 0.692444 0.620018 0.658800
O O7 0.974612 0.097164 0.712050
O O8 0.500000 0.500000 0.000000
O O9 0.552388 0.061308 0.348920
O O10 0.077188 0.673372 0.109812
O O11 0.081712 0.157063 0.115008
#
# Coordination Sequence:
#
# PCOD9072292 Si02
#       5
#     2   2   2   2   2
#     4   9  21  35  54  80 109 138 174 216 264 313
#     4  11  18  34  55  78 109 132 182 220 261 306
#     4  11  23  36  54  79 109 144 172 213 265 316
#     4   9  17  29  49  81 105 129 169 219 269 296
#     4  10  18  30  54  82 104 133 171 230 265 292
#
# _framework density 22.865345000000001
#
# number of rings (size 3 to 8) (size 9 to 14) (size 15 to 20)
#    1.200    0.800    2.000    3.000    0.000    0.800 
#    0.000    0.000    0.000    2.400    0.000    0.000 
#    0.000    0.000    0.000    0.000    0.000    0.000 
#
# Total GULP energy -55674.782009 kJ/mol
# GULP energy per Si atom -5567.478201 kJ/mol
# Density = 2.281330 g / cm^3
# Si number density = 22.865345 Si / 1000 Ang^3
#
#
#
# Elastic Constant Matrix: (Units=GPa)
#
#
# Indices 1 2 3 4 5 6 
#
# 1 192.4580 71.0596 22.0594 -5.0284 -7.0093 5.1983
# 2 71.0596 114.8691 22.6742 -9.1060 0.3207 37.8812
# 3 22.0594 22.6742 81.7904 4.8058 7.4914 8.5259
# 4 -5.0284 -9.1060 4.8058 25.2363 8.2913 -4.7110
# 5 -7.0093 0.3207 7.4914 8.2913 23.2484 3.3464
# 6 5.1983 37.8812 8.5259 -4.7110 3.3464 67.3377
#
#
#
# Elastic Compliance Matrix: (Units=1/GPa)
#
#
# Indices 1 2 3 4 5 6 
#
# 1 0.007182 -0.005047 -0.000960 -0.000587 0.002430 0.002244
# 2 -0.005047 0.015015 -0.002128 0.003871 -0.001351 -0.007450
# 3 -0.000960 -0.002128 0.013603 -0.002408 -0.003722 -0.000434
# 4 -0.000587 0.003871 -0.002408 0.047262 -0.016642 0.002306
# 5 0.002430 -0.001351 -0.003722 -0.016642 0.051284 -0.002669
# 6 0.002244 -0.007450 -0.000434 0.002306 -0.002669 0.019217
#
#
# Mechanical properties :
#
#
# Convention : Reuss Voigt Hill
#
# Bulk Modulus (GPa) = 51.20468 68.96709 60.08588
# Shear Modulus (GPa) = 28.35377 41.38610 34.86994
#
# Velocity S-wave (km/s) = 3.52523 4.25902 3.90938
# Velocity P-wave (km/s) = 6.24598 7.37654 6.83468
#
# Compressibility (1/GPa) = 0.01952947
#
# Stress axis : x y z
#
# Youngs Moduli (GPa) = 139.23842 66.59961 73.51287
#
# Poissons Ratio (x) = 0.33611 0.07057
# Poissons Ratio (y) = 0.70271 0.15647
# Poissons Ratio (z) = 0.13367 0.14176
#
# Static dielectric constant tensor:
#      x y z
#    x 1.879710 0.070320 -0.024950 
#    y 0.070320 2.034610 0.042270 
#    z -0.024950 0.042270 1.847140 
# 
# From -- ./inp_files/563636.got.cif
#   From: 2010.05.17/outbox.cif.g08.bks.cpg/sg2_282_cif.got.tgz:563636.got - 2010.06.03 11:33:40.
