data_PCOD9072115
_publ_section_title
;
Structure prediction by ZEFSAII (Michael W. Deem and Ramdas Pophale) SiO2 
 PCOD9072115
Probable space group: P -1
;
_chemical_formula_sum "Si O2"
_cell_formula_units_Z 16
_cell_length_a 12.344554
_cell_length_b 11.615906
_cell_length_c 15.248524
_cell_angle_alpha 73.555424
_cell_angle_beta 25.433507
_cell_angle_gamma 64.390839
_cell_volume 813.667981
_symmetry_space_group_name_H-M "P -1"
_symmetry_group_IT_number 2
_symmetry_cell_setting 'triclinic'
loop_
_space_group_symop_operation_xyz
x,y,z
-x,-y,-z
loop_
_atom_site_type_symbol
_atom_site_label
_atom_site_fract_x
_atom_site_fract_y
_atom_site_fract_z
Si Si1 0.570911 0.331999 0.926480
Si Si2 0.326866 0.205102 0.570540
Si Si3 0.253498 0.600398 0.035220
Si Si4 0.090422 0.096993 0.357354
Si Si5 0.264839 0.957402 0.089361
Si Si6 0.008572 0.630622 0.571012
Si Si7 0.909755 0.007263 0.166742
Si Si8 0.305861 0.332715 0.385711
O O1 0.722145 0.375603 0.883749
O O2 0.731694 0.173880 0.836339
O O3 0.465095 0.444248 0.903847
O O4 0.274064 0.348111 0.177198
O O5 0.223030 0.097482 0.701671
O O6 0.320725 0.222161 0.466099
O O7 0.073521 0.342459 0.760405
O O8 0.659067 0.147504 0.352949
O O9 0.397936 0.686062 0.866297
O O10 0.919677 0.250676 0.476274
O O11 0.083601 0.074792 0.262797
O O12 0.418792 0.058007 0.143680
O O13 0.000000 0.000000 0.500000
O O14 0.149235 0.971263 0.072660
O O15 0.910124 0.653036 0.536728
O O16 0.205244 0.476460 0.474222
O O17 0.000000 0.000000 0.000000
#
# Coordination Sequence:
#
# PCOD9072115 Si02
#       8
#     2   2   2   2   2   2   2   2
#     4   9  17  31  53  79 121 152 180 240 297 348
#     4  11  22  36  55  88 117 158 196 239 307 352
#     4  10  18  30  51  87 118 150 183 232 305 358
#     4  10  23  36  61  87 120 164 192 239 297 362
#     4  10  22  41  55  85 122 155 201 245 288 357
#     4   9  19  33  53  90 120 151 190 235 305 361
#     4  11  25  39  59  83 121 164 202 248 292 353
#     4  10  20  32  56  87 124 150 186 248 300 356
#
# _framework density 19.664041000000001
#
# number of rings (size 3 to 8) (size 9 to 14) (size 15 to 20)
#    0.000    2.000    2.500    0.750    8.750    1.000 
#    0.000    0.000    0.000    0.750    0.000    2.625 
#    0.000    0.000    0.000    0.000    0.000    0.000 
#
# Total GULP energy -89084.077411 kJ/mol
# GULP energy per Si atom -5567.754838 kJ/mol
# Density = 1.961928 g / cm^3
# Si number density = 19.664041 Si / 1000 Ang^3
#
#
#
# Elastic Constant Matrix: (Units=GPa)
#
#
# Indices 1 2 3 4 5 6 
#
# 1 64.9290 28.2490 31.9978 -1.7113 11.7480 -4.7368
# 2 28.2490 99.0339 33.2456 -2.1111 10.0740 2.9710
# 3 31.9978 33.2456 83.8601 0.8244 6.3612 -8.2072
# 4 -1.7113 -2.1111 0.8244 43.1651 -9.8857 9.2015
# 5 11.7480 10.0740 6.3612 -9.8857 27.1605 -0.2740
# 6 -4.7368 2.9710 -8.2072 9.2015 -0.2740 29.4326
#
#
#
# Elastic Compliance Matrix: (Units=1/GPa)
#
#
# Indices 1 2 3 4 5 6 
#
# 1 0.021245 -0.003454 -0.005954 -0.001335 -0.006975 0.002460
# 2 -0.003454 0.012708 -0.003882 0.000764 -0.002064 -0.003179
# 3 -0.005954 -0.003882 0.016224 -0.001787 -0.000390 0.004513
# 4 -0.001335 0.000764 -0.001787 0.027617 0.010670 -0.009325
# 5 -0.006975 -0.002064 -0.000390 0.010670 0.044536 -0.003944
# 6 0.002460 -0.003179 0.004513 -0.009325 -0.003944 0.038830
#
#
# Mechanical properties :
#
#
# Convention : Reuss Voigt Hill
#
# Bulk Modulus (GPa) = 42.37897 48.31199 45.34548
# Shear Modulus (GPa) = 25.56189 30.24035 27.90112
#
# Velocity S-wave (km/s) = 3.60937 3.92580 3.77090
# Velocity P-wave (km/s) = 6.24246 6.72095 6.48612
#
# Compressibility (1/GPa) = 0.02359661
#
# Stress axis : x y z
#
# Youngs Moduli (GPa) = 47.07083 78.69318 61.63655
#
# Poissons Ratio (x) = 0.27180 0.36698
# Poissons Ratio (y) = 0.16258 0.23927
# Poissons Ratio (z) = 0.28026 0.30548
#
# Static dielectric constant tensor:
#      x y z
#    x 1.671210 -0.037410 0.004490 
#    y -0.037410 1.792200 0.046520 
#    z 0.004490 0.046520 1.816660 
# 
# From -- ./inp_files/518931.got.cif
#   From: 2010.05.17/outbox.cif.g08.bks.cpg/sg2_260_cif.got.tgz:518931.got - 2010.06.03 11:33:40.
