data_PCOD9072908
_publ_section_title
;
Structure prediction by ZEFSAII (Michael W. Deem and Ramdas Pophale) SiO2 
 PCOD9072908
Probable space group: P -1
;
_chemical_formula_sum "Si O2"
_cell_formula_units_Z 16
_cell_length_a 18.000000
_cell_length_b 15.000000
_cell_length_c 9.000000
_cell_angle_alpha 140.000000
_cell_angle_beta 40.000000
_cell_angle_gamma 150.000000
_cell_volume 740.097418
_symmetry_space_group_name_H-M "P -1"
_symmetry_group_IT_number 2
_symmetry_cell_setting 'triclinic'
loop_
_space_group_symop_operation_xyz
x,y,z
-x,-y,-z
loop_
_atom_site_type_symbol
_atom_site_label
_atom_site_fract_x
_atom_site_fract_y
_atom_site_fract_z
Si Si1 0.818674 0.359368 0.653552
Si Si2 0.519211 0.632440 0.435235
Si Si3 0.740461 0.916674 0.022355
Si Si4 0.270985 0.355521 0.094441
Si Si5 0.435916 0.015047 0.267297
Si Si6 0.738633 0.745144 0.519731
Si Si7 0.598359 0.246440 0.574908
Si Si8 0.071316 0.261543 0.999555
O O1 0.729998 0.183867 0.678747
O O2 0.706679 0.276260 0.576304
O O3 0.000000 0.500000 0.500000
O O4 0.824066 0.519218 0.918255
O O5 0.617121 0.693037 0.513072
O O6 0.342975 0.448344 0.513237
O O7 0.564061 0.819439 0.545310
O O8 0.583416 0.573555 0.142333
O O9 0.572811 0.847988 0.223687
O O10 0.759537 0.793532 0.936420
O O11 0.756273 0.881581 0.784105
O O12 0.885654 0.132411 0.118276
O O13 0.316942 0.540532 0.331059
O O14 0.129996 0.262025 0.073211
O O15 0.564075 0.108378 0.322235
O O16 0.500000 0.000000 0.000000
O O17 0.887989 0.818197 0.290201
#
# Coordination Sequence:
#
# PCOD9072908 Si02
#       8
#     2   2   2   2   2   2   2   2
#     4  11  26  48  65  91 133 183 222 267 321 384
#     4  10  20  39  62  93 129 162 211 263 329 381
#     4  12  20  36  67 100 125 161 214 266 330 395
#     4  10  20  38  65  96 123 160 208 275 325 376
#     4  12  25  41  68  96 131 174 227 266 316 388
#     4  10  21  36  64  97 133 161 203 273 340 383
#     4  11  23  42  69  97 123 170 224 272 324 391
#     4  10  23  39  60  92 134 171 206 265 331 381
#
# _framework density 21.618776
#
# number of rings (size 3 to 8) (size 9 to 14) (size 15 to 20)
#    0.000    1.250    2.500    3.750    3.500    0.000 
#    2.250    0.625    0.000    0.000    0.000    0.000 
#    0.000    0.000    0.000    0.000    0.000    0.000 
#
# Total GULP energy -89394.969966 kJ/mol
# GULP energy per Si atom -5587.185623 kJ/mol
# Density = 2.156957 g / cm^3
# Si number density = 21.618776 Si / 1000 Ang^3
#
#
#
# Elastic Constant Matrix: (Units=GPa)
#
#
# Indices 1 2 3 4 5 6 
#
# 1 70.5272 53.9826 28.5139 -4.6470 4.0176 -2.5643
# 2 53.9826 127.0293 22.3127 4.2610 3.6315 3.8853
# 3 28.5139 22.3127 95.6566 2.2501 29.0917 17.2560
# 4 -4.6470 4.2610 2.2501 30.6405 1.0296 -11.3928
# 5 4.0176 3.6315 29.0917 1.0296 34.4331 2.1355
# 6 -2.5643 3.8853 17.2560 -11.3928 2.1355 32.4003
#
#
#
# Elastic Compliance Matrix: (Units=1/GPa)
#
#
# Indices 1 2 3 4 5 6 
#
# 1 0.026998 -0.010671 -0.009421 0.010494 0.004890 0.011802
# 2 -0.010671 0.012487 0.001576 -0.005291 -0.000936 -0.004980
# 3 -0.009421 0.001576 0.020000 -0.007544 -0.014917 -0.013256
# 4 0.010494 -0.005291 -0.007544 0.042994 0.003157 0.020393
# 5 0.004890 -0.000936 -0.014917 0.003157 0.040652 0.006875
# 6 0.011802 -0.004980 -0.013256 0.020393 0.006875 0.046173
#
#
# Mechanical properties :
#
#
# Convention : Reuss Voigt Hill
#
# Bulk Modulus (GPa) = 44.54061 55.87017 50.20539
# Shear Modulus (GPa) = 21.38385 32.05504 26.71945
#
# Velocity S-wave (km/s) = 3.14846 3.85481 3.51940
# Velocity P-wave (km/s) = 5.81933 6.76108 6.30780
#
# Compressibility (1/GPa) = 0.02245142
#
# Stress axis : x y z
#
# Youngs Moduli (GPa) = 37.04023 80.08537 49.99896
#
# Poissons Ratio (x) = 0.85458 0.47106
# Poissons Ratio (y) = 0.39525 -0.07878
# Poissons Ratio (z) = 0.34897 -0.12619
#
# Static dielectric constant tensor:
#      x y z
#    x 1.833810 -0.017730 -0.014530 
#    y -0.017730 1.782720 0.042940 
#    z -0.014530 0.042940 1.840880 
# 
# From -- ./inp_files/331913.got.cif
#   From: 2010.05.17/outbox.ucp.g08.bks.cvg/sg2_166_cif.got.tgz:331913.got - 2010.06.11 11:32:03.
