data_PCOD9072092
_publ_section_title
;
Structure prediction by ZEFSAII (Michael W. Deem and Ramdas Pophale) SiO2 
 PCOD9072092
Probable space group: P -1
;
_chemical_formula_sum "Si O2"
_cell_formula_units_Z 16
_cell_length_a 10.980374
_cell_length_b 16.650194
_cell_length_c 8.745422
_cell_angle_alpha 132.166323
_cell_angle_beta 83.318562
_cell_angle_gamma 125.292957
_cell_volume 864.411864
_symmetry_space_group_name_H-M "P -1"
_symmetry_group_IT_number 2
_symmetry_cell_setting 'triclinic'
loop_
_space_group_symop_operation_xyz
x,y,z
-x,-y,-z
loop_
_atom_site_type_symbol
_atom_site_label
_atom_site_fract_x
_atom_site_fract_y
_atom_site_fract_z
Si Si1 0.660219 0.236302 0.553610
Si Si2 0.301539 0.025650 0.383029
Si Si3 0.918122 0.062722 0.151622
Si Si4 0.952161 0.529700 0.703923
Si Si5 0.580507 0.971277 0.085108
Si Si6 0.861730 0.933642 0.305760
Si Si7 0.693694 0.224125 0.883056
Si Si8 0.049437 0.225503 0.058655
O O1 0.470226 0.153700 0.431231
O O2 0.802018 0.381568 0.624500
O O3 0.666404 0.255340 0.759282
O O4 0.675161 0.117895 0.361799
O O5 0.284145 0.098405 0.618110
O O6 0.319940 0.915003 0.303488
O O7 0.133533 0.916624 0.166593
O O8 0.724307 0.971484 0.024470
O O9 0.924956 0.055364 0.323299
O O10 0.023901 0.211269 0.227071
O O11 0.000000 0.000000 0.000000
O O12 0.000000 0.500000 0.500000
O O13 0.122009 0.633380 0.908966
O O14 0.905821 0.627942 0.811824
O O15 0.437084 0.831111 0.031104
O O16 0.500000 0.000000 0.000000
O O17 0.834836 0.802583 0.057185
O O18 0.000000 0.000000 0.500000
#
# Coordination Sequence:
#
# PCOD9072092 Si02
#       8
#     2   2   2   2   2   2   2   2
#     4  11  20  32  52  77 106 141 178 225 273 322
#     4   9  17  32  53  77 102 130 172 224 272 315
#     4  10  18  30  51  80 107 137 175 221 268 315
#     4  11  22  35  49  72 107 146 181 223 273 324
#     4  11  20  34  57  85 112 142 182 230 274 321
#     4   9  17  31  53  79 105 136 175 224 273 322
#     4  10  20  33  51  77 106 136 178 227 271 320
#     4   9  19  33  50  75 105 136 176 218 265 323
#
# _framework density 18.509696000000002
#
# number of rings (size 3 to 8) (size 9 to 14) (size 15 to 20)
#    0.000    2.000    0.000    7.125    0.000    0.000 
#    0.000    1.875    0.000    0.000    0.000   59.500 
#    0.000    0.000    0.000    0.000    0.000    0.000 
#
# Total GULP energy -89086.985344 kJ/mol
# GULP energy per Si atom -5567.936584 kJ/mol
# Density = 1.846757 g / cm^3
# Si number density = 18.509696 Si / 1000 Ang^3
#
#
#
# Elastic Constant Matrix: (Units=GPa)
#
#
# Indices 1 2 3 4 5 6 
#
# 1 91.8508 37.9545 23.9303 -5.2091 -8.4239 18.5808
# 2 37.9545 132.6799 37.5252 -1.2581 8.2768 18.6468
# 3 23.9303 37.5252 56.7384 0.9885 -0.8817 8.7230
# 4 -5.2091 -1.2581 0.9885 34.6334 3.3201 9.0374
# 5 -8.4239 8.2768 -0.8817 3.3201 24.9317 -11.6401
# 6 18.5808 18.6468 8.7230 9.0374 -11.6401 34.0552
#
#
#
# Elastic Compliance Matrix: (Units=1/GPa)
#
#
# Indices 1 2 3 4 5 6 
#
# 1 0.014396 -0.002413 -0.003624 0.003433 0.002424 -0.005688
# 2 -0.002413 0.011371 -0.005585 0.002894 -0.008515 -0.007158
# 3 -0.003624 -0.005585 0.022871 -0.001622 0.001751 0.000206
# 4 0.003433 0.002894 -0.001622 0.035025 -0.012234 -0.016518
# 5 0.002424 -0.008515 0.001751 -0.012234 0.057486 0.025786
# 6 -0.005688 -0.007158 0.000206 -0.016518 0.025786 0.049531
#
#
# Mechanical properties :
#
#
# Convention : Reuss Voigt Hill
#
# Bulk Modulus (GPa) = 39.37851 53.34322 46.36087
# Shear Modulus (GPa) = 22.48324 30.84801 26.66563
#
# Velocity S-wave (km/s) = 3.48900 4.08681 3.79968
# Velocity P-wave (km/s) = 6.12793 7.15199 6.65968
#
# Compressibility (1/GPa) = 0.02539456
#
# Stress axis : x y z
#
# Youngs Moduli (GPa) = 69.46448 87.94071 43.72355
#
# Poissons Ratio (x) = 0.21216 0.15845
# Poissons Ratio (y) = 0.16758 0.24422
# Poissons Ratio (z) = 0.25173 0.49119
#
# Static dielectric constant tensor:
#      x y z
#    x 1.714560 0.000150 0.004020 
#    y 0.000150 1.672290 -0.059890 
#    z 0.004020 -0.059890 1.654790 
# 
# From -- ./inp_files/215904.got.cif
#   From: 2010.05.17/outbox.cif.g08.bks.cpg/sg2_108_cif.got.tgz:215904.got - 2010.06.03 11:33:40.
