data_PCOD9072312
_publ_section_title
;
Structure prediction by ZEFSAII (Michael W. Deem and Ramdas Pophale) SiO2 
 PCOD9072312
Probable space group: P -1
;
_chemical_formula_sum "Si O2"
_cell_formula_units_Z 15
_cell_length_a 12.377647
_cell_length_b 13.772733
_cell_length_c 14.701128
_cell_angle_alpha 44.640298
_cell_angle_beta 154.980070
_cell_angle_gamma 123.868424
_cell_volume 711.774296
_symmetry_space_group_name_H-M "P -1"
_symmetry_group_IT_number 2
_symmetry_cell_setting 'triclinic'
loop_
_space_group_symop_operation_xyz
x,y,z
-x,-y,-z
loop_
_atom_site_type_symbol
_atom_site_label
_atom_site_fract_x
_atom_site_fract_y
_atom_site_fract_z
Si Si1 0.251333 0.995833 0.931398
Si Si2 0.500000 0.000000 0.500000
Si Si3 0.382262 0.389423 0.371745
Si Si4 0.205467 0.134317 0.317404
Si Si5 0.966737 0.119176 0.816064
Si Si6 0.937181 0.439293 0.141720
Si Si7 0.861439 0.883810 0.432070
Si Si8 0.004612 0.302323 0.879035
O O1 0.190420 0.096214 0.728840
O O2 0.146924 0.072326 0.895629
O O3 0.068500 0.889196 0.845846
O O4 0.565859 0.917007 0.228074
O O5 0.455381 0.997662 0.584258
O O6 0.668689 0.125808 0.554519
O O7 0.271993 0.261415 0.334633
O O8 0.213314 0.439008 0.300827
O O9 0.698469 0.333044 0.658340
O O10 0.288560 0.511442 0.141162
O O11 0.174219 0.163530 0.162191
O O12 0.001213 0.258501 0.801585
O O13 0.000000 0.000000 0.000000
O O14 0.971656 0.279329 0.309322
O O15 0.899878 0.561896 0.108563
O O16 0.000000 0.000000 0.500000
#
# Coordination Sequence:
#
# PCOD9072312 Si02
#       8
#     2   1   2   2   2   2   2   2
#     4  10  23  38  62  90 118 154 204 245 292 354
#     4  10  18  30  54  86 128 150 184 228 294 366
#     4  10  20  35  57  87 122 156 191 240 297 353
#     4  10  19  33  56  94 121 150 189 236 300 354
#     4  11  21  36  60  93 125 154 190 244 301 353
#     4  10  23  36  56  86 116 155 205 242 294 346
#     4  11  24  44  62  82 117 161 207 249 291 348
#     4  11  20  35  58  88 125 152 185 245 303 354
#
# _framework density 21.074096000000001
#
# number of rings (size 3 to 8) (size 9 to 14) (size 15 to 20)
#    0.000    1.600    4.000    2.000    0.000    6.400 
#    0.000    0.667    0.000    1.600    0.000    0.000 
#    0.000    0.000    0.000    0.000    0.000    0.000 
#
# Total GULP energy -83556.017788 kJ/mol
# GULP energy per Si atom -5570.401186 kJ/mol
# Density = 2.102613 g / cm^3
# Si number density = 21.074096 Si / 1000 Ang^3
#
#
#
# Elastic Constant Matrix: (Units=GPa)
#
#
# Indices 1 2 3 4 5 6 
#
# 1 109.0888 32.6907 26.1456 2.3662 0.9104 -18.3779
# 2 32.6907 116.7346 23.7109 -8.8877 -4.2515 -20.3382
# 3 26.1456 23.7109 87.1186 -3.4126 1.3836 9.8985
# 4 2.3662 -8.8877 -3.4126 28.9790 10.2296 5.0633
# 5 0.9104 -4.2515 1.3836 10.2296 29.8502 7.7405
# 6 -18.3779 -20.3382 9.8985 5.0633 7.7405 39.7134
#
#
#
# Elastic Compliance Matrix: (Units=1/GPa)
#
#
# Indices 1 2 3 4 5 6 
#
# 1 0.011665 -0.001678 -0.003813 -0.002583 -0.001097 0.006033
# 2 -0.001678 0.010695 -0.002902 0.002319 -0.000438 0.005214
# 3 -0.003813 -0.002902 0.014313 0.002320 0.000094 -0.007132
# 4 -0.002583 0.002319 0.002320 0.040807 -0.012830 -0.003288
# 5 -0.001097 -0.000438 0.000094 -0.012830 0.039639 -0.006846
# 6 0.006033 0.005214 -0.007132 -0.003288 -0.006846 0.034173
#
#
# Mechanical properties :
#
#
# Convention : Reuss Voigt Hill
#
# Bulk Modulus (GPa) = 50.28562 53.11515 51.70039
# Shear Modulus (GPa) = 28.61948 35.06818 31.84383
#
# Velocity S-wave (km/s) = 3.68916 4.08369 3.89143
# Velocity P-wave (km/s) = 6.48534 6.89160 6.69155
#
# Compressibility (1/GPa) = 0.01988640
#
# Stress axis : x y z
#
# Youngs Moduli (GPa) = 85.72614 93.50497 69.86843
#
# Poissons Ratio (x) = 0.15687 0.26644
# Poissons Ratio (y) = 0.14382 0.20275
# Poissons Ratio (z) = 0.32691 0.27133
#
# Static dielectric constant tensor:
#      x y z
#    x 1.904850 -0.036170 0.136670 
#    y -0.036170 1.773150 -0.013970 
#    z 0.136670 -0.013970 2.020630 
# 
# From -- ./inp_files/521497.got.cif
#   From: 2010.05.17/outbox.cif.g08.bks.cpg/sg2_261_cif.got.tgz:521497.got - 2010.06.03 11:33:40.
