data_PCOD9072721
_publ_section_title
;
Structure prediction by ZEFSAII (Michael W. Deem and Ramdas Pophale) SiO2 
 PCOD9072721
Probable space group: P -1
;
_chemical_formula_sum "Si O2"
_cell_formula_units_Z 16
_cell_length_a 21.445028
_cell_length_b 21.544877
_cell_length_c 9.320451
_cell_angle_alpha 30.208825
_cell_angle_beta 150.624597
_cell_angle_gamma 161.143183
_cell_volume 661.154644
_symmetry_space_group_name_H-M "P -1"
_symmetry_group_IT_number 2
_symmetry_cell_setting 'triclinic'
loop_
_space_group_symop_operation_xyz
x,y,z
-x,-y,-z
loop_
_atom_site_type_symbol
_atom_site_label
_atom_site_fract_x
_atom_site_fract_y
_atom_site_fract_z
Si Si1 0.808151 0.765378 0.601482
Si Si2 0.117975 0.371487 0.543189
Si Si3 0.889537 0.466136 0.533469
Si Si4 0.657972 0.668441 0.809486
Si Si5 0.553129 0.775026 0.940248
Si Si6 0.192403 0.344869 0.457615
Si Si7 0.787870 0.909710 0.863414
Si Si8 0.743445 0.152989 0.685158
O O1 0.777339 0.729260 0.780523
O O2 0.854086 0.688513 0.737227
O O3 0.612372 0.688234 0.296404
O O4 0.000000 0.000000 0.500000
O O5 0.107738 0.482641 0.400626
O O6 0.106168 0.374412 0.342516
O O7 0.323125 0.446570 0.837209
O O8 0.946820 0.141873 0.704634
O O9 0.686736 0.376356 0.234350
O O10 0.835274 0.282832 0.754519
O O11 0.102569 0.670474 0.477710
O O12 0.435407 0.538187 0.574214
O O13 0.731245 0.825702 0.756601
O O14 0.620725 0.831050 0.797915
O O15 0.708589 0.983399 0.920305
O O16 0.140054 0.165609 0.768318
O O17 0.500000 0.000000 0.500000
#
# Coordination Sequence:
#
# PCOD9072721 Si02
#       8
#     2   2   2   2   2   2   2   2
#     4  11  22  35  49  75 113 155 185 210 259 322
#     4  11  18  31  53  77 107 143 177 222 269 312
#     4  10  19  32  57  83 108 136 178 228 282 319
#     4  11  20  32  48  74 111 147 183 216 252 321
#     4  10  19  36  54  81 113 144 180 222 270 316
#     4  10  20  32  46  73 105 146 185 219 260 311
#     4  10  18  31  50  74 106 145 181 219 263 311
#     4   9  19  35  55  84 109 131 174 234 285 323
#
# _framework density 24.200087
#
# number of rings (size 3 to 8) (size 9 to 14) (size 15 to 20)
#    0.000    1.750    1.250    7.875    0.000    0.000 
#    0.000    0.000    0.000    0.000    0.000   19.250 
#    0.000    0.625    0.000    0.000    0.000    0.000 
#
# Total GULP energy -89295.727525 kJ/mol
# GULP energy per Si atom -5580.982970 kJ/mol
# Density = 2.414501 g / cm^3
# Si number density = 24.200087 Si / 1000 Ang^3
#
#
#
# Elastic Constant Matrix: (Units=GPa)
#
#
# Indices 1 2 3 4 5 6 
#
# 1 230.1309 81.1248 43.9695 -3.3556 -21.1393 -40.7964
# 2 81.1248 148.8723 30.2618 -5.8559 -4.2072 -19.2525
# 3 43.9695 30.2618 33.8632 12.1472 -10.6515 -7.1748
# 4 -3.3556 -5.8559 12.1472 31.1978 -4.6256 8.7167
# 5 -21.1393 -4.2072 -10.6515 -4.6256 41.9251 0.1235
# 6 -40.7964 -19.2525 -7.1748 8.7167 0.1235 66.3640
#
#
#
# Elastic Compliance Matrix: (Units=1/GPa)
#
#
# Indices 1 2 3 4 5 6 
#
# 1 0.007098 -0.001846 -0.007461 0.002851 0.001805 0.002643
# 2 -0.001846 0.009546 -0.008211 0.004515 -0.001561 0.000157
# 3 -0.007461 -0.008211 0.058298 -0.024645 0.007498 0.002557
# 4 0.002851 0.004515 -0.024645 0.044403 0.000544 -0.005435
# 5 0.001805 -0.001561 0.007498 0.000544 0.026566 0.001346
# 6 0.002643 0.000157 0.002557 -0.005435 0.001346 0.017726
#
#
# Mechanical properties :
#
#
# Convention : Reuss Voigt Hill
#
# Bulk Modulus (GPa) = 25.06013 80.39765 52.72889
# Shear Modulus (GPa) = 23.58758 45.06471 34.32615
#
# Velocity S-wave (km/s) = 3.12539 4.31997 3.77029
# Velocity P-wave (km/s) = 4.83756 7.62739 6.38666
#
# Compressibility (1/GPa) = 0.03990403
#
# Stress axis : x y z
#
# Youngs Moduli (GPa) = 140.89340 104.75550 17.15333
#
# Poissons Ratio (x) = 0.19338 0.12798
# Poissons Ratio (y) = 0.26010 0.14085
# Poissons Ratio (z) = 1.05123 0.86019
#
# Static dielectric constant tensor:
#      x y z
#    x 2.023790 0.021800 0.044620 
#    y 0.021800 2.014960 0.030520 
#    z 0.044620 0.030520 1.934790 
# 
# From -- ./inp_files/284772.got.cif
#   From: 2010.05.17/outbox.cif.g08.bks.cpg/sg2_143_cif.got.tgz:284772.got - 2010.06.03 11:33:40.
