data_PCOD9072497
_publ_section_title
;
Structure prediction by ZEFSAII (Michael W. Deem and Ramdas Pophale) SiO2 
 PCOD9072497
Probable space group: P -1
;
_chemical_formula_sum "Si O2"
_cell_formula_units_Z 14
_cell_length_a 9.000000
_cell_length_b 9.000000
_cell_length_c 12.000000
_cell_angle_alpha 120.000000
_cell_angle_beta 120.000000
_cell_angle_gamma 50.000000
_cell_volume 621.029576
_symmetry_space_group_name_H-M "P -1"
_symmetry_group_IT_number 2
_symmetry_cell_setting 'triclinic'
loop_
_space_group_symop_operation_xyz
x,y,z
-x,-y,-z
loop_
_atom_site_type_symbol
_atom_site_label
_atom_site_fract_x
_atom_site_fract_y
_atom_site_fract_z
Si Si1 0.847468 0.687691 0.433189
Si Si2 0.151827 0.760937 0.989055
Si Si3 0.791597 0.727448 0.926714
Si Si4 0.565337 0.605583 0.185935
Si Si5 0.642281 0.144044 0.451357
Si Si6 0.633728 0.893038 0.160883
Si Si7 0.774102 0.471135 0.642957
O O1 0.659732 0.652336 0.343764
O O2 0.000000 0.500000 0.500000
O O3 0.004482 0.618602 0.361442
O O4 0.737318 0.938518 0.490463
O O5 0.327746 0.694852 0.122857
O O6 0.291101 0.627587 0.885843
O O7 0.995409 0.697121 0.941698
O O8 0.000000 0.000000 0.000000
O O9 0.764239 0.556058 0.795559
O O10 0.593789 0.939912 0.897691
O O11 0.780916 0.763864 0.067985
O O12 0.604142 0.736172 0.160627
O O13 0.733234 0.287156 0.556187
O O14 0.401305 0.323443 0.411721
O O15 0.695753 0.024918 0.307912
#
# Coordination Sequence:
#
# PCOD9072497 Si02
#       7
#     2   2   2   2   2   2   2
#     4  11  23  42  67  94 135 183 231 278 331 399
#     4  11  21  39  62  92 133 176 207 275 347 403
#     4  10  19  37  68  98 131 169 216 275 342 401
#     4  10  22  40  63  92 133 171 223 274 336 399
#     4   9  21  41  68  96 135 176 225 281 337 404
#     4   9  19  38  64 100 130 165 220 276 330 409
#     4  10  20  42  68  97 135 177 219 280 346 404
#
# _framework density 22.543209999999998
#
# number of rings (size 3 to 8) (size 9 to 14) (size 15 to 20)
#    0.000    2.000    2.857    0.429    0.000    1.143 
#    2.571    5.714    0.000    0.000    0.000    0.000 
#    0.000    0.000    0.000    0.000    0.000    0.000 
#
# Total GULP energy -77945.510774 kJ/mol
# GULP energy per Si atom -5567.536484 kJ/mol
# Density = 2.249190 g / cm^3
# Si number density = 22.543210 Si / 1000 Ang^3
#
#
#
# Elastic Constant Matrix: (Units=GPa)
#
#
# Indices 1 2 3 4 5 6 
#
# 1 56.0748 22.8430 44.2056 5.7335 18.2893 -22.0913
# 2 22.8430 203.2367 56.7238 9.3364 10.0306 -12.0457
# 3 44.2056 56.7238 112.4652 21.5222 20.2433 7.9122
# 4 5.7335 9.3364 21.5222 45.7554 -5.0616 4.1297
# 5 18.2893 10.0306 20.2433 -5.0616 37.4107 -2.7492
# 6 -22.0913 -12.0457 7.9122 4.1297 -2.7492 39.4050
#
#
#
# Elastic Compliance Matrix: (Units=1/GPa)
#
#
# Indices 1 2 3 4 5 6 
#
# 1 0.049858 0.002791 -0.020982 -0.001143 -0.011548 0.032332
# 2 0.002791 0.006113 -0.004449 0.000078 -0.000270 0.004300
# 3 -0.020982 -0.004449 0.022118 -0.005599 -0.002535 -0.017154
# 4 -0.001143 0.000078 -0.005599 0.025532 0.006898 -0.001688
# 5 -0.011548 -0.000270 -0.002535 0.006898 0.034432 -0.004368
# 6 0.032332 0.004300 -0.017154 -0.001688 -0.004368 0.048135
#
#
# Mechanical properties :
#
#
# Convention : Reuss Voigt Hill
#
# Bulk Modulus (GPa) = 30.48017 68.81348 49.64682
# Shear Modulus (GPa) = 20.62666 41.04784 30.83725
#
# Velocity S-wave (km/s) = 3.02815 4.27177 3.70255
# Velocity P-wave (km/s) = 5.07705 7.41095 6.35211
#
# Compressibility (1/GPa) = 0.03280822
#
# Stress axis : x y z
#
# Youngs Moduli (GPa) = 20.05678 163.58561 45.21283
#
# Poissons Ratio (x) = -0.45658 0.94867
# Poissons Ratio (y) = -0.05598 0.20116
# Poissons Ratio (z) = 0.42084 0.72782
#
# Static dielectric constant tensor:
#      x y z
#    x 1.812760 0.021530 -0.009060 
#    y 0.021530 1.862730 -0.092450 
#    z -0.009060 -0.092450 2.036130 
# 
# From -- ./inp_files/383351.got.cif
#   From: 2010.05.17/outbox.ucp.g08.bks.cvg/sg2_192_cif.got.tgz:383351.got - 2010.06.11 11:32:03.
