data_PCOD9072272
_publ_section_title
;
Structure prediction by ZEFSAII (Michael W. Deem and Ramdas Pophale) SiO2 
 PCOD9072272
Probable space group: P -1
;
_chemical_formula_sum "Si O2"
_cell_formula_units_Z 16
_cell_length_a 12.526617
_cell_length_b 10.153596
_cell_length_c 17.637970
_cell_angle_alpha 21.194536
_cell_angle_beta 66.180498
_cell_angle_gamma 76.193603
_cell_volume 674.409549
_symmetry_space_group_name_H-M "P -1"
_symmetry_group_IT_number 2
_symmetry_cell_setting 'triclinic'
loop_
_space_group_symop_operation_xyz
x,y,z
-x,-y,-z
loop_
_atom_site_type_symbol
_atom_site_label
_atom_site_fract_x
_atom_site_fract_y
_atom_site_fract_z
Si Si1 0.103575 0.425837 0.376697
Si Si2 0.562745 0.434996 0.092000
Si Si3 0.640040 0.295224 0.769253
Si Si4 0.884016 0.445476 0.162787
Si Si5 0.618618 0.938166 0.531065
Si Si6 0.872933 0.317289 0.944006
Si Si7 0.148757 0.141909 0.203636
Si Si8 0.618347 0.701320 0.412856
O O1 0.228493 0.726535 0.227004
O O2 0.113120 0.560364 0.213897
O O3 0.102440 0.978286 0.618586
O O4 0.962184 0.308348 0.516086
O O5 0.447002 0.361378 0.222071
O O6 0.589242 0.038135 0.286099
O O7 0.500000 0.500000 0.000000
O O8 0.701890 0.766876 0.897449
O O9 0.659157 0.714761 0.575539
O O10 0.630309 0.381202 0.638291
O O11 0.500000 0.000000 0.000000
O O12 0.000463 0.706441 0.044196
O O13 0.744848 0.330968 0.302082
O O14 0.883962 0.636631 0.977736
O O15 0.500000 0.000000 0.500000
O O16 0.851613 0.643329 0.830183
O O17 0.747444 0.918180 0.211179
O O18 0.500000 0.500000 0.500000
#
# Coordination Sequence:
#
# PCOD9072272 Si02
#       8
#     2   2   2   2   2   2   2   2
#     4  10  19  31  52  80 109 143 191 233 277 329
#     4  11  24  35  59  86 118 151 185 235 283 337
#     4  11  23  38  62  84 114 152 188 236 282 337
#     4  10  18  30  54  77 112 145 185 237 277 328
#     4  11  20  39  57  86 116 149 190 229 287 336
#     4  10  19  31  52  80 109 145 187 235 278 326
#     4  10  18  32  50  80 111 145 187 234 280 326
#     4  11  23  40  58  85 117 149 191 234 282 337
#
# _framework density 23.724457999999998
#
# number of rings (size 3 to 8) (size 9 to 14) (size 15 to 20)
#    0.000    1.500    2.500    6.750   10.500    0.000 
#    0.000    0.000    0.000    3.000    0.000    0.000 
#    0.000    0.000    0.000    0.000    0.000    0.000 
#
# Total GULP energy -89288.762241 kJ/mol
# GULP energy per Si atom -5580.547640 kJ/mol
# Density = 2.367046 g / cm^3
# Si number density = 23.724458 Si / 1000 Ang^3
#
#
#
# Elastic Constant Matrix: (Units=GPa)
#
#
# Indices 1 2 3 4 5 6 
#
# 1 171.4955 48.0735 93.8433 15.2079 -40.3472 46.2546
# 2 48.0735 59.1347 44.5791 18.5573 7.9172 24.1684
# 3 93.8433 44.5791 156.8726 39.2022 -26.9363 31.7715
# 4 15.2079 18.5573 39.2022 46.3072 5.4933 14.2413
# 5 -40.3472 7.9172 -26.9363 5.4933 60.9072 -1.6352
# 6 46.2546 24.1684 31.7715 14.2413 -1.6352 42.4932
#
#
#
# Elastic Compliance Matrix: (Units=1/GPa)
#
#
# Indices 1 2 3 4 5 6 
#
# 1 0.013913 -0.006541 -0.004159 0.003489 0.007666 -0.009189
# 2 -0.006541 0.030464 -0.004424 -0.003202 -0.010128 -0.006215
# 3 -0.004159 -0.004424 0.012870 -0.008386 0.004279 0.000396
# 4 0.003489 -0.003202 -0.008386 0.031250 -0.003969 -0.006333
# 5 0.007666 -0.010128 0.004279 -0.003969 0.024970 -0.003492
# 6 -0.009189 -0.006215 0.000396 -0.006333 -0.003492 0.038763
#
#
# Mechanical properties :
#
#
# Convention : Reuss Voigt Hill
#
# Bulk Modulus (GPa) = 37.03847 84.49940 60.76893
# Shear Modulus (GPa) = 26.11271 43.34197 34.72734
#
# Velocity S-wave (km/s) = 3.32123 4.27885 3.83009
# Velocity P-wave (km/s) = 5.50938 7.75279 6.72529
#
# Compressibility (1/GPa) = 0.02699896
#
# Stress axis : x y z
#
# Youngs Moduli (GPa) = 71.87579 32.82509 77.70178
#
# Poissons Ratio (x) = 0.21472 0.32313
# Poissons Ratio (y) = 0.47016 0.34377
# Poissons Ratio (z) = 0.29890 0.14523
#
# Static dielectric constant tensor:
#      x y z
#    x 1.861160 0.244130 0.095580 
#    y 0.244130 1.178430 -0.497900 
#    z 0.095580 -0.497900 1.691770 
# 
# From -- ./inp_files/271583.got.cif
#   From: 2010.05.17/outbox.cif.g08.bks.cpg/sg2_136_cif.got.tgz:271583.got - 2010.06.03 11:33:40.
