data_PCOD9072463
_publ_section_title
;
Structure prediction by ZEFSAII (Michael W. Deem and Ramdas Pophale) SiO2 
 PCOD9072463
Probable space group: P -1
;
_chemical_formula_sum "Si O2"
_cell_formula_units_Z 15
_cell_length_a 12.256674
_cell_length_b 8.809937
_cell_length_c 11.299628
_cell_angle_alpha 108.040131
_cell_angle_beta 35.194044
_cell_angle_gamma 86.796067
_cell_volume 552.253527
_symmetry_space_group_name_H-M "P -1"
_symmetry_group_IT_number 2
_symmetry_cell_setting 'triclinic'
loop_
_space_group_symop_operation_xyz
x,y,z
-x,-y,-z
loop_
_atom_site_type_symbol
_atom_site_label
_atom_site_fract_x
_atom_site_fract_y
_atom_site_fract_z
Si Si1 0.335634 0.900944 0.394799
Si Si2 0.303056 0.896326 0.059327
Si Si3 0.801922 0.800607 0.618615
Si Si4 0.642191 0.582935 0.344600
Si Si5 0.116349 0.542229 0.661687
Si Si6 0.413764 0.516381 0.873895
Si Si7 0.923476 0.965163 0.932532
Si Si8 0.500000 0.000000 0.500000
O O1 0.509109 0.671447 0.162710
O O2 0.121792 0.929150 0.660356
O O3 0.246271 0.039921 0.396314
O O4 0.436162 0.978763 0.416758
O O5 0.143761 0.120483 0.294886
O O6 0.288830 0.885560 0.927018
O O7 0.554948 0.832578 0.858338
O O8 0.274350 0.733437 0.099882
O O9 0.948585 0.581633 0.388154
O O10 0.500000 0.500000 0.500000
O O11 0.822225 0.533503 0.276131
O O12 0.721506 0.483972 0.121547
O O13 0.503243 0.806871 0.488695
O O14 0.345032 0.519479 0.397859
O O15 0.931100 0.770776 0.893651
O O16 0.000000 0.000000 0.000000
#
# Coordination Sequence:
#
# PCOD9072463 Si02
#       8
#     2   2   2   2   2   2   2   1
#     4  10  21  36  61  89 113 160 198 243 307 360
#     4  10  22  39  59  88 121 156 200 250 295 360
#     4  10  21  39  63  85 116 161 204 240 293 369
#     4   9  15  27  52  83 113 151 196 244 296 348
#     4   9  17  34  56  80 116 157 192 238 299 371
#     4   8  17  32  55  83 114 153 197 236 293 364
#     4  11  24  39  59  89 120 155 197 254 314 358
#     4  10  18  30  58  92 114 148 212 246 280 376
#
# _framework density 27.161439000000001
#
# number of rings (size 3 to 8) (size 9 to 14) (size 15 to 20)
#    0.000    2.400    1.333    1.600    1.867    3.733 
#    0.000    2.000    0.000    0.000    0.000    0.000 
#    0.000    0.000    0.000    0.000    0.000    0.000 
#
# Total GULP energy -83656.255241 kJ/mol
# GULP energy per Si atom -5577.083683 kJ/mol
# Density = 2.709962 g / cm^3
# Si number density = 27.161439 Si / 1000 Ang^3
#
#
#
# Elastic Constant Matrix: (Units=GPa)
#
#
# Indices 1 2 3 4 5 6 
#
# 1 125.1452 50.7171 28.4745 17.3888 17.4354 26.6088
# 2 50.7171 185.3392 9.8940 24.4771 13.5631 26.0344
# 3 28.4745 9.8940 33.7274 -14.2896 -7.3634 13.7806
# 4 17.3888 24.4771 -14.2896 34.9224 6.1217 14.3920
# 5 17.4354 13.5631 -7.3634 6.1217 30.4585 7.4443
# 6 26.6088 26.0344 13.7806 14.3920 7.4443 49.3727
#
#
#
# Elastic Compliance Matrix: (Units=1/GPa)
#
#
# Indices 1 2 3 4 5 6 
#
# 1 0.019570 -0.000414 -0.033474 -0.023742 -0.016394 0.008407
# 2 -0.000414 0.006759 -0.004981 -0.006192 -0.002800 0.000277
# 3 -0.033474 -0.004981 0.120081 0.078991 0.044958 -0.042654
# 4 -0.023742 -0.006192 0.078991 0.087031 0.026596 -0.035366
# 5 -0.016394 -0.002800 0.044958 0.026596 0.053395 -0.018041
# 6 0.008407 0.000277 -0.042654 -0.035366 -0.018041 0.040512
#
#
# Mechanical properties :
#
#
# Convention : Reuss Voigt Hill
#
# Bulk Modulus (GPa) = 14.56193 58.04257 36.30225
# Shear Modulus (GPa) = 11.68291 39.95912 25.82101
#
# Velocity S-wave (km/s) = 2.07620 3.83975 3.08661
# Velocity P-wave (km/s) = 3.33472 6.40890 5.10854
#
# Compressibility (1/GPa) = 0.06867220
#
# Stress axis : x y z
#
# Youngs Moduli (GPa) = 51.09787 147.96172 8.32774
#
# Poissons Ratio (x) = 0.06127 0.27876
# Poissons Ratio (y) = 0.02116 0.04148
# Poissons Ratio (z) = 1.71043 0.73698
#
# Static dielectric constant tensor:
#      x y z
#    x 2.079220 -0.011800 -0.035650 
#    y -0.011800 2.172350 0.053860 
#    z -0.035650 0.053860 2.354390 
# 
# From -- ./inp_files/391542.got.cif
#   From: 2010.05.17/outbox.cif.g08.bks.cpg/sg2_196_cif.got.tgz:391542.got - 2010.06.03 11:33:40.
