data_PCOD9072108
_publ_section_title
;
Structure prediction by ZEFSAII (Michael W. Deem and Ramdas Pophale) SiO2 
 PCOD9072108
Probable space group: P -1
;
_chemical_formula_sum "Si O2"
_cell_formula_units_Z 16
_cell_length_a 18.000000
_cell_length_b 21.000000
_cell_length_c 12.000000
_cell_angle_alpha 150.000000
_cell_angle_beta 40.000000
_cell_angle_gamma 160.000000
_cell_volume 744.844803
_symmetry_space_group_name_H-M "P -1"
_symmetry_group_IT_number 2
_symmetry_cell_setting 'triclinic'
loop_
_space_group_symop_operation_xyz
x,y,z
-x,-y,-z
loop_
_atom_site_type_symbol
_atom_site_label
_atom_site_fract_x
_atom_site_fract_y
_atom_site_fract_z
Si Si1 0.110887 0.006479 0.969245
Si Si2 0.342444 0.898149 0.671345
Si Si3 0.756198 0.481657 0.038359
Si Si4 0.481738 0.750012 0.249274
Si Si5 0.763366 0.516854 0.520885
Si Si6 0.082439 0.590074 0.728061
Si Si7 0.113736 0.228937 0.461290
Si Si8 0.579915 0.702492 0.278365
O O1 0.309014 0.122471 0.854159
O O2 0.186833 0.158858 0.220752
O O3 0.911004 0.714824 0.755064
O O4 0.000000 0.000000 0.000000
O O5 0.478134 0.898639 0.482881
O O6 0.124588 0.677291 0.505310
O O7 0.238935 0.794782 0.758896
O O8 0.522162 0.182795 0.881914
O O9 0.720380 0.490057 0.962440
O O10 0.965020 0.581031 0.932418
O O11 0.793542 0.622339 0.304825
O O12 0.494019 0.727554 0.329694
O O13 0.846386 0.635926 0.483336
O O14 0.529074 0.367976 0.585012
O O15 0.778572 0.381509 0.317414
O O16 0.846511 0.957456 0.368873
O O17 0.500000 0.500000 0.000000
#
# Coordination Sequence:
#
# PCOD9072108 Si02
#       8
#     2   2   2   2   2   2   2   2
#     4  10  18  36  63  88 116 151 211 252 292 360
#     4  10  21  39  64  92 126 160 210 254 302 362
#     4  11  25  41  60  90 138 161 197 256 314 368
#     4  11  20  41  67  93 115 165 211 249 306 367
#     4  11  20  37  67  89 117 162 214 256 302 354
#     4  10  21  38  64  94 119 164 213 251 297 374
#     4  11  25  41  58  94 130 162 201 258 312 364
#     4  12  22  40  67  91 118 158 214 260 298 366
#
# _framework density 21.480985
#
# number of rings (size 3 to 8) (size 9 to 14) (size 15 to 20)
#    0.000    1.250    5.000    3.750    0.000    2.000 
#    0.000    1.875    0.000    0.000    0.000    0.000 
#    0.000    0.000    0.000    0.000    0.000    0.000 
#
# Total GULP energy -89168.315005 kJ/mol
# GULP energy per Si atom -5573.019688 kJ/mol
# Density = 2.143209 g / cm^3
# Si number density = 21.480985 Si / 1000 Ang^3
#
#
#
# Elastic Constant Matrix: (Units=GPa)
#
#
# Indices 1 2 3 4 5 6 
#
# 1 15.3046 -6.0658 2.9266 2.7890 -6.3567 12.5842
# 2 -6.0658 115.1977 21.7976 -16.0444 -11.2698 2.7790
# 3 2.9266 21.7976 80.1961 -7.0243 25.2573 -1.3603
# 4 2.7890 -16.0444 -7.0243 32.3287 1.4900 -1.8323
# 5 -6.3567 -11.2698 25.2573 1.4900 31.2659 -9.6706
# 6 12.5842 2.7790 -1.3603 -1.8323 -9.6706 18.1830
#
#
#
# Elastic Compliance Matrix: (Units=1/GPa)
#
#
# Indices 1 2 3 4 5 6 
#
# 1 0.201114 0.018236 -0.025522 -0.022586 0.028662 -0.130917
# 2 0.018236 0.012781 -0.007854 0.002026 0.011892 -0.008633
# 3 -0.025522 -0.007854 0.024101 0.005146 -0.025353 0.007701
# 4 -0.022586 0.002026 0.005146 0.036173 -0.004497 0.016960
# 5 0.028662 0.011892 -0.025353 -0.004497 0.066269 0.011241
# 6 -0.130917 -0.008633 0.007701 0.016960 0.011241 0.155186
#
#
# Mechanical properties :
#
#
# Convention : Reuss Voigt Hill
#
# Bulk Modulus (GPa) = 4.81424 27.55726 16.18575
# Shear Modulus (GPa) = 8.40134 29.15818 18.77976
#
# Velocity S-wave (km/s) = 1.97979 3.68828 2.95998
# Velocity P-wave (km/s) = 2.73351 5.56726 4.38557
#
# Compressibility (1/GPa) = 0.20771699
#
# Stress axis : x y z
#
# Youngs Moduli (GPa) = 4.97230 78.24207 41.49125
#
# Poissons Ratio (x) = -1.42679 1.05893
# Poissons Ratio (y) = -0.09067 0.32586
# Poissons Ratio (z) = 0.12690 0.61449
#
# Static dielectric constant tensor:
#      x y z
#    x 1.886740 -0.005250 -0.063980 
#    y -0.005250 1.997150 -0.044350 
#    z -0.063980 -0.044350 1.838490 
# 
# From -- ./inp_files/467182.got.cif
#   From: 2010.05.17/outbox.ucp.g08.bks.cvg/sg2_234_cif.got.tgz:467182.got - 2010.06.11 11:32:03.
