data_PCOD9072389
_publ_section_title
;
Structure prediction by ZEFSAII (Michael W. Deem and Ramdas Pophale) SiO2 
 PCOD9072389
Probable space group: P -1
;
_chemical_formula_sum "Si O2"
_cell_formula_units_Z 14
_cell_length_a 16.761275
_cell_length_b 6.537822
_cell_length_c 6.701146
_cell_angle_alpha 103.778578
_cell_angle_beta 79.132176
_cell_angle_gamma 47.766735
_cell_volume 461.851718
_symmetry_space_group_name_H-M "P -1"
_symmetry_group_IT_number 2
_symmetry_cell_setting 'triclinic'
loop_
_space_group_symop_operation_xyz
x,y,z
-x,-y,-z
loop_
_atom_site_type_symbol
_atom_site_label
_atom_site_fract_x
_atom_site_fract_y
_atom_site_fract_z
Si Si1 0.818850 0.642693 0.360372
Si Si2 0.386392 0.372029 0.192947
Si Si3 0.768570 0.694863 0.867151
Si Si4 0.920871 0.948829 0.807188
Si Si5 0.539738 0.442528 0.238355
Si Si6 0.978092 0.703031 0.306387
Si Si7 0.681432 0.544581 0.289491
O O1 0.784117 0.713833 0.627236
O O2 0.708399 0.743141 0.320817
O O3 0.942535 0.257799 0.227195
O O4 0.863931 0.785970 0.296610
O O5 0.285501 0.437862 0.132430
O O6 0.433049 0.523396 0.185537
O O7 0.344383 0.441770 0.460235
O O8 0.500000 0.000000 0.000000
O O9 0.900691 0.411534 0.858046
O O10 0.665516 0.064049 0.064571
O O11 0.939721 0.656421 0.746562
O O12 0.924579 0.948566 0.564003
O O13 0.809614 0.202902 0.068394
O O14 0.500000 0.500000 0.500000
O O15 0.574131 0.623572 0.245251
#
# Coordination Sequence:
#
# PCOD9072389 Si02
#       7
#     2   2   2   2   2   2   2
#     4   8  13  16  22  30  32  35  36  41  50  62
#     4   8  16  19  21  24  29  37  45  45  48  50
#     4   9  11  20  23  23  31  39  37  44  53  51
#     4   8  12  17  22  30  32  34  38  42  49  58
#     4   9  14  18  20  26  29  35  45  49  44  49
#     4   8  12  18  23  27  35  34  36  41  51  61
#     4  10  13  16  24  26  32  35  39  46  49  50
#
# _framework density 30.312760999999998
#
# number of rings (size 3 to 8) (size 9 to 14) (size 15 to 20)
#    0.857    2.571    2.857    0.429    0.000    0.000 
#    0.000    0.000    0.000    0.000    0.000    0.000 
#    0.000    0.000    0.000    0.000    0.000    0.000 
#
# Total GULP energy -78139.811275 kJ/mol
# GULP energy per Si atom -5581.415091 kJ/mol
# Density = 3.024377 g / cm^3
# Si number density = 30.312761 Si / 1000 Ang^3
#
#
#
# Elastic Constant Matrix: (Units=GPa)
#
#
# Indices 1 2 3 4 5 6 
#
# 1 334.7006 30.5118 43.1024 -25.0934 14.7023 9.7729
# 2 30.5118 93.0777 60.4931 -0.2916 -5.4236 -4.4389
# 3 43.1024 60.4931 251.3901 24.4017 -16.4860 -12.2790
# 4 -25.0934 -0.2916 24.4017 40.8368 -5.9277 -9.5421
# 5 14.7023 -5.4236 -16.4860 -5.9277 67.3383 -13.6808
# 6 9.7729 -4.4389 -12.2790 -9.5421 -13.6808 26.5838
#
#
#
# Elastic Compliance Matrix: (Units=1/GPa)
#
#
# Indices 1 2 3 4 5 6 
#
# 1 0.003399 -0.000767 -0.000744 0.001991 -0.001134 -0.001589
# 2 -0.000767 0.013173 -0.003054 0.002194 0.001174 0.002462
# 3 -0.000744 -0.003054 0.005310 -0.003040 0.001315 0.001801
# 4 0.001991 0.002194 -0.003040 0.030776 0.004011 0.011341
# 5 -0.001134 0.001174 0.001315 0.004011 0.018324 0.012090
# 6 -0.001589 0.002462 0.001801 0.011341 0.012090 0.049737
#
#
# Mechanical properties :
#
#
# Convention : Reuss Voigt Hill
#
# Bulk Modulus (GPa) = 78.41475 105.26478 91.83976
# Shear Modulus (GPa) = 37.28662 63.28917 50.28789
#
# Velocity S-wave (km/s) = 3.51103 4.57428 4.07746
# Velocity P-wave (km/s) = 6.50855 7.91835 7.24781
#
# Compressibility (1/GPa) = 0.01275270
#
# Stress axis : x y z
#
# Youngs Moduli (GPa) = 294.21377 75.91532 188.34071
#
# Poissons Ratio (x) = 0.05819 0.14005
# Poissons Ratio (y) = 0.22553 0.57520
# Poissons Ratio (z) = 0.21877 0.23185
#
# Static dielectric constant tensor:
#      x y z
#    x 2.813720 -0.059870 -0.168760 
#    y -0.059870 2.421370 -0.027740 
#    z -0.168760 -0.027740 2.360920 
# 
# From -- ./inp_files/463311.got.cif
#   From: 2010.05.17/outbox.cif.g08.bks.cpg/sg2_232_cif.got.tgz:463311.got - 2010.06.03 11:33:40.
