data_PCOD9072310
_publ_section_title
;
Structure prediction by ZEFSAII (Michael W. Deem and Ramdas Pophale) SiO2 
 PCOD9072310
Probable space group: P -1
;
_chemical_formula_sum "Si O2"
_cell_formula_units_Z 15
_cell_length_a 10.252625
_cell_length_b 10.393552
_cell_length_c 7.976849
_cell_angle_alpha 121.308512
_cell_angle_beta 125.620602
_cell_angle_gamma 57.859314
_cell_volume 557.238754
_symmetry_space_group_name_H-M "P -1"
_symmetry_group_IT_number 2
_symmetry_cell_setting 'triclinic'
loop_
_space_group_symop_operation_xyz
x,y,z
-x,-y,-z
loop_
_atom_site_type_symbol
_atom_site_label
_atom_site_fract_x
_atom_site_fract_y
_atom_site_fract_z
Si Si1 0.609113 0.597356 0.559691
Si Si2 0.000000 0.500000 0.500000
Si Si3 0.829632 0.954391 0.334491
Si Si4 0.456486 0.683919 0.142546
Si Si5 0.720201 0.891618 0.879781
Si Si6 0.073169 0.617782 0.230945
Si Si7 0.112320 0.711984 0.982587
Si Si8 0.299891 0.151901 0.539881
O O1 0.500000 0.500000 0.500000
O O2 0.522444 0.666543 0.370098
O O3 0.654686 0.742181 0.780809
O O4 0.799749 0.466883 0.582206
O O5 0.863185 0.688579 0.508937
O O6 0.902029 0.437446 0.233323
O O7 0.735527 0.980415 0.457731
O O8 0.915673 0.763930 0.264291
O O9 0.712172 0.000547 0.112634
O O10 0.000000 0.000000 0.500000
O O11 0.254232 0.766201 0.032868
O O12 0.569054 0.780814 0.215241
O O13 0.500000 0.500000 0.000000
O O14 0.651089 0.924625 0.660457
O O15 0.924750 0.832599 0.957682
O O16 0.176411 0.665783 0.190747
O O17 0.000000 0.500000 0.000000
#
# Coordination Sequence:
#
# PCOD9072310 Si02
#       8
#     2   1   2   2   2   2   2   2
#     4  11  21  32  55  95 119 155 192 253 318 360
#     4  10  18  30  54  86 122 150 192 252 300 356
#     4  11  24  40  66  89 118 169 212 252 303 366
#     4  11  22  29  51  90 128 155 190 253 319 364
#     4   9  22  38  59  87 120 158 204 252 308 362
#     4  11  20  36  62  86 119 158 202 261 299 358
#     4  10  18  32  49  83 123 154 195 237 311 367
#     4  10  22  36  56  89 125 152 205 256 304 370
#
# _framework density 26.918443
#
# number of rings (size 3 to 8) (size 9 to 14) (size 15 to 20)
#    0.000    1.600    5.333    0.800    5.600    0.533 
#    0.000    0.000    0.000    4.000    0.000    0.000 
#    0.000    0.000    0.000    0.000    0.000    0.000 
#
# Total GULP energy -83586.283151 kJ/mol
# GULP energy per Si atom -5572.418877 kJ/mol
# Density = 2.685718 g / cm^3
# Si number density = 26.918443 Si / 1000 Ang^3
#
#
#
# Elastic Constant Matrix: (Units=GPa)
#
#
# Indices 1 2 3 4 5 6 
#
# 1 97.8342 25.0285 44.4269 0.1572 26.0584 18.5677
# 2 25.0285 62.2149 39.0027 -8.0703 -6.5927 -6.3725
# 3 44.4269 39.0027 137.1614 -11.5451 5.5254 20.7726
# 4 0.1572 -8.0703 -11.5451 44.7425 4.9519 -2.0925
# 5 26.0584 -6.5927 5.5254 4.9519 53.9962 -0.3071
# 6 18.5677 -6.3725 20.7726 -2.0925 -0.3071 53.9467
#
#
#
# Elastic Compliance Matrix: (Units=1/GPa)
#
#
# Indices 1 2 3 4 5 6 
#
# 1 0.016272 -0.006743 -0.002266 -0.001195 -0.008367 -0.005619
# 2 -0.006743 0.024319 -0.005942 0.002498 0.006646 0.007616
# 3 -0.002266 -0.005942 0.010470 0.001552 -0.000868 -0.003899
# 4 -0.001195 0.002498 0.001552 0.023409 -0.001418 0.001009
# 5 -0.008367 0.006646 -0.000868 -0.001418 0.023611 0.004078
# 6 -0.005619 0.007616 -0.003899 0.001009 0.004078 0.022934
#
#
# Mechanical properties :
#
#
# Convention : Reuss Voigt Hill
#
# Bulk Modulus (GPa) = 47.25900 57.12518 52.19209
# Shear Modulus (GPa) = 31.65135 43.12055 37.38595
#
# Velocity S-wave (km/s) = 3.43275 4.00671 3.73078
# Velocity P-wave (km/s) = 5.77115 6.53243 6.16355
#
# Compressibility (1/GPa) = 0.02115999
#
# Stress axis : x y z
#
# Youngs Moduli (GPa) = 61.45537 41.11927 95.50810
#
# Poissons Ratio (x) = 0.27725 0.21640
# Poissons Ratio (y) = 0.41438 0.56755
# Poissons Ratio (z) = 0.13925 0.24435
#
# Static dielectric constant tensor:
#      x y z
#    x 1.782730 -0.170030 -0.152770 
#    y -0.170030 2.158090 -0.066870 
#    z -0.152770 -0.066870 2.075470 
# 
# From -- ./inp_files/263645.got.cif
#   From: 2010.05.17/outbox.cif.g08.bks.cpg/sg2_132_cif.got.tgz:263645.got - 2010.06.03 11:33:40.
