data_PCOD9072323
_publ_section_title
;
Structure prediction by ZEFSAII (Michael W. Deem and Ramdas Pophale) SiO2 
 PCOD9072323
Probable space group: P -1
;
_chemical_formula_sum "Si O2"
_cell_formula_units_Z 16
_cell_length_a 15.000000
_cell_length_b 9.000000
_cell_length_c 15.000000
_cell_angle_alpha 50.000000
_cell_angle_beta 140.000000
_cell_angle_gamma 140.000000
_cell_volume 828.970839
_symmetry_space_group_name_H-M "P -1"
_symmetry_group_IT_number 2
_symmetry_cell_setting 'triclinic'
loop_
_space_group_symop_operation_xyz
x,y,z
-x,-y,-z
loop_
_atom_site_type_symbol
_atom_site_label
_atom_site_fract_x
_atom_site_fract_y
_atom_site_fract_z
Si Si1 0.586019 0.495133 0.747427
Si Si2 0.684412 0.913512 0.971743
Si Si3 0.425954 0.042969 0.695587
Si Si4 0.160395 0.552782 0.656741
Si Si5 0.620403 0.969533 0.543671
Si Si6 0.039262 0.247858 0.033277
Si Si7 0.029169 0.777864 0.206665
Si Si8 0.563350 0.512623 0.175847
O O1 0.465456 0.280538 0.674273
O O2 0.603002 0.728445 0.639609
O O3 0.773892 0.550897 0.870771
O O4 0.500010 0.447376 0.796298
O O5 0.601514 0.718617 0.903840
O O6 0.567892 0.009782 0.851844
O O7 0.644582 0.748104 0.089446
O O8 0.873211 0.129482 0.013085
O O9 0.424633 0.039493 0.589558
O O10 0.249230 0.806989 0.671640
O O11 0.292863 0.541610 0.699530
O O12 0.000000 0.500000 0.500000
O O13 0.113390 0.377575 0.770868
O O14 0.500000 0.000000 0.500000
O O15 0.804925 0.172292 0.638506
O O16 0.053565 0.026350 0.119744
O O17 0.003007 0.315101 0.883022
#
# Coordination Sequence:
#
# PCOD9072323 Si02
#       8
#     2   2   2   2   2   2   2   2
#     4  11  25  39  60  92 130 161 192 253 318 371
#     4  10  20  38  63  87 118 161 211 255 289 357
#     4  11  24  39  60  91 129 161 195 251 318 364
#     4  11  21  39  65  88 119 160 215 254 296 360
#     4  11  21  40  66  88 117 160 216 249 294 361
#     4  10  20  37  61  91 121 154 206 252 305 352
#     4  10  19  34  63  91 112 153 210 264 290 341
#     4  10  21  38  61  90 119 160 210 252 299 356
#
# _framework density 19.301041000000001
#
# number of rings (size 3 to 8) (size 9 to 14) (size 15 to 20)
#    0.000    1.500    2.500    4.875    3.500    1.000 
#    0.000    0.625    0.000    0.000    0.000    0.000 
#    0.000    0.000    0.000    0.000    0.000    0.000 
#
# Total GULP energy -89158.774655 kJ/mol
# GULP energy per Si atom -5572.423416 kJ/mol
# Density = 1.925711 g / cm^3
# Si number density = 19.301041 Si / 1000 Ang^3
#
#
#
# Elastic Constant Matrix: (Units=GPa)
#
#
# Indices 1 2 3 4 5 6 
#
# 1 52.2823 43.8258 19.6388 -7.1432 -2.9869 21.3232
# 2 43.8258 80.7916 55.1551 19.1201 -3.5960 5.3011
# 3 19.6388 55.1551 68.1516 -9.4848 6.7577 8.9981
# 4 -7.1432 19.1201 -9.4848 16.1209 10.7212 7.3121
# 5 -2.9869 -3.5960 6.7577 10.7212 30.1598 3.0988
# 6 21.3232 5.3011 8.9981 7.3121 3.0988 23.0986
#
#
#
# Elastic Compliance Matrix: (Units=1/GPa)
#
#
# Indices 1 2 3 4 5 6 
#
# 1 0.015769 0.010998 -0.018174 -0.025962 0.016586 -0.004008
# 2 0.010998 -0.002959 0.006096 0.025790 -0.007849 -0.018960
# 3 -0.018174 0.006096 0.010143 -0.017811 0.001250 0.016897
# 4 -0.025962 0.025790 -0.017811 -0.004637 0.003473 0.025989
# 5 0.016586 -0.007849 0.001250 0.003473 0.034374 -0.019707
# 6 -0.004008 -0.018960 0.016897 0.025989 -0.019707 0.039178
#
#
# Mechanical properties :
#
#
# Convention : Reuss Voigt Hill
#
# Bulk Modulus (GPa) = 48.08966 48.71831 48.40399
# Shear Modulus (GPa) = 49.52583 19.38290 34.45437
#
# Velocity S-wave (km/s) = 5.07103 3.17241 4.22963
# Velocity P-wave (km/s) = 7.69785 6.22214 6.99900
#
# Compressibility (1/GPa) = 0.02079449
#
# Stress axis : x y z
#
# Youngs Moduli (GPa) = 63.41502 -337.94135 98.59222
#
# Poissons Ratio (x) = 3.71680 1.79179
# Poissons Ratio (y) = -0.69746 -0.60104
# Poissons Ratio (z) = 1.15249 2.06017
#
# Static dielectric constant tensor:
#      x y z
#    x 1.685890 0.033020 0.000880 
#    y 0.033020 1.705640 -0.015310 
#    z 0.000880 -0.015310 1.712950 
# 
# From -- ./inp_files/239526.got.cif
#   From: 2010.05.17/outbox.ucp.g08.bks.cvg/sg2_120_cif.got.tgz:239526.got - 2010.06.11 11:32:03.
