data_PCOD9072258
_publ_section_title
;
Structure prediction by ZEFSAII (Michael W. Deem and Ramdas Pophale) SiO2 
 PCOD9072258
Probable space group: P -1
;
_chemical_formula_sum "Si O2"
_cell_formula_units_Z 16
_cell_length_a 8.796947
_cell_length_b 12.632235
_cell_length_c 9.815178
_cell_angle_alpha 48.798526
_cell_angle_beta 96.383332
_cell_angle_gamma 69.391113
_cell_volume 670.847164
_symmetry_space_group_name_H-M "P -1"
_symmetry_group_IT_number 2
_symmetry_cell_setting 'triclinic'
loop_
_space_group_symop_operation_xyz
x,y,z
-x,-y,-z
loop_
_atom_site_type_symbol
_atom_site_label
_atom_site_fract_x
_atom_site_fract_y
_atom_site_fract_z
Si Si1 0.687563 0.760966 0.762863
Si Si2 0.071203 0.636328 0.991472
Si Si3 0.881382 0.375853 0.677478
Si Si4 0.778887 0.124843 0.875695
Si Si5 0.486908 0.805940 0.449696
Si Si6 0.486494 0.204732 0.994714
Si Si7 0.554835 0.463366 0.876725
Si Si8 0.246928 0.247707 0.701722
O O1 0.810036 0.553717 0.907730
O O2 0.521661 0.856964 0.555700
O O3 0.576410 0.809309 0.850909
O O4 0.869274 0.765619 0.795779
O O5 0.046148 0.624845 0.161356
O O6 0.222681 0.681210 0.967921
O O7 0.751242 0.308473 0.722592
O O8 0.788303 0.565519 0.455876
O O9 0.056443 0.266507 0.687285
O O10 0.686944 0.112047 0.739241
O O11 0.681169 0.106676 0.013385
O O12 0.000000 0.000000 0.000000
O O13 0.524815 0.621430 0.651461
O O14 0.640870 0.814439 0.373040
O O15 0.451419 0.390824 0.853023
O O16 0.366929 0.169314 0.914196
O O17 0.500000 0.500000 0.000000
#
# Coordination Sequence:
#
# PCOD9072258 Si02
#       8
#     2   2   2   2   2   2   2   2
#     4  10  19  33  53  86 121 151 177 226 301 358
#     4  10  18  30  53  89 124 148 175 222 295 369
#     4  11  19  34  57  89 120 147 190 234 292 353
#     4  11  25  42  59  79 112 163 209 246 274 327
#     4  10  20  38  53  83 118 152 189 241 289 348
#     4  11  19  33  57  81 115 154 186 241 289 347
#     4  11  18  31  55  92 120 148 180 229 305 357
#     4  10  20  32  56  91 118 145 181 236 306 352
#
# _framework density 23.850439999999999
#
# number of rings (size 3 to 8) (size 9 to 14) (size 15 to 20)
#    0.000    1.500    7.500    0.750    0.000    2.000 
#    2.250    3.125    0.000    0.750    0.000    0.000 
#    0.000    0.000    0.000    0.000    0.000    0.000 
#
# Total GULP energy -89103.157246 kJ/mol
# GULP energy per Si atom -5568.947328 kJ/mol
# Density = 2.379616 g / cm^3
# Si number density = 23.850440 Si / 1000 Ang^3
#
#
#
# Elastic Constant Matrix: (Units=GPa)
#
#
# Indices 1 2 3 4 5 6 
#
# 1 95.2553 8.0652 40.9830 7.5445 7.2152 -20.2634
# 2 8.0652 85.9193 48.1565 23.2152 0.8720 -8.5404
# 3 40.9830 48.1565 92.8092 26.0899 6.0122 -16.7035
# 4 7.5445 23.2152 26.0899 43.2308 5.0393 -11.1051
# 5 7.2152 0.8720 6.0122 5.0393 44.2283 7.2813
# 6 -20.2634 -8.5404 -16.7035 -11.1051 7.2813 46.7238
#
#
#
# Elastic Compliance Matrix: (Units=1/GPa)
#
#
# Indices 1 2 3 4 5 6 
#
# 1 0.014519 0.002725 -0.007320 0.002006 -0.002486 0.005042
# 2 0.002725 0.017770 -0.009215 -0.004603 0.001001 -0.000115
# 3 -0.007320 -0.009215 0.020730 -0.005829 -0.000995 0.001321
# 4 0.002006 -0.004603 -0.005829 0.030732 -0.003910 0.005858
# 5 -0.002486 0.001001 -0.000995 -0.003910 0.024566 -0.006008
# 6 0.005042 -0.000115 0.001321 0.005858 -0.006008 0.026369
#
#
# Mechanical properties :
#
#
# Convention : Reuss Voigt Hill
#
# Bulk Modulus (GPa) = 39.37530 52.04369 45.70950
# Shear Modulus (GPa) = 29.27857 38.62185 33.95021
#
# Velocity S-wave (km/s) = 3.50750 4.02846 3.77697
# Velocity P-wave (km/s) = 5.74008 6.59593 6.18283
#
# Compressibility (1/GPa) = 0.02539663
#
# Stress axis : x y z
#
# Youngs Moduli (GPa) = 68.87568 56.27397 48.23972
#
# Poissons Ratio (x) = -0.15332 0.35314
# Poissons Ratio (y) = -0.18765 0.44454
# Poissons Ratio (z) = 0.50420 0.51858
#
# Static dielectric constant tensor:
#      x y z
#    x 1.907100 0.033770 0.004960 
#    y 0.033770 2.096640 -0.090280 
#    z 0.004960 -0.090280 1.966150 
# 
# From -- ./inp_files/200237.got.cif
#   From: 2010.05.17/outbox.cif.g08.bks.cpg/sg2_101_cif.got.tgz:200237.got - 2010.06.03 11:33:40.
