data_PCOD9072909
_publ_section_title
;
Structure prediction by ZEFSAII (Michael W. Deem and Ramdas Pophale) SiO2 
 PCOD9072909
Probable space group: P -1
;
_chemical_formula_sum "Si O2"
_cell_formula_units_Z 14
_cell_length_a 9.000000
_cell_length_b 15.000000
_cell_length_c 15.000000
_cell_angle_alpha 30.000000
_cell_angle_beta 70.000000
_cell_angle_gamma 50.000000
_cell_volume 642.379314
_symmetry_space_group_name_H-M "P -1"
_symmetry_group_IT_number 2
_symmetry_cell_setting 'triclinic'
loop_
_space_group_symop_operation_xyz
x,y,z
-x,-y,-z
loop_
_atom_site_type_symbol
_atom_site_label
_atom_site_fract_x
_atom_site_fract_y
_atom_site_fract_z
Si Si1 0.496775 0.338787 0.527109
Si Si2 0.830425 0.405992 0.023428
Si Si3 0.498315 0.241857 0.811497
Si Si4 0.297568 0.906320 0.682748
Si Si5 0.993891 0.493663 0.743373
Si Si6 0.995444 0.787618 0.172934
Si Si7 0.187728 0.993118 0.430192
O O1 0.567097 0.184349 0.740378
O O2 0.539403 0.515539 0.374772
O O3 0.637457 0.179389 0.542669
O O4 0.212007 0.548988 0.399133
O O5 0.816961 0.198065 0.185904
O O6 0.561678 0.678809 0.862051
O O7 0.935152 0.441153 0.893213
O O8 0.001382 0.286921 0.175269
O O9 0.260566 0.336629 0.804001
O O10 0.712134 0.997980 0.042660
O O11 0.321911 0.916705 0.561149
O O12 0.153993 0.196405 0.497464
O O13 0.932251 0.390203 0.774140
O O14 0.000000 0.000000 0.000000
O O15 0.000000 0.000000 0.500000
#
# Coordination Sequence:
#
# PCOD9072909 Si02
#       7
#     2   2   2   2   2   2   2
#     4  10  21  41  66  92 133 179 218 273 335 396
#     4  10  22  41  65  96 139 179 214 273 340 393
#     4  10  22  41  65  96 131 173 226 277 332 395
#     4  10  23  42  65  99 137 177 222 271 334 405
#     4  12  23  42  71 102 135 174 227 283 334 401
#     4  10  23  41  63  92 129 174 221 270 331 397
#     4  10  20  38  65  96 128 170 220 267 327 397
#
# _framework density 21.793977000000002
#
# number of rings (size 3 to 8) (size 9 to 14) (size 15 to 20)
#    0.000    1.714    0.000    4.286    0.000    3.429 
#    0.000    7.143    0.000    0.000    0.000    0.000 
#    0.000    0.000    0.000    0.000    0.000    0.000 
#
# Total GULP energy -77961.462768 kJ/mol
# GULP energy per Si atom -5568.675912 kJ/mol
# Density = 2.174437 g / cm^3
# Si number density = 21.793977 Si / 1000 Ang^3
#
#
#
# Elastic Constant Matrix: (Units=GPa)
#
#
# Indices 1 2 3 4 5 6 
#
# 1 74.3774 30.5299 47.2263 -5.8189 1.6053 -11.4973
# 2 30.5299 93.4767 26.8185 -16.3013 -8.7128 -12.2078
# 3 47.2263 26.8185 121.8728 -14.7266 -0.7705 -5.1054
# 4 -5.8189 -16.3013 -14.7266 34.8941 -2.8739 -8.9843
# 5 1.6053 -8.7128 -0.7705 -2.8739 48.2836 -5.0259
# 6 -11.4973 -12.2078 -5.1054 -8.9843 -5.0259 40.3189
#
#
#
# Elastic Compliance Matrix: (Units=1/GPa)
#
#
# Indices 1 2 3 4 5 6 
#
# 1 0.020011 -0.004467 -0.006758 -0.000902 -0.001307 0.003134
# 2 -0.004467 0.014621 -0.000320 0.007622 0.003785 0.005283
# 3 -0.006758 -0.000320 0.011350 0.003640 0.000596 0.000299
# 4 -0.000902 0.007622 0.003640 0.036924 0.004842 0.011343
# 5 -0.001307 0.003785 0.000596 0.004842 0.022224 0.004698
# 6 0.003134 0.005283 0.000299 0.011343 0.004698 0.030447
#
#
# Mechanical properties :
#
#
# Convention : Reuss Voigt Hill
#
# Bulk Modulus (GPa) = 43.68086 55.43070 49.55578
# Shear Modulus (GPa) = 30.06665 37.04278 33.55471
#
# Velocity S-wave (km/s) = 3.71831 4.12719 3.92807
# Velocity P-wave (km/s) = 6.20649 6.94268 6.58488
#
# Compressibility (1/GPa) = 0.02289332
#
# Stress axis : x y z
#
# Youngs Moduli (GPa) = 49.97167 68.39681 88.10261
#
# Poissons Ratio (x) = 0.30552 0.59536
# Poissons Ratio (y) = 0.22322 0.02820
# Poissons Ratio (z) = 0.33769 0.02189
#
# Static dielectric constant tensor:
#      x y z
#    x 1.848290 0.033000 0.021460 
#    y 0.033000 1.797390 -0.019170 
#    z 0.021460 -0.019170 1.837600 
# 
# From -- ./inp_files/504926.got.cif
#   From: 2010.05.17/outbox.ucp.g08.bks.cvg/sg2_253_cif.got.tgz:504926.got - 2010.06.11 11:32:03.
