data_PCOD9072465
_publ_section_title
;
Structure prediction by ZEFSAII (Michael W. Deem and Ramdas Pophale) SiO2 
 PCOD9072465
Probable space group: P -1
;
_chemical_formula_sum "Si O2"
_cell_formula_units_Z 16
_cell_length_a 27.000000
_cell_length_b 27.000000
_cell_length_c 9.000000
_cell_angle_alpha 40.000000
_cell_angle_beta 140.000000
_cell_angle_gamma 170.000000
_cell_volume 728.340053
_symmetry_space_group_name_H-M "P -1"
_symmetry_group_IT_number 2
_symmetry_cell_setting 'triclinic'
loop_
_space_group_symop_operation_xyz
x,y,z
-x,-y,-z
loop_
_atom_site_type_symbol
_atom_site_label
_atom_site_fract_x
_atom_site_fract_y
_atom_site_fract_z
Si Si1 0.197052 0.496613 0.677019
Si Si2 0.070504 0.593996 0.777674
Si Si3 0.759885 0.849557 0.868749
Si Si4 0.401029 0.936662 0.260219
Si Si5 0.751550 0.672303 0.324016
Si Si6 0.265124 0.488460 0.174089
Si Si7 0.720430 0.968010 0.619445
Si Si8 0.271186 0.982280 0.816487
O O1 0.517417 0.814125 0.623882
O O2 0.044071 0.431452 0.463641
O O3 0.200097 0.460573 0.928275
O O4 0.036751 0.288088 0.669739
O O5 0.916306 0.391479 0.766841
O O6 0.402611 0.906584 0.781842
O O7 0.000000 0.500000 0.000000
O O8 0.554739 0.632391 0.758022
O O9 0.650258 0.810290 0.813219
O O10 0.813196 0.821805 0.141226
O O11 0.037441 0.149981 0.732717
O O12 0.500000 0.000000 0.500000
O O13 0.410302 0.036769 0.058848
O O14 0.780695 0.646275 0.592641
O O15 0.583587 0.813712 0.214770
O O16 0.061661 0.335040 0.178506
O O17 0.681144 0.960479 0.379752
#
# Coordination Sequence:
#
# PCOD9072465 Si02
#       8
#     2   2   2   2   2   2   2   2
#     4  12  26  39  61  88 129 158 197 249 308 360
#     4  12  24  44  61  85 121 167 202 242 307 365
#     4  10  20  36  63  90 120 149 204 243 288 346
#     4  12  24  41  63  90 118 154 205 259 302 348
#     4  10  19  37  61  92 117 156 192 249 293 350
#     4  12  22  41  60  93 123 160 195 248 310 353
#     4  12  22  41  59  93 117 160 201 251 289 352
#     4  12  23  39  66  89 117 155 212 252 291 355
#
# _framework density 21.967760999999999
#
# number of rings (size 3 to 8) (size 9 to 14) (size 15 to 20)
#    0.000    0.500    2.500    7.500    0.000    0.000 
#    0.000    1.250    0.000    0.000    0.000    0.000 
#    0.000    0.000    0.000    0.000    0.000    0.000 
#
# Total GULP energy -89397.825899 kJ/mol
# GULP energy per Si atom -5587.364119 kJ/mol
# Density = 2.191776 g / cm^3
# Si number density = 21.967761 Si / 1000 Ang^3
#
#
#
# Elastic Constant Matrix: (Units=GPa)
#
#
# Indices 1 2 3 4 5 6 
#
# 1 11.1007 5.5310 21.2925 0.5687 -8.5527 -6.1873
# 2 5.5310 59.6573 25.2210 -0.9763 7.7619 2.4392
# 3 21.2925 25.2210 172.2178 3.1993 -21.8383 -14.5850
# 4 0.5687 -0.9763 3.1993 12.0141 -1.3987 5.6032
# 5 -8.5527 7.7619 -21.8383 -1.3987 28.2351 6.5761
# 6 -6.1873 2.4392 -14.5850 5.6032 6.5761 31.6305
#
#
#
# Elastic Compliance Matrix: (Units=1/GPa)
#
#
# Indices 1 2 3 4 5 6 
#
# 1 0.162221 -0.016939 -0.010415 -0.011894 0.040022 0.022023
# 2 -0.016939 0.021452 -0.003047 0.004080 -0.012117 -0.004576
# 3 -0.010415 -0.003047 0.008166 -0.002286 0.003504 0.001640
# 4 -0.011894 0.004080 -0.002286 0.094980 0.003144 -0.021174
# 5 0.040022 -0.012117 0.003504 0.003144 0.054067 -0.001419
# 6 0.022023 -0.004576 0.001640 -0.021174 -0.001419 0.041078
#
#
# Mechanical properties :
#
#
# Convention : Reuss Voigt Hill
#
# Bulk Modulus (GPa) = 7.63148 38.56276 23.09712
# Shear Modulus (GPa) = 10.27866 27.10469 18.69168
#
# Velocity S-wave (km/s) = 2.16544 3.51642 2.92013
# Velocity P-wave (km/s) = 3.11988 5.83774 4.68043
#
# Compressibility (1/GPa) = 0.13103614
#
# Stress axis : x y z
#
# Youngs Moduli (GPa) = 6.16444 46.61677 122.45703
#
# Poissons Ratio (x) = 0.78965 1.27535
# Poissons Ratio (y) = 0.10442 0.37314
# Poissons Ratio (z) = 0.06420 0.14205
#
# Static dielectric constant tensor:
#      x y z
#    x 1.776750 0.011800 0.083020 
#    y 0.011800 1.829990 -0.029990 
#    z 0.083020 -0.029990 1.786210 
# 
# From -- ./inp_files/112425.got.cif
#   From: 2010.05.17/outbox.ucp.g08.bks.cvg/sg2_57_cif.got.tgz:112425.got - 2010.06.11 11:32:03.
