data_PCOD9072074
_publ_section_title
;
Structure prediction by ZEFSAII (Michael W. Deem and Ramdas Pophale) SiO2 
 PCOD9072074
Probable space group: P -1
;
_chemical_formula_sum "Si O2"
_cell_formula_units_Z 14
_cell_length_a 10.666262
_cell_length_b 6.603409
_cell_length_c 11.530262
_cell_angle_alpha 114.501440
_cell_angle_beta 67.068879
_cell_angle_gamma 133.939204
_cell_volume 525.659572
_symmetry_space_group_name_H-M "P -1"
_symmetry_group_IT_number 2
_symmetry_cell_setting 'triclinic'
loop_
_space_group_symop_operation_xyz
x,y,z
-x,-y,-z
loop_
_atom_site_type_symbol
_atom_site_label
_atom_site_fract_x
_atom_site_fract_y
_atom_site_fract_z
Si Si1 0.195823 0.912689 0.092723
Si Si2 0.663726 0.148398 0.183944
Si Si3 0.559699 0.492835 0.164735
Si Si4 0.854451 0.327678 0.609504
Si Si5 0.361505 0.219061 0.560847
Si Si6 0.078680 0.288757 0.683933
Si Si7 0.703859 0.427166 0.879788
O O1 0.249342 0.744556 0.102191
O O2 0.009486 0.801717 0.178875
O O3 0.355406 0.250213 0.142087
O O4 0.197023 0.839555 0.942513
O O5 0.601717 0.311180 0.180752
O O6 0.775609 0.363658 0.299913
O O7 0.490828 0.817550 0.161884
O O8 0.591347 0.711978 0.303801
O O9 0.679976 0.585221 0.027921
O O10 0.831397 0.520082 0.745342
O O11 0.000000 0.500000 0.500000
O O12 0.918918 0.194601 0.638295
O O13 0.674850 0.058261 0.548604
O O14 0.500000 0.500000 0.500000
O O15 0.178499 0.164633 0.602159
#
# Coordination Sequence:
#
# PCOD9072074 Si02
#       7
#     2   2   2   2   2   2   2
#     4   8  13  24  47  79 105 125 165 221 263 298
#     4   8  13  24  47  78 103 128 168 216 260 305
#     4   8  15  28  50  74 100 135 173 211 255 308
#     4  11  23  37  52  77 111 143 174 217 266 310
#     4  11  21  36  56  81 107 138 176 218 262 312
#     4  10  18  30  51  78 105 138 175 218 259 306
#     4   8  15  31  49  69 102 141 172 205 256 317
#
# _framework density 26.633209000000001
#
# number of rings (size 3 to 8) (size 9 to 14) (size 15 to 20)
#    0.000    2.857    0.000    6.000    0.000    1.143 
#    0.000    3.571    0.000    0.000    0.000    5.000 
#    0.000    0.000    0.000    0.000    0.000    0.000 
#
# Total GULP energy -78221.401729 kJ/mol
# GULP energy per Si atom -5587.242981 kJ/mol
# Density = 2.657259 g / cm^3
# Si number density = 26.633209 Si / 1000 Ang^3
#
#
#
# Elastic Constant Matrix: (Units=GPa)
#
#
# Indices 1 2 3 4 5 6 
#
# 1 64.2621 -10.8254 28.9688 3.6607 -5.6729 3.7080
# 2 -10.8254 87.7093 24.8022 15.8191 -0.8435 -1.3248
# 3 28.9688 24.8022 152.9274 7.6127 -1.8353 3.6990
# 4 3.6607 15.8191 7.6127 51.1724 15.8937 -1.2372
# 5 -5.6729 -0.8435 -1.8353 15.8937 39.6319 -3.0087
# 6 3.7080 -1.3248 3.6990 -1.2372 -3.0087 29.7679
#
#
#
# Elastic Compliance Matrix: (Units=1/GPa)
#
#
# Indices 1 2 3 4 5 6 
#
# 1 0.018599 0.003995 -0.003934 -0.003173 0.003731 -0.001405
# 2 0.003995 0.013578 -0.002693 -0.004924 0.002750 0.000515
# 3 -0.003934 -0.002693 0.007730 0.000052 -0.000330 -0.000622
# 4 -0.003173 -0.004924 0.000052 0.024509 -0.010375 0.000140
# 5 0.003731 0.002750 -0.000330 -0.010375 0.030146 0.002314
# 6 -0.001405 0.000515 -0.000622 0.000140 0.002314 0.034108
#
#
# Mechanical properties :
#
#
# Convention : Reuss Voigt Hill
#
# Bulk Modulus (GPa) = 28.86688 43.42109 36.14399
# Shear Modulus (GPa) = 34.36838 41.57797 37.97317
#
# Velocity S-wave (km/s) = 3.59616 3.95540 3.78005
# Velocity P-wave (km/s) = 5.30145 6.09910 5.71421
#
# Compressibility (1/GPa) = 0.03464178
#
# Stress axis : x y z
#
# Youngs Moduli (GPa) = 53.76624 73.64665 129.37228
#
# Poissons Ratio (x) = -0.29422 0.50900
# Poissons Ratio (y) = -0.21480 0.34843
# Poissons Ratio (z) = 0.21154 0.19835
#
# Static dielectric constant tensor:
#      x y z
#    x 2.099990 -0.083080 0.045590 
#    y -0.083080 2.155760 -0.009720 
#    z 0.045590 -0.009720 2.117260 
# 
# From -- ./inp_files/163346.got.cif
#   From: 2010.05.17/outbox.cif.g08.bks.cpg/sg2_82_cif.got.tgz:163346.got - 2010.06.03 11:33:40.
