data_PCOD9072893
_publ_section_title
;
Structure prediction by ZEFSAII (Michael W. Deem and Ramdas Pophale) SiO2 
 PCOD9072893
Probable space group: P -1
;
_chemical_formula_sum "Si O2"
_cell_formula_units_Z 12
_cell_length_a 18.000000
_cell_length_b 15.000000
_cell_length_c 12.000000
_cell_angle_alpha 150.000000
_cell_angle_beta 20.000000
_cell_angle_gamma 150.000000
_cell_volume 527.600048
_symmetry_space_group_name_H-M "P -1"
_symmetry_group_IT_number 2
_symmetry_cell_setting 'triclinic'
loop_
_space_group_symop_operation_xyz
x,y,z
-x,-y,-z
loop_
_atom_site_type_symbol
_atom_site_label
_atom_site_fract_x
_atom_site_fract_y
_atom_site_fract_z
Si Si1 0.233190 0.723561 0.197934
Si Si2 0.518246 0.510832 0.298646
Si Si3 0.966546 0.684539 0.304226
Si Si4 0.794123 0.580447 0.758215
Si Si5 0.463292 0.802969 0.400270
Si Si6 0.415886 0.883592 0.814073
O O1 0.055250 0.688417 0.309256
O O2 0.060475 0.686578 0.505312
O O3 0.409849 0.928559 0.181527
O O4 0.366406 0.572018 0.856245
O O5 0.296112 0.349042 0.389636
O O6 0.464611 0.703802 0.609156
O O7 0.683954 0.556468 0.008651
O O8 0.000000 0.500000 0.000000
O O9 0.152905 0.864367 0.186100
O O10 0.737337 0.374809 0.558139
O O11 0.671749 0.713262 0.008439
O O12 0.432618 0.848085 0.621197
O O13 0.500000 0.000000 0.500000
#
# Coordination Sequence:
#
# PCOD9072893 Si02
#       6
#     2   2   2   2   2   2
#     4  12  23  39  65  90 122 162 197 248 307 353
#     4  10  23  42  63  88 123 162 199 247 302 353
#     4  10  22  43  62  86 124 159 203 251 292 359
#     4  10  21  38  59  92 126 153 201 252 293 359
#     4  10  20  38  63  89 122 163 199 243 305 356
#     4  10  23  39  59  92 122 154 207 251 290 360
#
# _framework density 22.744501
#
# number of rings (size 3 to 8) (size 9 to 14) (size 15 to 20)
#    0.000    1.667    0.000    6.000    0.000    7.333 
#    0.000    5.000    0.000    0.000    0.000    0.000 
#    0.000    0.000    0.000    0.000    0.000    0.000 
#
# Total GULP energy -66999.544065 kJ/mol
# GULP energy per Si atom -5583.295339 kJ/mol
# Density = 2.269273 g / cm^3
# Si number density = 22.744501 Si / 1000 Ang^3
#
#
#
# Elastic Constant Matrix: (Units=GPa)
#
#
# Indices 1 2 3 4 5 6 
#
# 1 54.0763 1.3378 20.0717 1.3415 -5.9390 -25.3837
# 2 1.3378 143.5096 45.3232 -7.3768 -14.4298 -15.4677
# 3 20.0717 45.3232 74.3028 -21.6637 -6.2401 -19.1202
# 4 1.3415 -7.3768 -21.6637 44.6513 0.3908 -6.1856
# 5 -5.9390 -14.4298 -6.2401 0.3908 29.4580 5.9621
# 6 -25.3837 -15.4677 -19.1202 -6.1856 5.9621 21.9770
#
#
#
# Elastic Compliance Matrix: (Units=1/GPa)
#
#
# Indices 1 2 3 4 5 6 
#
# 1 0.046953 0.006018 0.002928 0.009841 -0.000006 0.063786
# 2 0.006018 0.009764 -0.005062 0.000139 0.003183 0.008594
# 3 0.002928 -0.005062 0.028089 0.016819 -0.002148 0.029573
# 4 0.009841 0.000139 0.016819 0.035384 -0.002277 0.036674
# 5 -0.000006 0.003183 -0.002148 -0.002277 0.037177 -0.010363
# 6 0.063786 0.008594 0.029573 0.036674 -0.010363 0.164087
#
#
# Mechanical properties :
#
#
# Convention : Reuss Voigt Hill
#
# Bulk Modulus (GPa) = 10.80222 45.03936 27.92079
# Shear Modulus (GPa) = 14.51192 32.89433 23.70313
#
# Velocity S-wave (km/s) = 2.52869 3.80709 3.23173
# Velocity P-wave (km/s) = 3.64491 6.25864 5.12132
#
# Compressibility (1/GPa) = 0.09257354
#
# Stress axis : x y z
#
# Youngs Moduli (GPa) = 21.29783 102.41406 35.60132
#
# Poissons Ratio (x) = -0.61629 -0.10425
# Poissons Ratio (y) = -0.12816 0.18022
# Poissons Ratio (z) = -0.06236 0.51844
#
# Static dielectric constant tensor:
#      x y z
#    x 1.888340 -0.068160 0.028950 
#    y -0.068160 1.832430 -0.067450 
#    z 0.028950 -0.067450 1.931950 
# 
# From -- ./inp_files/189670.got.cif
#   From: 2010.05.17/outbox.ucp.g08.bks.cvg/sg2_95_cif.got.tgz:189670.got - 2010.06.11 11:32:03.
