data_PCOD9072816
_publ_section_title
;
Structure prediction by ZEFSAII (Michael W. Deem and Ramdas Pophale) SiO2 
 PCOD9072816
Probable space group: P -1
;
_chemical_formula_sum "Si O2"
_cell_formula_units_Z 16
_cell_length_a 9.000000
_cell_length_b 27.000000
_cell_length_c 9.000000
_cell_angle_alpha 40.000000
_cell_angle_beta 110.000000
_cell_angle_gamma 140.000000
_cell_volume 727.930595
_symmetry_space_group_name_H-M "P -1"
_symmetry_group_IT_number 2
_symmetry_cell_setting 'triclinic'
loop_
_space_group_symop_operation_xyz
x,y,z
-x,-y,-z
loop_
_atom_site_type_symbol
_atom_site_label
_atom_site_fract_x
_atom_site_fract_y
_atom_site_fract_z
Si Si1 0.303634 0.630575 0.878185
Si Si2 0.357344 0.819382 0.139335
Si Si3 0.274540 0.939601 0.688034
Si Si4 0.605028 0.904877 0.342832
Si Si5 0.716290 0.697384 0.658695
Si Si6 0.931605 0.040739 0.676578
Si Si7 0.784570 0.527196 0.575630
Si Si8 0.449079 0.507824 0.721750
O O1 0.368283 0.745021 0.666892
O O2 0.499835 0.666697 0.740856
O O3 0.352577 0.606598 0.104400
O O4 0.000000 0.500000 0.000000
O O5 0.487156 0.892276 0.177277
O O6 0.116490 0.657036 0.434014
O O7 0.191443 0.824880 0.997999
O O8 0.607017 0.890412 0.954283
O O9 0.063011 0.907310 0.593447
O O10 0.500000 0.000000 0.500000
O O11 0.362990 0.026414 0.662842
O O12 0.878382 0.959238 0.273884
O O13 0.619214 0.631116 0.614104
O O14 0.989598 0.863742 0.388087
O O15 0.727508 0.624235 0.931314
O O16 0.654221 0.539406 0.613813
O O17 0.732989 0.521683 0.397374
#
# Coordination Sequence:
#
# PCOD9072816 Si02
#       8
#     2   2   2   2   2   2   2   2
#     4  10  20  40  59  85 117 160 205 249 305 362
#     4  11  22  39  63  96 129 160 209 260 308 372
#     4  10  23  41  61  93 124 162 212 258 307 367
#     4  11  22  41  67  88 127 170 206 255 319 372
#     4   9  19  37  61  84 120 161 201 253 304 373
#     4  10  22  41  62  90 129 166 205 253 316 380
#     4  10  20  37  63  90 126 158 202 260 307 371
#     4   9  19  37  60  92 118 160 207 253 315 363
#
# _framework density 21.980117
#
# number of rings (size 3 to 8) (size 9 to 14) (size 15 to 20)
#    0.000    2.000    1.250    1.875    0.000    4.000 
#    9.000    6.875    0.000    0.000    0.000    0.000 
#    0.000    0.000    0.000    0.000    0.000    0.000 
#
# Total GULP energy -89154.249577 kJ/mol
# GULP energy per Si atom -5572.140599 kJ/mol
# Density = 2.193009 g / cm^3
# Si number density = 21.980117 Si / 1000 Ang^3
#
#
#
# Elastic Constant Matrix: (Units=GPa)
#
#
# Indices 1 2 3 4 5 6 
#
# 1 26.2521 10.2368 21.2249 7.1902 5.0989 -8.6568
# 2 10.2368 108.8426 37.3520 32.8504 -5.8308 -14.1948
# 3 21.2249 37.3520 74.2577 8.7608 -2.1662 -0.1985
# 4 7.1902 32.8504 8.7608 35.4977 5.7731 -1.1399
# 5 5.0989 -5.8308 -2.1662 5.7731 15.0595 -0.5996
# 6 -8.6568 -14.1948 -0.1985 -1.1399 -0.5996 40.0069
#
#
#
# Elastic Compliance Matrix: (Units=1/GPa)
#
#
# Indices 1 2 3 4 5 6 
#
# 1 0.063071 0.004211 -0.019677 -0.008292 -0.018798 0.014526
# 2 0.004211 0.018373 -0.008022 -0.017525 0.011533 0.007064
# 3 -0.019677 -0.008022 0.022675 0.004832 0.004695 -0.006784
# 4 -0.008292 -0.017525 0.004832 0.048239 -0.022052 -0.006944
# 5 -0.018798 0.011533 0.004695 -0.022052 0.086391 0.000714
# 6 0.014526 0.007064 -0.006784 -0.006944 0.000714 0.030424
#
#
# Mechanical properties :
#
#
# Convention : Reuss Voigt Hill
#
# Bulk Modulus (GPa) = 17.50020 38.55331 28.02675
# Shear Modulus (GPa) = 14.91660 27.48206 21.19933
#
# Velocity S-wave (km/s) = 2.60790 3.53981 3.10897
# Velocity P-wave (km/s) = 4.12884 5.85536 5.06619
#
# Compressibility (1/GPa) = 0.05714219
#
# Stress axis : x y z
#
# Youngs Moduli (GPa) = 15.85510 54.42810 44.10187
#
# Poissons Ratio (x) = -0.22918 0.86778
# Poissons Ratio (y) = -0.06676 0.35380
# Poissons Ratio (z) = 0.31198 0.43664
#
# Static dielectric constant tensor:
#      x y z
#    x 1.815850 0.099570 -0.020400 
#    y 0.099570 1.891550 -0.099510 
#    z -0.020400 -0.099510 1.986110 
# 
# From -- ./inp_files/227719.got.cif
#   From: 2010.05.17/outbox.ucp.g08.bks.cvg/sg2_114_cif.got.tgz:227719.got - 2010.06.11 11:32:03.
