data_PCOD9072673
_publ_section_title
;
Structure prediction by ZEFSAII (Michael W. Deem and Ramdas Pophale) SiO2 
 PCOD9072673
Probable space group: P -1
;
_chemical_formula_sum "Si O2"
_cell_formula_units_Z 16
_cell_length_a 18.278793
_cell_length_b 7.797585
_cell_length_c 7.223699
_cell_angle_alpha 82.402795
_cell_angle_beta 125.044917
_cell_angle_gamma 129.624170
_cell_volume 602.909320
_symmetry_space_group_name_H-M "P -1"
_symmetry_group_IT_number 2
_symmetry_cell_setting 'triclinic'
loop_
_space_group_symop_operation_xyz
x,y,z
-x,-y,-z
loop_
_atom_site_type_symbol
_atom_site_label
_atom_site_fract_x
_atom_site_fract_y
_atom_site_fract_z
Si Si1 0.374938 0.261891 0.769810
Si Si2 0.884424 0.006587 0.650117
Si Si3 0.156438 0.406299 0.349132
Si Si4 0.803137 0.975653 0.961495
Si Si5 0.283439 0.501259 0.152618
Si Si6 0.427285 0.172060 0.487685
Si Si7 0.101210 0.545057 0.903518
Si Si8 0.361315 0.863416 0.757070
O O1 0.413073 0.302916 0.602497
O O2 0.243859 0.173886 0.622903
O O3 0.344071 0.022479 0.807841
O O4 0.500000 0.500000 0.000000
O O5 0.845426 0.017934 0.799509
O O6 0.937566 0.881506 0.722171
O O7 0.982952 0.282721 0.693273
O O8 0.244117 0.433183 0.319136
O O9 0.105005 0.496550 0.137597
O O10 0.242781 0.580958 0.618358
O O11 0.891811 0.240043 0.141319
O O12 0.776751 0.741643 0.007108
O O13 0.667898 0.888843 0.793039
O O14 0.430280 0.683014 0.341969
O O15 0.221468 0.600585 0.994618
O O16 0.370357 0.929044 0.543039
O O17 0.500000 0.000000 0.000000
#
# Coordination Sequence:
#
# PCOD9072673 Si02
#       8
#     2   2   2   2   2   2   2   2
#     4   9  19  34  52  73 101 134 172 216 266 298
#     4  10  18  31  50  75 106 138 170 219 260 309
#     4   9  18  30  49  76 107 133 173 208 260 313
#     4  10  18  31  49  76 109 141 171 212 261 316
#     4   9  20  32  52  77 111 141 169 210 272 318
#     4   9  18  34  51  75 108 135 177 217 262 316
#     4  10  19  31  49  77 110 137 173 209 266 320
#     4  10  19  31  50  77 103 132 180 215 255 308
#
# _framework density 26.537987000000001
#
# number of rings (size 3 to 8) (size 9 to 14) (size 15 to 20)
#    1.500    1.000    1.250    1.875    0.000    2.000 
#    0.000    1.250    0.000    0.750    0.000    1.750 
#    0.000    0.000    0.000    0.000    0.000    0.000 
#
# Total GULP energy -89162.334067 kJ/mol
# GULP energy per Si atom -5572.645879 kJ/mol
# Density = 2.647759 g / cm^3
# Si number density = 26.537987 Si / 1000 Ang^3
#
#
#
# Elastic Constant Matrix: (Units=GPa)
#
#
# Indices 1 2 3 4 5 6 
#
# 1 59.6904 23.8509 29.6443 0.2640 -3.1254 -9.3146
# 2 23.8509 103.4990 32.3372 33.2310 -24.7662 -41.0125
# 3 29.6443 32.3372 152.0587 35.5225 -4.2703 -7.9970
# 4 0.2640 33.2310 35.5225 43.9555 -9.0190 -4.8436
# 5 -3.1254 -24.7662 -4.2703 -9.0190 45.0299 10.5965
# 6 -9.3146 -41.0125 -7.9970 -4.8436 10.5965 39.6424
#
#
#
# Elastic Compliance Matrix: (Units=1/GPa)
#
#
# Indices 1 2 3 4 5 6 
#
# 1 0.021747 -0.007491 -0.004916 0.009104 -0.000705 -0.002331
# 2 -0.007491 0.027109 0.001203 -0.017760 0.005565 0.022871
# 3 -0.004916 0.001203 0.009282 -0.008411 -0.000751 0.001136
# 4 0.009104 -0.017760 -0.008411 0.041779 0.001550 -0.013241
# 5 -0.000705 0.005565 -0.000751 0.001550 0.025754 -0.001255
# 6 -0.002331 0.022871 0.001136 -0.013241 -0.001255 0.047286
#
#
# Mechanical properties :
#
#
# Convention : Reuss Voigt Hill
#
# Bulk Modulus (GPa) = 27.98631 54.10144 41.04387
# Shear Modulus (GPa) = 24.12274 41.01993 32.57133
#
# Velocity S-wave (km/s) = 3.01822 3.93581 3.50715
# Velocity P-wave (km/s) = 4.76601 6.40974 5.64799
#
# Compressibility (1/GPa) = 0.03573176
#
# Stress axis : x y z
#
# Youngs Moduli (GPa) = 45.98406 36.88790 107.73249
#
# Poissons Ratio (x) = 0.27632 0.52957
# Poissons Ratio (y) = 0.34446 -0.12964
# Poissons Ratio (z) = 0.22604 -0.04439
#
# Static dielectric constant tensor:
#      x y z
#    x 2.203570 -0.047020 0.084230 
#    y -0.047020 2.292330 -0.056750 
#    z 0.084230 -0.056750 2.189900 
# 
# From -- ./inp_files/473918.got.cif
#   From: 2010.05.17/outbox.cif.g08.bks.cpg/sg2_237_cif.got.tgz:473918.got - 2010.06.03 11:33:40.
