data_PCOD9072453
_publ_section_title
;
Structure prediction by ZEFSAII (Michael W. Deem and Ramdas Pophale) SiO2 
 PCOD9072453
Probable space group: P -1
;
_chemical_formula_sum "Si O2"
_cell_formula_units_Z 14
_cell_length_a 9.000000
_cell_length_b 12.000000
_cell_length_c 18.000000
_cell_angle_alpha 40.000000
_cell_angle_beta 130.000000
_cell_angle_gamma 100.000000
_cell_volume 729.599496
_symmetry_space_group_name_H-M "P -1"
_symmetry_group_IT_number 2
_symmetry_cell_setting 'triclinic'
loop_
_space_group_symop_operation_xyz
x,y,z
-x,-y,-z
loop_
_atom_site_type_symbol
_atom_site_label
_atom_site_fract_x
_atom_site_fract_y
_atom_site_fract_z
Si Si1 0.515990 0.265664 0.869042
Si Si2 0.053535 0.165401 0.458968
Si Si3 0.025846 0.736654 0.447128
Si Si4 0.029268 0.861344 0.842041
Si Si5 0.764639 0.432003 0.091212
Si Si6 0.356090 0.109822 0.190378
Si Si7 0.440575 0.023616 0.090292
O O1 0.266464 0.480624 0.639424
O O2 0.650545 0.065354 0.953348
O O3 0.712102 0.294544 0.946819
O O4 0.429981 0.206973 0.944755
O O5 0.942549 0.238656 0.468241
O O6 0.927291 0.349394 0.260258
O O7 0.342512 0.061082 0.611608
O O8 0.000000 0.000000 0.500000
O O9 0.743708 0.824343 0.302663
O O10 0.030362 0.904012 0.312950
O O11 0.804497 0.911862 0.793029
O O12 0.097465 0.746496 0.840956
O O13 0.500000 0.500000 0.000000
O O14 0.718834 0.650792 0.938081
O O15 0.319441 0.095955 0.096687
#
# Coordination Sequence:
#
# PCOD9072453 Si02
#       7
#     2   2   2   2   2   2   2
#     4  10  20  37  64  81 110 147 192 236 277 324
#     4  11  20  36  58  81 106 150 187 229 274 328
#     4  10  19  37  58  84 113 142 190 234 275 331
#     4  11  24  36  53  89 118 147 183 228 287 343
#     4  12  21  38  61  82 110 151 191 230 276 332
#     4  11  24  38  55  83 121 145 184 235 282 339
#     4   9  20  39  59  87 105 146 197 234 272 327
#
# _framework density 19.188610000000001
#
# number of rings (size 3 to 8) (size 9 to 14) (size 15 to 20)
#    0.000    1.429    2.857    4.286    0.000    2.286 
#    0.000    0.714    0.000    0.000    0.000    0.000 
#    0.000    0.000    0.000    0.000    0.000    0.000 
#
# Total GULP energy -78002.533636 kJ/mol
# GULP energy per Si atom -5571.609545 kJ/mol
# Density = 1.914494 g / cm^3
# Si number density = 19.188610 Si / 1000 Ang^3
#
#
#
# Elastic Constant Matrix: (Units=GPa)
#
#
# Indices 1 2 3 4 5 6 
#
# 1 123.3099 37.5003 9.1164 -1.0643 4.4364 -15.9446
# 2 37.5003 72.6247 4.2245 6.8224 -5.6364 -14.2829
# 3 9.1164 4.2245 68.6306 1.5302 -5.4077 0.1854
# 4 -1.0643 6.8224 1.5302 18.6478 -8.9675 -1.4670
# 5 4.4364 -5.6364 -5.4077 -8.9675 9.8302 3.5176
# 6 -15.9446 -14.2829 0.1854 -1.4670 3.5176 17.5717
#
#
#
# Elastic Compliance Matrix: (Units=1/GPa)
#
#
# Indices 1 2 3 4 5 6 
#
# 1 0.011599 -0.004817 -0.002530 -0.004969 -0.017394 0.009704
# 2 -0.004817 0.018927 0.000054 -0.003211 0.006766 0.009391
# 3 -0.002530 0.000054 0.016211 0.006902 0.018363 -0.005523
# 4 -0.004969 -0.003211 0.006902 0.102980 0.105171 -0.019649
# 5 -0.017394 0.006766 0.018363 0.105171 0.237089 -0.049159
# 6 0.009704 0.009391 -0.005523 -0.019649 -0.049159 0.081607
#
#
# Mechanical properties :
#
#
# Convention : Reuss Voigt Hill
#
# Bulk Modulus (GPa) = 31.10236 40.69417 35.89827
# Shear Modulus (GPa) = 10.12726 23.45823 16.79274
#
# Velocity S-wave (km/s) = 2.29983 3.50023 2.96149
# Velocity P-wave (km/s) = 4.82662 6.13099 5.51748
#
# Compressibility (1/GPa) = 0.03215190
#
# Stress axis : x y z
#
# Youngs Moduli (GPa) = 86.21238 52.83424 61.68473
#
# Poissons Ratio (x) = 0.25450 0.15608
# Poissons Ratio (y) = 0.41528 -0.00334
# Poissons Ratio (z) = 0.21814 -0.00286
#
# Static dielectric constant tensor:
#      x y z
#    x 1.621020 0.007900 -0.040540 
#    y 0.007900 1.694090 -0.027210 
#    z -0.040540 -0.027210 1.716890 
# 
# From -- ./inp_files/27479.got.cif
#   From: 2010.05.17/outbox.ucp.g08.bks.cvg/sg2_14_cif.got.tgz:27479.got - 2010.06.11 11:32:03.
