data_PCOD9072428
_publ_section_title
;
Structure prediction by ZEFSAII (Michael W. Deem and Ramdas Pophale) SiO2 
 PCOD9072428
Probable space group: P -1
;
_chemical_formula_sum "Si O2"
_cell_formula_units_Z 16
_cell_length_a 12.000000
_cell_length_b 9.000000
_cell_length_c 15.000000
_cell_angle_alpha 40.000000
_cell_angle_beta 130.000000
_cell_angle_gamma 130.000000
_cell_volume 759.581896
_symmetry_space_group_name_H-M "P -1"
_symmetry_group_IT_number 2
_symmetry_cell_setting 'triclinic'
loop_
_space_group_symop_operation_xyz
x,y,z
-x,-y,-z
loop_
_atom_site_type_symbol
_atom_site_label
_atom_site_fract_x
_atom_site_fract_y
_atom_site_fract_z
Si Si1 0.632609 0.377790 0.133648
Si Si2 0.352617 0.317043 0.553434
Si Si3 0.258686 0.908207 0.543702
Si Si4 0.177644 0.122331 0.020604
Si Si5 0.098290 0.399789 0.503457
Si Si6 0.192090 0.974674 0.288842
Si Si7 0.379013 0.977188 0.871095
Si Si8 0.134292 0.041745 0.833770
O O1 0.643865 0.257443 0.289911
O O2 0.613401 0.202308 0.121054
O O3 0.500000 0.500000 0.000000
O O4 0.788000 0.591143 0.099137
O O5 0.500000 0.500000 0.500000
O O6 0.205949 0.383930 0.483246
O O7 0.289247 0.115099 0.538568
O O8 0.407444 0.222872 0.716445
O O9 0.294991 0.013522 0.413569
O O10 0.078443 0.757234 0.525376
O O11 0.251396 0.056726 0.180853
O O12 0.210997 0.060637 0.963299
O O13 0.000000 0.000000 0.000000
O O14 0.120054 0.683524 0.386800
O O15 0.153011 0.292829 0.671626
O O16 0.047300 0.071073 0.191510
O O17 0.215304 0.907721 0.868459
O O18 0.500000 0.000000 0.000000
#
# Coordination Sequence:
#
# PCOD9072428 Si02
#       8
#     2   2   2   2   2   2   2   2
#     4  11  23  39  60  85 115 156 197 235 287 353
#     4  10  23  39  57  87 120 148 187 243 295 337
#     4  10  20  39  60  84 114 153 194 234 285 353
#     4  10  20  37  58  86 117 147 189 243 287 332
#     4  10  19  36  63  87 113 154 194 231 286 352
#     4  10  20  34  60  91 114 145 193 247 290 330
#     4  10  22  38  58  80 113 159 196 229 286 354
#     4   9  18  36  57  82 116 150 191 236 282 343
#
# _framework density 21.064219999999999
#
# number of rings (size 3 to 8) (size 9 to 14) (size 15 to 20)
#    0.000    2.000    0.000    4.875    0.000    6.000 
#    0.000    3.750    0.000    0.000    0.000    0.000 
#    0.000    0.000    0.000    0.000    0.000    0.000 
#
# Total GULP energy -89084.529705 kJ/mol
# GULP energy per Si atom -5567.783107 kJ/mol
# Density = 2.101628 g / cm^3
# Si number density = 21.064220 Si / 1000 Ang^3
#
#
#
# Elastic Constant Matrix: (Units=GPa)
#
#
# Indices 1 2 3 4 5 6 
#
# 1 83.2004 12.2815 62.5742 8.7856 -14.0463 -6.2992
# 2 12.2815 47.6240 29.1352 20.2835 -2.3407 -4.7007
# 3 62.5742 29.1352 116.0876 40.1297 -21.1029 -26.9121
# 4 8.7856 20.2835 40.1297 30.4817 -10.9102 -11.0823
# 5 -14.0463 -2.3407 -21.1029 -10.9102 41.3698 7.6859
# 6 -6.2992 -4.7007 -26.9121 -11.0823 7.6859 19.5570
#
#
#
# Elastic Compliance Matrix: (Units=1/GPa)
#
#
# Indices 1 2 3 4 5 6 
#
# 1 0.029135 -0.003287 -0.025756 0.024164 0.005809 -0.015438
# 2 -0.003287 0.030956 0.000027 -0.023084 -0.004532 -0.004881
# 3 -0.025756 0.000027 0.041877 -0.038282 -0.002819 0.028752
# 4 0.024164 -0.023084 -0.038282 0.095752 0.012852 -0.001236
# 5 0.005809 -0.004532 -0.002819 0.012852 0.029193 -0.007288
# 6 -0.015438 -0.004881 0.028752 -0.001236 -0.007288 0.086716
#
#
# Mechanical properties :
#
#
# Convention : Reuss Voigt Hill
#
# Bulk Modulus (GPa) = 22.76008 50.54375 36.65191
# Shear Modulus (GPa) = 12.94311 27.80977 20.37644
#
# Velocity S-wave (km/s) = 2.48152 3.63745 3.11360
# Velocity P-wave (km/s) = 4.36338 6.45667 5.51034
#
# Compressibility (1/GPa) = 0.04393658
#
# Stress axis : x y z
#
# Youngs Moduli (GPa) = 34.32271 32.30382 23.87963
#
# Poissons Ratio (x) = 0.10617 0.61504
# Poissons Ratio (y) = 0.11281 -0.00064
# Poissons Ratio (z) = 0.88401 -0.00086
#
# Static dielectric constant tensor:
#      x y z
#    x 1.669950 0.077190 -0.001780 
#    y 0.077190 1.828920 -0.030000 
#    z -0.001780 -0.030000 1.840560 
# 
# From -- ./inp_files/274727.got.cif
#   From: 2010.05.17/outbox.ucp.g08.bks.cvg/sg2_138_cif.got.tgz:274727.got - 2010.06.11 11:32:03.
