data_PCOD9072478
_publ_section_title
;
Structure prediction by ZEFSAII (Michael W. Deem and Ramdas Pophale) SiO2 
 PCOD9072478
Probable space group: P -1
;
_chemical_formula_sum "Si O2"
_cell_formula_units_Z 16
_cell_length_a 15.000000
_cell_length_b 18.000000
_cell_length_c 12.000000
_cell_angle_alpha 150.000000
_cell_angle_beta 130.000000
_cell_angle_gamma 30.000000
_cell_volume 731.734496
_symmetry_space_group_name_H-M "P -1"
_symmetry_group_IT_number 2
_symmetry_cell_setting 'triclinic'
loop_
_space_group_symop_operation_xyz
x,y,z
-x,-y,-z
loop_
_atom_site_type_symbol
_atom_site_label
_atom_site_fract_x
_atom_site_fract_y
_atom_site_fract_z
Si Si1 0.121722 0.740127 0.369207
Si Si2 0.154133 0.512802 0.876521
Si Si3 0.311400 0.809932 0.278012
Si Si4 0.267121 0.063515 0.361148
Si Si5 0.971234 0.180911 0.144459
Si Si6 0.804755 0.030310 0.173538
Si Si7 0.391873 0.279306 0.528839
Si Si8 0.514209 0.815210 0.019328
O O1 0.221052 0.800815 0.546723
O O2 0.142068 0.652689 0.145441
O O3 0.259721 0.470936 0.188950
O O4 0.900751 0.993780 0.573343
O O5 0.215805 0.278525 0.651065
O O6 0.297107 0.388484 0.720959
O O7 0.929519 0.763582 0.977411
O O8 0.406896 0.840087 0.467378
O O9 0.273868 0.928744 0.283927
O O10 0.500000 0.500000 0.000000
O O11 0.095485 0.189652 0.304216
O O12 0.455092 0.865003 0.169744
O O13 0.755135 0.472240 0.341023
O O14 0.000000 0.000000 0.000000
O O15 0.054634 0.060747 0.933038
O O16 0.611828 0.166944 0.135224
O O17 0.439762 0.059647 0.252655
#
# Coordination Sequence:
#
# PCOD9072478 Si02
#       8
#     2   2   2   2   2   2   2   2
#     4  12  24  39  61  90 126 161 199 248 307 366
#     4  10  21  39  64  93 121 158 202 250 300 356
#     4  12  25  41  60  88 126 163 201 248 305 368
#     4  10  21  39  64  90 121 159 203 249 301 359
#     4  10  19  37  64  91 121 161 206 249 298 359
#     4  10  21  39  62  90 122 156 204 252 298 355
#     4  10  21  40  64  92 124 159 205 250 298 359
#     4  10  22  40  65  91 119 160 205 255 302 351
#
# _framework density 21.865853999999999
#
# number of rings (size 3 to 8) (size 9 to 14) (size 15 to 20)
#    0.000    1.500    0.000    6.000    0.000    8.000 
#    0.000    2.500    0.000    5.250    0.000    0.000 
#    0.000    0.000    0.000    0.000    0.000    0.375 
#
# Total GULP energy -89129.376801 kJ/mol
# GULP energy per Si atom -5570.586050 kJ/mol
# Density = 2.181609 g / cm^3
# Si number density = 21.865854 Si / 1000 Ang^3
#
#
#
# Elastic Constant Matrix: (Units=GPa)
#
#
# Indices 1 2 3 4 5 6 
#
# 1 44.5436 20.8153 36.4513 9.7586 15.1334 -0.1815
# 2 20.8153 88.8675 52.2553 5.4741 -1.6501 -9.4058
# 3 36.4513 52.2553 174.5228 -5.5512 11.9951 -4.8043
# 4 9.7586 5.4741 -5.5512 44.8820 -3.2649 9.2145
# 5 15.1334 -1.6501 11.9951 -3.2649 26.1801 7.6999
# 6 -0.1815 -9.4058 -4.8043 9.2145 7.6999 33.1519
#
#
#
# Elastic Compliance Matrix: (Units=1/GPa)
#
#
# Indices 1 2 3 4 5 6 
#
# 1 0.040389 -0.005295 -0.005333 -0.012050 -0.024816 0.007059
# 2 -0.005295 0.015180 -0.003720 -0.001452 0.004640 0.003065
# 3 -0.005333 -0.003720 0.008050 0.002707 -0.000327 -0.000595
# 4 -0.012050 -0.001452 0.002707 0.028553 0.012401 -0.010902
# 5 -0.024816 0.004640 -0.000327 0.012401 0.059259 -0.016077
# 6 0.007059 0.003065 -0.000595 -0.010902 -0.016077 0.037750
#
#
# Mechanical properties :
#
#
# Convention : Reuss Voigt Hill
#
# Bulk Modulus (GPa) = 28.63593 58.55306 43.59450
# Shear Modulus (GPa) = 21.78465 34.07026 27.92745
#
# Velocity S-wave (km/s) = 3.15982 3.95162 3.57770
# Velocity P-wave (km/s) = 5.14172 6.90340 6.08663
#
# Compressibility (1/GPa) = 0.03492116
#
# Stress axis : x y z
#
# Youngs Moduli (GPa) = 24.75946 65.87434 124.22442
#
# Poissons Ratio (x) = 0.34883 0.66255
# Poissons Ratio (y) = 0.13111 0.46211
# Poissons Ratio (z) = 0.13205 0.24505
#
# Static dielectric constant tensor:
#      x y z
#    x 1.832270 0.030590 0.015680 
#    y 0.030590 1.986150 0.005690 
#    z 0.015680 0.005690 1.754430 
# 
# From -- ./inp_files/457026.got.cif
#   From: 2010.05.17/outbox.ucp.g08.bks.cvg/sg2_229_cif.got.tgz:457026.got - 2010.06.11 11:32:03.
