data_PCOD9072842
_publ_section_title
;
Structure prediction by ZEFSAII (Michael W. Deem and Ramdas Pophale) SiO2 
 PCOD9072842
Probable space group: P -1
;
_chemical_formula_sum "Si O2"
_cell_formula_units_Z 14
_cell_length_a 12.000000
_cell_length_b 9.000000
_cell_length_c 18.000000
_cell_angle_alpha 50.000000
_cell_angle_beta 30.000000
_cell_angle_gamma 40.000000
_cell_volume 623.501542
_symmetry_space_group_name_H-M "P -1"
_symmetry_group_IT_number 2
_symmetry_cell_setting 'triclinic'
loop_
_space_group_symop_operation_xyz
x,y,z
-x,-y,-z
loop_
_atom_site_type_symbol
_atom_site_label
_atom_site_fract_x
_atom_site_fract_y
_atom_site_fract_z
Si Si1 0.553897 0.486785 0.743451
Si Si2 0.649846 0.728924 0.485574
Si Si3 0.597272 0.322321 0.933400
Si Si4 0.027781 0.181023 0.078210
Si Si5 0.451475 0.849786 0.265298
Si Si6 0.094962 0.335589 0.265175
Si Si7 0.267500 0.597506 0.678463
O O1 0.686579 0.596816 0.584773
O O2 0.633810 0.411867 0.805562
O O3 0.595294 0.273517 0.737835
O O4 0.237574 0.686345 0.860039
O O5 0.435962 0.703758 0.570310
O O6 0.925520 0.578214 0.329237
O O7 0.500000 0.000000 0.500000
O O8 0.864144 0.080916 0.877712
O O9 0.500000 0.500000 0.000000
O O10 0.345329 0.293515 0.085780
O O11 0.942205 0.326898 0.156949
O O12 0.278378 0.161476 0.902326
O O13 0.525261 0.678759 0.346410
O O14 0.215448 0.116209 0.321164
O O15 0.895524 0.329687 0.325216
#
# Coordination Sequence:
#
# PCOD9072842 Si02
#       7
#     2   2   2   2   2   2   2
#     4  10  21  40  65  86 128 168 202 257 313 366
#     4  10  24  44  63  92 128 171 209 247 319 378
#     4  11  24  38  62  96 129 161 211 253 315 372
#     4   9  18  35  61  93 127 155 203 258 315 366
#     4   9  18  35  62  99 121 153 211 256 311 367
#     4  11  22  40  66  93 127 160 208 266 298 369
#     4  10  20  37  69  89 123 165 208 254 309 367
#
# _framework density 22.453834000000001
#
# number of rings (size 3 to 8) (size 9 to 14) (size 15 to 20)
#    0.000    2.286    0.000    4.714    4.000    5.143 
#    5.143    3.571    0.000    0.000    0.000    0.000 
#    0.000    0.000    0.000    0.000    0.000    0.000 
#
# Total GULP energy -78202.351144 kJ/mol
# GULP energy per Si atom -5585.882225 kJ/mol
# Density = 2.240273 g / cm^3
# Si number density = 22.453834 Si / 1000 Ang^3
#
#
#
# Elastic Constant Matrix: (Units=GPa)
#
#
# Indices 1 2 3 4 5 6 
#
# 1 10.1094 23.9026 7.9372 1.8937 -16.6839 -7.1117
# 2 23.9026 145.1562 5.2957 15.2254 -7.0839 -11.2479
# 3 7.9372 5.2957 33.2021 -5.6573 -5.5139 4.6879
# 4 1.8937 15.2254 -5.6573 27.5969 0.7711 -0.5759
# 5 -16.6839 -7.0839 -5.5139 0.7711 6.9606 7.1899
# 6 -7.1117 -11.2479 4.6879 -0.5759 7.1899 5.4118
#
#
#
# Elastic Compliance Matrix: (Units=1/GPa)
#
#
# Indices 1 2 3 4 5 6 
#
# 1 -0.157823 -0.003980 0.092468 0.024521 0.024133 -0.325224
# 2 -0.003980 0.007517 0.003577 -0.003856 0.015419 -0.013601
# 3 0.092468 0.003577 -0.041017 -0.009578 -0.067152 0.252675
# 4 0.024521 -0.003856 -0.009578 0.036324 -0.015226 0.056599
# 5 0.024133 0.015419 -0.067152 -0.015226 -0.111245 0.268108
# 6 -0.325224 -0.013601 0.252675 0.056599 0.268108 -0.839923
#
#
# Mechanical properties :
#
#
# Convention : Reuss Voigt Hill
#
# Bulk Modulus (GPa) = -139.01639 29.19319 -54.91160
# Shear Modulus (GPa) = -3.86789 18.08268 7.10739
#
# Velocity S-wave (km/s) = -1.31390 2.84091 1.78107
# Velocity P-wave (km/s) = 8.02174 4.87757 4.50320
#
# Compressibility (1/GPa) = -0.00719340
#
# Stress axis : x y z
#
# Youngs Moduli (GPa) = -6.33621 133.03091 -24.38037
#
# Poissons Ratio (x) = 0.52950 2.25441
# Poissons Ratio (y) = -0.02522 0.08720
# Poissons Ratio (z) = 0.58590 -0.47580
#
# Static dielectric constant tensor:
#      x y z
#    x 1.795140 0.010920 -0.029640 
#    y 0.010920 1.847580 -0.044260 
#    z -0.029640 -0.044260 1.906450 
# 
# From -- ./inp_files/566477.got.cif
#   From: 2010.05.17/outbox.ucp.g08.bks.cvg/sg2_284_cif.got.tgz:566477.got - 2010.06.11 11:32:03.
