data_PCOD9072369
_publ_section_title
;
Structure prediction by ZEFSAII (Michael W. Deem and Ramdas Pophale) SiO2 
 PCOD9072369
Probable space group: P -1
;
_chemical_formula_sum "Si O2"
_cell_formula_units_Z 15
_cell_length_a 17.663450
_cell_length_b 12.055388
_cell_length_c 9.900825
_cell_angle_alpha 71.420489
_cell_angle_beta 67.186926
_cell_angle_gamma 133.713269
_cell_volume 666.225680
_symmetry_space_group_name_H-M "P -1"
_symmetry_group_IT_number 2
_symmetry_cell_setting 'triclinic'
loop_
_space_group_symop_operation_xyz
x,y,z
-x,-y,-z
loop_
_atom_site_type_symbol
_atom_site_label
_atom_site_fract_x
_atom_site_fract_y
_atom_site_fract_z
Si Si1 0.937955 0.774659 0.718674
Si Si2 0.500000 0.500000 0.000000
Si Si3 0.659511 0.081563 0.989143
Si Si4 0.799984 0.300978 0.384308
Si Si5 0.554734 0.306209 0.949660
Si Si6 0.775263 0.309600 0.100917
Si Si7 0.776897 0.805905 0.879963
Si Si8 0.010661 0.331562 0.651734
O O1 0.871902 0.568592 0.914897
O O2 0.889168 0.828207 0.813380
O O3 0.783876 0.589416 0.764260
O O4 0.184758 0.099766 0.347043
O O5 0.506283 0.639618 0.025377
O O6 0.512688 0.445072 0.170846
O O7 0.618914 0.070609 0.173265
O O8 0.801601 0.372529 0.701268
O O9 0.824436 0.188294 0.833455
O O10 0.450312 0.758801 0.169351
O O11 0.889221 0.529743 0.320284
O O12 0.012794 0.497415 0.137997
O O13 0.633160 0.013262 0.712107
O O14 0.690018 0.178767 0.362491
O O15 0.884074 0.045126 0.807363
#
# Coordination Sequence:
#
# PCOD9072369 Si02
#       8
#     2   1   2   2   2   2   2   2
#     4  10  21  30  50  75 110 129 164 202 261 288
#     4  10  18  30  56  74 100 126 170 206 242 300
#     4   9  16  28  54  75 100 125 171 206 248 280
#     4   9  20  33  55  73  99 133 175 199 254 286
#     4  10  19  32  49  82  97 136 162 205 248 301
#     4  10  18  34  50  77  99 137 162 214 242 299
#     4  10  18  33  49  78 102 132 162 213 245 297
#     4   9  15  30  52  76  96 128 169 216 234 291
#
# _framework density 22.514890000000001
#
# number of rings (size 3 to 8) (size 9 to 14) (size 15 to 20)
#    0.000    2.400    2.667    1.600    0.000    1.067 
#    0.000    0.667    0.000    0.800   10.400    0.000 
#    0.000    0.000    0.000    0.000    0.000    0.000 
#
# Total GULP energy -83618.004073 kJ/mol
# GULP energy per Si atom -5574.533605 kJ/mol
# Density = 2.246365 g / cm^3
# Si number density = 22.514890 Si / 1000 Ang^3
#
#
#
# Elastic Constant Matrix: (Units=GPa)
#
#
# Indices 1 2 3 4 5 6 
#
# 1 94.9955 62.1290 10.4545 17.6167 -15.3074 -23.3492
# 2 62.1290 204.4769 30.1882 7.6620 1.3362 -19.1463
# 3 10.4545 30.1882 33.9408 9.2904 -10.9632 -0.4736
# 4 17.6167 7.6620 9.2904 31.3558 5.0734 -3.2403
# 5 -15.3074 1.3362 -10.9632 5.0734 29.5415 -0.8419
# 6 -23.3492 -19.1463 -0.4736 -3.2403 -0.8419 46.5563
#
#
#
# Elastic Compliance Matrix: (Units=1/GPa)
#
#
# Indices 1 2 3 4 5 6 
#
# 1 0.021383 -0.006747 0.009415 -0.015265 0.017709 0.007303
# 2 -0.006747 0.008201 -0.009590 0.006012 -0.008454 0.000157
# 3 0.009415 -0.009590 0.050160 -0.022275 0.027760 0.000240
# 4 -0.015265 0.006012 -0.022275 0.049394 -0.025000 -0.002424
# 5 0.017709 -0.008454 0.027760 -0.025000 0.058147 0.004998
# 6 0.007303 0.000157 0.000240 -0.002424 0.004998 0.025131
#
#
# Mechanical properties :
#
#
# Convention : Reuss Voigt Hill
#
# Bulk Modulus (GPa) = 15.17469 59.88407 37.52938
# Shear Modulus (GPa) = 20.14290 36.86680 28.50485
#
# Velocity S-wave (km/s) = 2.99431 4.05092 3.56201
# Velocity P-wave (km/s) = 4.32539 6.96672 5.79846
#
# Compressibility (1/GPa) = 0.06589919
#
# Stress axis : x y z
#
# Youngs Moduli (GPa) = 46.76682 121.93519 19.93612
#
# Poissons Ratio (x) = 0.82268 -0.18770
# Poissons Ratio (y) = 0.31553 0.19120
# Poissons Ratio (z) = -0.44031 1.16941
#
# Static dielectric constant tensor:
#      x y z
#    x 1.912280 0.059530 -0.137960 
#    y 0.059530 1.904220 -0.050520 
#    z -0.137960 -0.050520 1.964730 
# 
# From -- ./inp_files/167592.got.cif
#   From: 2010.05.17/outbox.cif.g08.bks.cpg/sg2_84_cif.got.tgz:167592.got - 2010.06.03 11:33:40.
