data_PCOD9072533
_publ_section_title
;
Structure prediction by ZEFSAII (Michael W. Deem and Ramdas Pophale) SiO2 
 PCOD9072533
Probable space group: P -1
;
_chemical_formula_sum "Si O2"
_cell_formula_units_Z 16
_cell_length_a 12.000000
_cell_length_b 18.000000
_cell_length_c 12.000000
_cell_angle_alpha 130.000000
_cell_angle_beta 70.000000
_cell_angle_gamma 150.000000
_cell_volume 822.245522
_symmetry_space_group_name_H-M "P -1"
_symmetry_group_IT_number 2
_symmetry_cell_setting 'triclinic'
loop_
_space_group_symop_operation_xyz
x,y,z
-x,-y,-z
loop_
_atom_site_type_symbol
_atom_site_label
_atom_site_fract_x
_atom_site_fract_y
_atom_site_fract_z
Si Si1 0.825499 0.373672 0.762782
Si Si2 0.285094 0.756820 0.577185
Si Si3 0.321353 0.129997 0.762112
Si Si4 0.806243 0.521457 0.620545
Si Si5 0.129098 0.737903 0.158042
Si Si6 0.335316 0.487056 0.815463
Si Si7 0.746292 0.607471 0.500552
Si Si8 0.502399 0.580496 0.184711
O O1 0.841837 0.349882 0.607026
O O2 0.524837 0.192243 0.718508
O O3 0.904984 0.351760 0.805365
O O4 0.014432 0.601753 0.955557
O O5 0.359913 0.701567 0.534673
O O6 0.097426 0.681411 0.653045
O O7 0.560239 0.015102 0.720454
O O8 0.330225 0.210546 0.731110
O O9 0.453988 0.286765 0.973115
O O10 0.030063 0.873140 0.643614
O O11 0.763247 0.552526 0.552412
O O12 0.730057 0.528932 0.766691
O O13 0.947561 0.697534 0.206243
O O14 0.313440 0.487306 0.690355
O O15 0.398177 0.420882 0.755899
O O16 0.500000 0.500000 0.500000
O O17 0.500000 0.500000 0.000000
#
# Coordination Sequence:
#
# PCOD9072533 Si02
#       8
#     2   2   2   2   2   2   2   2
#     4  10  19  38  65  94 127 158 214 259 308 382
#     4  11  22  40  65  88 135 166 201 266 319 372
#     4  10  22  40  67  89 122 169 209 256 317 367
#     4  11  24  42  62  96 130 169 212 255 326 371
#     4  10  21  36  65 100 119 166 213 255 317 374
#     4  10  22  40  64  92 127 160 214 261 307 377
#     4  12  24  40  61  92 131 164 209 262 309 378
#     4  10  21  43  68  90 123 171 216 258 306 383
#
# _framework density 19.458908000000001
#
# number of rings (size 3 to 8) (size 9 to 14) (size 15 to 20)
#    0.000    1.500    2.500    2.625    0.000    2.000 
#    0.000    3.750    0.000    0.000    0.000    0.000 
#    0.000    0.000    0.000    0.000    0.000    0.000 
#
# Total GULP energy -89070.152457 kJ/mol
# GULP energy per Si atom -5566.884529 kJ/mol
# Density = 1.941462 g / cm^3
# Si number density = 19.458908 Si / 1000 Ang^3
#
#
#
# Elastic Constant Matrix: (Units=GPa)
#
#
# Indices 1 2 3 4 5 6 
#
# 1 96.2970 25.3990 9.7433 -4.3114 -8.0798 4.6799
# 2 25.3990 106.5133 58.9102 -29.6738 -4.7972 -0.6852
# 3 9.7433 58.9102 79.7323 -18.5103 4.9823 4.6682
# 4 -4.3114 -29.6738 -18.5103 13.0499 4.6357 -7.5602
# 5 -8.0798 -4.7972 4.9823 4.6357 21.6501 -16.1593
# 6 4.6799 -0.6852 4.6682 -7.5602 -16.1593 41.7352
#
#
#
# Elastic Compliance Matrix: (Units=1/GPa)
#
#
# Indices 1 2 3 4 5 6 
#
# 1 0.011940 -0.006444 0.000051 -0.013436 0.004211 -0.002254
# 2 -0.006444 0.041886 -0.011838 0.086043 0.006823 0.020962
# 3 0.000051 -0.011838 0.025048 0.010042 -0.016035 -0.007391
# 4 -0.013436 0.086043 0.010042 0.318807 -0.016987 0.052969
# 5 0.004211 0.006823 -0.016035 -0.016987 0.077880 0.028510
# 6 -0.002254 0.020962 -0.007391 0.052969 0.028510 0.046018
#
#
# Mechanical properties :
#
#
# Convention : Reuss Voigt Hill
#
# Bulk Modulus (GPa) = 23.57756 52.29417 37.93586
# Shear Modulus (GPa) = 8.73856 27.85304 18.29580
#
# Velocity S-wave (km/s) = 2.12144 3.78746 3.06964
# Velocity P-wave (km/s) = 4.25953 6.78667 5.66580
#
# Compressibility (1/GPa) = 0.04241322
#
# Stress axis : x y z
#
# Youngs Moduli (GPa) = 83.75056 23.87459 39.92291
#
# Poissons Ratio (x) = 0.15384 -0.00205
# Poissons Ratio (y) = 0.53967 0.47261
# Poissons Ratio (z) = -0.00430 0.28263
#
# Static dielectric constant tensor:
#      x y z
#    x 1.730810 -0.002580 -0.003230 
#    y -0.002580 1.696970 -0.004560 
#    z -0.003230 -0.004560 1.702400 
# 
# From -- ./inp_files/436875.got.cif
#   From: 2010.05.17/outbox.ucp.g08.bks.cvg/sg2_219_cif.got.tgz:436875.got - 2010.06.11 11:32:03.
