data_PCOD9072951
_publ_section_title
;
Structure prediction by ZEFSAII (Michael W. Deem and Ramdas Pophale) SiO2 
 PCOD9072951
Probable space group: P -1
;
_chemical_formula_sum "Si O2"
_cell_formula_units_Z 16
_cell_length_a 12.000000
_cell_length_b 21.000000
_cell_length_c 9.000000
_cell_angle_alpha 40.000000
_cell_angle_beta 40.000000
_cell_angle_gamma 40.000000
_cell_volume 844.337131
_symmetry_space_group_name_H-M "P -1"
_symmetry_group_IT_number 2
_symmetry_cell_setting 'triclinic'
loop_
_space_group_symop_operation_xyz
x,y,z
-x,-y,-z
loop_
_atom_site_type_symbol
_atom_site_label
_atom_site_fract_x
_atom_site_fract_y
_atom_site_fract_z
Si Si1 0.934658 0.136661 0.023726
Si Si2 0.637837 0.084919 0.566371
Si Si3 0.709200 0.873769 0.687699
Si Si4 0.010469 0.638855 0.830409
Si Si5 0.294670 0.910348 0.156074
Si Si6 0.749703 0.797939 0.433740
Si Si7 0.269392 0.400767 0.039834
Si Si8 0.283137 0.735818 0.267051
O O1 0.834129 0.169998 0.904325
O O2 0.045666 0.211181 0.810979
O O3 0.756284 0.153283 0.279701
O O4 0.107258 0.015157 0.098120
O O5 0.667441 0.072938 0.736850
O O6 0.420653 0.139623 0.622901
O O7 0.732387 0.973942 0.566270
O O8 0.862449 0.762516 0.810576
O O9 0.727861 0.856035 0.518975
O O10 0.489915 0.897448 0.899975
O O11 0.155145 0.530160 0.966791
O O12 0.161818 0.664959 0.531647
O O13 0.857145 0.609122 0.951359
O O14 0.278680 0.800528 0.309699
O O15 0.748744 0.681598 0.673768
O O16 0.496386 0.344193 0.863423
#
# Coordination Sequence:
#
# PCOD9072951 Si02
#       8
#     2   2   2   2   2   2   2   2
#     4  12  24  37  60  91 125 166 199 247 306 370
#     4  12  25  41  60  88 133 165 202 248 304 371
#     4  11  21  40  63  92 121 164 200 254 307 357
#     4  10  21  37  64  94 121 152 204 265 305 349
#     4  12  25  39  59  94 129 169 198 244 310 375
#     4  11  22  39  64  91 121 158 207 253 308 354
#     4  10  20  39  63  97 117 152 208 262 306 347
#     4  12  21  39  63  95 122 162 202 255 306 361
#
# _framework density 18.949777000000001
#
# number of rings (size 3 to 8) (size 9 to 14) (size 15 to 20)
#    0.000    0.750    7.500    2.625    1.750    0.000 
#    0.000    0.000    0.000    1.500    3.250    0.000 
#    0.000    0.000    0.000    0.000    0.000    0.000 
#
# Total GULP energy -89081.149374 kJ/mol
# GULP energy per Si atom -5567.571836 kJ/mol
# Density = 1.890665 g / cm^3
# Si number density = 18.949777 Si / 1000 Ang^3
#
#
#
# Elastic Constant Matrix: (Units=GPa)
#
#
# Indices 1 2 3 4 5 6 
#
# 1 112.9306 43.8590 26.1426 4.9858 3.1956 -23.8417
# 2 43.8590 71.8311 7.6603 -16.1943 3.7584 -28.0653
# 3 26.1426 7.6603 63.1345 7.8021 -13.1372 -8.7180
# 4 4.9858 -16.1943 7.8021 24.8766 -18.0201 0.3568
# 5 3.1956 3.7584 -13.1372 -18.0201 35.7814 8.4368
# 6 -23.8417 -28.0653 -8.7180 0.3568 8.4368 31.2694
#
#
#
# Elastic Compliance Matrix: (Units=1/GPa)
#
#
# Indices 1 2 3 4 5 6 
#
# 1 0.016483 -0.011040 -0.005189 -0.017864 -0.012333 0.004744
# 2 -0.011040 0.035095 0.001130 0.030196 0.007995 0.020895
# 3 -0.005189 0.001130 0.019392 0.001670 0.008254 0.000218
# 4 -0.017864 0.030196 0.001670 0.098018 0.048459 -0.000246
# 5 -0.012333 0.007995 0.008254 0.048459 0.059545 -0.016545
# 6 0.004744 0.020895 0.000218 -0.000246 -0.016545 0.058879
#
#
# Mechanical properties :
#
#
# Convention : Reuss Voigt Hill
#
# Bulk Modulus (GPa) = 24.52601 44.80221 34.66411
# Shear Modulus (GPa) = 15.09660 29.73444 22.41552
#
# Velocity S-wave (km/s) = 2.82559 3.96551 3.44305
# Velocity P-wave (km/s) = 4.85963 6.68288 5.84281
#
# Compressibility (1/GPa) = 0.04077304
#
# Stress axis : x y z
#
# Youngs Moduli (GPa) = 60.66883 28.49415 51.56725
#
# Poissons Ratio (x) = 0.31456 0.26760
# Poissons Ratio (y) = 0.66976 -0.05829
# Poissons Ratio (z) = 0.31483 -0.03221
#
# Static dielectric constant tensor:
#      x y z
#    x 1.660190 0.000780 -0.006350 
#    y 0.000780 1.700160 -0.033930 
#    z -0.006350 -0.033930 1.738970 
# 
# From -- ./inp_files/281492.got.cif
#   From: 2010.05.17/outbox.ucp.g08.bks.cvg/sg2_141_cif.got.tgz:281492.got - 2010.06.11 11:32:03.
