data_PCOD9072220
_publ_section_title
;
Structure prediction by ZEFSAII (Michael W. Deem and Ramdas Pophale) SiO2 
 PCOD9072220
Probable space group: P -1
;
_chemical_formula_sum "Si O2"
_cell_formula_units_Z 16
_cell_length_a 10.747930
_cell_length_b 8.554182
_cell_length_c 12.793725
_cell_angle_alpha 76.147183
_cell_angle_beta 54.481621
_cell_angle_gamma 45.305340
_cell_volume 650.828698
_symmetry_space_group_name_H-M "P -1"
_symmetry_group_IT_number 2
_symmetry_cell_setting 'triclinic'
loop_
_space_group_symop_operation_xyz
x,y,z
-x,-y,-z
loop_
_atom_site_type_symbol
_atom_site_label
_atom_site_fract_x
_atom_site_fract_y
_atom_site_fract_z
Si Si1 0.246474 0.676447 0.016320
Si Si2 0.621182 0.820601 0.302022
Si Si3 0.707514 0.168809 0.424978
Si Si4 0.090888 0.368284 0.242074
Si Si5 0.717912 0.108150 0.206138
Si Si6 0.823981 0.365753 0.726498
Si Si7 0.122846 0.742661 0.508381
Si Si8 0.239905 0.338742 0.964671
O O1 0.292589 0.647283 0.122373
O O2 0.336426 0.758936 0.894456
O O3 0.290318 0.476589 0.966078
O O4 0.979417 0.881499 0.107529
O O5 0.456727 0.833699 0.443309
O O6 0.858028 0.596055 0.269318
O O7 0.606594 0.807128 0.186068
O O8 0.600027 0.027420 0.294016
O O9 0.678346 0.239942 0.307971
O O10 0.724420 0.314590 0.463337
O O11 0.934131 0.895615 0.354653
O O12 0.045351 0.256738 0.359874
O O13 0.169645 0.460412 0.257035
O O14 0.234007 0.232202 0.089059
O O15 0.762612 0.407375 0.628150
O O16 0.000000 0.000000 0.500000
O O17 0.000000 0.500000 0.000000
#
# Coordination Sequence:
#
# PCOD9072220 Si02
#       8
#     2   2   2   2   2   2   2   2
#     4   9  17  31  53  79 101 134 182 217 258 300
#     4  11  20  33  52  81 118 139 163 217 276 328
#     4  10  21  34  50  82 114 140 173 207 278 315
#     4  10  19  34  57  81 102 139 178 222 266 305
#     4  10  18  30  53  78 109 139 168 220 261 319
#     4   9  18  38  57  78 104 142 184 217 250 312
#     4  10  22  36  55  76 105 143 183 226 247 310
#     4   9  17  31  49  78 109 134 167 214 266 317
#
# _framework density 24.584043000000001
#
# number of rings (size 3 to 8) (size 9 to 14) (size 15 to 20)
#    0.000    2.250    5.000    0.750    3.500    2.500 
#    0.000    0.000    0.000    9.750    0.000    0.000 
#    0.000    0.000    0.000    0.000    0.000    0.000 
#
# Total GULP energy -89463.180915 kJ/mol
# GULP energy per Si atom -5591.448807 kJ/mol
# Density = 2.452809 g / cm^3
# Si number density = 24.584043 Si / 1000 Ang^3
#
#
#
# Elastic Constant Matrix: (Units=GPa)
#
#
# Indices 1 2 3 4 5 6 
#
# 1 70.4596 11.2058 50.6442 3.5275 28.0717 7.2828
# 2 11.2058 48.0519 33.0042 -17.2263 9.0356 0.3084
# 3 50.6442 33.0042 194.2636 -21.5236 25.5244 21.5204
# 4 3.5275 -17.2263 -21.5236 45.2259 5.7772 -3.5201
# 5 28.0717 9.0356 25.5244 5.7772 53.8970 1.0873
# 6 7.2828 0.3084 21.5204 -3.5201 1.0873 36.9488
#
#
#
# Elastic Compliance Matrix: (Units=1/GPa)
#
#
# Indices 1 2 3 4 5 6 
#
# 1 0.021250 -0.001607 -0.004360 -0.003414 -0.008333 -0.001716
# 2 -0.001607 0.027394 -0.003019 0.009786 -0.003433 0.002880
# 3 -0.004360 -0.003019 0.007591 0.002683 -0.001040 -0.003251
# 4 -0.003414 0.009786 0.002683 0.028057 -0.004177 0.001825
# 5 -0.008333 -0.003433 -0.001040 -0.004177 0.024387 0.001161
# 6 -0.001716 0.002880 -0.003251 0.001825 0.001161 0.029412
#
#
# Mechanical properties :
#
#
# Convention : Reuss Voigt Hill
#
# Bulk Modulus (GPa) = 26.13416 55.83150 40.98283
# Shear Modulus (GPa) = 29.61782 41.74240 35.68011
#
# Velocity S-wave (km/s) = 3.47473 4.12509 3.81379
# Velocity P-wave (km/s) = 5.17223 6.74153 6.00833
#
# Compressibility (1/GPa) = 0.03826409
#
# Stress axis : x y z
#
# Youngs Moduli (GPa) = 47.05817 36.50409 131.73092
#
# Poissons Ratio (x) = 0.05865 0.57437
# Poissons Ratio (y) = 0.07560 0.39770
# Poissons Ratio (z) = 0.20518 0.11021
#
# Static dielectric constant tensor:
#      x y z
#    x 2.034010 -0.134530 0.008460 
#    y -0.134530 1.978920 0.008860 
#    z 0.008460 0.008860 1.937930 
# 
# From -- ./inp_files/243423.got.cif
#   From: 2010.05.17/outbox.cif.g08.bks.cpg/sg2_122_cif.got.tgz:243423.got - 2010.06.03 11:33:40.
