data_PCOD9072724
_publ_section_title
;
Structure prediction by ZEFSAII (Michael W. Deem and Ramdas Pophale) SiO2 
 PCOD9072724
Probable space group: P -1
;
_chemical_formula_sum "Si O2"
_cell_formula_units_Z 10
_cell_length_a 27.000000
_cell_length_b 12.000000
_cell_length_c 24.000000
_cell_angle_alpha 160.000000
_cell_angle_beta 10.000000
_cell_angle_gamma 160.000000
_cell_volume 448.285303
_symmetry_space_group_name_H-M "P -1"
_symmetry_group_IT_number 2
_symmetry_cell_setting 'triclinic'
loop_
_space_group_symop_operation_xyz
x,y,z
-x,-y,-z
loop_
_atom_site_type_symbol
_atom_site_label
_atom_site_fract_x
_atom_site_fract_y
_atom_site_fract_z
Si Si1 0.330509 0.710726 0.726554
Si Si2 0.292226 0.136745 0.070557
Si Si3 0.708784 0.569597 0.074626
Si Si4 0.589118 0.887282 0.717718
Si Si5 0.619837 0.195200 0.544205
O O1 0.463145 0.447843 0.421129
O O2 0.401932 0.030291 0.757209
O O3 0.000000 0.500000 0.000000
O O4 0.408158 0.875920 0.778620
O O5 0.500000 0.500000 0.000000
O O6 0.939358 0.067758 0.417622
O O7 0.374250 0.079739 0.016317
O O8 0.538189 0.245528 0.144457
O O9 0.545947 0.583662 0.204093
O O10 0.668298 0.892835 0.307934
O O11 0.056762 0.617414 0.706019
#
# Coordination Sequence:
#
# PCOD9072724 Si02
#       5
#     2   2   2   2   2
#     4   9  20  35  56  82 108 138 177 219 262 311
#     4  11  22  36  55  79 109 141 174 218 268 314
#     4   9  17  30  50  76 102 133 170 214 260 301
#     4  10  20  36  57  79 106 139 179 218 258 314
#     4   9  17  29  49  77 105 130 168 217 259 302
#
# _framework density 22.307223
#
# number of rings (size 3 to 8) (size 9 to 14) (size 15 to 20)
#    0.000    2.400    0.000    2.400    0.000   12.800 
#    0.000    0.000    0.000    7.200    0.000    0.000 
#    0.000    0.000    0.000    0.000    0.000    0.000 
#
# Total GULP energy -55725.622242 kJ/mol
# GULP energy per Si atom -5572.562224 kJ/mol
# Density = 2.225645 g / cm^3
# Si number density = 22.307223 Si / 1000 Ang^3
#
#
#
# Elastic Constant Matrix: (Units=GPa)
#
#
# Indices 1 2 3 4 5 6 
#
# 1 144.7418 59.4971 53.1882 -24.8899 -34.3653 -45.3882
# 2 59.4971 118.2532 34.5103 -31.1723 -11.9389 -7.8671
# 3 53.1882 34.5103 54.9105 -23.8233 -16.9179 -5.7618
# 4 -24.8899 -31.1723 -23.8233 15.7037 -1.7410 5.3842
# 5 -34.3653 -11.9389 -16.9179 -1.7410 32.1334 -8.6478
# 6 -45.3882 -7.8671 -5.7618 5.3842 -8.6478 35.0142
#
#
#
# Elastic Compliance Matrix: (Units=1/GPa)
#
#
# Indices 1 2 3 4 5 6 
#
# 1 0.017390 -0.030667 -0.074609 -0.156856 -0.035539 0.018717
# 2 -0.030667 0.016376 0.003977 0.001184 -0.036566 -0.044632
# 3 -0.074609 0.003977 0.040108 -0.022389 -0.087298 -0.107339
# 4 -0.156856 0.001184 -0.022389 -0.160781 -0.253656 -0.244672
# 5 -0.035539 -0.036566 -0.087298 -0.253656 -0.094431 -0.052967
# 6 0.018717 -0.044632 -0.107339 -0.244672 -0.052967 0.049673
#
#
# Mechanical properties :
#
#
# Convention : Reuss Voigt Hill
#
# Bulk Modulus (GPa) = -7.76856 68.03294 30.13219
# Shear Modulus (GPa) = 178.41805 27.95093 103.18449
#
# Velocity S-wave (km/s) = 8.95298 3.54361 6.80856
# Velocity P-wave (km/s) = 10.16781 6.87803 8.68020
#
# Compressibility (1/GPa) = -0.12872402
#
# Stress axis : x y z
#
# Youngs Moduli (GPa) = 57.50525 61.06377 24.93266
#
# Poissons Ratio (x) = 1.87263 1.86021
# Poissons Ratio (y) = 1.76350 -0.09916
# Poissons Ratio (z) = 4.29042 -0.24285
#
# Static dielectric constant tensor:
#      x y z
#    x 2.095220 -0.217380 -0.044620 
#    y -0.217380 1.979710 0.145200 
#    z -0.044620 0.145200 1.824960 
# 
# From -- ./inp_files/15337.got.cif
#   From: 2010.05.17/outbox.ucp.g08.bks.cvg/sg2_8_cif.got.tgz:15337.got - 2010.06.11 11:32:03.
