data_PCOD9072648
_publ_section_title
;
Structure prediction by ZEFSAII (Michael W. Deem and Ramdas Pophale) SiO2 
 PCOD9072648
Probable space group: P -1
;
_chemical_formula_sum "Si O2"
_cell_formula_units_Z 16
_cell_length_a 15.000000
_cell_length_b 12.000000
_cell_length_c 9.000000
_cell_angle_alpha 40.000000
_cell_angle_beta 70.000000
_cell_angle_gamma 50.000000
_cell_volume 759.581896
_symmetry_space_group_name_H-M "P -1"
_symmetry_group_IT_number 2
_symmetry_cell_setting 'triclinic'
loop_
_space_group_symop_operation_xyz
x,y,z
-x,-y,-z
loop_
_atom_site_type_symbol
_atom_site_label
_atom_site_fract_x
_atom_site_fract_y
_atom_site_fract_z
Si Si1 0.353402 0.482521 0.030585
Si Si2 0.143601 0.783338 0.642879
Si Si3 0.102475 0.473411 0.062110
Si Si4 0.590425 0.316555 0.951834
Si Si5 0.767657 0.258121 0.676425
Si Si6 0.837066 0.550122 0.455297
Si Si7 0.952342 0.764404 0.127792
Si Si8 0.697437 0.843851 0.523566
O O1 0.220803 0.708086 0.827343
O O2 0.389830 0.538164 0.103601
O O3 0.448029 0.437931 0.897797
O O4 0.365789 0.259013 0.268625
O O5 0.213822 0.791154 0.459062
O O6 0.155235 0.562481 0.837021
O O7 0.000000 0.000000 0.500000
O O8 0.200916 0.236126 0.325828
O O9 0.042687 0.646558 0.057327
O O10 0.000000 0.500000 0.000000
O O11 0.640244 0.089222 0.246381
O O12 0.655737 0.290954 0.787502
O O13 0.779943 0.447600 0.515519
O O14 0.884298 0.022862 0.916250
O O15 0.859571 0.711069 0.202825
O O16 0.757725 0.690914 0.499618
O O17 0.971595 0.349910 0.647893
#
# Coordination Sequence:
#
# PCOD9072648 Si02
#       8
#     2   2   2   2   2   2   2   2
#     4  10  24  44  61  92 122 155 213 249 300 363
#     4  11  24  40  61  89 127 161 193 253 307 365
#     4  10  21  37  56  86 126 162 198 242 306 369
#     4  11  23  40  69  88 117 166 203 257 299 353
#     4  12  22  36  61  89 120 161 200 244 307 358
#     4  10  20  34  53  88 122 150 201 253 294 353
#     4  10  20  34  53  84 121 161 197 245 298 354
#     4  10  20  38  63  87 118 157 206 255 296 355
#
# _framework density 21.064219999999999
#
# number of rings (size 3 to 8) (size 9 to 14) (size 15 to 20)
#    0.000    1.500    3.750    1.500    1.750    1.500 
#    0.000    0.000    0.000    0.750    0.000    0.000 
#    0.000    0.000    0.000    0.000    0.000    0.000 
#
# Total GULP energy -89088.182231 kJ/mol
# GULP energy per Si atom -5568.011389 kJ/mol
# Density = 2.101628 g / cm^3
# Si number density = 21.064220 Si / 1000 Ang^3
#
#
#
# Elastic Constant Matrix: (Units=GPa)
#
#
# Indices 1 2 3 4 5 6 
#
# 1 69.4052 13.9238 25.2442 4.8412 -12.7559 -12.8210
# 2 13.9238 59.2567 15.4866 17.0710 -8.1490 -18.7229
# 3 25.2442 15.4866 77.4092 4.8973 -12.1092 -11.6169
# 4 4.8412 17.0710 4.8973 35.6376 -7.0536 -15.0352
# 5 -12.7559 -8.1490 -12.1092 -7.0536 26.0466 0.7985
# 6 -12.8210 -18.7229 -11.6169 -15.0352 0.7985 27.8242
#
#
#
# Elastic Compliance Matrix: (Units=1/GPa)
#
#
# Indices 1 2 3 4 5 6 
#
# 1 0.018597 -0.000720 -0.003692 0.003286 0.007807 0.008095
# 2 -0.000720 0.023246 -0.001629 -0.004938 0.004463 0.011834
# 3 -0.003692 -0.001629 0.015909 0.002263 0.005540 0.004908
# 4 0.003286 -0.004938 0.002263 0.040727 0.011508 0.020814
# 5 0.007807 0.004463 0.005540 0.011508 0.048884 0.013729
# 6 0.008095 0.011834 0.004908 0.020814 0.013729 0.060535
#
#
# Mechanical properties :
#
#
# Convention : Reuss Voigt Hill
#
# Bulk Modulus (GPa) = 21.89755 35.04227 28.46991
# Shear Modulus (GPa) = 21.25823 27.99612 24.62717
#
# Velocity S-wave (km/s) = 3.18025 3.64962 3.42299
# Velocity P-wave (km/s) = 4.88912 5.86785 5.40070
#
# Compressibility (1/GPa) = 0.04566722
#
# Stress axis : x y z
#
# Youngs Moduli (GPa) = 53.77333 43.01808 62.85931
#
# Poissons Ratio (x) = 0.03098 0.23210
# Poissons Ratio (y) = 0.03873 0.10242
# Poissons Ratio (z) = 0.19855 0.07009
#
# Static dielectric constant tensor:
#      x y z
#    x 1.835160 -0.047030 -0.004580 
#    y -0.047030 1.804320 0.038880 
#    z -0.004580 0.038880 1.829320 
# 
# From -- ./inp_files/270562.got.cif
#   From: 2010.05.17/outbox.ucp.g08.bks.cvg/sg2_136_cif.got.tgz:270562.got - 2010.06.11 11:32:03.
