data_PCOD9072081
_publ_section_title
;
Structure prediction by ZEFSAII (Michael W. Deem and Ramdas Pophale) SiO2 
 PCOD9072081
Probable space group: P -1
;
_chemical_formula_sum "Si O2"
_cell_formula_units_Z 16
_cell_length_a 27.000000
_cell_length_b 9.000000
_cell_length_c 12.000000
_cell_angle_alpha 140.000000
_cell_angle_beta 30.000000
_cell_angle_gamma 150.000000
_cell_volume 727.497153
_symmetry_space_group_name_H-M "P -1"
_symmetry_group_IT_number 2
_symmetry_cell_setting 'triclinic'
loop_
_space_group_symop_operation_xyz
x,y,z
-x,-y,-z
loop_
_atom_site_type_symbol
_atom_site_label
_atom_site_fract_x
_atom_site_fract_y
_atom_site_fract_z
Si Si1 0.796722 0.872609 0.686792
Si Si2 0.730520 0.123400 0.757232
Si Si3 0.538019 0.310549 0.878683
Si Si4 0.442412 0.073640 0.557284
Si Si5 0.111135 0.281298 0.781708
Si Si6 0.294778 0.306072 0.608040
Si Si7 0.842853 0.142391 0.974271
Si Si8 0.850389 0.783894 0.947474
O O1 0.671677 0.585006 0.825725
O O2 0.844300 0.740299 0.438474
O O3 0.768828 0.035218 0.744090
O O4 0.875779 0.087149 0.757465
O O5 0.805113 0.470881 0.811304
O O6 0.747575 0.991649 0.539925
O O7 0.578648 0.929340 0.954423
O O8 0.561989 0.122283 0.645949
O O9 0.500000 0.500000 0.000000
O O10 0.553569 0.428595 0.534542
O O11 0.500000 0.000000 0.500000
O O12 0.305458 0.985578 0.799002
O O13 0.219721 0.382689 0.719611
O O14 0.081832 0.507421 0.963463
O O15 0.980073 0.950424 0.862283
O O16 0.251202 0.270054 0.797936
O O17 0.866874 0.988984 0.933592
#
# Coordination Sequence:
#
# PCOD9072081 Si02
#       8
#     2   2   2   2   2   2   2   2
#     4  10  21  40  68  94 120 165 225 266 308 368
#     4  10  21  41  63  94 126 165 213 265 320 374
#     4  10  18  35  64  96 123 151 207 275 308 367
#     4  12  19  39  70  96 125 159 218 266 316 376
#     4  11  24  44  67  92 122 177 228 259 302 376
#     4  11  23  42  70  95 126 166 215 271 315 375
#     4  12  25  41  66  97 130 169 209 268 326 379
#     4  12  27  42  60  95 139 172 207 259 328 384
#
# _framework density 21.993213000000001
#
# number of rings (size 3 to 8) (size 9 to 14) (size 15 to 20)
#    0.000    1.000    3.750    5.250    0.000    5.000 
#    0.000    1.250    0.000    0.000    0.000    0.000 
#    0.000    0.000    0.000    0.000    0.000    0.000 
#
# Total GULP energy -89323.077905 kJ/mol
# GULP energy per Si atom -5582.692369 kJ/mol
# Density = 2.194316 g / cm^3
# Si number density = 21.993213 Si / 1000 Ang^3
#
#
#
# Elastic Constant Matrix: (Units=GPa)
#
#
# Indices 1 2 3 4 5 6 
#
# 1 25.7824 -3.4496 15.7884 23.5295 14.9284 0.8703
# 2 -3.4496 115.7980 11.6792 27.6248 7.2150 6.8333
# 3 15.7884 11.6792 -2.5883 27.3787 17.2063 12.2790
# 4 23.5295 27.6248 27.3787 45.0041 17.4800 -6.9309
# 5 14.9284 7.2150 17.2063 17.4800 27.7244 0.6619
# 6 0.8703 6.8333 12.2790 -6.9309 0.6619 8.8855
#
#
#
# Elastic Compliance Matrix: (Units=1/GPa)
#
#
# Indices 1 2 3 4 5 6 
#
# 1 0.129679 0.025182 -0.032354 -0.062844 -0.015838 -0.035197
# 2 0.025182 0.015430 -0.011885 -0.017713 0.001251 -0.011819
# 3 -0.032354 -0.011885 -0.007448 0.036089 0.001173 0.050664
# 4 -0.062844 -0.017713 0.036089 0.052663 -0.017446 0.012284
# 5 -0.015838 0.001251 0.001173 -0.017446 0.054990 -0.018736
# 6 -0.035197 -0.011819 0.050664 0.012284 -0.018736 0.066044
#
#
# Mechanical properties :
#
#
# Convention : Reuss Voigt Hill
#
# Bulk Modulus (GPa) = 10.04545 20.78091 15.41318
# Shear Modulus (GPa) = 13.06668 23.98774 18.52721
#
# Velocity S-wave (km/s) = 2.44011 3.30614 2.90557
# Velocity P-wave (km/s) = 3.53784 4.90340 4.27549
#
# Compressibility (1/GPa) = 0.09954753
#
# Stress axis : x y z
#
# Youngs Moduli (GPa) = 7.71135 64.81022 -134.26629
#
# Poissons Ratio (x) = -1.63206 -4.34405
# Poissons Ratio (y) = -0.19419 -1.59572
# Poissons Ratio (z) = 0.24949 0.77025
#
# Static dielectric constant tensor:
#      x y z
#    x 1.792930 -0.002650 -0.015950 
#    y -0.002650 1.797850 -0.091950 
#    z -0.015950 -0.091950 1.821680 
# 
# From -- ./inp_files/273654.got.cif
#   From: 2010.05.17/outbox.ucp.g08.bks.cvg/sg2_137_cif.got.tgz:273654.got - 2010.06.11 11:32:03.
