data_PCOD9072248
_publ_section_title
;
Structure prediction by ZEFSAII (Michael W. Deem and Ramdas Pophale) SiO2 
 PCOD9072248
Probable space group: P -1
;
_chemical_formula_sum "Si O2"
_cell_formula_units_Z 16
_cell_length_a 12.000000
_cell_length_b 15.000000
_cell_length_c 15.000000
_cell_angle_alpha 50.000000
_cell_angle_beta 30.000000
_cell_angle_gamma 40.000000
_cell_volume 865.974363
_symmetry_space_group_name_H-M "P -1"
_symmetry_group_IT_number 2
_symmetry_cell_setting 'triclinic'
loop_
_space_group_symop_operation_xyz
x,y,z
-x,-y,-z
loop_
_atom_site_type_symbol
_atom_site_label
_atom_site_fract_x
_atom_site_fract_y
_atom_site_fract_z
Si Si1 0.095687 0.927018 0.720902
Si Si2 0.919728 0.135712 0.024154
Si Si3 0.454983 0.784998 0.095158
Si Si4 0.073003 0.546580 0.327561
Si Si5 0.132548 0.120581 0.258673
Si Si6 0.383165 0.795519 0.337979
Si Si7 0.350041 0.213385 0.661052
Si Si8 0.520353 0.356689 0.014574
O O1 0.361969 0.898834 0.507980
O O2 0.988010 0.858956 0.770851
O O3 0.151061 0.872646 0.818864
O O4 0.851956 0.086796 0.786039
O O5 0.166571 0.154385 0.844906
O O6 0.689505 0.253512 0.045534
O O7 0.000000 0.000000 0.000000
O O8 0.481830 0.728332 0.214466
O O9 0.655476 0.837010 0.914479
O O10 0.503686 0.694079 0.032815
O O11 0.227132 0.440498 0.207229
O O12 0.000000 0.500000 0.500000
O O13 0.810651 0.671881 0.379118
O O14 0.301864 0.578242 0.169337
O O15 0.879282 0.198992 0.450075
O O16 0.283940 0.957211 0.284861
O O17 0.584985 0.742949 0.316584
#
# Coordination Sequence:
#
# PCOD9072248 Si02
#       8
#     2   2   2   2   2   2   2   2
#     4  10  19  33  53  84 116 148 176 214 275 331
#     4  11  20  34  52  85 117 139 171 230 278 324
#     4  11  19  33  54  84 117 142 172 226 277 327
#     4  10  22  44  60  72 103 152 193 230 267 315
#     4   9  18  31  52  79 118 152 174 206 271 340
#     4   9  18  32  51  82 113 148 179 213 267 334
#     4  10  21  36  58  80 108 147 188 223 265 329
#     4  10  23  38  57  84 107 142 193 221 272 334
#
# _framework density 18.476298
#
# number of rings (size 3 to 8) (size 9 to 14) (size 15 to 20)
#    0.000    2.000    1.250    4.500    0.000    1.500 
#    2.250    0.625    0.000    3.750    0.000    0.000 
#    0.000    0.000    0.000    0.000    0.000    0.000 
#
# Total GULP energy -89093.777915 kJ/mol
# GULP energy per Si atom -5568.361120 kJ/mol
# Density = 1.843424 g / cm^3
# Si number density = 18.476298 Si / 1000 Ang^3
#
#
#
# Elastic Constant Matrix: (Units=GPa)
#
#
# Indices 1 2 3 4 5 6 
#
# 1 119.5069 16.3936 36.8581 7.0538 35.4212 2.9124
# 2 16.3936 23.1639 16.6663 7.6958 7.1078 0.0636
# 3 36.8581 16.6663 82.5111 15.6911 25.8976 1.8771
# 4 7.0538 7.6958 15.6911 20.9117 -9.4394 10.3467
# 5 35.4212 7.1078 25.8976 -9.4394 44.0581 5.9698
# 6 2.9124 0.0636 1.8771 10.3467 5.9698 20.6685
#
#
#
# Elastic Compliance Matrix: (Units=1/GPa)
#
#
# Indices 1 2 3 4 5 6 
#
# 1 0.016105 0.005979 0.009203 -0.042714 -0.032208 0.027562
# 2 0.005979 0.079280 0.019436 -0.107429 -0.061339 0.068644
# 3 0.009203 0.019436 0.046487 -0.113054 -0.071804 0.071756
# 4 -0.042714 -0.107429 -0.113054 0.432715 0.247625 -0.271524
# 5 -0.032208 -0.061339 -0.071804 0.247625 0.175904 -0.163520
# 6 0.027562 0.068644 0.071756 -0.271524 -0.163520 0.220927
#
#
# Mechanical properties :
#
#
# Convention : Reuss Voigt Hill
#
# Bulk Modulus (GPa) = 4.73693 40.55755 22.64724
# Shear Modulus (GPa) = 5.14112 27.47859 16.30986
#
# Velocity S-wave (km/s) = 1.66991 3.86065 2.97433
# Velocity P-wave (km/s) = 2.50748 6.47083 4.90709
#
# Compressibility (1/GPa) = 0.21110716
#
# Stress axis : x y z
#
# Youngs Moduli (GPa) = 62.09314 12.61351 21.51153
#
# Poissons Ratio (x) = -0.07541 -0.19797
# Poissons Ratio (y) = -0.37124 -0.41810
# Poissons Ratio (z) = -0.57145 -0.24516
#
# Static dielectric constant tensor:
#      x y z
#    x 1.665330 -0.010910 0.004210 
#    y -0.010910 1.723560 0.018330 
#    z 0.004210 0.018330 1.623500 
# 
# From -- ./inp_files/455969.got.cif
#   From: 2010.05.17/outbox.ucp.g08.bks.cvg/sg2_228_cif.got.tgz:455969.got - 2010.06.11 11:32:03.
