data_PCOD9072156
_publ_section_title
;
Structure prediction by ZEFSAII (Michael W. Deem and Ramdas Pophale) SiO2 
 PCOD9072156
Probable space group: P -1
;
_chemical_formula_sum "Si O2"
_cell_formula_units_Z 10
_cell_length_a 14.455426
_cell_length_b 9.179073
_cell_length_c 10.542846
_cell_angle_alpha 106.934338
_cell_angle_beta 121.051009
_cell_angle_gamma 22.995393
_cell_volume 391.502972
_symmetry_space_group_name_H-M "P -1"
_symmetry_group_IT_number 2
_symmetry_cell_setting 'triclinic'
loop_
_space_group_symop_operation_xyz
x,y,z
-x,-y,-z
loop_
_atom_site_type_symbol
_atom_site_label
_atom_site_fract_x
_atom_site_fract_y
_atom_site_fract_z
Si Si1 0.028908 0.078325 0.425740
Si Si2 0.074981 0.421360 0.886397
Si Si3 0.482105 0.735419 0.687888
Si Si4 0.209700 0.312024 0.475647
Si Si5 0.192273 0.600097 0.922022
O O1 0.782839 0.539993 0.405937
O O2 0.978922 0.101722 0.248464
O O3 0.362599 0.722860 0.586172
O O4 0.000000 0.000000 0.500000
O O5 0.036625 0.643991 0.860045
O O6 0.840664 0.619867 0.693300
O O7 0.000000 0.500000 0.000000
O O8 0.447847 0.894636 0.999788
O O9 0.476214 0.836570 0.579572
O O10 0.161034 0.246061 0.645589
O O11 0.738486 0.415910 0.895664
#
# Coordination Sequence:
#
# PCOD9072156 Si02
#       5
#     2   2   2   2   2
#     4  10  18  30  52  77 105 140 169 207 254 305
#     4  10  18  31  56  81 102 131 171 218 259 296
#     4   8  15  30  51  72 102 128 169 218 245 295
#     4   8  14  30  46  72 106 120 169 221 232 303
#     4  10  18  33  54  75 107 134 166 215 258 297
#
# _framework density 25.542591000000002
#
# number of rings (size 3 to 8) (size 9 to 14) (size 15 to 20)
#    1.200    1.600    2.000    2.400    0.000    0.800 
#    0.000    4.000    0.000    2.400    0.000    0.000 
#    0.000    0.000    0.000    0.000    0.000    0.000 
#
# Total GULP energy -55723.370243 kJ/mol
# GULP energy per Si atom -5572.337024 kJ/mol
# Density = 2.548445 g / cm^3
# Si number density = 25.542591 Si / 1000 Ang^3
#
#
#
# Elastic Constant Matrix: (Units=GPa)
#
#
# Indices 1 2 3 4 5 6 
#
# 1 151.3066 17.0047 66.9953 0.6296 -19.7676 8.9430
# 2 17.0047 49.3893 30.6549 -21.6261 -2.4661 -2.6643
# 3 66.9953 30.6549 251.4448 15.5900 -15.4257 24.0496
# 4 0.6296 -21.6261 15.5900 47.9647 4.4540 -18.2015
# 5 -19.7676 -2.4661 -15.4257 4.4540 31.9710 0.0629
# 6 8.9430 -2.6643 24.0496 -18.2015 0.0629 29.1828
#
#
#
# Elastic Compliance Matrix: (Units=1/GPa)
#
#
# Indices 1 2 3 4 5 6 
#
# 1 0.008378 -0.004460 -0.000599 -0.004391 0.005169 -0.005231
# 2 -0.004460 0.052088 -0.013127 0.046281 -0.011611 0.045831
# 3 -0.000599 -0.013127 0.008826 -0.016258 0.005177 -0.018440
# 4 -0.004391 0.046281 -0.016258 0.073204 -0.017315 0.064665
# 5 0.005169 -0.011611 0.005177 -0.017315 0.038524 -0.017793
# 6 -0.005231 0.045831 -0.018440 0.064665 -0.017793 0.095621
#
#
# Mechanical properties :
#
#
# Convention : Reuss Voigt Hill
#
# Bulk Modulus (GPa) = 30.37594 75.71673 53.04634
# Shear Modulus (GPa) = 15.43264 44.32277 29.87771
#
# Velocity S-wave (km/s) = 2.46070 4.17015 3.42383
# Velocity P-wave (km/s) = 4.47118 7.27287 6.03681
#
# Compressibility (1/GPa) = 0.03292079
#
# Stress axis : x y z
#
# Youngs Moduli (GPa) = 119.35591 19.19812 113.29643
#
# Poissons Ratio (x) = 0.08562 0.06785
# Poissons Ratio (y) = 0.53231 1.48730
# Poissons Ratio (z) = 0.07148 0.25202
#
# Static dielectric constant tensor:
#      x y z
#    x 2.243420 -0.097810 -0.147760 
#    y -0.097810 2.228310 0.054930 
#    z -0.147760 0.054930 2.126660 
# 
# From -- ./inp_files/236030.got.cif
#   From: 2010.05.17/outbox.cif.g08.bks.cpg/sg2_119_cif.got.tgz:236030.got - 2010.06.03 11:33:40.
