data_PCOD9072845
_publ_section_title
;
Structure prediction by ZEFSAII (Michael W. Deem and Ramdas Pophale) SiO2 
 PCOD9072845
Probable space group: P -1
;
_chemical_formula_sum "Si O2"
_cell_formula_units_Z 16
_cell_length_a 12.000000
_cell_length_b 9.000000
_cell_length_c 18.000000
_cell_angle_alpha 100.000000
_cell_angle_beta 40.000000
_cell_angle_gamma 130.000000
_cell_volume 729.599496
_symmetry_space_group_name_H-M "P -1"
_symmetry_group_IT_number 2
_symmetry_cell_setting 'triclinic'
loop_
_space_group_symop_operation_xyz
x,y,z
-x,-y,-z
loop_
_atom_site_type_symbol
_atom_site_label
_atom_site_fract_x
_atom_site_fract_y
_atom_site_fract_z
Si Si1 0.176036 0.221474 0.276996
Si Si2 0.657466 0.770194 0.276735
Si Si3 0.410458 0.262798 0.533300
Si Si4 0.669773 0.710389 0.996991
Si Si5 0.602615 0.023029 0.032271
Si Si6 0.284002 0.548135 0.755787
Si Si7 0.150519 0.448921 0.410502
Si Si8 0.287658 0.020289 0.305013
O O1 0.513846 0.503038 0.121934
O O2 0.068355 0.310947 0.364126
O O3 0.183912 0.094719 0.320871
O O4 0.942832 0.001296 0.316361
O O5 0.504304 0.725712 0.426407
O O6 0.656945 0.587852 0.268815
O O7 0.487194 0.697905 0.283784
O O8 0.989791 0.056721 0.137998
O O9 0.500000 0.500000 0.500000
O O10 0.564631 0.299259 0.386386
O O11 0.596657 0.837107 0.032462
O O12 0.500000 0.500000 0.000000
O O13 0.394480 0.965206 0.190269
O O14 0.500000 0.000000 0.000000
O O15 0.934918 0.312089 0.903208
O O16 0.448027 0.755496 0.754228
O O17 0.000000 0.500000 0.500000
O O18 0.998553 0.233925 0.528538
#
# Coordination Sequence:
#
# PCOD9072845 Si02
#       8
#     2   2   2   2   2   2   2   2
#     4  12  23  43  71  99 128 180 221 270 334 398
#     4  10  22  42  69  96 131 178 220 271 335 393
#     4  10  20  37  70  98 127 166 226 272 321 396
#     4  11  23  45  67  98 136 174 224 269 328 403
#     4  11  26  42  66 101 135 174 219 280 334 387
#     4  10  21  42  66  99 130 172 227 268 331 402
#     4  12  26  45  66 102 136 169 221 282 335 392
#     4  12  23  44  69  94 135 174 223 274 333 401
#
# _framework density 21.929839999999999
#
# number of rings (size 3 to 8) (size 9 to 14) (size 15 to 20)
#    0.000    1.000    3.750    3.750    5.250    0.500 
#    6.750    0.625    0.000    0.000    0.000    0.000 
#    0.000    0.000    0.000    0.000    0.000    0.000 
#
# Total GULP energy -89174.017026 kJ/mol
# GULP energy per Si atom -5573.376064 kJ/mol
# Density = 2.187993 g / cm^3
# Si number density = 21.929840 Si / 1000 Ang^3
#
#
#
# Elastic Constant Matrix: (Units=GPa)
#
#
# Indices 1 2 3 4 5 6 
#
# 1 29.6572 12.3540 -30.5700 -14.0143 -18.4674 8.6278
# 2 12.3540 120.8233 17.1994 -18.3359 -10.5312 19.6702
# 3 -30.5700 17.1994 28.8568 -27.8594 -14.9933 4.2127
# 4 -14.0143 -18.3359 -27.8594 39.5723 -1.1318 0.8947
# 5 -18.4674 -10.5312 -14.9933 -1.1318 28.7289 -7.2836
# 6 8.6278 19.6702 4.2127 0.8947 -7.2836 39.6168
#
#
#
# Elastic Compliance Matrix: (Units=1/GPa)
#
#
# Indices 1 2 3 4 5 6 
#
# 1 -0.000188 -0.000434 -0.019657 -0.014435 -0.010940 0.000662
# 2 -0.000434 0.009954 -0.000750 0.004089 0.002000 -0.004493
# 3 -0.019657 -0.000750 -0.004518 -0.010979 -0.015037 0.002617
# 4 -0.014435 0.004089 -0.010979 0.013960 -0.013070 -0.000438
# 5 -0.010940 0.002000 -0.015037 -0.013070 0.022004 0.007329
# 6 0.000662 -0.004493 0.002617 -0.000438 0.007329 0.028407
#
#
# Mechanical properties :
#
#
# Convention : Reuss Voigt Hill
#
# Bulk Modulus (GPa) = -27.44662 19.70046 -3.87308
# Shear Modulus (GPa) = 50.42468 33.60720 42.01594
#
# Velocity S-wave (km/s) = 4.80037 3.91895 4.38188
# Velocity P-wave (km/s) = 4.26403 5.42959 4.88172
#
# Compressibility (1/GPa) = -0.03643435
#
# Stress axis : x y z
#
# Youngs Moduli (GPa) = -5310.20826 100.46179 -221.36086
#
# Poissons Ratio (x) = 0.04364 -4.35131
# Poissons Ratio (y) = -2.30653 -0.16598
# Poissons Ratio (z) = -104.38328 0.07533
#
# Static dielectric constant tensor:
#      x y z
#    x 1.681730 0.054600 -0.057150 
#    y 0.054600 1.841870 0.100650 
#    z -0.057150 0.100650 1.743360 
# 
# From -- ./inp_files/206922.got.cif
#   From: 2010.05.17/outbox.ucp.g08.bks.cvg/sg2_104_cif.got.tgz:206922.got - 2010.06.11 11:32:03.
