data_PCOD9072609
_publ_section_title
;
Structure prediction by ZEFSAII (Michael W. Deem and Ramdas Pophale) SiO2 
 PCOD9072609
Probable space group: P -1
;
_chemical_formula_sum "Si O2"
_cell_formula_units_Z 16
_cell_length_a 9.000000
_cell_length_b 12.000000
_cell_length_c 15.000000
_cell_angle_alpha 30.000000
_cell_angle_beta 70.000000
_cell_angle_gamma 80.000000
_cell_volume 734.803614
_symmetry_space_group_name_H-M "P -1"
_symmetry_group_IT_number 2
_symmetry_cell_setting 'triclinic'
loop_
_space_group_symop_operation_xyz
x,y,z
-x,-y,-z
loop_
_atom_site_type_symbol
_atom_site_label
_atom_site_fract_x
_atom_site_fract_y
_atom_site_fract_z
Si Si1 0.634180 0.650178 0.122170
Si Si2 0.771217 0.399106 0.964140
Si Si3 0.333343 0.369831 0.670582
Si Si4 0.633860 0.236677 0.297519
Si Si5 0.668083 0.162643 0.965906
Si Si6 0.860673 0.925661 0.509069
Si Si7 0.998339 0.211066 0.786096
Si Si8 0.014038 0.088614 0.177274
O O1 0.684095 0.577866 0.258614
O O2 0.570393 0.420873 0.238316
O O3 0.494565 0.780773 0.074982
O O4 0.792109 0.796510 0.935156
O O5 0.675268 0.338382 0.119420
O O6 0.931391 0.298360 0.021882
O O7 0.685463 0.238722 0.012120
O O8 0.784022 0.658921 0.743499
O O9 0.500000 0.500000 0.500000
O O10 0.169793 0.396516 0.637546
O O11 0.339585 0.104690 0.850812
O O12 0.500000 0.000000 0.500000
O O13 0.780539 0.145727 0.372638
O O14 0.834272 0.284206 0.793644
O O15 0.000000 0.000000 0.500000
O O16 0.929338 0.950371 0.376904
O O17 0.000187 0.094742 0.771518
O O18 0.000000 0.000000 0.000000
#
# Coordination Sequence:
#
# PCOD9072609 Si02
#       8
#     2   2   2   2   2   2   2   2
#     4  12  24  43  66 101 140 180 231 297 344 410
#     4  11  23  46  71  97 138 188 231 292 350 420
#     4  11  24  42  69 101 138 179 231 291 351 415
#     4  11  27  45  69  99 140 186 235 291 357 414
#     4  11  23  43  70  96 141 183 230 279 353 422
#     4  11  25  44  69 105 134 179 245 288 349 419
#     4  10  19  43  69  96 135 190 223 278 354 420
#     4  11  22  44  72  97 142 183 230 290 357 417
#
# _framework density 21.774525000000001
#
# number of rings (size 3 to 8) (size 9 to 14) (size 15 to 20)
#    0.000    1.000    5.000    2.625    1.750    6.000 
#    4.500    1.250    0.000    0.000    0.000    0.000 
#    0.000    0.000    0.000    0.000    0.000    0.000 
#
# Total GULP energy -89215.049918 kJ/mol
# GULP energy per Si atom -5575.940620 kJ/mol
# Density = 2.172497 g / cm^3
# Si number density = 21.774525 Si / 1000 Ang^3
#
#
#
# Elastic Constant Matrix: (Units=GPa)
#
#
# Indices 1 2 3 4 5 6 
#
# 1 -30.0016 -116.2422 6.8975 -77.4429 11.1157 9.6547
# 2 -116.2422 -50.7737 1.2731 -93.6950 23.2626 26.1493
# 3 6.8975 1.2731 107.6177 1.7991 1.7441 5.0996
# 4 -77.4429 -93.6950 1.7991 -45.8048 20.0626 12.3949
# 5 11.1157 23.2626 1.7441 20.0626 29.4359 1.4554
# 6 9.6547 26.1493 5.0996 12.3949 1.4554 27.2692
#
#
#
# Elastic Compliance Matrix: (Units=1/GPa)
#
#
# Indices 1 2 3 4 5 6 
#
# 1 0.012974 -0.003210 -0.000864 -0.011922 0.005627 0.003764
# 2 -0.003210 0.008368 0.000351 -0.011201 0.002311 -0.001985
# 3 -0.000864 0.000351 0.009439 0.000320 -0.000634 -0.001907
# 4 -0.011922 -0.011201 0.000320 0.021834 -0.001798 0.005073
# 5 0.005627 0.002311 -0.000634 -0.001798 0.031529 -0.004956
# 6 0.003764 -0.001985 -0.001907 0.005073 -0.004956 0.035558
#
#
# Mechanical properties :
#
#
# Convention : Reuss Voigt Hill
#
# Bulk Modulus (GPa) = 42.85385 -21.03343 10.91021
# Shear Modulus (GPa) = 37.05757 11.17432 24.11594
#
# Velocity S-wave (km/s) = 4.12986 2.26781 3.33157
# Velocity P-wave (km/s) = 6.51647 1.68027 4.45203
#
# Compressibility (1/GPa) = 0.02333513
#
# Stress axis : x y z
#
# Youngs Moduli (GPa) = 77.07451 119.50837 105.94717
#
# Poissons Ratio (x) = 0.38357 0.09152
# Poissons Ratio (y) = 0.24737 -0.03714
# Poissons Ratio (z) = 0.06658 -0.04190
#
# Static dielectric constant tensor:
#      x y z
#    x 1.923930 -0.009040 -0.163220 
#    y -0.009040 1.784910 0.030510 
#    z -0.163220 0.030510 1.822170 
# 
# From -- ./inp_files/499663.got.cif
#   From: 2010.05.17/outbox.ucp.g08.bks.cvg/sg2_250_cif.got.tgz:499663.got - 2010.06.11 11:32:03.
