data_PCOD9072045
_publ_section_title
;
Structure prediction by ZEFSAII (Michael W. Deem and Ramdas Pophale) SiO2 
 PCOD9072045
Probable space group: P -1
;
_chemical_formula_sum "Si O2"
_cell_formula_units_Z 14
_cell_length_a 9.000000
_cell_length_b 12.000000
_cell_length_c 9.000000
_cell_angle_alpha 60.000000
_cell_angle_beta 100.000000
_cell_angle_gamma 70.000000
_cell_volume 716.567311
_symmetry_space_group_name_H-M "P -1"
_symmetry_group_IT_number 2
_symmetry_cell_setting 'triclinic'
loop_
_space_group_symop_operation_xyz
x,y,z
-x,-y,-z
loop_
_atom_site_type_symbol
_atom_site_label
_atom_site_fract_x
_atom_site_fract_y
_atom_site_fract_z
Si Si1 0.939511 0.406993 0.863537
Si Si2 0.141790 0.826247 0.157554
Si Si3 0.022904 0.153915 0.590823
Si Si4 0.680546 0.177057 0.091935
Si Si5 0.171819 0.363740 0.546022
Si Si6 0.683291 0.658499 0.112140
Si Si7 0.204251 0.633079 0.837865
O O1 0.912829 0.283521 0.856435
O O2 0.821280 0.565727 0.655959
O O3 0.141037 0.354519 0.910797
O O4 0.886180 0.412371 0.019850
O O5 0.134661 0.803002 0.347666
O O6 0.297948 0.805127 0.092804
O O7 0.000000 0.000000 0.000000
O O8 0.133634 0.230074 0.612482
O O9 0.940644 0.228383 0.371981
O O10 0.155869 0.978803 0.728007
O O11 0.686180 0.307549 0.096030
O O12 0.490996 0.200615 0.070872
O O13 0.314017 0.331441 0.715942
O O14 0.000000 0.500000 0.500000
O O15 0.697293 0.504392 0.165256
#
# Coordination Sequence:
#
# PCOD9072045 Si02
#       7
#     2   2   2   2   2   2   2
#     4  10  19  36  60  84 104 149 197 219 266 340
#     4   9  18  36  56  79 109 146 186 221 271 336
#     4  11  19  38  61  80 111 149 193 222 268 343
#     4  10  24  36  55  88 116 144 179 237 288 314
#     4  10  18  34  61  83 104 144 194 228 268 323
#     4  11  20  37  58  86 114 141 185 239 279 315
#     4  11  21  37  62  79 113 154 189 218 273 344
#
# _framework density 19.537592
#
# number of rings (size 3 to 8) (size 9 to 14) (size 15 to 20)
#    0.000    1.714    5.714    1.286    0.000    0.571 
#    0.000    8.571    0.000    0.000    0.000    0.000 
#    0.000    0.000    0.000    0.000    0.000    0.000 
#
# Total GULP energy -77937.952633 kJ/mol
# GULP energy per Si atom -5566.996617 kJ/mol
# Density = 1.949312 g / cm^3
# Si number density = 19.537592 Si / 1000 Ang^3
#
#
#
# Elastic Constant Matrix: (Units=GPa)
#
#
# Indices 1 2 3 4 5 6 
#
# 1 36.6352 18.9839 30.2687 2.8418 12.7555 1.9071
# 2 18.9839 1.5334 -14.2836 4.9323 1.8698 14.0396
# 3 30.2687 -14.2836 87.4842 24.6308 -13.2055 -9.5649
# 4 2.8418 4.9323 24.6308 24.5031 -2.2677 -8.9143
# 5 12.7555 1.8698 -13.2055 -2.2677 26.2185 -11.5420
# 6 1.9071 14.0396 -9.5649 -8.9143 -11.5420 -1.5285
#
#
#
# Elastic Compliance Matrix: (Units=1/GPa)
#
#
# Indices 1 2 3 4 5 6 
#
# 1 -0.009406 0.027871 0.016782 -0.009470 0.022163 0.027124
# 2 0.027871 -0.015676 -0.019721 0.021775 -0.016222 0.009699
# 3 0.016782 -0.019721 -0.000171 -0.005311 -0.014736 -0.016884
# 4 -0.009470 0.021775 -0.005311 0.039624 -0.000104 -0.008883
# 5 0.022163 -0.016222 -0.014736 -0.000104 0.001972 -0.043415
# 6 0.027124 0.009699 -0.016884 -0.008883 -0.043415 -0.046010
#
#
# Mechanical properties :
#
#
# Convention : Reuss Voigt Hill
#
# Bulk Modulus (GPa) = 40.63160 21.73232 31.18196
# Shear Modulus (GPa) = -70.09812 15.88421 -27.10695
#
# Velocity S-wave (km/s) = -5.99637 2.85442 -3.72886
# Velocity P-wave (km/s) = 5.20578 4.69160 1.59516
#
# Compressibility (1/GPa) = 0.02461139
#
# Stress axis : x y z
#
# Youngs Moduli (GPa) = -106.31247 -63.79169 -5851.57006
#
# Poissons Ratio (x) = 1.77796 98.20289
# Poissons Ratio (y) = 2.96307 -115.40095
# Poissons Ratio (z) = 1.78417 -1.25806
#
# Static dielectric constant tensor:
#      x y z
#    x 1.727600 0.011450 -0.002040 
#    y 0.011450 1.683580 0.031520 
#    z -0.002040 0.031520 1.731140 
# 
# From -- ./inp_files/167961.got.cif
#   From: 2010.05.17/outbox.ucp.g08.bks.cvg/sg2_84_cif.got.tgz:167961.got - 2010.06.11 11:32:03.
