data_PCOD9072792
_publ_section_title
;
Structure prediction by ZEFSAII (Michael W. Deem and Ramdas Pophale) SiO2 
 PCOD9072792
Probable space group: P -1
;
_chemical_formula_sum "Si O2"
_cell_formula_units_Z 16
_cell_length_a 27.692486
_cell_length_b 11.827357
_cell_length_c 9.796056
_cell_angle_alpha 144.787301
_cell_angle_beta 143.244274
_cell_angle_gamma 22.604645
_cell_volume 694.975387
_symmetry_space_group_name_H-M "P -1"
_symmetry_group_IT_number 2
_symmetry_cell_setting 'triclinic'
loop_
_space_group_symop_operation_xyz
x,y,z
-x,-y,-z
loop_
_atom_site_type_symbol
_atom_site_label
_atom_site_fract_x
_atom_site_fract_y
_atom_site_fract_z
Si Si1 0.143928 0.785001 0.578405
Si Si2 0.524559 0.256184 0.722521
Si Si3 0.933025 0.914440 0.675053
Si Si4 0.115632 0.140279 0.064693
Si Si5 0.725388 0.783316 0.494475
Si Si6 0.684269 0.671095 0.710152
Si Si7 0.183176 0.663905 0.938449
Si Si8 0.116830 0.410810 0.840972
O O1 0.229622 0.478118 0.562896
O O2 0.194744 0.655231 0.415773
O O3 0.000000 0.000000 0.500000
O O4 0.151660 0.993728 0.852780
O O5 0.405819 0.347887 0.488244
O O6 0.613158 0.109868 0.642905
O O7 0.599826 0.967954 0.710768
O O8 0.500000 0.500000 0.000000
O O9 0.869930 0.846261 0.397401
O O10 0.042018 0.831085 0.760248
O O11 0.022004 0.661170 0.752029
O O12 0.826392 0.245824 0.838410
O O13 0.162861 0.268700 0.321841
O O14 0.965699 0.404834 0.025123
O O15 0.187897 0.852620 0.046077
O O16 0.713996 0.688807 0.230994
O O17 0.752764 0.713870 0.995139
#
# Coordination Sequence:
#
# PCOD9072792 Si02
#       8
#     2   2   2   2   2   2   2   2
#     4  10  19  32  50  85 117 141 172 231 289 349
#     4  10  22  42  58  80 110 156 199 235 269 326
#     4   9  18  33  54  87 124 141 181 226 295 352
#     4  10  18  31  50  83 118 142 178 221 286 345
#     4  10  20  34  57  80 110 151 189 229 284 341
#     4  10  21  39  59  81 116 150 193 231 279 338
#     4   9  18  33  53  83 111 152 175 227 281 343
#     4  10  18  33  57  85 115 151 176 231 288 344
#
# _framework density 23.022399
#
# number of rings (size 3 to 8) (size 9 to 14) (size 15 to 20)
#    0.000    2.250    2.500    0.750    0.000    1.500 
#    9.000    0.000    0.000    1.500    0.000    0.000 
#    0.000    0.000    0.000    0.000    0.000    0.000 
#
# Total GULP energy -89164.699651 kJ/mol
# GULP energy per Si atom -5572.793728 kJ/mol
# Density = 2.297000 g / cm^3
# Si number density = 23.022399 Si / 1000 Ang^3
#
#
#
# Elastic Constant Matrix: (Units=GPa)
#
#
# Indices 1 2 3 4 5 6 
#
# 1 45.0133 10.7307 22.2268 8.6503 3.4644 -12.3261
# 2 10.7307 69.2439 41.6443 7.9976 0.0164 -17.5904
# 3 22.2268 41.6443 173.9004 20.5086 11.0721 -14.7653
# 4 8.6503 7.9976 20.5086 48.0477 -8.4402 -2.6364
# 5 3.4644 0.0164 11.0721 -8.4402 28.4992 8.7412
# 6 -12.3261 -17.5904 -14.7653 -2.6364 8.7412 30.0931
#
#
#
# Elastic Compliance Matrix: (Units=1/GPa)
#
#
# Indices 1 2 3 4 5 6 
#
# 1 0.028043 0.000429 -0.001424 -0.005276 -0.008412 0.013020
# 2 0.000429 0.019252 -0.003445 -0.001664 -0.002371 0.010282
# 3 -0.001424 -0.003445 0.007569 -0.003043 -0.004312 0.002103
# 4 -0.005276 -0.001664 -0.003043 0.024951 0.010937 -0.005618
# 5 -0.008412 -0.002371 -0.004312 0.010937 0.047056 -0.019657
# 6 0.013020 0.010282 0.002103 -0.005618 -0.019657 0.050823
#
#
# Mechanical properties :
#
#
# Convention : Reuss Voigt Hill
#
# Bulk Modulus (GPa) = 21.74622 48.59569 35.17096
# Shear Modulus (GPa) = 24.76456 35.56505 30.16480
#
# Velocity S-wave (km/s) = 3.28330 3.93466 3.62365
# Velocity P-wave (km/s) = 4.88258 6.46498 5.72868
#
# Compressibility (1/GPa) = 0.04598501
#
# Stress axis : x y z
#
# Youngs Moduli (GPa) = 35.65969 51.94360 132.11153
#
# Poissons Ratio (x) = -0.02230 0.18811
# Poissons Ratio (y) = -0.01531 0.45512
# Poissons Ratio (z) = 0.05077 0.17894
#
# Static dielectric constant tensor:
#      x y z
#    x 1.959920 0.030640 -0.088090 
#    y 0.030640 1.897260 0.002740 
#    z -0.088090 0.002740 1.932550 
# 
# From -- ./inp_files/477694.got.cif
#   From: 2010.05.17/outbox.cif.g08.bks.cpg/sg2_239_cif.got.tgz:477694.got - 2010.06.03 11:33:40.
