data_PCOD9072946
_publ_section_title
;
Structure prediction by ZEFSAII (Michael W. Deem and Ramdas Pophale) SiO2 
 PCOD9072946
Probable space group: P -1
;
_chemical_formula_sum "Si O2"
_cell_formula_units_Z 14
_cell_length_a 21.000000
_cell_length_b 6.000000
_cell_length_c 21.000000
_cell_angle_alpha 130.000000
_cell_angle_beta 20.000000
_cell_angle_gamma 120.000000
_cell_volume 636.277128
_symmetry_space_group_name_H-M "P -1"
_symmetry_group_IT_number 2
_symmetry_cell_setting 'triclinic'
loop_
_space_group_symop_operation_xyz
x,y,z
-x,-y,-z
loop_
_atom_site_type_symbol
_atom_site_label
_atom_site_fract_x
_atom_site_fract_y
_atom_site_fract_z
Si Si1 0.147097 0.640009 0.312608
Si Si2 0.460812 0.340900 0.857433
Si Si3 0.714669 0.621311 0.457322
Si Si4 0.357848 0.390057 0.753238
Si Si5 0.845427 0.326279 0.539883
Si Si6 0.902918 0.392200 0.852301
Si Si7 0.384687 0.269059 0.567181
O O1 0.202472 0.577429 0.323532
O O2 0.012446 0.449299 0.383952
O O3 0.347591 0.503885 0.057697
O O4 0.000000 0.000000 0.500000
O O5 0.654960 0.435557 0.691096
O O6 0.571162 0.960587 0.684358
O O7 0.286630 0.449268 0.987528
O O8 0.568233 0.435624 0.559864
O O9 0.744982 0.687995 0.366621
O O10 0.930867 0.462126 0.260005
O O11 0.283721 0.330709 0.743017
O O12 0.429393 0.070639 0.668094
O O13 0.190680 0.651120 0.000094
O O14 0.956430 0.948720 0.368898
O O15 0.500000 0.500000 0.500000
#
# Coordination Sequence:
#
# PCOD9072946 Si02
#       7
#     2   2   2   2   2   2   2
#     4  11  22  42  63  88 119 157 201 240 295 357
#     4  11  22  41  62  87 124 156 192 252 294 343
#     4  10  22  40  61  88 121 154 200 246 291 352
#     4  10  20  39  63  86 121 158 194 248 295 343
#     4  10  24  42  61  89 120 154 200 244 294 353
#     4  11  22  40  62  91 117 157 202 237 299 357
#     4   9  19  39  62  87 121 156 198 244 292 349
#
# _framework density 22.002991000000002
#
# number of rings (size 3 to 8) (size 9 to 14) (size 15 to 20)
#    0.000    1.714    2.857    1.286    0.000    2.286 
#    5.143    6.429    0.000    0.000    0.000    0.000 
#    0.000    0.000    0.000    0.000    0.000    0.000 
#
# Total GULP energy -77990.005681 kJ/mol
# GULP energy per Si atom -5570.714692 kJ/mol
# Density = 2.195291 g / cm^3
# Si number density = 22.002991 Si / 1000 Ang^3
#
#
#
# Elastic Constant Matrix: (Units=GPa)
#
#
# Indices 1 2 3 4 5 6 
#
# 1 29.6183 -0.2174 47.9641 11.9814 -17.0146 13.8912
# 2 -0.2174 46.7139 1.4394 -0.0460 -16.8082 13.9037
# 3 47.9641 1.4394 79.1355 -13.7624 -17.4086 13.3517
# 4 11.9814 -0.0460 -13.7624 10.1017 -0.6119 -1.3858
# 5 -17.0146 -16.8082 -17.4086 -0.6119 43.1144 0.9256
# 6 13.8912 13.9037 13.3517 -1.3858 0.9256 17.7995
#
#
#
# Elastic Compliance Matrix: (Units=1/GPa)
#
#
# Indices 1 2 3 4 5 6 
#
# 1 -0.018394 -0.002630 0.018325 0.047627 -0.000346 0.006390
# 2 -0.002630 0.042332 0.017232 0.022263 0.023672 -0.043438
# 3 0.018325 0.017232 0.009105 -0.013164 0.018224 -0.036564
# 4 0.047627 0.022263 -0.013164 0.020005 0.023395 -0.044344
# 5 -0.000346 0.023672 0.018224 0.023395 0.040667 -0.032184
# 6 0.006390 -0.043438 -0.036564 -0.044344 -0.032184 0.110774
#
#
# Mechanical properties :
#
#
# Convention : Reuss Voigt Hill
#
# Bulk Modulus (GPa) = 10.11157 28.20443 19.15800
# Shear Modulus (GPa) = 29.13768 21.28855 25.21312
#
# Velocity S-wave (km/s) = 3.64299 3.11389 3.38878
# Velocity P-wave (km/s) = 4.72236 5.07688 4.90282
#
# Compressibility (1/GPa) = 0.09889658
#
# Stress axis : x y z
#
# Youngs Moduli (GPa) = -54.36425 23.62304 109.82867
#
# Poissons Ratio (x) = 0.06213 -2.01262
# Poissons Ratio (y) = -0.14297 -1.89256
# Poissons Ratio (z) = 0.99623 -0.40707
#
# Static dielectric constant tensor:
#      x y z
#    x 1.866110 -0.024830 0.076550 
#    y -0.024830 1.503540 0.250650 
#    z 0.076550 0.250650 1.613250 
# 
# From -- ./inp_files/7036.got.cif
#   From: 2010.05.17/outbox.ucp.g08.bks.cvg/sg2_4_cif.got.tgz:7036.got - 2010.06.11 11:32:03.
