data_PCOD9072455
_publ_section_title
;
Structure prediction by ZEFSAII (Michael W. Deem and Ramdas Pophale) SiO2 
 PCOD9072455
Probable space group: P -1
;
_chemical_formula_sum "Si O2"
_cell_formula_units_Z 16
_cell_length_a 8.165358
_cell_length_b 6.385469
_cell_length_c 12.765982
_cell_angle_alpha 96.791464
_cell_angle_beta 78.159876
_cell_angle_gamma 78.844702
_cell_volume 630.437453
_symmetry_space_group_name_H-M "P -1"
_symmetry_group_IT_number 2
_symmetry_cell_setting 'triclinic'
loop_
_space_group_symop_operation_xyz
x,y,z
-x,-y,-z
loop_
_atom_site_type_symbol
_atom_site_label
_atom_site_fract_x
_atom_site_fract_y
_atom_site_fract_z
Si Si1 0.793184 0.081734 0.032190
Si Si2 0.558179 0.043144 0.248114
Si Si3 0.096838 0.676699 0.454319
Si Si4 0.578472 0.434291 0.730687
Si Si5 0.782787 0.938817 0.799881
Si Si6 0.218967 0.510260 0.814075
Si Si7 0.859776 0.112420 0.326290
Si Si8 0.095823 0.583138 0.224055
O O1 0.688652 0.983793 0.128790
O O2 0.768593 0.334894 0.080441
O O3 0.723806 0.017826 0.927604
O O4 0.000000 0.000000 0.000000
O O5 0.495249 0.307770 0.252273
O O6 0.366292 0.997954 0.263475
O O7 0.687627 0.024172 0.329025
O O8 0.298291 0.619148 0.390042
O O9 0.090073 0.843770 0.559434
O O10 0.157412 0.322456 0.223399
O O11 0.000000 0.500000 0.500000
O O12 0.403357 0.350620 0.761939
O O13 0.712434 0.374990 0.806657
O O14 0.016766 0.697650 0.349506
O O15 0.963857 0.006109 0.761549
O O16 0.186128 0.661659 0.722297
O O17 0.054092 0.407301 0.838616
#
# Coordination Sequence:
#
# PCOD9072455 Si02
#       8
#     2   2   2   2   2   2   2   2
#     4  10  14  20  28  29  36  42  44  54  60  58
#     4   9  16  21  26  32  33  43  46  52  57  64
#     4  10  13  21  26  30  37  45  41  54  57  58
#     4   7  15  20  23  31  36  40  48  50  54  63
#     4  10  14  23  24  31  37  40  47  53  55  64
#     4   9  14  21  25  31  35  42  46  52  57  63
#     4   9  15  21  25  31  39  38  49  50  56  62
#     4   8  14  20  25  28  40  38  48  50  57  59
#
# _framework density 25.379203
#
# number of rings (size 3 to 8) (size 9 to 14) (size 15 to 20)
#    0.750    2.500    6.250    0.375    0.000    2.000 
#    2.250    0.000    0.000    0.000    0.000    0.000 
#    0.000    0.000    0.000    0.000    0.000    0.000 
#
# Total GULP energy -89073.600424 kJ/mol
# GULP energy per Si atom -5567.100026 kJ/mol
# Density = 2.532144 g / cm^3
# Si number density = 25.379203 Si / 1000 Ang^3
#
#
#
# Elastic Constant Matrix: (Units=GPa)
#
#
# Indices 1 2 3 4 5 6 
#
# 1 233.3488 16.4721 20.5240 11.7233 9.5799 -5.4183
# 2 16.4721 38.8927 4.5952 -11.2674 -2.8726 -9.1984
# 3 20.5240 4.5952 122.4332 7.7150 9.6791 0.9933
# 4 11.7233 -11.2674 7.7150 27.9481 6.8447 -6.6518
# 5 9.5799 -2.8726 9.6791 6.8447 41.6762 0.2055
# 6 -5.4183 -9.1984 0.9933 -6.6518 0.2055 56.0288
#
#
#
# Elastic Compliance Matrix: (Units=1/GPa)
#
#
# Indices 1 2 3 4 5 6 
#
# 1 0.004699 -0.002932 -0.000434 -0.002950 -0.000695 -0.000367
# 2 -0.002932 0.033901 -0.001964 0.017030 0.000633 0.007336
# 3 -0.000434 -0.001964 0.008622 -0.002806 -0.001573 -0.000844
# 4 -0.002950 0.017030 -0.002806 0.047953 -0.005413 0.008273
# 5 -0.000695 0.000633 -0.001573 -0.005413 0.025456 -0.000671
# 6 -0.000367 0.007336 -0.000844 0.008273 -0.000671 0.020017
#
#
# Mechanical properties :
#
#
# Convention : Reuss Voigt Hill
#
# Bulk Modulus (GPa) = 27.34958 53.09529 40.22244
# Shear Modulus (GPa) = 30.58237 48.66952 39.62594
#
# Velocity S-wave (km/s) = 3.47510 4.38390 3.95569
# Velocity P-wave (km/s) = 5.18667 6.82576 6.06187
#
# Compressibility (1/GPa) = 0.03656363
#
# Stress axis : x y z
#
# Youngs Moduli (GPa) = 212.82211 29.49775 115.98038
#
# Poissons Ratio (x) = 0.08648 0.05031
# Poissons Ratio (y) = 0.62391 0.22775
# Poissons Ratio (z) = 0.09233 0.05792
#
# Static dielectric constant tensor:
#      x y z
#    x 2.099690 0.126720 0.048360 
#    y 0.126720 2.402370 0.053350 
#    z 0.048360 0.053350 1.952200 
# 
# From -- ./inp_files/558050.got.cif
#   From: 2010.05.17/outbox.cif.g08.bks.cpg/sg2_280_cif.got.tgz:558050.got - 2010.06.03 11:33:40.
