data_PCOD9072751
_publ_section_title
;
Structure prediction by ZEFSAII (Michael W. Deem and Ramdas Pophale) SiO2 
 PCOD9072751
Probable space group: P -1
;
_chemical_formula_sum "Si O2"
_cell_formula_units_Z 14
_cell_length_a 19.733366
_cell_length_b 11.379015
_cell_length_c 10.781047
_cell_angle_alpha 122.474708
_cell_angle_beta 19.602356
_cell_angle_gamma 132.322375
_cell_volume 552.312381
_symmetry_space_group_name_H-M "P -1"
_symmetry_group_IT_number 2
_symmetry_cell_setting 'triclinic'
loop_
_space_group_symop_operation_xyz
x,y,z
-x,-y,-z
loop_
_atom_site_type_symbol
_atom_site_label
_atom_site_fract_x
_atom_site_fract_y
_atom_site_fract_z
Si Si1 0.453142 0.123293 0.577582
Si Si2 0.669890 0.491935 0.452344
Si Si3 0.868364 0.623660 0.723139
Si Si4 0.490023 0.683994 0.950915
Si Si5 0.377185 0.137340 0.444248
Si Si6 0.995206 0.749303 0.833775
Si Si7 0.924569 0.005903 0.496645
O O1 0.607543 0.308495 0.488003
O O2 0.528279 0.175762 0.333083
O O3 0.500000 0.000000 0.500000
O O4 0.149352 0.023429 0.041082
O O5 0.411303 0.430540 0.793026
O O6 0.655197 0.608966 0.644916
O O7 0.901594 0.623211 0.040843
O O8 0.791269 0.488966 0.668276
O O9 0.976868 0.645210 0.684671
O O10 0.032327 0.815236 0.498700
O O11 0.511029 0.761329 0.820645
O O12 0.639791 0.849407 0.872140
O O13 0.186019 0.188240 0.829714
O O14 0.253003 0.936710 0.515243
O O15 0.000000 0.000000 0.500000
#
# Coordination Sequence:
#
# PCOD9072751 Si02
#       7
#     2   2   2   2   2   2   2
#     4  11  21  35  49  75 114 144 167 207 265 319
#     4   8  16  26  46  75 101 129 164 212 262 296
#     4   9  16  27  45  76 103 125 164 215 264 290
#     4   9  17  31  55  81 102 128 176 229 261 288
#     4  10  15  26  51  77 101 129 170 220 265 292
#     4  10  13  24  49  77 105 117 169 230 264 285
#     4  11  21  35  52  78 108 138 174 214 256 309
#
# _framework density 25.347974000000001
#
# number of rings (size 3 to 8) (size 9 to 14) (size 15 to 20)
#    0.857    1.429    4.286    3.000    0.000    0.571 
#    0.000    2.857    0.000    0.857    0.000    2.000 
#    0.000    0.000    0.000    0.000    0.000    0.000 
#
# Total GULP energy -77955.200601 kJ/mol
# GULP energy per Si atom -5568.228614 kJ/mol
# Density = 2.529028 g / cm^3
# Si number density = 25.347974 Si / 1000 Ang^3
#
#
#
# Elastic Constant Matrix: (Units=GPa)
#
#
# Indices 1 2 3 4 5 6 
#
# 1 55.0466 26.6799 -11.7891 6.5546 3.6123 0.3453
# 2 26.6799 116.2436 71.6090 -46.1403 -19.4370 -11.8837
# 3 -11.7891 71.6090 2.8321 4.7192 -15.4160 10.2126
# 4 6.5546 -46.1403 4.7192 47.9467 0.0887 -15.1226
# 5 3.6123 -19.4370 -15.4160 0.0887 20.0013 -11.9086
# 6 0.3453 -11.8837 10.2126 -15.1226 -11.9086 44.7096
#
#
#
# Elastic Compliance Matrix: (Units=1/GPa)
#
#
# Indices 1 2 3 4 5 6 
#
# 1 0.016179 0.000909 -0.010654 -0.000385 -0.010467 -0.000368
# 2 0.000909 0.002362 0.014651 0.001144 0.014293 0.001468
# 3 -0.010654 0.014651 0.004790 0.020707 0.030482 0.018005
# 4 -0.000385 0.001144 0.020707 0.022873 0.022595 0.009332
# 5 -0.010467 0.014293 0.030482 0.022595 0.109204 0.033647
# 6 -0.000368 0.001468 0.018005 0.009332 0.033647 0.030765
#
#
# Mechanical properties :
#
#
# Convention : Reuss Voigt Hill
#
# Bulk Modulus (GPa) = 30.17106 38.56911 34.37009
# Shear Modulus (GPa) = 26.67956 28.37302 27.52629
#
# Velocity S-wave (km/s) = 3.24780 3.34928 3.29893
# Velocity P-wave (km/s) = 5.09832 5.49598 5.30088
#
# Compressibility (1/GPa) = 0.03314434
#
# Stress axis : x y z
#
# Youngs Moduli (GPa) = 61.80884 423.28291 208.76133
#
# Poissons Ratio (x) = -0.38492 2.22415
# Poissons Ratio (y) = -0.05621 -3.05857
# Poissons Ratio (z) = 0.65851 -6.20153
#
# Static dielectric constant tensor:
#      x y z
#    x 1.932940 0.052630 0.050490 
#    y 0.052630 2.143780 0.065450 
#    z 0.050490 0.065450 2.153550 
# 
# From -- ./inp_files/470452.got.cif
#   From: 2010.05.17/outbox.cif.g08.bks.cpg/sg2_236_cif.got.tgz:470452.got - 2010.06.03 11:33:40.
