data_PCOD9072227
_publ_section_title
;
Structure prediction by ZEFSAII (Michael W. Deem and Ramdas Pophale) SiO2 
 PCOD9072227
Probable space group: P -1
;
_chemical_formula_sum "Si O2"
_cell_formula_units_Z 14
_cell_length_a 13.532239
_cell_length_b 11.440950
_cell_length_c 7.263494
_cell_angle_alpha 115.565825
_cell_angle_beta 72.496212
_cell_angle_gamma 149.282303
_cell_volume 512.131715
_symmetry_space_group_name_H-M "P -1"
_symmetry_group_IT_number 2
_symmetry_cell_setting 'triclinic'
loop_
_space_group_symop_operation_xyz
x,y,z
-x,-y,-z
loop_
_atom_site_type_symbol
_atom_site_label
_atom_site_fract_x
_atom_site_fract_y
_atom_site_fract_z
Si Si1 0.429988 0.090213 0.468975
Si Si2 0.203283 0.700579 0.635764
Si Si3 0.050677 0.701908 0.240583
Si Si4 0.410355 0.286274 0.025404
Si Si5 0.665538 0.570051 0.618368
Si Si6 0.939062 0.077449 0.278250
Si Si7 0.199966 0.356187 0.816918
O O1 0.644973 0.258912 0.429596
O O2 0.470183 0.285691 0.581157
O O3 0.344433 0.948710 0.613874
O O4 0.275600 0.894481 0.260130
O O5 0.000000 0.500000 0.500000
O O6 0.103386 0.575489 0.808055
O O7 0.059080 0.812244 0.487886
O O8 0.956242 0.693140 0.132543
O O9 0.362102 0.306923 0.259012
O O10 0.594354 0.389356 0.027850
O O11 0.500000 0.500000 0.000000
O O12 0.204719 0.033135 0.878809
O O13 0.739109 0.609317 0.404412
O O14 0.835360 0.703983 0.754850
O O15 0.880388 0.869456 0.230296
#
# Coordination Sequence:
#
# PCOD9072227 Si02
#       7
#     2   2   2   2   2   2   2
#     4  10  18  30  53  80 105 135 171 225 278 309
#     4   9  18  32  50  79 110 127 170 229 277 312
#     4  10  18  33  52  79 109 137 178 223 261 313
#     4  10  21  34  49  74 111 151 181 213 260 316
#     4  11  19  33  54  79 106 143 185 218 265 313
#     4  10  20  35  50  78 115 147 178 218 258 319
#     4  10  20  33  50  76 112 145 181 222 258 308
#
# _framework density 27.336715999999999
#
# number of rings (size 3 to 8) (size 9 to 14) (size 15 to 20)
#    0.000    2.000    2.857    4.286    0.000    1.143 
#    0.000    0.000    0.000    0.000    0.000   29.000 
#    0.000    0.000    0.000    0.000    0.000    0.000 
#
# Total GULP energy -78174.055573 kJ/mol
# GULP energy per Si atom -5583.861112 kJ/mol
# Density = 2.727450 g / cm^3
# Si number density = 27.336716 Si / 1000 Ang^3
#
#
#
# Elastic Constant Matrix: (Units=GPa)
#
#
# Indices 1 2 3 4 5 6 
#
# 1 123.7185 20.3741 29.5076 17.7830 41.9893 25.7457
# 2 20.3741 144.1968 39.0885 11.8636 21.5016 24.1294
# 3 29.5076 39.0885 86.7485 25.8486 25.5216 4.5447
# 4 17.7830 11.8636 25.8486 41.8678 10.1181 11.7745
# 5 41.9893 21.5016 25.5216 10.1181 39.3932 6.6585
# 6 25.7457 24.1294 4.5447 11.7745 6.6585 38.0400
#
#
#
# Elastic Compliance Matrix: (Units=1/GPa)
#
#
# Indices 1 2 3 4 5 6 
#
# 1 0.014750 0.001784 -0.001021 -0.000272 -0.014552 -0.008361
# 2 0.001784 0.009227 -0.003818 0.001726 -0.003814 -0.006471
# 3 -0.001021 -0.003818 0.018228 -0.009465 -0.007068 0.005102
# 4 -0.000272 0.001726 -0.009465 0.032340 -0.001208 -0.009579
# 5 -0.014552 -0.003814 -0.007068 -0.001208 0.046977 0.005263
# 6 -0.008361 -0.006471 0.005102 -0.009579 0.005263 0.037486
#
#
# Mechanical properties :
#
#
# Convention : Reuss Voigt Hill
#
# Bulk Modulus (GPa) = 27.70421 59.17825 43.44123
# Shear Modulus (GPa) = 28.22453 41.57311 34.89882
#
# Velocity S-wave (km/s) = 3.21670 3.90395 3.57687
# Velocity P-wave (km/s) = 4.89415 6.48197 5.74320
#
# Compressibility (1/GPa) = 0.03609559
#
# Stress axis : x y z
#
# Youngs Moduli (GPa) = 67.79474 108.37268 54.86178
#
# Poissons Ratio (x) = -0.19334 0.05602
# Poissons Ratio (y) = -0.12095 0.20946
# Poissons Ratio (z) = 0.06922 0.41376
#
# Static dielectric constant tensor:
#      x y z
#    x 2.230660 0.037810 -0.066240 
#    y 0.037810 2.149490 -0.016540 
#    z -0.066240 -0.016540 2.279250 
# 
# From -- ./inp_files/307582.got.cif
#   From: 2010.05.17/outbox.cif.g08.bks.cpg/sg2_154_cif.got.tgz:307582.got - 2010.06.03 11:33:40.
