data_PCOD9072601
_publ_section_title
;
Structure prediction by ZEFSAII (Michael W. Deem and Ramdas Pophale) SiO2 
 PCOD9072601
Probable space group: P -1
;
_chemical_formula_sum "Si O2"
_cell_formula_units_Z 16
_cell_length_a 9.000000
_cell_length_b 15.000000
_cell_length_c 9.000000
_cell_angle_alpha 140.000000
_cell_angle_beta 100.000000
_cell_angle_gamma 70.000000
_cell_volume 725.993766
_symmetry_space_group_name_H-M "P -1"
_symmetry_group_IT_number 2
_symmetry_cell_setting 'triclinic'
loop_
_space_group_symop_operation_xyz
x,y,z
-x,-y,-z
loop_
_atom_site_type_symbol
_atom_site_label
_atom_site_fract_x
_atom_site_fract_y
_atom_site_fract_z
Si Si1 0.562870 0.466792 0.131467
Si Si2 0.793133 0.451230 0.378704
Si Si3 0.082009 0.201877 0.980068
Si Si4 0.010608 0.936575 0.751314
Si Si5 0.614540 0.772400 0.863861
Si Si6 0.222919 0.145794 0.608363
Si Si7 0.471453 0.829045 0.238666
Si Si8 0.665052 0.294987 0.406043
O O1 0.711887 0.502989 0.270662
O O2 0.420196 0.556029 0.329099
O O3 0.500000 0.500000 0.000000
O O4 0.610408 0.293309 0.927390
O O5 0.729615 0.600278 0.655861
O O6 0.718148 0.344125 0.320189
O O7 0.969724 0.347606 0.232042
O O8 0.120106 0.213891 0.825944
O O9 0.006766 0.073424 0.822145
O O10 0.252811 0.149229 0.029026
O O11 0.180812 0.808191 0.615390
O O12 0.880253 0.870616 0.573122
O O13 0.000000 0.000000 0.000000
O O14 0.468993 0.782333 0.741902
O O15 0.531678 0.826034 0.075902
O O16 0.362311 0.218201 0.699099
O O17 0.342042 0.981334 0.457690
#
# Coordination Sequence:
#
# PCOD9072601 Si02
#       8
#     2   2   2   2   2   2   2   2
#     4  11  23  37  64  93 120 163 207 253 301 357
#     4  11  20  42  65  90 124 163 205 243 308 368
#     4  11  24  39  65  91 124 160 202 259 301 363
#     4  12  24  41  59  92 125 158 204 249 310 365
#     4  10  20  41  65  91 115 166 211 244 299 360
#     4  10  24  40  65  90 120 165 203 254 307 362
#     4  10  19  42  65  87 123 162 207 249 307 362
#     4  11  22  40  65  87 126 167 200 246 301 375
#
# _framework density 22.038757
#
# number of rings (size 3 to 8) (size 9 to 14) (size 15 to 20)
#    0.000    1.250    3.750    3.000    3.500    0.500 
#    4.500    0.625    0.000    0.000    0.000    0.000 
#    0.000    0.000    0.000    0.000    0.000    0.000 
#
# Total GULP energy -89135.636504 kJ/mol
# GULP energy per Si atom -5570.977282 kJ/mol
# Density = 2.198860 g / cm^3
# Si number density = 22.038757 Si / 1000 Ang^3
#
#
#
# Elastic Constant Matrix: (Units=GPa)
#
#
# Indices 1 2 3 4 5 6 
#
# 1 74.6976 12.4093 16.5166 -15.8739 -4.7923 -29.2304
# 2 12.4093 36.7246 2.2784 -12.0875 -4.8348 -18.1540
# 3 16.5166 2.2784 89.0824 -7.8303 -8.6256 -6.0048
# 4 -15.8739 -12.0875 -7.8303 38.9003 -11.5183 -0.1621
# 5 -4.7923 -4.8348 -8.6256 -11.5183 40.3771 -4.8946
# 6 -29.2304 -18.1540 -6.0048 -0.1621 -4.8946 26.5817
#
#
#
# Elastic Compliance Matrix: (Units=1/GPa)
#
#
# Indices 1 2 3 4 5 6 
#
# 1 0.092983 0.101791 0.008329 0.094134 0.074643 0.187966
# 2 0.101791 0.174677 0.015465 0.130943 0.104539 0.254771
# 3 0.008329 0.015465 0.013564 0.014905 0.013054 0.025279
# 4 0.094134 0.130943 0.014905 0.136861 0.095099 0.214654
# 5 0.074643 0.104539 0.013054 0.095099 0.097264 0.174913
# 6 0.187966 0.254771 0.025279 0.214654 0.174913 0.457538
#
#
# Mechanical properties :
#
#
# Convention : Reuss Voigt Hill
#
# Bulk Modulus (GPa) = 1.87831 29.21259 15.54545
# Shear Modulus (GPa) = 5.56062 32.45852 19.00957
#
# Velocity S-wave (km/s) = 1.59015 3.84186 2.94011
# Velocity P-wave (km/s) = 2.05562 5.74141 4.31215
#
# Compressibility (1/GPa) = 0.53239276
#
# Stress axis : x y z
#
# Youngs Moduli (GPa) = 10.75471 5.72486 73.72496
#
# Poissons Ratio (x) = -0.58274 -0.61404
# Poissons Ratio (y) = -1.09474 -1.14014
# Poissons Ratio (z) = -0.08957 -0.08853
#
# Static dielectric constant tensor:
#      x y z
#    x 1.869880 -0.004590 0.068510 
#    y -0.004590 1.820160 -0.009090 
#    z 0.068510 -0.009090 1.852980 
# 
# From -- ./inp_files/176117.got.cif
#   From: 2010.05.17/outbox.ucp.g08.bks.cvg/sg2_89_cif.got.tgz:176117.got - 2010.06.11 11:32:03.
