data_PCOD9072293
_publ_section_title
;
Structure prediction by ZEFSAII (Michael W. Deem and Ramdas Pophale) SiO2 
 PCOD9072293
Probable space group: P -1
;
_chemical_formula_sum "Si O2"
_cell_formula_units_Z 14
_cell_length_a 11.039328
_cell_length_b 11.328487
_cell_length_c 16.405760
_cell_angle_alpha 138.536624
_cell_angle_beta 147.169632
_cell_angle_gamma 35.283019
_cell_volume 629.171731
_symmetry_space_group_name_H-M "P -1"
_symmetry_group_IT_number 2
_symmetry_cell_setting 'triclinic'
loop_
_space_group_symop_operation_xyz
x,y,z
-x,-y,-z
loop_
_atom_site_type_symbol
_atom_site_label
_atom_site_fract_x
_atom_site_fract_y
_atom_site_fract_z
Si Si1 0.545122 0.907459 0.838225
Si Si2 0.447464 0.501186 0.327458
Si Si3 0.895712 0.261578 0.891035
Si Si4 0.003971 0.908756 0.367178
Si Si5 0.802012 0.940984 0.586599
Si Si6 0.226002 0.299654 0.420958
Si Si7 0.948095 0.813887 0.888839
O O1 0.504250 0.712886 0.721852
O O2 0.259236 0.099244 0.793993
O O3 0.659452 0.909547 0.815402
O O4 0.791483 0.854192 0.006843
O O5 0.277653 0.558961 0.177807
O O6 0.687021 0.534004 0.459876
O O7 0.257026 0.683435 0.376851
O O8 0.822761 0.086524 0.742922
O O9 0.869684 0.322061 0.002501
O O10 0.021896 0.053967 0.383179
O O11 0.000000 0.000000 0.500000
O O12 0.864883 0.729973 0.556765
O O13 0.504545 0.076875 0.457086
O O14 0.039087 0.306070 0.247497
O O15 0.000000 0.000000 0.000000
#
# Coordination Sequence:
#
# PCOD9072293 Si02
#       7
#     2   2   2   2   2   2   2
#     4  10  20  35  58  80 110 145 175 225 272 317
#     4  10  21  36  57  82 109 143 183 219 269 324
#     4   8  18  32  53  80 106 140 179 220 265 319
#     4  10  21  35  52  82 111 142 182 223 266 321
#     4   9  17  31  52  75 109 141 180 218 262 321
#     4   9  16  30  50  79 105 140 179 220 263 317
#     4  10  18  30  54  82 106 139 184 221 266 321
#
# _framework density 22.251477000000001
#
# number of rings (size 3 to 8) (size 9 to 14) (size 15 to 20)
#    0.857    2.000    1.429    2.143    0.000    4.571 
#    0.000    0.714    0.000    0.857    0.000    0.000 
#    0.000    0.000    0.000    0.000    0.000    0.000 
#
# Total GULP energy -78025.184560 kJ/mol
# GULP energy per Si atom -5573.227469 kJ/mol
# Density = 2.220083 g / cm^3
# Si number density = 22.251477 Si / 1000 Ang^3
#
#
#
# Elastic Constant Matrix: (Units=GPa)
#
#
# Indices 1 2 3 4 5 6 
#
# 1 89.5745 4.5186 23.4603 1.9762 11.6830 12.9399
# 2 4.5186 37.5056 12.8739 6.4986 11.7529 0.9177
# 3 23.4603 12.8739 107.0760 -1.8614 -8.4454 16.5497
# 4 1.9762 6.4986 -1.8614 11.5120 13.9168 3.1208
# 5 11.6830 11.7529 -8.4454 13.9168 48.9490 6.6697
# 6 12.9399 0.9177 16.5497 3.1208 6.6697 13.3463
#
#
#
# Elastic Compliance Matrix: (Units=1/GPa)
#
#
# Indices 1 2 3 4 5 6 
#
# 1 0.013416 -0.000709 -0.001348 0.004533 -0.003081 -0.010808
# 2 -0.000709 0.033486 -0.006764 -0.015852 -0.006394 0.013675
# 3 -0.001348 -0.006764 0.013996 0.004752 0.005670 -0.019528
# 4 0.004533 -0.015852 0.004752 0.143649 -0.033766 -0.025914
# 5 -0.003081 -0.006394 0.005670 -0.033766 0.035083 -0.013241
# 6 -0.010808 0.013675 -0.019528 -0.025914 -0.013241 0.121357
#
#
# Mechanical properties :
#
#
# Convention : Reuss Voigt Hill
#
# Bulk Modulus (GPa) = 23.11890 35.09575 29.10733
# Shear Modulus (GPa) = 12.72111 27.64835 20.18473
#
# Velocity S-wave (km/s) = 2.39361 3.52879 3.01511
# Velocity P-wave (km/s) = 4.24871 5.69295 5.02301
#
# Compressibility (1/GPa) = 0.04325466
#
# Stress axis : x y z
#
# Youngs Moduli (GPa) = 74.53933 29.86340 71.44986
#
# Poissons Ratio (x) = 0.02119 0.09630
# Poissons Ratio (y) = 0.05288 0.48330
# Poissons Ratio (z) = 0.10047 0.20200
#
# Static dielectric constant tensor:
#      x y z
#    x 1.864630 0.005450 -0.010290 
#    y 0.005450 1.829930 -0.040990 
#    z -0.010290 -0.040990 1.855580 
# 
# From -- ./inp_files/568197.got.cif
#   From: 2010.05.17/outbox.cif.g08.bks.cpg/sg2_285_cif.got.tgz:568197.got - 2010.06.03 11:33:40.
