data_PCOD9072511
_publ_section_title
;
Structure prediction by ZEFSAII (Michael W. Deem and Ramdas Pophale) SiO2 
 PCOD9072511
Probable space group: P -1
;
_chemical_formula_sum "Si O2"
_cell_formula_units_Z 15
_cell_length_a 9.420466
_cell_length_b 9.826271
_cell_length_c 23.403115
_cell_angle_alpha 59.593529
_cell_angle_beta 156.212789
_cell_angle_gamma 122.032960
_cell_volume 739.380224
_symmetry_space_group_name_H-M "P -1"
_symmetry_group_IT_number 2
_symmetry_cell_setting 'triclinic'
loop_
_space_group_symop_operation_xyz
x,y,z
-x,-y,-z
loop_
_atom_site_type_symbol
_atom_site_label
_atom_site_fract_x
_atom_site_fract_y
_atom_site_fract_z
Si Si1 0.782636 0.320415 0.457022
Si Si2 0.500000 0.500000 0.500000
Si Si3 0.928779 0.065706 0.647973
Si Si4 0.897309 0.189657 0.734055
Si Si5 0.216649 0.334580 0.929201
Si Si6 0.316726 0.461947 0.330999
Si Si7 0.716235 0.205342 0.221537
Si Si8 0.331570 0.908465 0.642756
O O1 0.988927 0.215246 0.595462
O O2 0.407113 0.337640 0.345219
O O3 0.717465 0.232364 0.391880
O O4 0.000000 0.500000 0.500000
O O5 0.671601 0.329089 0.607028
O O6 0.640550 0.520507 0.480661
O O7 0.014699 0.121338 0.732443
O O8 0.500000 0.000000 0.500000
O O9 0.131533 0.932646 0.726122
O O10 0.206702 0.262219 0.877544
O O11 0.660322 0.043674 0.713114
O O12 0.839689 0.393586 0.784573
O O13 0.500000 0.500000 0.000000
O O14 0.358919 0.231462 0.052018
O O15 0.036263 0.367105 0.296847
O O16 0.645821 0.159416 0.270859
O O17 0.000000 0.000000 0.500000
#
# Coordination Sequence:
#
# PCOD9072511 Si02
#       8
#     2   1   2   2   2   2   2   2
#     4  12  26  38  61 100 133 161 211 275 335 382
#     4  10  18  30  64  90 114 162 206 260 326 370
#     4  12  20  40  64  94 127 168 207 274 337 380
#     4  11  22  38  65  92 130 173 217 264 332 382
#     4   9  23  40  63  94 123 178 223 261 312 394
#     4  10  20  39  63  86 131 164 210 263 327 377
#     4  11  22  40  63  88 133 166 218 264 312 392
#     4  12  24  38  63  99 129 167 221 268 334 388
#
# _framework density 20.287262999999999
#
# number of rings (size 3 to 8) (size 9 to 14) (size 15 to 20)
#    0.000    1.067    5.333    0.800    5.600    2.133 
#    0.000    0.667    0.000    0.000    0.000    0.000 
#    0.000    0.000    0.000    0.000    0.000    0.000 
#
# Total GULP energy -83505.314098 kJ/mol
# GULP energy per Si atom -5567.020940 kJ/mol
# Density = 2.024109 g / cm^3
# Si number density = 20.287263 Si / 1000 Ang^3
#
#
#
# Elastic Constant Matrix: (Units=GPa)
#
#
# Indices 1 2 3 4 5 6 
#
# 1 144.3959 71.4066 60.2329 -7.0967 -40.9253 -27.0606
# 2 71.4066 126.9062 29.4114 -5.4085 -17.6500 -8.9703
# 3 60.2329 29.4114 93.6721 -18.6469 -38.1776 -2.8609
# 4 -7.0967 -5.4085 -18.6469 44.6737 -0.9418 -4.4093
# 5 -40.9253 -17.6500 -38.1776 -0.9418 30.6231 6.2190
# 6 -27.0606 -8.9703 -2.8609 -4.4093 6.2190 49.0823
#
#
#
# Elastic Compliance Matrix: (Units=1/GPa)
#
#
# Indices 1 2 3 4 5 6 
#
# 1 0.016008 -0.006057 -0.002072 0.001832 0.014163 0.005968
# 2 -0.006057 0.011027 -0.000428 0.000044 -0.002051 -0.001085
# 3 -0.002072 -0.000428 0.027402 0.011470 0.032038 -0.002652
# 4 0.001832 0.000044 0.011470 0.028032 0.017226 0.002023
# 5 0.014163 -0.002051 0.032038 0.017226 0.091011 -0.000683
# 6 0.005968 -0.001085 -0.002652 0.002023 -0.000683 0.023579
#
#
# Mechanical properties :
#
#
# Convention : Reuss Voigt Hill
#
# Bulk Modulus (GPa) = 26.79280 76.34178 51.56729
# Shear Modulus (GPa) = 22.06396 38.47069 30.26732
#
# Velocity S-wave (km/s) = 3.30142 4.35937 3.86675
# Velocity P-wave (km/s) = 5.26952 7.94046 6.73865
#
# Compressibility (1/GPa) = 0.03732346
#
# Stress axis : x y z
#
# Youngs Moduli (GPa) = 62.46968 90.68559 36.49361
#
# Poissons Ratio (x) = 0.54930 0.07561
# Poissons Ratio (y) = 0.37839 0.01561
# Poissons Ratio (z) = 0.12943 0.03878
#
# Static dielectric constant tensor:
#      x y z
#    x 1.790700 0.063750 0.086640 
#    y 0.063750 1.737400 -0.060770 
#    z 0.086640 -0.060770 1.628370 
# 
# From -- ./inp_files/496177.got.cif
#   From: 2010.05.17/outbox.cif.g08.bks.cpg/sg2_249_cif.got.tgz:496177.got - 2010.06.03 11:33:40.
