data_PCOD9072352
_publ_section_title
;
Structure prediction by ZEFSAII (Michael W. Deem and Ramdas Pophale) SiO2 
 PCOD9072352
Probable space group: P -1
;
_chemical_formula_sum "Si O2"
_cell_formula_units_Z 16
_cell_length_a 12.000000
_cell_length_b 12.000000
_cell_length_c 18.000000
_cell_angle_alpha 40.000000
_cell_angle_beta 40.000000
_cell_angle_gamma 70.000000
_cell_volume 862.732557
_symmetry_space_group_name_H-M "P -1"
_symmetry_group_IT_number 2
_symmetry_cell_setting 'triclinic'
loop_
_space_group_symop_operation_xyz
x,y,z
-x,-y,-z
loop_
_atom_site_type_symbol
_atom_site_label
_atom_site_fract_x
_atom_site_fract_y
_atom_site_fract_z
Si Si1 0.210137 0.448452 0.142490
Si Si2 0.729545 0.145179 0.486355
Si Si3 0.806783 0.640715 0.507152
Si Si4 0.229508 0.167651 0.836670
Si Si5 0.712283 0.204569 0.823438
Si Si6 0.469922 0.600273 0.577115
Si Si7 0.382749 0.875844 0.923160
Si Si8 0.662975 0.711449 0.702584
O O1 0.221251 0.313801 0.272798
O O2 0.981505 0.314664 0.287589
O O3 0.254017 0.665455 0.044015
O O4 0.409863 0.529317 0.943579
O O5 0.632313 0.263285 0.436738
O O6 0.606417 0.041730 0.681119
O O7 0.695363 0.939494 0.568458
O O8 0.761114 0.407817 0.648712
O O9 0.639611 0.636658 0.536408
O O10 0.748100 0.682892 0.596685
O O11 0.070888 0.788915 0.287009
O O12 0.283506 0.346689 0.780287
O O13 0.382859 0.302993 0.620366
O O14 0.290915 0.013327 0.911740
O O15 0.000000 0.000000 0.000000
O O16 0.635016 0.214810 0.940047
O O17 0.500000 0.000000 0.000000
#
# Coordination Sequence:
#
# PCOD9072352 Si02
#       8
#     2   2   2   2   2   2   2   2
#     4  10  20  39  62  87 119 149 208 254 294 344
#     4  10  22  37  64  88 115 157 206 248 292 346
#     4  11  24  41  58  86 131 156 194 249 303 362
#     4  10  19  35  59  84 119 158 200 240 286 350
#     4  11  24  38  59  89 119 162 196 239 308 364
#     4  10  22  38  57  90 121 161 198 240 299 360
#     4  10  20  35  58  89 113 148 197 246 293 350
#     4  10  22  39  59  89 116 162 197 251 298 350
#
# _framework density 18.545724
#
# number of rings (size 3 to 8) (size 9 to 14) (size 15 to 20)
#    0.000    1.750    1.250    2.625    1.750    3.500 
#    0.000    0.625    0.000    0.000    0.000    0.000 
#    0.000    0.000    0.000    0.000    0.000    0.000 
#
# Total GULP energy -89085.185481 kJ/mol
# GULP energy per Si atom -5567.824093 kJ/mol
# Density = 1.850351 g / cm^3
# Si number density = 18.545724 Si / 1000 Ang^3
#
#
#
# Elastic Constant Matrix: (Units=GPa)
#
#
# Indices 1 2 3 4 5 6 
#
# 1 118.5578 37.1489 44.1128 3.2002 -14.5772 -18.2474
# 2 37.1489 108.5976 39.5986 -2.8338 -5.7951 -10.6872
# 3 44.1128 39.5986 88.4748 -4.0725 -22.6589 -1.8108
# 4 3.2002 -2.8338 -4.0725 28.6840 0.6970 6.9227
# 5 -14.5772 -5.7951 -22.6589 0.6970 37.3867 -0.3889
# 6 -18.2474 -10.6872 -1.8108 6.9227 -0.3889 31.4672
#
#
#
# Elastic Compliance Matrix: (Units=1/GPa)
#
#
# Indices 1 2 3 4 5 6 
#
# 1 0.012211 -0.001688 -0.004949 -0.003991 0.001649 0.007121
# 2 -0.001688 0.011702 -0.004777 0.000060 -0.001712 0.002686
# 3 -0.004949 -0.004777 0.018077 0.003439 0.008179 -0.004107
# 4 -0.003991 0.000060 0.003439 0.038352 -0.000287 -0.010537
# 5 0.001649 -0.001712 0.008179 -0.000287 0.032101 0.001305
# 6 0.007121 0.002686 -0.004107 -0.010537 0.001305 0.038919
#
#
# Mechanical properties :
#
#
# Convention : Reuss Voigt Hill
#
# Bulk Modulus (GPa) = 52.18241 61.92786 57.05513
# Shear Modulus (GPa) = 27.68902 32.49222 30.09062
#
# Velocity S-wave (km/s) = 3.86815 4.19024 4.03241
# Velocity P-wave (km/s) = 6.93890 7.54157 7.24650
#
# Compressibility (1/GPa) = 0.01916355
#
# Stress axis : x y z
#
# Youngs Moduli (GPa) = 81.89031 85.45501 55.31942
#
# Poissons Ratio (x) = 0.14426 0.27375
# Poissons Ratio (y) = 0.13824 0.26424
# Poissons Ratio (z) = 0.40524 0.40819
#
# Static dielectric constant tensor:
#      x y z
#    x 1.734710 -0.102840 -0.010140 
#    y -0.102840 1.781350 -0.003450 
#    z -0.010140 -0.003450 1.676520 
# 
# From -- ./inp_files/95219.got.cif
#   From: 2010.05.17/outbox.ucp.g08.bks.cvg/sg2_48_cif.got.tgz:95219.got - 2010.06.11 11:32:03.
