data_PCOD9072049
_publ_section_title
;
Structure prediction by ZEFSAII (Michael W. Deem and Ramdas Pophale) SiO2 
 PCOD9072049
Probable space group: P -1
;
_chemical_formula_sum "Si O2"
_cell_formula_units_Z 14
_cell_length_a 9.000000
_cell_length_b 9.000000
_cell_length_c 12.000000
_cell_angle_alpha 50.000000
_cell_angle_beta 120.000000
_cell_angle_gamma 110.000000
_cell_volume 644.526612
_symmetry_space_group_name_H-M "P -1"
_symmetry_group_IT_number 2
_symmetry_cell_setting 'triclinic'
loop_
_space_group_symop_operation_xyz
x,y,z
-x,-y,-z
loop_
_atom_site_type_symbol
_atom_site_label
_atom_site_fract_x
_atom_site_fract_y
_atom_site_fract_z
Si Si1 0.020716 0.285088 0.343442
Si Si2 0.701841 0.043943 0.367251
Si Si3 0.657365 0.931203 0.165544
Si Si4 0.661708 0.112716 0.636853
Si Si5 0.479401 0.484538 0.633704
Si Si6 0.173039 0.674425 0.191619
Si Si7 0.989571 0.871345 0.831799
O O1 0.077498 0.496473 0.303259
O O2 0.999015 0.258549 0.213530
O O3 0.841410 0.212311 0.365628
O O4 0.176867 0.143217 0.495315
O O5 0.645459 0.057107 0.212076
O O6 0.520129 0.006415 0.375126
O O7 0.632349 0.704342 0.287591
O O8 0.850128 0.975339 0.177606
O O9 0.500000 0.000000 0.000000
O O10 0.608977 0.316700 0.462888
O O11 0.735433 0.176201 0.758408
O O12 0.811842 0.983595 0.706893
O O13 0.500000 0.500000 0.500000
O O14 0.672958 0.429456 0.768921
O O15 0.031435 0.755554 0.015861
#
# Coordination Sequence:
#
# PCOD9072049 Si02
#       7
#     2   2   2   2   2   2   2
#     4  10  22  37  62  83 119 162 209 233 291 373
#     4  10  19  38  59  85 116 165 201 233 298 370
#     4  11  19  36  61  93 118 154 206 252 286 352
#     4  11  21  38  64  88 120 155 202 251 304 344
#     4  10  18  34  62  85 112 156 201 234 285 359
#     4  11  19  39  62  88 115 164 203 242 293 368
#     4  11  24  35  59  94 126 148 195 263 305 337
#
# _framework density 21.721367999999998
#
# number of rings (size 3 to 8) (size 9 to 14) (size 15 to 20)
#    0.000    1.429    5.714    1.714    0.000    1.143 
#    0.000    0.714    0.000    0.000    0.000    0.000 
#    0.000    0.000    0.000    0.000    0.000    0.000 
#
# Total GULP energy -78081.148716 kJ/mol
# GULP energy per Si atom -5577.224908 kJ/mol
# Density = 2.167193 g / cm^3
# Si number density = 21.721368 Si / 1000 Ang^3
#
#
#
# Elastic Constant Matrix: (Units=GPa)
#
#
# Indices 1 2 3 4 5 6 
#
# 1 128.5255 44.9303 26.7718 -12.9243 24.4645 34.0514
# 2 44.9303 64.8001 15.7200 -1.3165 0.7705 26.6595
# 3 26.7718 15.7200 63.4151 5.6699 9.6692 5.8679
# 4 -12.9243 -1.3165 5.6699 37.1909 3.5318 -2.6127
# 5 24.4645 0.7705 9.6692 3.5318 29.6584 0.2827
# 6 34.0514 26.6595 5.8679 -2.6127 0.2827 43.9519
#
#
#
# Elastic Compliance Matrix: (Units=1/GPa)
#
#
# Indices 1 2 3 4 5 6 
#
# 1 0.015747 -0.007015 -0.002908 0.006360 -0.012549 -0.007098
# 2 -0.007015 0.024772 -0.003096 -0.002366 0.006523 -0.009361
# 3 -0.002908 -0.003096 0.018418 -0.003528 -0.003120 0.001482
# 4 0.006360 -0.002366 -0.003528 0.030194 -0.007619 -0.001178
# 5 -0.012549 0.006523 -0.003120 -0.007619 0.045772 0.005435
# 6 -0.007098 -0.009361 0.001482 -0.001178 0.005435 0.033627
#
#
# Mechanical properties :
#
#
# Convention : Reuss Voigt Hill
#
# Bulk Modulus (GPa) = 30.39450 47.95387 39.17418
# Shear Modulus (GPa) = 24.32690 33.44814 28.88752
#
# Velocity S-wave (km/s) = 3.35020 3.92838 3.65075
# Velocity P-wave (km/s) = 5.38409 6.53460 5.98704
#
# Compressibility (1/GPa) = 0.03290069
#
# Stress axis : x y z
#
# Youngs Moduli (GPa) = 63.50311 40.36749 54.29433
#
# Poissons Ratio (x) = 0.28316 0.15786
# Poissons Ratio (y) = 0.44544 0.16812
# Poissons Ratio (z) = 0.18464 0.12500
#
# Static dielectric constant tensor:
#      x y z
#    x 1.854190 0.013290 -0.074170 
#    y 0.013290 1.797460 -0.011610 
#    z -0.074170 -0.011610 1.871820 
# 
# From -- ./inp_files/259106.got.cif
#   From: 2010.05.17/outbox.ucp.g08.bks.cvg/sg2_130_cif.got.tgz:259106.got - 2010.06.11 11:32:03.
