data_PCOD9072373
_publ_section_title
;
Structure prediction by ZEFSAII (Michael W. Deem and Ramdas Pophale) SiO2 
 PCOD9072373
Probable space group: P -1
;
_chemical_formula_sum "Si O2"
_cell_formula_units_Z 16
_cell_length_a 12.000000
_cell_length_b 9.000000
_cell_length_c 15.000000
_cell_angle_alpha 70.000000
_cell_angle_beta 30.000000
_cell_angle_gamma 70.000000
_cell_volume 757.522634
_symmetry_space_group_name_H-M "P -1"
_symmetry_group_IT_number 2
_symmetry_cell_setting 'triclinic'
loop_
_space_group_symop_operation_xyz
x,y,z
-x,-y,-z
loop_
_atom_site_type_symbol
_atom_site_label
_atom_site_fract_x
_atom_site_fract_y
_atom_site_fract_z
Si Si1 0.681150 0.440974 0.185843
Si Si2 0.887464 0.835397 0.400963
Si Si3 0.745223 0.665281 0.715183
Si Si4 0.369757 0.694160 0.111975
Si Si5 0.726818 0.314257 0.627834
Si Si6 0.115343 0.491549 0.782339
Si Si7 0.430888 0.233840 0.513116
Si Si8 0.224934 0.823432 0.564814
O O1 0.448505 0.533496 0.299122
O O2 0.774188 0.524055 0.192473
O O3 0.621729 0.276075 0.302472
O O4 0.866977 0.440152 0.980352
O O5 0.762805 0.755533 0.588120
O O6 0.738667 0.850289 0.412251
O O7 0.124733 0.742351 0.231094
O O8 0.929178 0.013314 0.361058
O O9 0.647560 0.493306 0.814761
O O10 0.012042 0.647641 0.557891
O O11 0.576184 0.735361 0.897761
O O12 0.349214 0.764894 0.211864
O O13 0.706212 0.207654 0.577799
O O14 0.280294 0.389360 0.622553
O O15 0.111743 0.672138 0.713199
O O16 0.557382 0.163214 0.526823
#
# Coordination Sequence:
#
# PCOD9072373 Si02
#       8
#     2   2   2   2   2   2   2   2
#     4  10  19  35  62  94 119 153 208 253 291 350
#     4  11  24  42  61  90 129 162 200 253 306 364
#     4  10  23  42  64  90 118 160 210 254 301 359
#     4  10  23  41  64  91 116 161 211 252 303 357
#     4  11  20  37  63  90 121 159 197 255 301 357
#     4  10  21  36  62  92 122 160 204 244 297 363
#     4  11  20  41  65  90 123 167 205 246 299 363
#     4  11  23  40  60  95 131 159 196 251 313 365
#
# _framework density 21.121480999999999
#
# number of rings (size 3 to 8) (size 9 to 14) (size 15 to 20)
#    0.000    1.500    2.500    4.125    1.750    4.000 
#    2.250    1.250    0.000    4.500    0.000    0.000 
#    0.000    0.000    0.000    0.000    0.000    0.000 
#
# Total GULP energy -89153.215101 kJ/mol
# GULP energy per Si atom -5572.075944 kJ/mol
# Density = 2.107341 g / cm^3
# Si number density = 21.121481 Si / 1000 Ang^3
#
#
#
# Elastic Constant Matrix: (Units=GPa)
#
#
# Indices 1 2 3 4 5 6 
#
# 1 85.1517 -4.2424 20.9022 9.1957 1.6467 24.1050
# 2 -4.2424 62.5262 10.1171 2.4002 6.5961 9.1698
# 3 20.9022 10.1171 144.4099 13.8387 10.1050 5.6314
# 4 9.1957 2.4002 13.8387 7.8180 -1.0739 0.4962
# 5 1.6467 6.5961 10.1050 -1.0739 19.4023 3.0784
# 6 24.1050 9.1698 5.6314 0.4962 3.0784 -18.7876
#
#
#
# Elastic Compliance Matrix: (Units=1/GPa)
#
#
# Indices 1 2 3 4 5 6 
#
# 1 0.009900 -0.000181 -0.000534 -0.011795 -0.003002 0.011650
# 2 -0.000181 0.016016 -0.000372 -0.005340 -0.006525 0.006263
# 3 -0.000534 -0.000372 0.008901 -0.015788 -0.005417 0.000497
# 4 -0.011795 -0.005340 -0.015788 0.175421 0.022981 -0.014074
# 5 -0.003002 -0.006525 -0.005417 0.022981 0.057879 0.001431
# 6 0.011650 0.006263 0.000497 -0.014074 0.001431 -0.035211
#
#
# Mechanical properties :
#
#
# Convention : Reuss Voigt Hill
#
# Bulk Modulus (GPa) = 30.63484 38.40461 34.51973
# Shear Modulus (GPa) = 20.32848 19.37393 19.85120
#
# Velocity S-wave (km/s) = 3.10571 3.03192 3.06904
# Velocity P-wave (km/s) = 5.23414 5.52077 5.37936
#
# Compressibility (1/GPa) = 0.03264257
#
# Stress axis : x y z
#
# Youngs Moduli (GPa) = 101.01250 62.43764 112.35004
#
# Poissons Ratio (x) = 0.01130 0.06002
# Poissons Ratio (y) = 0.01828 0.04177
# Poissons Ratio (z) = 0.05396 0.02321
#
# Static dielectric constant tensor:
#      x y z
#    x 1.847690 0.024970 -0.002280 
#    y 0.024970 1.810820 0.023160 
#    z -0.002280 0.023160 1.738190 
# 
# From -- ./inp_files/406831.got.cif
#   From: 2010.05.17/outbox.ucp.g08.bks.cvg/sg2_204_cif.got.tgz:406831.got - 2010.06.11 11:32:03.
