data_PCOD9072990
_publ_section_title
;
Structure prediction by ZEFSAII (Michael W. Deem and Ramdas Pophale) SiO2 
 PCOD9072990
Probable space group: P -1
;
_chemical_formula_sum "Si O2"
_cell_formula_units_Z 14
_cell_length_a 6.000000
_cell_length_b 6.000000
_cell_length_c 21.000000
_cell_angle_alpha 80.000000
_cell_angle_beta 120.000000
_cell_angle_gamma 80.000000
_cell_volume 613.962737
_symmetry_space_group_name_H-M "P -1"
_symmetry_group_IT_number 2
_symmetry_cell_setting 'triclinic'
loop_
_space_group_symop_operation_xyz
x,y,z
-x,-y,-z
loop_
_atom_site_type_symbol
_atom_site_label
_atom_site_fract_x
_atom_site_fract_y
_atom_site_fract_z
Si Si1 0.962921 0.608431 0.917757
Si Si2 0.171503 0.370897 0.661040
Si Si3 0.875100 0.800667 0.690247
Si Si4 0.826135 0.130952 0.555142
Si Si5 0.631748 0.271445 0.389690
Si Si6 0.643568 0.057472 0.196249
Si Si7 0.783259 0.926956 0.081425
O O1 0.062479 0.353776 0.903705
O O2 0.645966 0.743929 0.854042
O O3 0.093383 0.839123 0.920436
O O4 0.000000 0.500000 0.000000
O O5 0.368922 0.468622 0.642170
O O6 0.015159 0.569196 0.679346
O O7 0.953885 0.333497 0.582546
O O8 0.318808 0.134215 0.732455
O O9 0.606525 0.772358 0.683114
O O10 0.109414 0.834528 0.765021
O O11 0.756758 0.029666 0.616195
O O12 0.610695 0.225417 0.464187
O O13 0.078099 0.910419 0.577767
O O14 0.703385 0.925715 0.143915
O O15 0.500000 0.000000 0.000000
#
# Coordination Sequence:
#
# PCOD9072990 Si02
#       7
#     2   2   2   2   2   2   2
#     4  12  28  50  83 112 151 194 245 313 367 439
#     4  10  23  40  61  96 139 181 235 296 361 436
#     4  10  23  40  62  97 141 182 236 295 363 437
#     4   9  20  39  61  97 131 181 237 300 354 436
#     4  10  20  39  68  91 134 182 241 293 362 426
#     4  11  28  47  68 105 154 185 247 296 374 444
#     4  12  28  49  83 115 147 196 248 303 375 444
#
# _framework density 22.802686999999999
#
# number of rings (size 3 to 8) (size 9 to 14) (size 15 to 20)
#    0.000    1.429    1.429    1.714    4.000    7.429 
#    0.000    0.000    0.000    0.000    0.000    0.000 
#    0.000    0.000    0.000    0.000    0.000    0.000 
#
# Total GULP energy -78088.127559 kJ/mol
# GULP energy per Si atom -5577.723397 kJ/mol
# Density = 2.275079 g / cm^3
# Si number density = 22.802687 Si / 1000 Ang^3
#
#
#
# Elastic Constant Matrix: (Units=GPa)
#
#
# Indices 1 2 3 4 5 6 
#
# 1 60.7561 48.2085 48.9331 1.9622 33.1934 9.3559
# 2 48.2085 136.0355 49.1279 1.6815 11.6391 -5.7772
# 3 48.9331 49.1279 122.8403 12.8773 34.6405 -8.8637
# 4 1.9622 1.6815 12.8773 35.0172 -5.8127 10.4462
# 5 33.1934 11.6391 34.6405 -5.8127 22.9728 16.5901
# 6 9.3559 -5.7772 -8.8637 10.4462 16.5901 44.6958
#
#
#
# Elastic Compliance Matrix: (Units=1/GPa)
#
#
# Indices 1 2 3 4 5 6 
#
# 1 0.010045 -0.001093 -0.027052 0.031043 0.062053 -0.037897
# 2 -0.001093 0.008467 0.004037 -0.008264 -0.018879 0.011063
# 3 -0.027052 0.004037 0.004841 0.008698 0.038599 -0.009216
# 4 0.031043 -0.008264 0.008698 0.009107 -0.062469 0.015217
# 5 0.062053 -0.018879 0.038599 -0.062469 -0.157802 0.065398
# 6 -0.037897 0.011063 -0.009216 0.015217 0.065398 0.002077
#
#
# Mechanical properties :
#
#
# Convention : Reuss Voigt Hill
#
# Bulk Modulus (GPa) = -40.22300 68.01898 13.89799
# Shear Modulus (GPa) = -59.99715 32.09467 -13.95124
#
# Velocity S-wave (km/s) = -5.13503 3.75573 -2.47619
# Velocity P-wave (km/s) = 7.26883 6.97864 1.43779
#
# Compressibility (1/GPa) = -0.02486140
#
# Stress axis : x y z
#
# Youngs Moduli (GPa) = 99.54842 118.09876 206.58962
#
# Poissons Ratio (x) = 0.12904 5.58864
# Poissons Ratio (y) = 0.10877 -0.83404
# Poissons Ratio (z) = 2.69297 -0.47679
#
# Static dielectric constant tensor:
#      x y z
#    x 1.931700 0.028010 -0.073080 
#    y 0.028010 1.902950 0.067750 
#    z -0.073080 0.067750 1.881220 
# 
# From -- ./inp_files/7970.got.cif
#   From: 2010.05.17/outbox.ucp.g08.bks.cvg/sg2_4_cif.got.tgz:7970.got - 2010.06.11 11:32:03.
