data_PCOD9072984
_publ_section_title
;
Structure prediction by ZEFSAII (Michael W. Deem and Ramdas Pophale) SiO2 
 PCOD9072984
Probable space group: P -1
;
_chemical_formula_sum "Si O2"
_cell_formula_units_Z 16
_cell_length_a 18.000000
_cell_length_b 12.000000
_cell_length_c 21.000000
_cell_angle_alpha 30.000000
_cell_angle_beta 20.000000
_cell_angle_gamma 40.000000
_cell_volume 744.844803
_symmetry_space_group_name_H-M "P -1"
_symmetry_group_IT_number 2
_symmetry_cell_setting 'triclinic'
loop_
_space_group_symop_operation_xyz
x,y,z
-x,-y,-z
loop_
_atom_site_type_symbol
_atom_site_label
_atom_site_fract_x
_atom_site_fract_y
_atom_site_fract_z
Si Si1 0.860896 0.001301 0.732850
Si Si2 0.565387 0.332636 0.830932
Si Si3 0.652545 0.864475 0.483217
Si Si4 0.946781 0.309375 0.190379
Si Si5 0.105519 0.081751 0.942041
Si Si6 0.482972 0.100291 0.280877
Si Si7 0.665017 0.423335 0.456724
Si Si8 0.371967 0.105882 0.229471
O O1 0.776932 0.226752 0.702154
O O2 0.098780 0.059270 0.474362
O O3 0.903782 0.864152 0.829848
O O4 0.655310 0.825858 0.948715
O O5 0.619158 0.591804 0.630521
O O6 0.493413 0.275834 0.991369
O O7 0.581915 0.834043 0.629628
O O8 0.500000 0.000000 0.500000
O O9 0.906721 0.020828 0.185295
O O10 0.909201 0.430023 0.226183
O O11 0.696543 0.150745 0.457128
O O12 0.000000 0.500000 0.000000
O O13 0.259390 0.346405 0.675738
O O14 0.269546 0.927681 0.904141
O O15 0.000000 0.000000 0.000000
O O16 0.447794 0.210403 0.187024
O O17 0.500000 0.500000 0.500000
O O18 0.582913 0.155185 0.681183
#
# Coordination Sequence:
#
# PCOD9072984 Si02
#       8
#     2   2   2   2   2   2   2   2
#     4   9  23  43  65 104 132 176 238 276 346 402
#     4  11  25  44  68  99 140 185 222 289 340 419
#     4  12  28  44  66  98 140 180 229 278 353 416
#     4  10  21  36  69  97 134 173 226 289 331 395
#     4  12  24  41  67 102 141 180 224 285 351 409
#     4  10  23  43  63 100 131 178 231 276 341 414
#     4  10  20  39  67  98 128 174 230 280 332 401
#     4  10  23  43  70  98 135 176 238 282 342 403
#
# _framework density 21.480985
#
# number of rings (size 3 to 8) (size 9 to 14) (size 15 to 20)
#    0.000    1.750    3.750    1.125    7.000    5.500 
#    0.000    4.375    0.000    0.000    0.000    0.000 
#    0.000    0.000    0.000    0.000    0.000    0.000 
#
# Total GULP energy -89088.410323 kJ/mol
# GULP energy per Si atom -5568.025645 kJ/mol
# Density = 2.143209 g / cm^3
# Si number density = 21.480985 Si / 1000 Ang^3
#
#
#
# Elastic Constant Matrix: (Units=GPa)
#
#
# Indices 1 2 3 4 5 6 
#
# 1 77.7293 35.4763 32.0682 -8.6700 -4.7905 -13.2423
# 2 35.4763 113.0934 36.0479 -1.3599 -2.9373 -24.2629
# 3 32.0682 36.0479 64.1199 1.5623 9.1241 -18.5817
# 4 -8.6700 -1.3599 1.5623 44.5110 -12.9399 0.1485
# 5 -4.7905 -2.9373 9.1241 -12.9399 37.0662 -3.1985
# 6 -13.2423 -24.2629 -18.5817 0.1485 -3.1985 32.9382
#
#
#
# Elastic Compliance Matrix: (Units=1/GPa)
#
#
# Indices 1 2 3 4 5 6 
#
# 1 0.018921 -0.002644 -0.008640 0.005795 0.006505 0.001390
# 2 -0.002644 0.012372 -0.004301 0.000706 0.002449 0.005858
# 3 -0.008640 -0.004301 0.025803 -0.005383 -0.009079 0.007057
# 4 0.005795 0.000706 -0.005383 0.027204 0.011698 0.000826
# 5 0.006505 0.002449 -0.009079 0.011698 0.034557 0.002601
# 6 0.001390 0.005858 0.007057 0.000826 0.002601 0.039464
#
#
# Mechanical properties :
#
#
# Convention : Reuss Voigt Hill
#
# Bulk Modulus (GPa) = 38.57278 51.34751 44.96015
# Shear Modulus (GPa) = 25.23562 32.99310 29.11436
#
# Velocity S-wave (km/s) = 3.43124 3.92333 3.68551
# Velocity P-wave (km/s) = 5.80461 6.66926 6.25190
#
# Compressibility (1/GPa) = 0.02592501
#
# Stress axis : x y z
#
# Youngs Moduli (GPa) = 52.85191 80.83051 38.75488
#
# Poissons Ratio (x) = 0.21374 0.33485
# Poissons Ratio (y) = 0.13976 0.16667
# Poissons Ratio (z) = 0.45665 0.34763
#
# Static dielectric constant tensor:
#      x y z
#    x 1.931560 0.162900 0.018150 
#    y 0.162900 1.940550 -0.029290 
#    z 0.018150 -0.029290 1.793360 
# 
# From -- ./inp_files/600020.got.cif
#   From: 2010.05.17/outbox.ucp.g08.bks.cvg/sg2_301_cif.got.tgz:600020.got - 2010.06.11 11:32:03.
