data_PCOD9072623
_publ_section_title
;
Structure prediction by ZEFSAII (Michael W. Deem and Ramdas Pophale) SiO2 
 PCOD9072623
Probable space group: P -1
;
_chemical_formula_sum "Si O2"
_cell_formula_units_Z 16
_cell_length_a 12.197406
_cell_length_b 9.096249
_cell_length_c 23.409834
_cell_angle_alpha 54.317244
_cell_angle_beta 153.529301
_cell_angle_gamma 142.867821
_cell_volume 611.368159
_symmetry_space_group_name_H-M "P -1"
_symmetry_group_IT_number 2
_symmetry_cell_setting 'triclinic'
loop_
_space_group_symop_operation_xyz
x,y,z
-x,-y,-z
loop_
_atom_site_type_symbol
_atom_site_label
_atom_site_fract_x
_atom_site_fract_y
_atom_site_fract_z
Si Si1 0.736683 0.161809 0.811882
Si Si2 0.926403 0.743888 0.168219
Si Si3 0.353125 0.511703 0.111216
Si Si4 0.657854 0.527994 0.706979
Si Si5 0.875957 0.632669 0.402566
Si Si6 0.218849 0.936569 0.958869
Si Si7 0.077906 0.110232 0.354663
Si Si8 0.824262 0.304210 0.251174
O O1 0.581153 0.279641 0.709233
O O2 0.796400 0.114264 0.788567
O O3 0.464514 0.899803 0.786543
O O4 0.150915 0.394765 0.983042
O O5 0.978419 0.592932 0.264252
O O6 0.953827 0.958992 0.158103
O O7 0.500000 0.500000 0.000000
O O8 0.625004 0.498036 0.258027
O O9 0.642888 0.834257 0.190254
O O10 0.015393 0.298785 0.047317
O O11 0.372290 0.431599 0.645251
O O12 0.083495 0.756595 0.880619
O O13 0.677990 0.682285 0.630829
O O14 0.168762 0.961246 0.454023
O O15 0.000000 0.500000 0.500000
O O16 0.616583 0.193623 0.116594
O O17 0.067838 0.259626 0.364189
#
# Coordination Sequence:
#
# PCOD9072623 Si02
#       8
#     2   2   2   2   2   2   2   2
#     4  11  19  34  53  76 112 141 174 211 253 321
#     4  10  22  31  46  74 115 147 172 207 252 309
#     4   8  19  31  51  74 103 139 172 204 266 302
#     4  11  20  32  58  78 104 142 169 213 266 308
#     4   9  20  36  50  77 109 129 171 230 269 299
#     4   9  19  33  45  75 114 142 173 206 253 310
#     4  10  19  31  52  81  97 136 182 207 265 308
#     4  10  18  31  48  71 107 139 177 205 247 312
#
# _framework density 26.170811
#
# number of rings (size 3 to 8) (size 9 to 14) (size 15 to 20)
#    0.750    1.500    2.500    0.750    3.500    8.500 
#    0.000    0.000    0.000    0.000    0.000    7.000 
#    0.000    0.125    0.000    0.000    0.000    0.000 
#
# Total GULP energy -89411.403212 kJ/mol
# GULP energy per Si atom -5588.212701 kJ/mol
# Density = 2.611124 g / cm^3
# Si number density = 26.170811 Si / 1000 Ang^3
#
#
#
# Elastic Constant Matrix: (Units=GPa)
#
#
# Indices 1 2 3 4 5 6 
#
# 1 83.6362 38.2077 15.1882 -9.4033 0.7858 20.2415
# 2 38.2077 147.0730 37.2401 -42.0390 -2.6179 12.8127
# 3 15.1882 37.2401 92.9817 -18.7267 4.1214 0.3239
# 4 -9.4033 -42.0390 -18.7267 50.7125 -5.5740 3.5773
# 5 0.7858 -2.6179 4.1214 -5.5740 24.2075 -6.9146
# 6 20.2415 12.8127 0.3239 3.5773 -6.9146 40.5324
#
#
#
# Elastic Compliance Matrix: (Units=1/GPa)
#
#
# Indices 1 2 3 4 5 6 
#
# 1 0.015336 -0.003113 -0.001102 0.000066 -0.002667 -0.007127
# 2 -0.003113 0.010667 -0.002299 0.007875 0.002888 -0.002001
# 3 -0.001102 -0.002299 0.012374 0.002233 -0.001603 0.000708
# 4 0.000066 0.007875 0.002233 0.028002 0.005767 -0.004028
# 5 -0.002667 0.002888 -0.001603 0.005767 0.045504 0.007686
# 6 -0.007127 -0.002001 0.000708 -0.004028 0.007686 0.030524
#
#
# Mechanical properties :
#
#
# Convention : Reuss Voigt Hill
#
# Bulk Modulus (GPa) = 39.44856 56.10698 47.77777
# Shear Modulus (GPa) = 30.50935 38.62748 34.56842
#
# Velocity S-wave (km/s) = 3.41805 3.84601 3.63833
# Velocity P-wave (km/s) = 5.53928 6.41932 5.99547
#
# Compressibility (1/GPa) = 0.02534947
#
# Stress axis : x y z
#
# Youngs Moduli (GPa) = 65.20623 93.74893 80.81556
#
# Poissons Ratio (x) = 0.29183 0.08906
# Poissons Ratio (y) = 0.20298 0.18577
# Poissons Ratio (z) = 0.07186 0.21550
#
# Static dielectric constant tensor:
#      x y z
#    x 2.006010 -0.000830 0.032120 
#    y -0.000830 2.067240 0.009900 
#    z 0.032120 0.009900 2.205690 
# 
# From -- ./inp_files/356907.got.cif
#   From: 2010.05.17/outbox.cif.g08.bks.cpg/sg2_179_cif.got.tgz:356907.got - 2010.06.03 11:33:40.
