data_PCOD9072005
_publ_section_title
;
Structure prediction by ZEFSAII (Michael W. Deem and Ramdas Pophale) SiO2 
 PCOD9072005
Probable space group: P -1
;
_chemical_formula_sum "Si O2"
_cell_formula_units_Z 16
_cell_length_a 7.935423
_cell_length_b 11.170793
_cell_length_c 10.045171
_cell_angle_alpha 68.578879
_cell_angle_beta 84.659138
_cell_angle_gamma 59.459102
_cell_volume 709.172501
_symmetry_space_group_name_H-M "P -1"
_symmetry_group_IT_number 2
_symmetry_cell_setting 'triclinic'
loop_
_space_group_symop_operation_xyz
x,y,z
-x,-y,-z
loop_
_atom_site_type_symbol
_atom_site_label
_atom_site_fract_x
_atom_site_fract_y
_atom_site_fract_z
Si Si1 0.182548 0.314557 0.195068
Si Si2 0.233454 0.070364 0.643602
Si Si3 0.202843 0.736402 0.394378
Si Si4 0.686826 0.230356 0.245040
Si Si5 0.374102 0.451991 0.652400
Si Si6 0.355245 0.287601 0.462126
Si Si7 0.846383 0.952425 0.650803
Si Si8 0.734143 0.498658 0.072011
O O1 0.181590 0.346162 0.340791
O O2 0.250448 0.140301 0.247601
O O3 0.969136 0.396158 0.111927
O O4 0.301429 0.382571 0.087648
O O5 0.373973 0.136903 0.581923
O O6 0.181220 0.047645 0.505327
O O7 0.020625 0.196987 0.665285
O O8 0.316834 0.909055 0.770517
O O9 0.245979 0.630283 0.563030
O O10 0.389043 0.620812 0.339086
O O11 0.222239 0.882108 0.358399
O O12 0.533709 0.266690 0.363710
O O13 0.655688 0.382203 0.117838
O O14 0.920217 0.146054 0.298081
O O15 0.325062 0.385519 0.554078
O O16 0.330700 0.418702 0.814727
#
# Coordination Sequence:
#
# PCOD9072005 Si02
#       8
#     2   2   2   2   2   2   2   2
#     4   9  21  37  56  76 101 135 175 213 251 300
#     4  10  18  30  50  77 106 135 170 214 256 298
#     4  10  19  32  51  75 105 141 173 204 253 311
#     4  10  18  31  53  78 103 133 175 217 252 294
#     4  11  20  32  53  80 106 133 168 212 258 306
#     4  11  21  31  51  83 109 128 163 220 266 294
#     4   9  16  32  54  73  99 139 179 209 244 303
#     4  10  20  38  56  74 101 141 176 203 248 313
#
# _framework density 22.561506000000001
#
# number of rings (size 3 to 8) (size 9 to 14) (size 15 to 20)
#    0.000    2.000    0.000    7.875    0.000    3.500 
#    0.000    0.625    0.000    1.500    0.000    8.750 
#    0.000    0.000    0.000    0.000    0.000    0.000 
#
# Total GULP energy -89187.319449 kJ/mol
# GULP energy per Si atom -5574.207466 kJ/mol
# Density = 2.251016 g / cm^3
# Si number density = 22.561506 Si / 1000 Ang^3
#
#
#
# Elastic Constant Matrix: (Units=GPa)
#
#
# Indices 1 2 3 4 5 6 
#
# 1 106.5185 34.6754 37.5661 -29.3966 -36.9196 15.0243
# 2 34.6754 111.4133 54.1040 -26.7369 -14.3130 2.7811
# 3 37.5661 54.1040 119.8261 -28.2344 -31.3431 10.7222
# 4 -29.3966 -26.7369 -28.2344 24.2364 4.9739 5.7716
# 5 -36.9196 -14.3130 -31.3431 4.9739 38.7542 -11.6949
# 6 15.0243 2.7811 10.7222 5.7716 -11.6949 22.5031
#
#
#
# Elastic Compliance Matrix: (Units=1/GPa)
#
#
# Indices 1 2 3 4 5 6 
#
# 1 0.034575 0.001943 0.012115 0.060087 0.026461 -0.030756
# 2 0.001943 0.013499 -0.002154 0.015653 0.001528 -0.005159
# 3 0.012115 -0.002154 0.020210 0.036688 0.016931 -0.018062
# 4 0.060087 0.015653 0.036688 0.185370 0.043398 -0.084523
# 5 0.026461 0.001528 0.016931 0.043398 0.057543 -0.007149
# 6 -0.030756 -0.005159 -0.018062 -0.084523 -0.007149 0.092180
#
#
# Mechanical properties :
#
#
# Convention : Reuss Voigt Hill
#
# Bulk Modulus (GPa) = 10.85892 65.60544 38.23218
# Shear Modulus (GPa) = 12.18717 31.19287 21.69002
#
# Velocity S-wave (km/s) = 2.32669 3.72233 3.10397
# Velocity P-wave (km/s) = 3.47008 6.90043 5.46156
#
# Compressibility (1/GPa) = 0.09209021
#
# Stress axis : x y z
#
# Youngs Moduli (GPa) = 28.92246 74.08169 49.48092
#
# Poissons Ratio (x) = -0.14391 -0.59947
# Poissons Ratio (y) = -0.05618 0.10660
# Poissons Ratio (z) = -0.35040 0.15960
#
# Static dielectric constant tensor:
#      x y z
#    x 1.958510 -0.012290 -0.030230 
#    y -0.012290 1.886500 -0.051570 
#    z -0.030230 -0.051570 1.847510 
# 
# From -- ./inp_files/392332.got.cif
#   From: 2010.05.17/outbox.cif.g08.bks.cpg/sg2_197_cif.got.tgz:392332.got - 2010.06.03 11:33:40.
