data_PCOD9072823
_publ_section_title
;
Structure prediction by ZEFSAII (Michael W. Deem and Ramdas Pophale) SiO2 
 PCOD9072823
Probable space group: P -1
;
_chemical_formula_sum "Si O2"
_cell_formula_units_Z 16
_cell_length_a 12.000000
_cell_length_b 12.000000
_cell_length_c 9.000000
_cell_angle_alpha 130.000000
_cell_angle_beta 90.000000
_cell_angle_gamma 120.000000
_cell_volume 752.153660
_symmetry_space_group_name_H-M "P -1"
_symmetry_group_IT_number 2
_symmetry_cell_setting 'triclinic'
loop_
_space_group_symop_operation_xyz
x,y,z
-x,-y,-z
loop_
_atom_site_type_symbol
_atom_site_label
_atom_site_fract_x
_atom_site_fract_y
_atom_site_fract_z
Si Si1 0.416670 0.526822 0.892657
Si Si2 0.666933 0.178907 0.103430
Si Si3 0.698736 0.728654 0.884019
Si Si4 0.393748 0.992649 0.371949
Si Si5 0.662067 0.399688 0.760790
Si Si6 0.240151 0.403776 0.511008
Si Si7 0.879941 0.327950 0.735774
Si Si8 0.902479 0.183760 0.301346
O O1 0.545662 0.662503 0.890230
O O2 0.278475 0.374329 0.652521
O O3 0.500000 0.500000 0.000000
O O4 0.362221 0.608775 0.069240
O O5 0.697019 0.376551 0.298536
O O6 0.797890 0.199595 0.208967
O O7 0.500000 0.000000 0.000000
O O8 0.654493 0.123683 0.881908
O O9 0.722378 0.603183 0.874505
O O10 0.693610 0.657396 0.657411
O O11 0.815348 0.956036 0.104163
O O12 0.502472 0.222620 0.538580
O O13 0.500000 0.000000 0.500000
O O14 0.237961 0.877162 0.356035
O O15 0.781812 0.378111 0.717610
O O16 0.071722 0.285116 0.353497
O O17 0.924802 0.279767 0.545580
O O18 0.000000 0.500000 0.000000
#
# Coordination Sequence:
#
# PCOD9072823 Si02
#       8
#     2   2   2   2   2   2   2   2
#     4  10  22  41  66  94 124 167 219 268 319 382
#     4  12  24  41  69  99 129 170 221 274 324 386
#     4  11  24  43  65  91 129 175 217 263 321 392
#     4  10  20  37  63  94 123 161 211 264 313 370
#     4  10  21  42  66  94 127 165 213 269 322 381
#     4  12  24  44  65  93 133 174 216 270 326 388
#     4  11  22  41  67  96 129 168 211 266 328 388
#     4  12  26  43  64  99 135 172 216 268 329 391
#
# _framework density 21.272248999999999
#
# number of rings (size 3 to 8) (size 9 to 14) (size 15 to 20)
#    0.000    1.000    0.000    8.625    0.000    3.000 
#    0.000    8.125    0.000    0.000    0.000    0.000 
#    0.000    0.000    0.000    0.000    0.000    0.000 
#
# Total GULP energy -89177.315152 kJ/mol
# GULP energy per Si atom -5573.582197 kJ/mol
# Density = 2.122383 g / cm^3
# Si number density = 21.272249 Si / 1000 Ang^3
#
#
#
# Elastic Constant Matrix: (Units=GPa)
#
#
# Indices 1 2 3 4 5 6 
#
# 1 70.3767 31.0047 24.0877 2.6191 15.3585 -4.5869
# 2 31.0047 64.8631 43.6452 -0.5310 -0.1518 -9.0859
# 3 24.0877 43.6452 172.8697 -9.1699 2.2341 -1.7998
# 4 2.6191 -0.5310 -9.1699 53.0538 3.0299 -7.4599
# 5 15.3585 -0.1518 2.2341 3.0299 55.1400 -4.6435
# 6 -4.5869 -9.0859 -1.7998 -7.4599 -4.6435 38.3048
#
#
#
# Elastic Compliance Matrix: (Units=1/GPa)
#
#
# Indices 1 2 3 4 5 6 
#
# 1 0.019587 -0.009221 -0.000386 -0.000912 -0.005474 -0.000701
# 2 -0.009221 0.023631 -0.004654 0.000371 0.003201 0.004743
# 3 -0.000386 -0.004654 0.007070 0.001123 -0.000307 -0.000636
# 4 -0.000912 0.000371 0.001123 0.019656 -0.000551 0.003793
# 5 -0.005474 0.003201 -0.000307 -0.000551 0.019914 0.002396
# 6 -0.000701 0.004743 -0.000636 0.003793 0.002396 0.028147
#
#
# Mechanical properties :
#
#
# Convention : Reuss Voigt Hill
#
# Bulk Modulus (GPa) = 45.94251 56.17605 51.05928
# Shear Modulus (GPa) = 32.51351 43.25784 37.88567
#
# Velocity S-wave (km/s) = 3.91378 4.51436 4.22476
# Velocity P-wave (km/s) = 6.48597 7.32380 6.91758
#
# Compressibility (1/GPa) = 0.02176633
#
# Stress axis : x y z
#
# Youngs Moduli (GPa) = 51.05491 42.31711 141.43663
#
# Poissons Ratio (x) = 0.39022 0.05460
# Poissons Ratio (y) = 0.47079 0.65820
# Poissons Ratio (z) = 0.01971 0.19693
#
# Static dielectric constant tensor:
#      x y z
#    x 1.809040 0.003140 -0.023930 
#    y 0.003140 1.871390 -0.005850 
#    z -0.023930 -0.005850 1.777980 
# 
# From -- ./inp_files/244030.got.cif
#   From: 2010.05.17/outbox.ucp.g08.bks.cvg/sg2_123_cif.got.tgz:244030.got - 2010.06.11 11:32:03.
