data_PCOD9072397
_publ_section_title
;
Structure prediction by ZEFSAII (Michael W. Deem and Ramdas Pophale) SiO2 
 PCOD9072397
Probable space group: P -1
;
_chemical_formula_sum "Si O2"
_cell_formula_units_Z 16
_cell_length_a 9.861029
_cell_length_b 22.214873
_cell_length_c 26.852510
_cell_angle_alpha 11.909893
_cell_angle_beta 35.430790
_cell_angle_gamma 32.782312
_cell_volume 655.685380
_symmetry_space_group_name_H-M "P -1"
_symmetry_group_IT_number 2
_symmetry_cell_setting 'triclinic'
loop_
_space_group_symop_operation_xyz
x,y,z
-x,-y,-z
loop_
_atom_site_type_symbol
_atom_site_label
_atom_site_fract_x
_atom_site_fract_y
_atom_site_fract_z
Si Si1 0.439800 0.057005 0.112361
Si Si2 0.338261 0.475946 0.019739
Si Si3 0.986638 0.149621 0.610848
Si Si4 0.976781 0.315959 0.311977
Si Si5 0.420376 0.863413 0.383432
Si Si6 0.803565 0.217469 0.807756
Si Si7 0.130245 0.215939 0.625621
Si Si8 0.290086 0.351137 0.283496
O O1 0.455417 0.043082 0.178804
O O2 0.254540 0.401894 0.870940
O O3 0.691074 0.016700 0.038619
O O4 0.303613 0.811927 0.337907
O O5 0.523276 0.461916 0.930261
O O6 0.117887 0.818848 0.810169
O O7 0.500000 0.500000 0.000000
O O8 0.199602 0.236787 0.268942
O O9 0.064038 0.141398 0.651469
O O10 0.115674 0.367055 0.369910
O O11 0.862027 0.075307 0.564651
O O12 0.097968 0.422410 0.237080
O O13 0.566947 0.490005 0.630976
O O14 0.578879 0.888403 0.363370
O O15 0.938769 0.412307 0.642417
O O16 0.993384 0.076342 0.820295
O O17 0.500000 0.000000 0.500000
#
# Coordination Sequence:
#
# PCOD9072397 Si02
#       8
#     2   2   2   2   2   2   2   2
#     4  10  18  31  57  78 102 140 185 210 264 314
#     4   8  16  29  50  77 105 132 168 217 263 312
#     4  10  18  30  56  85 100 136 180 227 256 302
#     4   9  16  30  52  79 101 136 177 209 252 327
#     4   9  17  33  56  73 104 148 175 206 266 327
#     4   8  19  37  54  71 110 150 172 208 269 321
#     4   9  19  37  52  75 114 135 180 220 260 312
#     4   9  16  29  51  81 103 134 170 216 269 313
#
# _framework density 24.401945999999999
#
# number of rings (size 3 to 8) (size 9 to 14) (size 15 to 20)
#    0.750    2.250    1.250    0.000    0.000    1.000 
#    0.000    4.375    0.000    7.500    0.000    0.000 
#    0.000    0.000    0.000    0.000    0.000    0.000 
#
# Total GULP energy -89085.418292 kJ/mol
# GULP energy per Si atom -5567.838643 kJ/mol
# Density = 2.434641 g / cm^3
# Si number density = 24.401946 Si / 1000 Ang^3
#
#
#
# Elastic Constant Matrix: (Units=GPa)
#
#
# Indices 1 2 3 4 5 6 
#
# 1 57.0319 18.5925 7.4052 1.4068 9.0199 10.3287
# 2 18.5925 101.3686 67.0995 57.0566 -13.4544 7.6642
# 3 7.4052 67.0995 105.1938 54.4072 3.2959 4.1416
# 4 1.4068 57.0566 54.4072 60.9952 -13.1055 1.1061
# 5 9.0199 -13.4544 3.2959 -13.1055 32.7168 4.9917
# 6 10.3287 7.6642 4.1416 1.1061 4.9917 27.7060
#
#
#
# Elastic Compliance Matrix: (Units=1/GPa)
#
#
# Indices 1 2 3 4 5 6 
#
# 1 0.021879 -0.008089 0.002163 0.003647 -0.007342 -0.005065
# 2 -0.008089 0.027653 -0.009164 -0.015502 0.008965 -0.004260
# 3 0.002163 -0.009164 0.023400 -0.015159 -0.012974 0.001174
# 4 0.003647 -0.015502 -0.015159 0.047077 0.012852 0.001000
# 5 -0.007342 0.008965 -0.012974 0.012852 0.043675 -0.006185
# 6 -0.005065 -0.004260 0.001174 0.001000 -0.006185 0.040059
#
#
# Mechanical properties :
#
#
# Convention : Reuss Voigt Hill
#
# Bulk Modulus (GPa) = 23.39174 49.97652 36.68413
# Shear Modulus (GPa) = 20.14717 35.65007 27.89862
#
# Velocity S-wave (km/s) = 2.87651 3.82639 3.38493
# Velocity P-wave (km/s) = 4.54304 6.32824 5.50844
#
# Compressibility (1/GPa) = 0.04275013
#
# Stress axis : x y z
#
# Youngs Moduli (GPa) = 45.70644 36.16306 42.73448
#
# Poissons Ratio (x) = 0.29252 -0.09241
# Poissons Ratio (y) = 0.36971 0.39164
# Poissons Ratio (z) = -0.09884 0.33141
#
# Static dielectric constant tensor:
#      x y z
#    x 1.906780 -0.030720 -0.003870 
#    y -0.030720 2.050840 -0.061730 
#    z -0.003870 -0.061730 2.115630 
# 
# From -- ./inp_files/608545.got.cif
#   From: 2010.05.17/outbox.cif.g08.bks.cpg/sg2_305_cif.got.tgz:608545.got - 2010.06.03 11:33:40.
