data_PCOD9072395
_publ_section_title
;
Structure prediction by ZEFSAII (Michael W. Deem and Ramdas Pophale) SiO2 
 PCOD9072395
Probable space group: P -1
;
_chemical_formula_sum "Si O2"
_cell_formula_units_Z 16
_cell_length_a 9.000000
_cell_length_b 18.000000
_cell_length_c 12.000000
_cell_angle_alpha 150.000000
_cell_angle_beta 50.000000
_cell_angle_gamma 130.000000
_cell_volume 725.531033
_symmetry_space_group_name_H-M "P -1"
_symmetry_group_IT_number 2
_symmetry_cell_setting 'triclinic'
loop_
_space_group_symop_operation_xyz
x,y,z
-x,-y,-z
loop_
_atom_site_type_symbol
_atom_site_label
_atom_site_fract_x
_atom_site_fract_y
_atom_site_fract_z
Si Si1 0.935400 0.318717 0.298936
Si Si2 0.161379 0.872818 0.703410
Si Si3 0.472740 0.217478 0.335195
Si Si4 0.468968 0.925258 0.088018
Si Si5 0.467155 0.721825 0.231160
Si Si6 0.714325 0.623542 0.190758
Si Si7 0.906758 0.129348 0.655400
Si Si8 0.149046 0.084362 0.803212
O O1 0.970161 0.256426 0.324372
O O2 0.700161 0.275004 0.337048
O O3 0.000000 0.500000 0.500000
O O4 0.035372 0.223647 0.037824
O O5 0.293246 0.796059 0.456160
O O6 0.330804 0.979841 0.833810
O O7 0.071078 0.991575 0.831803
O O8 0.353799 0.326533 0.592306
O O9 0.391213 0.047523 0.204977
O O10 0.478662 0.202970 0.181960
O O11 0.304085 0.870352 0.188328
O O12 0.601878 0.697504 0.242619
O O13 0.619684 0.827856 0.210367
O O14 0.361665 0.556180 0.020709
O O15 0.945329 0.707543 0.185170
O O16 0.884140 0.053972 0.447457
O O17 0.000000 0.000000 0.500000
#
# Coordination Sequence:
#
# PCOD9072395 Si02
#       8
#     2   2   2   2   2   2   2   2
#     4  11  24  40  63  95 126 160 211 264 315 370
#     4  11  23  43  61  95 127 168 213 250 322 385
#     4  10  19  36  58  87 122 158 203 259 312 356
#     4  10  20  34  58  88 123 157 207 262 299 368
#     4  11  22  39  64  90 130 168 203 263 319 377
#     4  11  22  37  62  95 126 161 213 265 315 359
#     4  12  20  36  60 100 120 157 223 264 302 365
#     4  12  24  39  69  91 127 171 210 261 311 380
#
# _framework density 22.052813
#
# number of rings (size 3 to 8) (size 9 to 14) (size 15 to 20)
#    0.000    1.000    6.250    2.250    5.250    0.000 
#    0.000    0.625    2.750    1.500    0.000    0.000 
#    0.000    0.000    0.000    0.000    0.000    0.000 
#
# Total GULP energy -89324.273943 kJ/mol
# GULP energy per Si atom -5582.767121 kJ/mol
# Density = 2.200262 g / cm^3
# Si number density = 22.052813 Si / 1000 Ang^3
#
#
#
# Elastic Constant Matrix: (Units=GPa)
#
#
# Indices 1 2 3 4 5 6 
#
# 1 31.4673 33.6646 46.8484 2.7025 15.9286 -0.2519
# 2 33.6646 110.4153 75.6876 1.8048 15.0099 11.5293
# 3 46.8484 75.6876 37.8291 15.6087 6.1501 2.0276
# 4 2.7025 1.8048 15.6087 35.8638 9.8511 3.1249
# 5 15.9286 15.0099 6.1501 9.8511 23.6447 -1.0735
# 6 -0.2519 11.5293 2.0276 3.1249 -1.0735 31.5930
#
#
#
# Elastic Compliance Matrix: (Units=1/GPa)
#
#
# Indices 1 2 3 4 5 6 
#
# 1 0.023257 -0.024328 0.024385 -0.011510 -0.001381 0.008590
# 2 -0.024328 0.012781 0.004577 -0.002583 0.007951 -0.004626
# 3 0.024385 0.004577 -0.013471 0.009445 -0.019865 -0.002221
# 4 -0.011510 -0.002583 0.009445 0.026098 -0.004048 -0.002474
# 5 -0.001381 0.007951 -0.019865 -0.004048 0.045043 0.000293
# 6 0.008590 -0.004626 -0.002221 -0.002474 0.000293 0.033807
#
#
# Mechanical properties :
#
#
# Convention : Reuss Voigt Hill
#
# Bulk Modulus (GPa) = 31.41006 54.67921 43.04464
# Shear Modulus (GPa) = 38.80253 19.78769 29.29511
#
# Velocity S-wave (km/s) = 4.19922 2.99872 3.64869
# Velocity P-wave (km/s) = 6.14698 6.06945 6.10834
#
# Compressibility (1/GPa) = 0.03183693
#
# Stress axis : x y z
#
# Youngs Moduli (GPa) = 42.99745 78.24141 -74.23492
#
# Poissons Ratio (x) = 1.90342 1.81024
# Poissons Ratio (y) = 1.04602 0.33978
# Poissons Ratio (z) = -1.04851 -0.35812
#
# Static dielectric constant tensor:
#      x y z
#    x 1.904940 -0.094460 0.014900 
#    y -0.094460 1.722360 -0.130500 
#    z 0.014900 -0.130500 1.774050 
# 
# From -- ./inp_files/278181.got.cif
#   From: 2010.05.17/outbox.ucp.g08.bks.cvg/sg2_140_cif.got.tgz:278181.got - 2010.06.11 11:32:03.
