data_PCOD9072963
_publ_section_title
;
Structure prediction by ZEFSAII (Michael W. Deem and Ramdas Pophale) SiO2 
 PCOD9072963
Probable space group: P -1
;
_chemical_formula_sum "Si O2"
_cell_formula_units_Z 16
_cell_length_a 9.000000
_cell_length_b 15.000000
_cell_length_c 12.000000
_cell_angle_alpha 120.000000
_cell_angle_beta 120.000000
_cell_angle_gamma 110.000000
_cell_volume 745.925389
_symmetry_space_group_name_H-M "P -1"
_symmetry_group_IT_number 2
_symmetry_cell_setting 'triclinic'
loop_
_space_group_symop_operation_xyz
x,y,z
-x,-y,-z
loop_
_atom_site_type_symbol
_atom_site_label
_atom_site_fract_x
_atom_site_fract_y
_atom_site_fract_z
Si Si1 0.890711 0.855604 0.167850
Si Si2 0.657700 0.323715 0.049303
Si Si3 0.479941 0.497662 0.290149
Si Si4 0.505450 0.144753 0.663400
Si Si5 0.123500 0.958544 0.074919
Si Si6 0.866957 0.615054 0.706012
Si Si7 0.649493 0.138339 0.477627
Si Si8 0.758234 0.606742 0.249383
O O1 0.025930 0.933929 0.148099
O O2 0.648049 0.817282 0.095095
O O3 0.735584 0.672394 0.971554
O O4 0.168654 0.993070 0.432339
O O5 0.770068 0.491653 0.213480
O O6 0.879554 0.344606 0.186562
O O7 0.615433 0.281538 0.875402
O O8 0.660603 0.517020 0.460301
O O9 0.302331 0.483596 0.301759
O O10 0.688609 0.635572 0.356350
O O11 0.656075 0.207189 0.638504
O O12 0.541053 0.050232 0.676467
O O13 0.459539 0.107036 0.296461
O O14 0.986965 0.788445 0.871252
O O15 0.000000 0.000000 0.000000
O O16 0.943544 0.237924 0.602368
O O17 0.500000 0.500000 0.000000
#
# Coordination Sequence:
#
# PCOD9072963 Si02
#       8
#     2   2   2   2   2   2   2   2
#     4   9  20  37  61  88 118 162 197 248 306 361
#     4  11  22  38  66  90 117 161 210 251 295 366
#     4   9  21  41  62  85 127 161 202 251 305 361
#     4  10  20  39  65  88 121 163 205 243 301 374
#     4  10  21  40  60  87 125 159 201 251 312 358
#     4  10  21  41  65  90 114 167 216 245 292 372
#     4  10  21  38  63  89 123 163 199 251 310 360
#     4  11  25  41  59  94 131 159 196 260 316 353
#
# _framework density 21.449867000000001
#
# number of rings (size 3 to 8) (size 9 to 14) (size 15 to 20)
#    0.000    2.000    1.250    1.875    3.500    6.500 
#    6.750    1.250    0.000    0.000    0.000    0.000 
#    0.000    0.000    0.000    0.000    0.000    0.000 
#
# Total GULP energy -89214.918371 kJ/mol
# GULP energy per Si atom -5575.932398 kJ/mol
# Density = 2.140105 g / cm^3
# Si number density = 21.449867 Si / 1000 Ang^3
#
#
#
# Elastic Constant Matrix: (Units=GPa)
#
#
# Indices 1 2 3 4 5 6 
#
# 1 104.8226 21.7521 1.8887 -3.1140 26.7253 13.3890
# 2 21.7521 47.5937 11.4822 -7.4655 17.3518 1.3505
# 3 1.8887 11.4822 54.1400 -11.7474 16.9398 4.7389
# 4 -3.1140 -7.4655 -11.7474 18.5040 -2.2838 7.8823
# 5 26.7253 17.3518 16.9398 -2.2838 45.6294 -1.1091
# 6 13.3890 1.3505 4.7389 7.8823 -1.1091 45.8726
#
#
#
# Elastic Compliance Matrix: (Units=1/GPa)
#
#
# Indices 1 2 3 4 5 6 
#
# 1 0.012894 -0.003172 0.004122 0.004719 -0.007764 -0.005094
# 2 -0.003172 0.027003 -0.001065 0.009413 -0.007582 -0.001560
# 3 0.004122 -0.001065 0.026869 0.019136 -0.011209 -0.007507
# 4 0.004719 0.009413 0.019136 0.076820 -0.010018 -0.017073
# 5 -0.007764 -0.007582 -0.011209 -0.010018 0.033156 0.006170
# 6 -0.005094 -0.001560 -0.007507 -0.017073 0.006170 0.027191
#
#
# Mechanical properties :
#
#
# Convention : Reuss Voigt Hill
#
# Bulk Modulus (GPa) = 15.02938 30.75580 22.89259
# Shear Modulus (GPa) = 22.09044 33.43011 27.76027
#
# Velocity S-wave (km/s) = 3.21263 3.95210 3.60139
# Velocity P-wave (km/s) = 4.55887 5.93254 5.29048
#
# Compressibility (1/GPa) = 0.06653633
#
# Stress axis : x y z
#
# Youngs Moduli (GPa) = 77.55360 37.03285 37.21731
#
# Poissons Ratio (x) = 0.11748 -0.15341
# Poissons Ratio (y) = 0.24603 0.03963
# Poissons Ratio (z) = -0.31968 0.03943
#
# Static dielectric constant tensor:
#      x y z
#    x 1.794670 -0.018590 0.039850 
#    y -0.018590 1.948780 -0.037780 
#    z 0.039850 -0.037780 1.846040 
# 
# From -- ./inp_files/273486.got.cif
#   From: 2010.05.17/outbox.ucp.g08.bks.cvg/sg2_137_cif.got.tgz:273486.got - 2010.06.11 11:32:03.
