data_PCOD9072738
_publ_section_title
;
Structure prediction by ZEFSAII (Michael W. Deem and Ramdas Pophale) SiO2 
 PCOD9072738
Probable space group: P -1
;
_chemical_formula_sum "Si O2"
_cell_formula_units_Z 16
_cell_length_a 15.000000
_cell_length_b 21.000000
_cell_length_c 12.000000
_cell_angle_alpha 150.000000
_cell_angle_beta 30.000000
_cell_angle_gamma 150.000000
_cell_volume 837.063958
_symmetry_space_group_name_H-M "P -1"
_symmetry_group_IT_number 2
_symmetry_cell_setting 'triclinic'
loop_
_space_group_symop_operation_xyz
x,y,z
-x,-y,-z
loop_
_atom_site_type_symbol
_atom_site_label
_atom_site_fract_x
_atom_site_fract_y
_atom_site_fract_z
Si Si1 0.906798 0.041982 0.485094
Si Si2 0.699586 0.930878 0.781021
Si Si3 0.510019 0.184387 0.730972
Si Si4 0.822189 0.722060 0.046543
Si Si5 0.552664 0.339338 0.496229
Si Si6 0.199457 0.873253 0.512023
Si Si7 0.242145 0.338600 0.234343
Si Si8 0.725249 0.203057 0.288030
O O1 0.842105 0.112258 0.555883
O O2 0.136233 0.099447 0.372402
O O3 0.787525 0.012569 0.689075
O O4 0.860644 0.886702 0.250504
O O5 0.523131 0.779071 0.699733
O O6 0.653477 0.040030 0.071948
O O7 0.645682 0.184235 0.690930
O O8 0.640740 0.206985 0.509343
O O9 0.312460 0.031429 0.686942
O O10 0.414986 0.293345 0.010386
O O11 0.641676 0.654163 0.228038
O O12 0.765220 0.658821 0.888926
O O13 0.031661 0.726593 0.863522
O O14 0.700972 0.500849 0.543882
O O15 0.648280 0.283054 0.405088
O O16 0.977385 0.775843 0.655992
#
# Coordination Sequence:
#
# PCOD9072738 Si02
#       8
#     2   2   2   2   2   2   2   2
#     4   9  18  38  66  89 118 153 207 259 297 343
#     4   9  20  39  65  92 115 156 210 254 294 348
#     4  11  23  37  63  95 120 154 206 252 305 366
#     4  10  20  36  59  90 121 156 196 252 305 349
#     4  11  23  38  60  89 128 165 198 245 303 365
#     4  11  23  39  61  91 124 161 200 251 306 360
#     4  12  23  39  58  89 134 161 193 245 311 372
#     4  11  21  38  66  93 118 155 207 260 297 350
#
# _framework density 19.114429999999999
#
# number of rings (size 3 to 8) (size 9 to 14) (size 15 to 20)
#    0.000    1.500    3.750    2.625    0.000    2.500 
#    0.000    0.625    0.000    3.750    0.000    0.000 
#    0.000    0.000    0.000    0.000    0.000    0.000 
#
# Total GULP energy -89255.980107 kJ/mol
# GULP energy per Si atom -5578.498757 kJ/mol
# Density = 1.907092 g / cm^3
# Si number density = 19.114430 Si / 1000 Ang^3
#
#
#
# Elastic Constant Matrix: (Units=GPa)
#
#
# Indices 1 2 3 4 5 6 
#
# 1 155.6053 27.8170 30.8883 4.9428 -20.7997 3.8989
# 2 27.8170 70.3608 30.4235 -6.1699 -18.3224 2.8862
# 3 30.8883 30.4235 65.3896 -1.1217 -17.8000 2.3151
# 4 4.9428 -6.1699 -1.1217 27.9494 3.0481 -2.9860
# 5 -20.7997 -18.3224 -17.8000 3.0481 36.0822 -2.4557
# 6 3.8989 2.8862 2.3151 -2.9860 -2.4557 19.1555
#
#
#
# Elastic Compliance Matrix: (Units=1/GPa)
#
#
# Indices 1 2 3 4 5 6 
#
# 1 0.007574 -0.001523 -0.002149 -0.002162 0.002643 -0.001051
# 2 -0.001523 0.019490 -0.006821 0.003660 0.005307 -0.000551
# 3 -0.002149 -0.006821 0.021041 -0.000958 0.005725 -0.000493
# 4 -0.002162 0.003660 -0.000958 0.037817 -0.002677 0.005556
# 5 0.002643 0.005307 0.005725 -0.002677 0.035123 0.002056
# 6 -0.001051 -0.000551 -0.000493 0.005556 0.002056 0.053691
#
#
# Mechanical properties :
#
#
# Convention : Reuss Voigt Hill
#
# Bulk Modulus (GPa) = 36.87715 52.17925 44.52820
# Shear Modulus (GPa) = 24.41856 30.11919 27.26888
#
# Velocity S-wave (km/s) = 3.57808 3.97385 3.78115
# Velocity P-wave (km/s) = 6.03365 6.95794 6.51222
#
# Compressibility (1/GPa) = 0.02711706
#
# Stress axis : x y z
#
# Youngs Moduli (GPa) = 132.03412 51.30904 47.52535
#
# Poissons Ratio (x) = 0.07815 0.10215
# Poissons Ratio (y) = 0.20110 0.32419
# Poissons Ratio (z) = 0.28379 0.35000
#
# Static dielectric constant tensor:
#      x y z
#    x 1.676470 -0.001180 -0.020980 
#    y -0.001180 1.711000 -0.016450 
#    z -0.020980 -0.016450 1.676700 
# 
# From -- ./inp_files/457524.got.cif
#   From: 2010.05.17/outbox.ucp.g08.bks.cvg/sg2_229_cif.got.tgz:457524.got - 2010.06.11 11:32:03.
