data_PCOD9072711
_publ_section_title
;
Structure prediction by ZEFSAII (Michael W. Deem and Ramdas Pophale) SiO2 
 PCOD9072711
Probable space group: P -1
;
_chemical_formula_sum "Si O2"
_cell_formula_units_Z 16
_cell_length_a 9.000000
_cell_length_b 12.000000
_cell_length_c 9.000000
_cell_angle_alpha 80.000000
_cell_angle_beta 60.000000
_cell_angle_gamma 60.000000
_cell_volume 725.212580
_symmetry_space_group_name_H-M "P -1"
_symmetry_group_IT_number 2
_symmetry_cell_setting 'triclinic'
loop_
_space_group_symop_operation_xyz
x,y,z
-x,-y,-z
loop_
_atom_site_type_symbol
_atom_site_label
_atom_site_fract_x
_atom_site_fract_y
_atom_site_fract_z
Si Si1 0.999792 0.346481 0.412296
Si Si2 0.248307 0.649708 0.709525
Si Si3 0.077623 0.754890 0.076345
Si Si4 0.483657 0.348730 0.680978
Si Si5 0.433229 0.752628 0.002918
Si Si6 0.757655 0.500836 0.760916
Si Si7 0.358207 0.168027 0.658874
Si Si8 0.383449 0.110294 0.318108
O O1 0.126784 0.419233 0.340187
O O2 0.148785 0.196210 0.401123
O O3 0.925126 0.361214 0.281273
O O4 0.817240 0.413576 0.601607
O O5 0.398624 0.501724 0.710582
O O6 0.348339 0.693465 0.520443
O O7 0.150779 0.743226 0.873886
O O8 0.201951 0.810482 0.085232
O O9 0.154192 0.608035 0.131456
O O10 0.847634 0.828596 0.207497
O O11 0.525766 0.283143 0.836603
O O12 0.338088 0.303541 0.689828
O O13 0.544076 0.614910 0.887980
O O14 0.516593 0.840595 0.866905
O O15 0.416097 0.147276 0.460867
O O16 0.524216 0.043828 0.691596
#
# Coordination Sequence:
#
# PCOD9072711 Si02
#       8
#     2   2   2   2   2   2   2   2
#     4  10  21  38  63  95 127 169 210 259 318 379
#     4  11  25  38  64  97 136 161 210 260 323 378
#     4  12  23  39  65  97 128 167 211 257 322 379
#     4  11  25  42  63  97 134 167 205 264 320 376
#     4  11  24  41  66  97 132 167 207 260 324 379
#     4  10  20  35  63  94 128 165 202 259 323 381
#     4  11  25  45  69  91 125 170 221 263 307 375
#     4  10  24  46  68  89 126 172 218 261 315 369
#
# _framework density 22.062495999999999
#
# number of rings (size 3 to 8) (size 9 to 14) (size 15 to 20)
#    0.000    1.250    2.500    2.625   10.500    2.000 
#    0.000    0.625    0.000    0.000    0.000    0.000 
#    0.000    0.000    0.000    0.000    0.000    0.000 
#
# Total GULP energy -89318.781039 kJ/mol
# GULP energy per Si atom -5582.423815 kJ/mol
# Density = 2.201228 g / cm^3
# Si number density = 22.062496 Si / 1000 Ang^3
#
#
#
# Elastic Constant Matrix: (Units=GPa)
#
#
# Indices 1 2 3 4 5 6 
#
# 1 51.2550 6.3342 24.5213 12.3425 -4.6286 -8.0282
# 2 6.3342 46.6729 4.9549 -13.6149 -3.4538 -14.0017
# 3 24.5213 4.9549 106.4611 -30.9337 11.5696 1.5075
# 4 12.3425 -13.6149 -30.9337 19.0176 -4.5768 0.9315
# 5 -4.6286 -3.4538 11.5696 -4.5768 24.6410 -0.2177
# 6 -8.0282 -14.0017 1.5075 0.9315 -0.2177 17.0035
#
#
#
# Elastic Compliance Matrix: (Units=1/GPa)
#
#
# Indices 1 2 3 4 5 6 
#
# 1 -0.054261 0.049929 0.058304 0.165792 0.000236 0.001247
# 2 0.049929 0.001382 -0.041892 -0.098513 0.011244 0.033966
# 3 0.058304 -0.041892 -0.041507 -0.135691 -0.000598 0.004138
# 4 0.165792 -0.098513 -0.135691 -0.343426 0.017507 0.028225
# 5 0.000236 0.011244 -0.000598 0.017507 0.045816 0.009051
# 6 0.001247 0.033966 0.004138 0.028225 0.009051 0.085572
#
#
# Mechanical properties :
#
#
# Convention : Reuss Voigt Hill
#
# Bulk Modulus (GPa) = 26.11198 30.66777 28.38987
# Shear Modulus (GPa) = -11.72770 23.37099 5.82164
#
# Velocity S-wave (km/s) = -2.30808 3.25823 1.62617
# Velocity P-wave (km/s) = 2.18133 5.29956 4.05238
#
# Compressibility (1/GPa) = 0.03829660
#
# Stress axis : x y z
#
# Youngs Moduli (GPa) = -18.42949 723.81284 -24.09243
#
# Poissons Ratio (x) = -36.13921 1.40468
# Poissons Ratio (y) = 0.92016 -1.00927
# Poissons Ratio (z) = 1.07451 30.32165
#
# Static dielectric constant tensor:
#      x y z
#    x 1.878220 -0.013470 0.023550 
#    y -0.013470 1.788560 0.006920 
#    z 0.023550 0.006920 1.799630 
# 
# From -- ./inp_files/186513.got.cif
#   From: 2010.05.17/outbox.ucp.g08.bks.cvg/sg2_94_cif.got.tgz:186513.got - 2010.06.11 11:32:03.
