data_PCOD9072728
_publ_section_title
;
Structure prediction by ZEFSAII (Michael W. Deem and Ramdas Pophale) SiO2 
 PCOD9072728
Probable space group: P -1
;
_chemical_formula_sum "Si O2"
_cell_formula_units_Z 14
_cell_length_a 18.000000
_cell_length_b 21.000000
_cell_length_c 9.000000
_cell_angle_alpha 40.000000
_cell_angle_beta 130.000000
_cell_angle_gamma 160.000000
_cell_volume 700.468056
_symmetry_space_group_name_H-M "P -1"
_symmetry_group_IT_number 2
_symmetry_cell_setting 'triclinic'
loop_
_space_group_symop_operation_xyz
x,y,z
-x,-y,-z
loop_
_atom_site_type_symbol
_atom_site_label
_atom_site_fract_x
_atom_site_fract_y
_atom_site_fract_z
Si Si1 0.288147 0.593942 0.687450
Si Si2 0.140140 0.170661 0.019844
Si Si3 0.769488 0.331771 0.225583
Si Si4 0.244487 0.752006 0.174779
Si Si5 0.665106 0.045044 0.785155
Si Si6 0.566860 0.714063 0.620929
Si Si7 0.885468 0.062254 0.120859
O O1 0.319984 0.681417 0.728800
O O2 0.202151 0.603308 0.452458
O O3 0.489678 0.733038 0.595381
O O4 0.115489 0.341834 0.950727
O O5 0.330888 0.436308 0.761590
O O6 0.289475 0.223993 0.195877
O O7 0.965991 0.047725 0.145107
O O8 0.000000 0.000000 0.000000
O O9 0.726229 0.178592 0.495572
O O10 0.041475 0.594672 0.084839
O O11 0.612060 0.208905 0.103353
O O12 0.225899 0.809772 0.185672
O O13 0.500000 0.000000 0.000000
O O14 0.742643 0.005801 0.935249
O O15 0.729506 0.892482 0.368844
#
# Coordination Sequence:
#
# PCOD9072728 Si02
#       7
#     2   2   2   2   2   2   2
#     4  10  20  37  61  85 125 161 201 248 300 359
#     4  10  24  44  64  90 121 154 198 255 311 372
#     4  10  20  36  57  85 123 169 197 246 295 346
#     4  11  20  36  58  85 125 166 205 246 298 356
#     4  10  20  36  57  86 120 163 204 241 298 349
#     4  10  23  42  63  92 118 158 200 249 313 367
#     4  11  20  40  66  89 124 158 202 256 302 365
#
# _framework density 19.986636000000001
#
# number of rings (size 3 to 8) (size 9 to 14) (size 15 to 20)
#    0.000    1.714    2.857    2.143    2.000    1.143 
#    2.571    0.000    0.000    0.000    0.000    0.000 
#    0.000    0.000    0.000    0.000    0.000    0.000 
#
# Total GULP energy -77984.063269 kJ/mol
# GULP energy per Si atom -5570.290233 kJ/mol
# Density = 1.994115 g / cm^3
# Si number density = 19.986636 Si / 1000 Ang^3
#
#
#
# Elastic Constant Matrix: (Units=GPa)
#
#
# Indices 1 2 3 4 5 6 
#
# 1 118.9137 29.5386 30.4095 -5.6134 -0.6610 19.0603
# 2 29.5386 104.5632 14.5459 -10.3222 7.3586 10.1933
# 3 30.4095 14.5459 61.7747 -20.9517 -16.3185 -1.2350
# 4 -5.6134 -10.3222 -20.9517 26.3749 13.1632 -0.5718
# 5 -0.6610 7.3586 -16.3185 13.1632 31.5472 -6.1443
# 6 19.0603 10.1933 -1.2350 -0.5718 -6.1443 28.8495
#
#
#
# Elastic Compliance Matrix: (Units=1/GPa)
#
#
# Indices 1 2 3 4 5 6 
#
# 1 0.011945 -0.001406 -0.007528 -0.002123 -0.004112 -0.008635
# 2 -0.001406 0.011855 -0.002001 0.006346 -0.007412 -0.004799
# 3 -0.007528 -0.002001 0.028492 0.015187 0.010550 0.009448
# 4 -0.002123 0.006346 0.015187 0.062011 -0.020178 -0.003258
# 5 -0.004112 -0.007412 0.010550 -0.020178 0.050356 0.016112
# 6 -0.008635 -0.004799 0.009448 -0.003258 0.016112 0.045835
#
#
# Mechanical properties :
#
#
# Convention : Reuss Voigt Hill
#
# Bulk Modulus (GPa) = 32.87087 48.24884 40.55986
# Shear Modulus (GPa) = 20.61835 31.40482 26.01159
#
# Velocity S-wave (km/s) = 3.21535 3.96825 3.61147
# Velocity P-wave (km/s) = 5.50152 6.72228 6.14230
#
# Compressibility (1/GPa) = 0.03042208
#
# Stress axis : x y z
#
# Youngs Moduli (GPa) = 83.71915 84.35302 35.09815
#
# Poissons Ratio (x) = 0.11856 0.26421
# Poissons Ratio (y) = 0.11767 0.07024
# Poissons Ratio (z) = 0.63022 0.16881
#
# Static dielectric constant tensor:
#      x y z
#    x 1.728170 0.044290 0.007800 
#    y 0.044290 1.798500 -0.041970 
#    z 0.007800 -0.041970 1.697520 
# 
# From -- ./inp_files/337481.got.cif
#   From: 2010.05.17/outbox.ucp.g08.bks.cvg/sg2_169_cif.got.tgz:337481.got - 2010.06.11 11:32:03.
