data_PCOD9072806
_publ_section_title
;
Structure prediction by ZEFSAII (Michael W. Deem and Ramdas Pophale) SiO2 
 PCOD9072806
Probable space group: P -1
;
_chemical_formula_sum "Si O2"
_cell_formula_units_Z 16
_cell_length_a 31.015059
_cell_length_b 12.119848
_cell_length_c 11.756641
_cell_angle_alpha 32.063944
_cell_angle_beta 155.899626
_cell_angle_gamma 160.452022
_cell_volume 601.158987
_symmetry_space_group_name_H-M "P -1"
_symmetry_group_IT_number 2
_symmetry_cell_setting 'triclinic'
loop_
_space_group_symop_operation_xyz
x,y,z
-x,-y,-z
loop_
_atom_site_type_symbol
_atom_site_label
_atom_site_fract_x
_atom_site_fract_y
_atom_site_fract_z
Si Si1 0.593995 0.944769 0.163754
Si Si2 0.095558 0.849144 0.133858
Si Si3 0.750446 0.424961 0.325494
Si Si4 0.078164 0.840186 0.651087
Si Si5 0.795234 0.020840 0.391423
Si Si6 0.134461 0.425077 0.996868
Si Si7 0.364316 0.536711 0.300769
Si Si8 0.754761 0.081419 0.791942
O O1 0.658737 0.099116 0.313141
O O2 0.674874 0.891837 0.323145
O O3 0.631958 0.226764 0.951798
O O4 0.391949 0.619880 0.968168
O O5 0.043212 0.546231 0.333158
O O6 0.943667 0.737257 0.926135
O O7 0.259894 0.228077 0.236314
O O8 0.129353 0.847656 0.086944
O O9 0.928401 0.759738 0.406162
O O10 0.780675 0.365275 0.572815
O O11 0.195028 0.082965 0.616007
O O12 0.185617 0.914491 0.948459
O O13 0.770628 0.212622 0.103736
O O14 0.977207 0.233333 0.699229
O O15 0.254131 0.419710 0.250347
O O16 0.554015 0.757049 0.582443
#
# Coordination Sequence:
#
# PCOD9072806 Si02
#       8
#     2   2   2   2   2   2   2   2
#     4   9  17  29  49  76  99 119 160 213 242 271
#     4  10  18  31  51  73  97 129 161 196 243 287
#     4   9  16  29  49  72  97 122 159 205 240 270
#     4  10  19  32  51  72 100 131 160 195 237 290
#     4   9  16  30  50  73  95 125 165 203 241 275
#     4   9  17  30  51  75  96 121 164 210 238 274
#     4  10  19  31  48  76 103 124 157 200 245 286
#     4  10  20  33  49  72 102 131 159 195 239 289
#
# _framework density 26.615255000000001
#
# number of rings (size 3 to 8) (size 9 to 14) (size 15 to 20)
#    0.000    2.500    0.000    6.000    0.000    0.000 
#    0.000   11.250    0.000    7.500    0.000    0.000 
#    0.000    1.000    0.000    0.000    0.000    0.000 
#
# Total GULP energy -89161.911553 kJ/mol
# GULP energy per Si atom -5572.619472 kJ/mol
# Density = 2.655468 g / cm^3
# Si number density = 26.615255 Si / 1000 Ang^3
#
#
#
# Elastic Constant Matrix: (Units=GPa)
#
#
# Indices 1 2 3 4 5 6 
#
# 1 186.7290 0.2697 78.7045 0.4476 11.5212 34.7084
# 2 0.2697 46.9957 2.0647 1.8271 11.5754 12.9262
# 3 78.7045 2.0647 143.1699 2.9850 25.4271 2.0371
# 4 0.4476 1.8271 2.9850 28.5535 2.3143 9.5389
# 5 11.5212 11.5754 25.4271 2.3143 54.0311 -11.0787
# 6 34.7084 12.9262 2.0371 9.5389 -11.0787 32.2935
#
#
#
# Elastic Compliance Matrix: (Units=1/GPa)
#
#
# Indices 1 2 3 4 5 6 
#
# 1 0.011097 0.006025 -0.005160 0.006281 -0.005111 -0.017622
# 2 0.006025 0.031237 -0.001255 0.007642 -0.012964 -0.025604
# 3 -0.005160 -0.001255 0.010210 -0.002526 -0.002223 0.005388
# 4 0.006281 0.007642 -0.002526 0.044017 -0.008947 -0.025722
# 5 -0.005111 -0.012964 -0.002223 -0.008947 0.028575 0.023269
# 6 -0.017622 -0.025604 0.005388 -0.025722 0.023269 0.075395
#
#
# Mechanical properties :
#
#
# Convention : Reuss Voigt Hill
#
# Bulk Modulus (GPa) = 19.31837 59.88584 39.60210
# Shear Modulus (GPa) = 22.87625 42.69933 32.78779
#
# Velocity S-wave (km/s) = 2.93493 4.00974 3.51368
# Velocity P-wave (km/s) = 4.33119 6.63225 5.60116
#
# Compressibility (1/GPa) = 0.05176420
#
# Stress axis : x y z
#
# Youngs Moduli (GPa) = 90.11220 32.01286 97.94204
#
# Poissons Ratio (x) = -0.19287 0.50537
# Poissons Ratio (y) = -0.54289 0.12293
# Poissons Ratio (z) = 0.46497 0.04018
#
# Static dielectric constant tensor:
#      x y z
#    x 2.240930 0.026340 0.058210 
#    y 0.026340 2.219150 -0.071700 
#    z 0.058210 -0.071700 2.186730 
# 
# From -- ./inp_files/477600.got.cif
#   From: 2010.05.17/outbox.cif.g08.bks.cpg/sg2_239_cif.got.tgz:477600.got - 2010.06.03 11:33:40.
