data_PCOD9072681
_publ_section_title
;
Structure prediction by ZEFSAII (Michael W. Deem and Ramdas Pophale) SiO2 
 PCOD9072681
Probable space group: P -1
;
_chemical_formula_sum "Si O2"
_cell_formula_units_Z 16
_cell_length_a 14.516255
_cell_length_b 8.071895
_cell_length_c 20.001998
_cell_angle_alpha 110.489083
_cell_angle_beta 162.864427
_cell_angle_gamma 70.621949
_cell_volume 646.820504
_symmetry_space_group_name_H-M "P -1"
_symmetry_group_IT_number 2
_symmetry_cell_setting 'triclinic'
loop_
_space_group_symop_operation_xyz
x,y,z
-x,-y,-z
loop_
_atom_site_type_symbol
_atom_site_label
_atom_site_fract_x
_atom_site_fract_y
_atom_site_fract_z
Si Si1 0.366109 0.743400 0.036601
Si Si2 0.782637 0.991939 0.535525
Si Si3 0.844437 0.903824 0.295073
Si Si4 0.142688 0.938118 0.262411
Si Si5 0.864101 0.179805 0.899585
Si Si6 0.489646 0.738840 0.897295
Si Si7 0.047978 0.621222 0.674775
Si Si8 0.617937 0.462755 0.846344
O O1 0.196050 0.602372 0.848076
O O2 0.693746 0.791842 0.234228
O O3 0.420789 0.675342 0.138785
O O4 0.114121 0.904268 0.892111
O O5 0.824621 0.120353 0.645968
O O6 0.803690 0.070626 0.486520
O O7 0.493956 0.870600 0.340492
O O8 0.038707 0.837142 0.693249
O O9 0.706493 0.096271 0.242753
O O10 0.698170 0.818918 0.113485
O O11 0.057780 0.814733 0.123515
O O12 0.500000 0.000000 0.500000
O O13 0.892403 0.371444 0.980786
O O14 0.000000 0.000000 0.000000
O O15 0.263732 0.593319 0.755880
O O16 0.658653 0.645453 0.939632
O O17 0.713131 0.529259 0.421314
#
# Coordination Sequence:
#
# PCOD9072681 Si02
#       8
#     2   2   2   2   2   2   2   2
#     4  10  19  33  57  82 107 146 183 220 280 326
#     4   8  16  31  54  75  98 141 181 216 267 325
#     4   9  18  35  57  79 109 145 180 212 276 358
#     4   9  16  29  51  76  98 140 183 223 262 311
#     4  10  18  31  49  78 110 134 179 234 265 304
#     4   9  17  32  53  76 111 146 174 219 277 324
#     4   8  17  31  47  76 111 135 170 221 271 321
#     4  11  20  31  54  84 110 139 183 235 268 310
#
# _framework density 24.736383
#
# number of rings (size 3 to 8) (size 9 to 14) (size 15 to 20)
#    0.000    2.750    1.250    3.375    0.000    2.000 
#    0.000    5.625    2.750    6.750    0.000    0.000 
#    0.000    0.000    0.000    0.000    0.000    0.000 
#
# Total GULP energy -89089.695113 kJ/mol
# GULP energy per Si atom -5568.105945 kJ/mol
# Density = 2.468008 g / cm^3
# Si number density = 24.736383 Si / 1000 Ang^3
#
#
#
# Elastic Constant Matrix: (Units=GPa)
#
#
# Indices 1 2 3 4 5 6 
#
# 1 147.1094 32.2938 8.3342 -0.8958 -1.0936 -25.3418
# 2 32.2938 97.3061 8.0080 5.9333 -3.5096 -33.8287
# 3 8.3342 8.0080 34.3885 3.4773 -2.9220 -6.0510
# 4 -0.8958 5.9333 3.4773 21.4702 -7.1001 -3.8432
# 5 -1.0936 -3.5096 -2.9220 -7.1001 35.1170 6.7787
# 6 -25.3418 -33.8287 -6.0510 -3.8432 6.7787 47.1492
#
#
#
# Elastic Compliance Matrix: (Units=1/GPa)
#
#
# Indices 1 2 3 4 5 6 
#
# 1 0.007729 -0.001489 -0.001147 0.001367 -0.000325 0.003097
# 2 -0.001489 0.014164 -0.001161 -0.002479 -0.000996 0.009154
# 3 -0.001147 -0.001161 0.030473 -0.003909 0.001214 0.001968
# 4 0.001367 -0.002479 -0.003909 0.051355 0.009610 0.001259
# 5 -0.000325 -0.000996 0.001214 0.009610 0.031269 -0.004446
# 6 0.003097 0.009154 0.001968 0.001259 -0.004446 0.030436
#
#
# Mechanical properties :
#
#
# Convention : Reuss Voigt Hill
#
# Bulk Modulus (GPa) = 22.33555 41.78622 32.06089
# Shear Modulus (GPa) = 26.60378 36.09182 31.34780
#
# Velocity S-wave (km/s) = 3.28303 3.82391 3.56374
# Velocity P-wave (km/s) = 4.83943 6.03536 5.47018
#
# Compressibility (1/GPa) = 0.04477167
#
# Stress axis : x y z
#
# Youngs Moduli (GPa) = 129.38455 70.59960 32.81641
#
# Poissons Ratio (x) = 0.10513 0.03765
# Poissons Ratio (y) = 0.19267 0.03809
# Poissons Ratio (z) = 0.14844 0.08194
#
# Static dielectric constant tensor:
#      x y z
#    x 1.693820 0.379440 -0.564990 
#    y 0.379440 1.521330 0.812760 
#    z -0.564990 0.812760 0.963870 
# 
# From -- ./inp_files/597418.got.cif
#   From: 2010.05.17/outbox.cif.g08.bks.cpg/sg2_299_cif.got.tgz:597418.got - 2010.06.03 11:33:40.
