data_PCOD9072349
_publ_section_title
;
Structure prediction by ZEFSAII (Michael W. Deem and Ramdas Pophale) SiO2 
 PCOD9072349
Probable space group: P -1
;
_chemical_formula_sum "Si O2"
_cell_formula_units_Z 16
_cell_length_a 21.000000
_cell_length_b 15.000000
_cell_length_c 9.000000
_cell_angle_alpha 50.000000
_cell_angle_beta 130.000000
_cell_angle_gamma 160.000000
_cell_volume 734.602417
_symmetry_space_group_name_H-M "P -1"
_symmetry_group_IT_number 2
_symmetry_cell_setting 'triclinic'
loop_
_space_group_symop_operation_xyz
x,y,z
-x,-y,-z
loop_
_atom_site_type_symbol
_atom_site_label
_atom_site_fract_x
_atom_site_fract_y
_atom_site_fract_z
Si Si1 0.215788 0.055663 0.480963
Si Si2 0.185853 0.445818 0.752265
Si Si3 0.705804 0.720106 0.163018
Si Si4 0.622407 0.353242 0.460068
Si Si5 0.417907 0.065895 0.738431
Si Si6 0.991116 0.173268 0.286924
Si Si7 0.790880 0.421220 0.044321
Si Si8 0.359086 0.410308 0.102696
O O1 0.018883 0.813354 0.353908
O O2 0.155345 0.982151 0.638671
O O3 0.340767 0.098338 0.600083
O O4 0.328282 0.308722 0.320657
O O5 0.332733 0.656177 0.614181
O O6 0.177557 0.520688 0.797424
O O7 0.265139 0.419263 0.953970
O O8 0.598167 0.461104 0.282714
O O9 0.572567 0.650878 0.109996
O O10 0.748621 0.792122 0.976913
O O11 0.899503 0.953814 0.291639
O O12 0.462764 0.101780 0.593468
O O13 0.811743 0.589630 0.588979
O O14 0.268049 0.782665 0.867163
O O15 0.610885 0.277604 0.887184
O O16 0.030813 0.317497 0.064596
#
# Coordination Sequence:
#
# PCOD9072349 Si02
#       8
#     2   2   2   2   2   2   2   2
#     4  11  22  38  60  90 117 153 195 240 286 346
#     4  10  22  38  60  86 122 152 189 238 294 347
#     4  10  19  35  58  88 119 154 186 236 292 348
#     4   9  19  39  59  88 118 150 191 239 290 344
#     4  10  22  41  64  82 117 154 198 243 283 344
#     4  10  22  35  58  85 120 154 192 238 287 342
#     4  10  23  43  59  84 117 159 194 239 293 337
#     4  10  21  35  58  88 122 152 188 236 294 348
#
# _framework density 21.780488999999999
#
# number of rings (size 3 to 8) (size 9 to 14) (size 15 to 20)
#    0.000    2.000    1.250    1.500    1.750    6.000 
#    0.000    0.000    0.000    0.000    0.000    0.000 
#    0.000    0.000    0.000    0.000    0.000    0.000 
#
# Total GULP energy -89146.032326 kJ/mol
# GULP energy per Si atom -5571.627020 kJ/mol
# Density = 2.173092 g / cm^3
# Si number density = 21.780489 Si / 1000 Ang^3
#
#
#
# Elastic Constant Matrix: (Units=GPa)
#
#
# Indices 1 2 3 4 5 6 
#
# 1 15.9951 9.9233 16.6911 -1.4265 -21.4552 -8.8284
# 2 9.9233 21.0597 25.3217 -7.7457 -26.8332 -2.9219
# 3 16.6911 25.3217 60.7160 4.9688 -17.0971 -6.7504
# 4 -1.4265 -7.7457 4.9688 29.3185 9.8245 -7.0810
# 5 -21.4552 -26.8332 -17.0971 9.8245 36.7329 7.4756
# 6 -8.8284 -2.9219 -6.7504 -7.0810 7.4756 9.1059
#
#
#
# Elastic Compliance Matrix: (Units=1/GPa)
#
#
# Indices 1 2 3 4 5 6 
#
# 1 0.105754 -0.178741 0.036233 0.021919 -0.091157 0.163919
# 2 -0.178741 -0.007678 0.020673 -0.017792 -0.072231 -0.114969
# 3 0.036233 0.020673 0.011019 -0.004788 0.039944 0.013416
# 4 0.021919 -0.017792 -0.004788 0.069122 -0.041168 0.099540
# 5 -0.091157 -0.072231 0.039944 -0.041168 -0.031204 -0.088341
# 6 0.163919 -0.114969 0.013416 0.099540 -0.088341 0.391726
#
#
# Mechanical properties :
#
#
# Convention : Reuss Voigt Hill
#
# Bulk Modulus (GPa) = -7.43080 22.40476 7.48698
# Shear Modulus (GPa) = 6.77921 18.08710 12.43316
#
# Velocity S-wave (km/s) = 1.76615 2.88484 2.39182
# Velocity P-wave (km/s) = 0.86020 4.62659 3.32756
#
# Compressibility (1/GPa) = -0.13457502
#
# Stress axis : x y z
#
# Youngs Moduli (GPa) = 9.45595 -130.23559 90.75211
#
# Poissons Ratio (x) = -23.27844 -3.28826
# Poissons Ratio (y) = 1.69017 -1.87612
# Poissons Ratio (z) = -0.34262 2.69236
#
# Static dielectric constant tensor:
#      x y z
#    x 1.768060 -0.004290 -0.042470 
#    y -0.004290 1.807030 0.010520 
#    z -0.042470 0.010520 1.875490 
# 
# From -- ./inp_files/187390.got.cif
#   From: 2010.05.17/outbox.ucp.g08.bks.cvg/sg2_94_cif.got.tgz:187390.got - 2010.06.11 11:32:03.
