data_PCOD9072671
_publ_section_title
;
Structure prediction by ZEFSAII (Michael W. Deem and Ramdas Pophale) SiO2 
 PCOD9072671
Probable space group: P -1
;
_chemical_formula_sum "Si O2"
_cell_formula_units_Z 14
_cell_length_a 9.000000
_cell_length_b 15.000000
_cell_length_c 9.000000
_cell_angle_alpha 140.000000
_cell_angle_beta 70.000000
_cell_angle_gamma 100.000000
_cell_volume 725.993766
_symmetry_space_group_name_H-M "P -1"
_symmetry_group_IT_number 2
_symmetry_cell_setting 'triclinic'
loop_
_space_group_symop_operation_xyz
x,y,z
-x,-y,-z
loop_
_atom_site_type_symbol
_atom_site_label
_atom_site_fract_x
_atom_site_fract_y
_atom_site_fract_z
Si Si1 0.745183 0.046281 0.543955
Si Si2 0.864952 0.299226 0.293401
Si Si3 0.340181 0.131852 0.136324
Si Si4 0.783224 0.611769 0.687702
Si Si5 0.417024 0.832773 0.637858
Si Si6 0.576376 0.777631 0.207779
Si Si7 0.910874 0.997658 0.743298
O O1 0.596556 0.171906 0.746597
O O2 0.813975 0.011813 0.640654
O O3 0.675410 0.908125 0.339554
O O4 0.903877 0.068027 0.424961
O O5 0.781393 0.448102 0.445616
O O6 0.736985 0.245559 0.382969
O O7 0.037008 0.346338 0.333564
O O8 0.906343 0.158259 0.002686
O O9 0.309979 0.278129 0.251387
O O10 0.483455 0.152722 0.226360
O O11 0.188128 0.090254 0.226003
O O12 0.372459 0.001306 0.842674
O O13 0.691966 0.652120 0.927634
O O14 0.525634 0.761658 0.376791
#
# Coordination Sequence:
#
# PCOD9072671 Si02
#       7
#     2   2   2   2   2   2   2
#     4  10  20  34  62  91 123 150 197 250 305 341
#     4  10  24  41  60  85 123 164 198 239 292 365
#     4  10  21  37  62  92 118 151 201 254 290 349
#     4  11  24  41  61  85 126 161 199 235 302 357
#     4  10  22  38  62  90 121 148 204 250 297 339
#     4  11  21  37  60  91 119 159 190 252 294 358
#     4  10  20  38  62  93 117 155 199 252 293 350
#
# _framework density 19.283912000000001
#
# number of rings (size 3 to 8) (size 9 to 14) (size 15 to 20)
#    0.000    1.714    2.857    1.714    6.000    2.286 
#    0.000    0.000    0.000    5.143    0.000    0.000 
#    0.000    0.000    0.000    0.000    0.000    0.000 
#
# Total GULP energy -78005.816567 kJ/mol
# GULP energy per Si atom -5571.844041 kJ/mol
# Density = 1.924002 g / cm^3
# Si number density = 19.283912 Si / 1000 Ang^3
#
#
#
# Elastic Constant Matrix: (Units=GPa)
#
#
# Indices 1 2 3 4 5 6 
#
# 1 69.5857 16.6367 2.6778 -2.5874 2.9050 17.3952
# 2 16.6367 69.9651 34.1283 -1.1772 4.1275 1.0888
# 3 2.6778 34.1283 24.5644 -2.4321 -4.7505 9.2446
# 4 -2.5874 -1.1772 -2.4321 27.8899 -1.2815 -14.1397
# 5 2.9050 4.1275 -4.7505 -1.2815 17.7416 -6.6970
# 6 17.3952 1.0888 9.2446 -14.1397 -6.6970 26.5966
#
#
#
# Elastic Compliance Matrix: (Units=1/GPa)
#
#
# Indices 1 2 3 4 5 6 
#
# 1 0.046968 -0.072921 0.127247 -0.030974 0.008540 -0.086280
# 2 -0.072921 0.196317 -0.334633 0.057583 -0.053863 0.173020
# 3 0.127247 -0.334633 0.618861 -0.104024 0.096017 -0.315759
# 4 -0.030974 0.057583 -0.104024 0.074798 0.005128 0.095115
# 5 0.008540 -0.053863 0.096017 0.005128 0.089212 -0.011565
# 6 -0.086280 0.173020 -0.315759 0.095115 -0.011565 0.244354
#
#
# Mechanical properties :
#
#
# Convention : Reuss Voigt Hill
#
# Bulk Modulus (GPa) = 3.31638 30.11120 16.71379
# Shear Modulus (GPa) = 2.58848 21.82375 12.20612
#
# Velocity S-wave (km/s) = 1.15983 3.36774 2.51862
# Velocity P-wave (km/s) = 1.87540 5.54714 4.14052
#
# Compressibility (1/GPa) = 0.30153341
#
# Stress axis : x y z
#
# Youngs Moduli (GPa) = 21.29104 5.09380 1.61587
#
# Poissons Ratio (x) = 0.37144 -0.20562
# Poissons Ratio (y) = 1.55256 0.54072
# Poissons Ratio (z) = -2.70922 1.70455
#
# Static dielectric constant tensor:
#      x y z
#    x 1.710860 -0.043360 -0.046290 
#    y -0.043360 1.706780 -0.039130 
#    z -0.046290 -0.039130 1.698800 
# 
# From -- ./inp_files/174851.got.cif
#   From: 2010.05.17/outbox.ucp.g08.bks.cvg/sg2_88_cif.got.tgz:174851.got - 2010.06.11 11:32:03.
