data_PCOD9072065
_publ_section_title
;
Structure prediction by ZEFSAII (Michael W. Deem and Ramdas Pophale) SiO2 
 PCOD9072065
Probable space group: P -1
;
_chemical_formula_sum "Si O2"
_cell_formula_units_Z 16
_cell_length_a 11.277617
_cell_length_b 11.350611
_cell_length_c 8.875880
_cell_angle_alpha 128.674514
_cell_angle_beta 89.677506
_cell_angle_gamma 120.466942
_cell_volume 677.863956
_symmetry_space_group_name_H-M "P -1"
_symmetry_group_IT_number 2
_symmetry_cell_setting 'triclinic'
loop_
_space_group_symop_operation_xyz
x,y,z
-x,-y,-z
loop_
_atom_site_type_symbol
_atom_site_label
_atom_site_fract_x
_atom_site_fract_y
_atom_site_fract_z
Si Si1 0.790175 0.857196 0.274232
Si Si2 0.149180 0.395856 0.063554
Si Si3 0.619069 0.782798 0.926150
Si Si4 0.686612 0.639165 0.406380
Si Si5 0.122144 0.779736 0.271678
Si Si6 0.628224 0.930632 0.749703
Si Si7 0.375179 0.807282 0.446090
Si Si8 0.129828 0.232528 0.213510
O O1 0.876475 0.800984 0.133558
O O2 0.713020 0.695010 0.276310
O O3 0.884831 0.062363 0.523064
O O4 0.674092 0.843082 0.145889
O O5 0.044180 0.390137 0.934936
O O6 0.325517 0.600467 0.221381
O O7 0.100193 0.354340 0.207192
O O8 0.439802 0.594707 0.764752
O O9 0.658338 0.948781 0.942036
O O10 0.711195 0.711465 0.806051
O O11 0.628295 0.754262 0.559450
O O12 0.835056 0.717550 0.570389
O O13 0.210565 0.753095 0.375396
O O14 0.238418 0.887892 0.212041
O O15 0.462279 0.861802 0.647218
O O16 0.500000 0.000000 0.500000
O O17 0.000000 0.000000 0.000000
#
# Coordination Sequence:
#
# PCOD9072065 Si02
#       8
#     2   2   2   2   2   2   2   2
#     4  10  21  33  54  85 113 139 177 229 279 322
#     4  11  20  36  58  82 110 147 181 222 276 325
#     4  10  18  30  51  77 106 141 176 219 269 321
#     4  10  18  31  50  79 110 139 177 222 269 321
#     4  10  21  36  55  80 110 143 181 224 270 326
#     4   9  17  33  52  75 105 141 180 221 263 318
#     4  10  21  36  56  80 108 145 189 227 263 319
#     4  10  19  31  52  82 112 141 178 224 273 326
#
# _framework density 23.603556999999999
#
# number of rings (size 3 to 8) (size 9 to 14) (size 15 to 20)
#    0.000    2.000    0.000    7.125    0.000    3.000 
#    0.000    0.625    0.000    3.000    0.000   12.250 
#    0.000    0.000    0.000    0.000    0.000    0.000 
#
# Total GULP energy -89201.507139 kJ/mol
# GULP energy per Si atom -5575.094196 kJ/mol
# Density = 2.354983 g / cm^3
# Si number density = 23.603557 Si / 1000 Ang^3
#
#
#
# Elastic Constant Matrix: (Units=GPa)
#
#
# Indices 1 2 3 4 5 6 
#
# 1 44.5610 1.0984 6.9204 -13.5646 18.9192 -17.9717
# 2 1.0984 90.8739 27.4435 -29.2086 10.4162 -9.4594
# 3 6.9204 27.4435 75.1355 -9.5594 31.6059 7.0020
# 4 -13.5646 -29.2086 -9.5594 42.6893 -7.6219 15.5641
# 5 18.9192 10.4162 31.6059 -7.6219 33.9444 -4.5472
# 6 -17.9717 -9.4594 7.0020 15.5641 -4.5472 31.4503
#
#
#
# Elastic Compliance Matrix: (Units=1/GPa)
#
#
# Indices 1 2 3 4 5 6 
#
# 1 0.040976 0.005108 0.003713 0.006744 -0.024029 0.017313
# 2 0.005108 0.016263 -0.005590 0.010028 0.000171 0.004117
# 3 0.003713 -0.005590 0.027776 0.002760 -0.027074 -0.011024
# 4 0.006744 0.010028 0.002760 0.037118 -0.002748 -0.012511
# 5 -0.024029 0.000171 -0.027074 -0.002748 0.067863 0.003520
# 6 0.017313 0.004117 -0.011024 -0.012511 0.003520 0.052082
#
#
# Mechanical properties :
#
#
# Convention : Reuss Voigt Hill
#
# Bulk Modulus (GPa) = 10.93195 31.27723 21.10459
# Shear Modulus (GPa) = 18.78918 33.29066 26.03992
#
# Velocity S-wave (km/s) = 2.82446 3.75961 3.32508
# Velocity P-wave (km/s) = 3.90875 5.66799 4.86849
#
# Compressibility (1/GPa) = 0.09147499
#
# Stress axis : x y z
#
# Youngs Moduli (GPa) = 24.40464 61.48975 36.00183
#
# Poissons Ratio (x) = -0.31406 -0.13367
# Poissons Ratio (y) = -0.12465 0.20126
# Poissons Ratio (z) = -0.09061 0.34375
#
# Static dielectric constant tensor:
#      x y z
#    x 2.002460 -0.052130 -0.024250 
#    y -0.052130 1.985630 -0.061580 
#    z -0.024250 -0.061580 1.927950 
# 
# From -- ./inp_files/190806.got.cif
#   From: 2010.05.17/outbox.cif.g08.bks.cpg/sg2_96_cif.got.tgz:190806.got - 2010.06.03 11:33:40.
