data_PCOD9072170
_publ_section_title
;
Structure prediction by ZEFSAII (Michael W. Deem and Ramdas Pophale) SiO2 
 PCOD9072170
Probable space group: P -1
;
_chemical_formula_sum "Si O2"
_cell_formula_units_Z 12
_cell_length_a 9.000000
_cell_length_b 9.000000
_cell_length_c 15.000000
_cell_angle_alpha 140.000000
_cell_angle_beta 130.000000
_cell_angle_gamma 50.000000
_cell_volume 569.686422
_symmetry_space_group_name_H-M "P -1"
_symmetry_group_IT_number 2
_symmetry_cell_setting 'triclinic'
loop_
_space_group_symop_operation_xyz
x,y,z
-x,-y,-z
loop_
_atom_site_type_symbol
_atom_site_label
_atom_site_fract_x
_atom_site_fract_y
_atom_site_fract_z
Si Si1 0.325087 0.762061 0.825918
Si Si2 0.308276 0.679810 0.310522
Si Si3 0.882231 0.960630 0.762004
Si Si4 0.519966 0.762517 0.597232
Si Si5 0.597097 0.873111 0.119355
Si Si6 0.976056 0.434595 0.064860
O O1 0.492009 0.522492 0.743773
O O2 0.096254 0.757502 0.732993
O O3 0.326067 0.992608 0.870762
O O4 0.403128 0.812031 0.976070
O O5 0.375287 0.816451 0.480039
O O6 0.162790 0.519490 0.214286
O O7 0.210001 0.876107 0.285924
O O8 0.727391 0.824876 0.678140
O O9 0.950829 0.167024 0.940768
O O10 0.500000 0.500000 0.500000
O O11 0.442790 0.941600 0.731226
O O12 0.764901 0.627413 0.099628
O O13 0.000000 0.500000 0.000000
#
# Coordination Sequence:
#
# PCOD9072170 Si02
#       6
#     2   2   2   2   2   2
#     4  11  20  41  76  94 129 180 230 261 326 409
#     4  11  22  46  70 101 136 176 219 278 336 398
#     4  11  24  44  72 101 128 181 232 266 328 410
#     4  12  28  44  63 102 148 170 215 288 344 382
#     4  11  21  41  70 102 132 176 218 280 335 388
#     4  10  18  40  72  99 123 174 231 268 319 399
#
# _framework density 21.064219999999999
#
# number of rings (size 3 to 8) (size 9 to 14) (size 15 to 20)
#    0.000    1.000    8.333    1.500    0.000    2.667 
#    0.000    0.000    0.000    0.000    0.000    0.000 
#    0.000    0.000    0.000    0.000    0.000    0.000 
#
# Total GULP energy -66948.064225 kJ/mol
# GULP energy per Si atom -5579.005352 kJ/mol
# Density = 2.101628 g / cm^3
# Si number density = 21.064220 Si / 1000 Ang^3
#
#
#
# Elastic Constant Matrix: (Units=GPa)
#
#
# Indices 1 2 3 4 5 6 
#
# 1 85.7264 52.6989 58.5712 -9.1863 37.3871 -8.0024
# 2 52.6989 94.6891 34.4522 3.7664 0.2147 -31.3649
# 3 58.5712 34.4522 102.3015 -27.1594 1.7352 -3.4319
# 4 -9.1863 3.7664 -27.1594 -2.6578 -2.2292 19.7098
# 5 37.3871 0.2147 1.7352 -2.2292 43.6593 5.3297
# 6 -8.0024 -31.3649 -3.4319 19.7098 5.3297 22.9660
#
#
#
# Elastic Compliance Matrix: (Units=1/GPa)
#
#
# Indices 1 2 3 4 5 6 
#
# 1 0.120569 -0.053266 -0.050193 -0.001169 -0.099320 -0.014182
# 2 -0.053266 0.033602 0.022754 0.015388 0.044450 0.007209
# 3 -0.050193 0.022754 0.028677 -0.007585 0.039486 0.015217
# 4 -0.001169 0.015388 -0.007585 -0.016134 -0.003771 0.034197
# 5 -0.099320 0.044450 0.039486 -0.003771 0.104638 0.010952
# 6 -0.014182 0.007209 0.015217 0.034197 0.010952 0.018830
#
#
# Mechanical properties :
#
#
# Convention : Reuss Voigt Hill
#
# Bulk Modulus (GPa) = 46.64854 63.79574 55.22214
# Shear Modulus (GPa) = 10.89943 21.92647 16.41295
#
# Velocity S-wave (km/s) = 2.27719 3.22985 2.79442
# Velocity P-wave (km/s) = 5.39519 6.65292 6.05679
#
# Compressibility (1/GPa) = 0.02143690
#
# Stress axis : x y z
#
# Youngs Moduli (GPa) = 8.29399 29.76008 34.87152
#
# Poissons Ratio (x) = 1.58520 1.75032
# Poissons Ratio (y) = 0.44179 -0.79345
# Poissons Ratio (z) = 0.41630 -0.67715
#
# Static dielectric constant tensor:
#      x y z
#    x 1.813660 -0.025410 0.004110 
#    y -0.025410 1.790380 -0.041740 
#    z 0.004110 -0.041740 1.779260 
# 
# From -- ./inp_files/241836.got.cif
#   From: 2010.05.17/outbox.ucp.g08.bks.cvg/sg2_121_cif.got.tgz:241836.got - 2010.06.11 11:32:03.
