data_PCOD9072135
_publ_section_title
;
Structure prediction by ZEFSAII (Michael W. Deem and Ramdas Pophale) SiO2 
 PCOD9072135
Probable space group: P -1
;
_chemical_formula_sum "Si O2"
_cell_formula_units_Z 16
_cell_length_a 15.000000
_cell_length_b 9.000000
_cell_length_c 9.000000
_cell_angle_alpha 100.000000
_cell_angle_beta 90.000000
_cell_angle_gamma 140.000000
_cell_volume 751.948787
_symmetry_space_group_name_H-M "P -1"
_symmetry_group_IT_number 2
_symmetry_cell_setting 'triclinic'
loop_
_space_group_symop_operation_xyz
x,y,z
-x,-y,-z
loop_
_atom_site_type_symbol
_atom_site_label
_atom_site_fract_x
_atom_site_fract_y
_atom_site_fract_z
Si Si1 0.453249 0.607672 0.489689
Si Si2 0.318381 0.520902 0.034362
Si Si3 0.030154 0.218371 0.546524
Si Si4 0.179343 0.096932 0.270077
Si Si5 0.085955 0.281605 0.218477
Si Si6 0.603296 0.900036 0.253828
Si Si7 0.341106 0.681912 0.747316
Si Si8 0.204737 0.044563 0.945710
O O1 0.500000 0.500000 0.500000
O O2 0.297881 0.369564 0.378511
O O3 0.568517 0.826815 0.413940
O O4 0.428078 0.677860 0.645295
O O5 0.356241 0.670599 0.919199
O O6 0.241869 0.266077 0.939966
O O7 0.228179 0.486870 0.156240
O O8 0.462278 0.655075 0.131723
O O9 0.059879 0.306956 0.391408
O O10 0.175216 0.441005 0.669763
O O11 0.000000 0.000000 0.500000
O O12 0.897415 0.093702 0.629458
O O13 0.071469 0.079030 0.196524
O O14 0.239932 0.080838 0.128682
O O15 0.962627 0.192973 0.107948
O O16 0.725483 0.972107 0.178947
O O17 0.617337 0.095358 0.258852
#
# Coordination Sequence:
#
# PCOD9072135 Si02
#       8
#     2   2   2   2   2   2   2   2
#     4  12  25  41  68  97 126 172 223 265 319 389
#     4  11  21  41  66  93 127 180 224 253 321 394
#     4  10  18  37  66  92 122 164 220 262 315 384
#     4  10  20  38  64  96 123 164 222 274 308 374
#     4  10  19  37  66  95 123 164 218 275 311 369
#     4  12  26  43  62  99 139 170 209 273 333 381
#     4  12  24  42  67  95 135 171 208 272 336 385
#     4  11  22  38  67  96 128 166 227 270 309 379
#
# _framework density 21.278044999999999
#
# number of rings (size 3 to 8) (size 9 to 14) (size 15 to 20)
#    0.000    1.000    5.000    5.625    3.500    0.000 
#    0.000    3.125    0.000    0.000    0.000    0.000 
#    0.000    0.000    0.000    0.000    0.000    0.000 
#
# Total GULP energy -89190.608386 kJ/mol
# GULP energy per Si atom -5574.413024 kJ/mol
# Density = 2.122962 g / cm^3
# Si number density = 21.278045 Si / 1000 Ang^3
#
#
#
# Elastic Constant Matrix: (Units=GPa)
#
#
# Indices 1 2 3 4 5 6 
#
# 1 67.8792 50.6379 14.1432 -14.8727 -13.8719 16.0901
# 2 50.6379 -0.2388 49.7523 -43.4621 -27.5049 -12.9298
# 3 14.1432 49.7523 76.6888 -45.9596 -13.8157 13.5617
# 4 -14.8727 -43.4621 -45.9596 48.5969 13.6181 0.4301
# 5 -13.8719 -27.5049 -13.8157 13.6181 22.1408 -9.8113
# 6 16.0901 -12.9298 13.5617 0.4301 -9.8113 27.6646
#
#
#
# Elastic Compliance Matrix: (Units=1/GPa)
#
#
# Indices 1 2 3 4 5 6 
#
# 1 0.013509 0.006931 -0.001865 0.004811 0.013380 0.000967
# 2 0.006931 -0.007786 0.008312 0.006223 -0.010937 -0.015720
# 3 -0.001865 0.008312 0.032616 0.037340 0.001664 -0.011010
# 4 0.004811 0.006223 0.037340 0.068737 -0.019897 -0.026320
# 5 0.013380 -0.010937 0.001664 -0.019897 0.056120 0.006503
# 6 0.000967 -0.015720 -0.011010 -0.026320 0.006503 0.036350
#
#
# Mechanical properties :
#
#
# Convention : Reuss Voigt Hill
#
# Bulk Modulus (GPa) = 15.36229 41.48845 28.42537
# Shear Modulus (GPa) = 25.70844 21.66684 23.68764
#
# Velocity S-wave (km/s) = 3.47971 3.19450 3.34015
# Velocity P-wave (km/s) = 4.83528 5.75734 5.31634
#
# Compressibility (1/GPa) = 0.06509447
#
# Stress axis : x y z
#
# Youngs Moduli (GPa) = 74.02326 -128.43631 30.66001
#
# Poissons Ratio (x) = 0.89022 0.05719
# Poissons Ratio (y) = -0.51307 -0.25484
# Poissons Ratio (z) = 0.13808 1.06754
#
# Static dielectric constant tensor:
#      x y z
#    x 1.969670 0.128000 0.121640 
#    y 0.128000 1.814570 0.026720 
#    z 0.121640 0.026720 1.901190 
# 
# From -- ./inp_files/209396.got.cif
#   From: 2010.05.17/outbox.ucp.g08.bks.cvg/sg2_105_cif.got.tgz:209396.got - 2010.06.11 11:32:03.
