data_PCOD9072514
_publ_section_title
;
Structure prediction by ZEFSAII (Michael W. Deem and Ramdas Pophale) SiO2 
 PCOD9072514
Probable space group: P -1
;
_chemical_formula_sum "Si O2"
_cell_formula_units_Z 16
_cell_length_a 15.000000
_cell_length_b 21.000000
_cell_length_c 9.000000
_cell_angle_alpha 40.000000
_cell_angle_beta 40.000000
_cell_angle_gamma 30.000000
_cell_volume 863.446988
_symmetry_space_group_name_H-M "P -1"
_symmetry_group_IT_number 2
_symmetry_cell_setting 'triclinic'
loop_
_space_group_symop_operation_xyz
x,y,z
-x,-y,-z
loop_
_atom_site_type_symbol
_atom_site_label
_atom_site_fract_x
_atom_site_fract_y
_atom_site_fract_z
Si Si1 0.214987 0.838414 0.362177
Si Si2 0.077322 0.554409 0.412666
Si Si3 0.415242 0.263654 0.487789
Si Si4 0.457325 0.316957 0.008172
Si Si5 0.775646 0.034925 0.594288
Si Si6 0.197161 0.208649 0.063809
Si Si7 0.855553 0.642315 0.844708
Si Si8 0.200913 0.622575 0.870448
O O1 0.254629 0.909746 0.298243
O O2 0.247004 0.715957 0.621656
O O3 0.339757 0.779223 0.159060
O O4 0.990431 0.951555 0.422091
O O5 0.284987 0.416555 0.435470
O O6 0.000000 0.500000 0.500000
O O7 0.956101 0.626837 0.587695
O O8 0.112228 0.633220 0.124065
O O9 0.432159 0.264548 0.285504
O O10 0.624647 0.165273 0.456722
O O11 0.309488 0.221867 0.776838
O O12 0.321001 0.335709 0.025320
O O13 0.373928 0.465608 0.892571
O O14 0.744159 0.933073 0.788443
O O15 0.212787 0.243452 0.150117
O O16 0.973383 0.320040 0.117647
O O17 0.000000 0.500000 0.000000
#
# Coordination Sequence:
#
# PCOD9072514 Si02
#       8
#     2   2   2   2   2   2   2   2
#     4  10  23  42  60  79 112 168 206 231 277 342
#     4  11  18  36  60  94 122 142 176 242 313 342
#     4  11  20  37  61  86 123 150 184 248 296 341
#     4  11  21  36  61  91 118 150 189 245 298 345
#     4  10  24  42  57  77 117 164 205 236 274 340
#     4  11  20  36  61  90 117 152 192 239 292 347
#     4  12  19  33  63  95 119 143 183 240 305 354
#     4  10  19  38  61  87 122 147 188 244 296 345
#
# _framework density 18.530379
#
# number of rings (size 3 to 8) (size 9 to 14) (size 15 to 20)
#    0.000    1.250    6.250    1.500    0.000    0.500 
#    0.000   11.250    0.000    0.000    0.000    0.000 
#    0.000    0.000    0.000    0.000    0.000    0.000 
#
# Total GULP energy -89191.989997 kJ/mol
# GULP energy per Si atom -5574.499375 kJ/mol
# Density = 1.848820 g / cm^3
# Si number density = 18.530379 Si / 1000 Ang^3
#
#
#
# Elastic Constant Matrix: (Units=GPa)
#
#
# Indices 1 2 3 4 5 6 
#
# 1 73.7250 35.4939 30.9955 -5.8641 6.3315 16.1262
# 2 35.4939 104.7727 34.0090 16.1540 5.1421 7.9646
# 3 30.9955 34.0090 94.3293 22.4061 11.0040 22.6765
# 4 -5.8641 16.1540 22.4061 31.0846 7.3399 7.3782
# 5 6.3315 5.1421 11.0040 7.3399 19.1579 -1.7988
# 6 16.1262 7.9646 22.6765 7.3782 -1.7988 37.8780
#
#
#
# Elastic Compliance Matrix: (Units=1/GPa)
#
#
# Indices 1 2 3 4 5 6 
#
# 1 0.023871 -0.007667 -0.005878 0.017150 -0.009855 -0.008840
# 2 -0.007667 0.013580 -0.001388 -0.009073 0.003460 0.003171
# 3 -0.005878 -0.001388 0.017423 -0.010590 -0.004177 -0.005772
# 4 0.017150 -0.009073 -0.010590 0.054799 -0.019144 -0.010637
# 5 -0.009855 0.003460 -0.004177 -0.019144 0.065462 0.012807
# 6 -0.008840 0.003171 -0.005772 -0.010637 0.012807 0.035633
#
#
# Mechanical properties :
#
#
# Convention : Reuss Voigt Hill
#
# Bulk Modulus (GPa) = 39.98652 52.64710 46.31681
# Shear Modulus (GPa) = 20.08264 29.11266 24.59765
#
# Velocity S-wave (km/s) = 3.29564 3.96798 3.64733
# Velocity P-wave (km/s) = 6.00894 7.03321 6.54116
#
# Compressibility (1/GPa) = 0.02500843
#
# Stress axis : x y z
#
# Youngs Moduli (GPa) = 41.89256 73.63587 57.39435
#
# Poissons Ratio (x) = 0.56458 0.33737
# Poissons Ratio (y) = 0.32120 0.07964
# Poissons Ratio (z) = 0.24625 0.10218
#
# Static dielectric constant tensor:
#      x y z
#    x 1.668720 -0.027930 -0.003360 
#    y -0.027930 1.660750 -0.012640 
#    z -0.003360 -0.012640 1.655140 
# 
# From -- ./inp_files/277496.got.cif
#   From: 2010.05.17/outbox.ucp.g08.bks.cvg/sg2_139_cif.got.tgz:277496.got - 2010.06.11 11:32:03.
