data_PCOD9072358
_publ_section_title
;
Structure prediction by ZEFSAII (Michael W. Deem and Ramdas Pophale) SiO2 
 PCOD9072358
Probable space group: P -1
;
_chemical_formula_sum "Si O2"
_cell_formula_units_Z 16
_cell_length_a 23.835696
_cell_length_b 25.439945
_cell_length_c 9.852341
_cell_angle_alpha 28.313504
_cell_angle_beta 39.360356
_cell_angle_gamma 19.326838
_cell_volume 872.412479
_symmetry_space_group_name_H-M "P -1"
_symmetry_group_IT_number 2
_symmetry_cell_setting 'triclinic'
loop_
_space_group_symop_operation_xyz
x,y,z
-x,-y,-z
loop_
_atom_site_type_symbol
_atom_site_label
_atom_site_fract_x
_atom_site_fract_y
_atom_site_fract_z
Si Si1 0.984698 0.223715 0.373108
Si Si2 0.454723 0.067129 0.726967
Si Si3 0.848084 0.713262 0.697638
Si Si4 0.614281 0.292609 0.161485
Si Si5 0.841433 0.159340 0.820325
Si Si6 0.130042 0.418981 0.336024
Si Si7 0.988863 0.240312 0.653447
Si Si8 0.590732 0.716160 0.440208
O O1 0.838641 0.285383 0.479957
O O2 0.979472 0.260056 0.461454
O O3 0.937875 0.382370 0.014836
O O4 0.190059 0.954623 0.576582
O O5 0.328131 0.200990 0.528726
O O6 0.382213 0.238152 0.580445
O O7 0.655529 0.885802 0.722881
O O8 0.473115 0.927138 0.083555
O O9 0.873697 0.638087 0.671046
O O10 0.878651 0.810732 0.422717
O O11 0.000000 0.500000 0.000000
O O12 0.510469 0.290301 0.334037
O O13 0.500000 0.500000 0.000000
O O14 0.669864 0.298024 0.907419
O O15 0.000000 0.000000 0.000000
O O16 0.923732 0.974869 0.989978
O O17 0.000000 0.500000 0.500000
O O18 0.786696 0.477165 0.550397
#
# Coordination Sequence:
#
# PCOD9072358 Si02
#       8
#     2   2   2   2   2   2   2   2
#     4  10  19  36  56  80 120 157 194 241 294 353
#     4  11  24  37  58  88 120 159 198 241 299 359
#     4  12  22  39  62  84 122 162 198 240 299 354
#     4  10  18  30  55  88 115 146 203 250 286 343
#     4   8  17  31  53  80 109 151 197 235 288 344
#     4  12  25  39  59  89 126 157 196 246 304 350
#     4  10  18  34  59  85 113 155 196 243 289 350
#     4  11  20  34  59  87 120 148 202 247 291 350
#
# _framework density 18.339948
#
# number of rings (size 3 to 8) (size 9 to 14) (size 15 to 20)
#    0.000    1.750    2.500    5.625    1.750    0.000 
#    0.000    1.250    0.000   11.250    0.000    0.000 
#    0.000    0.000    0.000    0.000    0.000    0.000 
#
# Total GULP energy -89271.327724 kJ/mol
# GULP energy per Si atom -5579.457983 kJ/mol
# Density = 1.829821 g / cm^3
# Si number density = 18.339948 Si / 1000 Ang^3
#
#
#
# Elastic Constant Matrix: (Units=GPa)
#
#
# Indices 1 2 3 4 5 6 
#
# 1 108.3170 47.3406 64.0782 -3.9690 -15.5161 1.6749
# 2 47.3406 124.1915 45.9339 -2.5225 -11.7038 4.5586
# 3 64.0782 45.9339 110.4930 15.7646 -30.3658 2.0237
# 4 -3.9690 -2.5225 15.7646 24.6379 -7.3555 -9.5913
# 5 -15.5161 -11.7038 -30.3658 -7.3555 42.8775 0.8724
# 6 1.6749 4.5586 2.0237 -9.5913 0.8724 35.7225
#
#
#
# Elastic Compliance Matrix: (Units=1/GPa)
#
#
# Indices 1 2 3 4 5 6 
#
# 1 0.016594 -0.002510 -0.010095 0.009901 -0.000188 0.002777
# 2 -0.002510 0.010241 -0.003127 0.002552 0.000116 -0.000330
# 3 -0.010095 -0.003127 0.020426 -0.014450 0.007569 -0.004349
# 4 0.009901 0.002552 -0.014450 0.058976 0.003842 0.015770
# 5 -0.000188 0.000116 0.007569 0.003842 0.029308 -0.000119
# 6 0.002777 -0.000330 -0.004349 0.015770 -0.000119 0.032389
#
#
# Mechanical properties :
#
#
# Convention : Reuss Voigt Hill
#
# Bulk Modulus (GPa) = 63.30807 73.07853 68.19330
# Shear Modulus (GPa) = 24.43029 33.02415 28.72722
#
# Velocity S-wave (km/s) = 3.65373 4.24803 3.96204
# Velocity P-wave (km/s) = 7.23836 7.99964 7.62850
#
# Compressibility (1/GPa) = 0.01579578
#
# Stress axis : x y z
#
# Youngs Moduli (GPa) = 60.26197 97.65048 48.95701
#
# Poissons Ratio (x) = 0.24514 0.49421
# Poissons Ratio (y) = 0.15128 0.15311
# Poissons Ratio (z) = 0.60834 0.30539
#
# Static dielectric constant tensor:
#      x y z
#    x 1.627270 0.005480 -0.038220 
#    y 0.005480 1.637220 0.018200 
#    z -0.038220 0.018200 1.681020 
# 
# From -- ./inp_files/355555.got.cif
#   From: 2010.05.17/outbox.cif.g08.bks.cpg/sg2_178_cif.got.tgz:355555.got - 2010.06.03 11:33:40.
