data_PCOD9072482
_publ_section_title
;
Structure prediction by ZEFSAII (Michael W. Deem and Ramdas Pophale) SiO2 
 PCOD9072482
Probable space group: P -1
;
_chemical_formula_sum "Si O2"
_cell_formula_units_Z 16
_cell_length_a 9.000000
_cell_length_b 15.000000
_cell_length_c 12.000000
_cell_angle_alpha 30.000000
_cell_angle_beta 100.000000
_cell_angle_gamma 110.000000
_cell_volume 734.803614
_symmetry_space_group_name_H-M "P -1"
_symmetry_group_IT_number 2
_symmetry_cell_setting 'triclinic'
loop_
_space_group_symop_operation_xyz
x,y,z
-x,-y,-z
loop_
_atom_site_type_symbol
_atom_site_label
_atom_site_fract_x
_atom_site_fract_y
_atom_site_fract_z
Si Si1 0.714047 0.949474 0.590829
Si Si2 0.351824 0.051059 0.968809
Si Si3 0.892864 0.865967 0.288700
Si Si4 0.235741 0.146766 0.067775
Si Si5 0.325793 0.685537 0.841925
Si Si6 0.279962 0.286217 0.352961
Si Si7 0.336347 0.574779 0.712906
Si Si8 0.091732 0.663754 0.421629
O O1 0.779108 0.989283 0.681209
O O2 0.520359 0.816898 0.724760
O O3 0.769001 0.817328 0.660630
O O4 0.748526 0.155601 0.315824
O O5 0.361712 0.130063 0.010422
O O6 0.196055 0.851347 0.162422
O O7 0.280130 0.176667 0.748787
O O8 0.500000 0.000000 0.000000
O O9 0.845025 0.846090 0.431838
O O10 0.959262 0.705865 0.432177
O O11 0.054939 0.065098 0.077584
O O12 0.294900 0.356973 0.901917
O O13 0.284838 0.599326 0.805325
O O14 0.284455 0.502371 0.113946
O O15 0.466263 0.311961 0.380485
O O16 0.230277 0.642033 0.541583
O O17 0.000000 0.500000 0.500000
#
# Coordination Sequence:
#
# PCOD9072482 Si02
#       8
#     2   2   2   2   2   2   2   2
#     4  10  20  38  66  95 129 172 211 266 321 376
#     4  11  24  43  65  92 122 168 221 266 321 380
#     4  11  25  42  61  93 135 167 205 272 328 383
#     4  11  21  42  66  91 131 171 209 266 336 373
#     4  10  19  37  64  98 129 168 219 261 317 378
#     4  11  22  42  63  99 134 164 224 263 311 386
#     4  11  20  40  68  93 122 171 219 266 309 388
#     4  11  23  43  65  91 127 169 216 263 330 382
#
# _framework density 21.774525000000001
#
# number of rings (size 3 to 8) (size 9 to 14) (size 15 to 20)
#    0.000    1.250    2.500    6.000    0.000    3.500 
#    4.500    3.750    0.000    0.000    0.000    0.000 
#    0.000    0.000    0.000    0.000    0.000    0.000 
#
# Total GULP energy -89216.640417 kJ/mol
# GULP energy per Si atom -5576.040026 kJ/mol
# Density = 2.172497 g / cm^3
# Si number density = 21.774525 Si / 1000 Ang^3
#
#
#
# Elastic Constant Matrix: (Units=GPa)
#
#
# Indices 1 2 3 4 5 6 
#
# 1 65.4779 31.6731 34.6715 12.7018 15.0909 -3.0267
# 2 31.6731 103.7017 7.7018 -5.0504 10.1147 8.2901
# 3 34.6715 7.7018 28.3080 -0.9074 17.2515 -11.1853
# 4 12.7018 -5.0504 -0.9074 34.9808 1.0412 7.5723
# 5 15.0909 10.1147 17.2515 1.0412 27.6553 5.6057
# 6 -3.0267 8.2901 -11.1853 7.5723 5.6057 23.2184
#
#
#
# Elastic Compliance Matrix: (Units=1/GPa)
#
#
# Indices 1 2 3 4 5 6 
#
# 1 -0.187598 0.029614 0.472931 0.040042 -0.253843 0.241029
# 2 0.029614 0.006296 -0.083963 -0.002828 0.043851 -0.048501
# 3 0.472931 -0.083963 -1.049973 -0.117712 0.534376 -0.504813
# 4 0.040042 -0.002828 -0.117712 0.024764 0.066821 -0.074687
# 5 -0.253843 0.043851 0.534376 0.066821 -0.226175 0.241498
# 6 0.241029 -0.048501 -0.504813 -0.074687 0.241498 -0.185331
#
#
# Mechanical properties :
#
#
# Convention : Reuss Voigt Hill
#
# Bulk Modulus (GPa) = -2.53736 38.39780 17.93022
# Shear Modulus (GPa) = -1.93308 25.40032 11.73362
#
# Velocity S-wave (km/s) = -0.94324 3.41913 2.32387
# Velocity P-wave (km/s) = 1.53430 5.76714 3.93102
#
# Compressibility (1/GPa) = -0.39411114
#
# Stress axis : x y z
#
# Youngs Moduli (GPa) = -5.33055 158.81995 -0.95241
#
# Poissons Ratio (x) = -4.70328 0.45042
# Poissons Ratio (y) = 0.15786 -0.07997
# Poissons Ratio (z) = 2.52098 13.33498
#
# Static dielectric constant tensor:
#      x y z
#    x 1.867330 0.040620 0.157990 
#    y 0.040620 1.814570 0.130550 
#    z 0.157990 0.130550 2.059490 
# 
# From -- ./inp_files/398221.got.cif
#   From: 2010.05.17/outbox.ucp.g08.bks.cvg/sg2_200_cif.got.tgz:398221.got - 2010.06.11 11:32:03.
