data_PCOD9072035
_publ_section_title
;
Structure prediction by ZEFSAII (Michael W. Deem and Ramdas Pophale) SiO2 
 PCOD9072035
Probable space group: P -1
;
_chemical_formula_sum "Si O2"
_cell_formula_units_Z 12
_cell_length_a 13.018099
_cell_length_b 8.029081
_cell_length_c 12.198703
_cell_angle_alpha 110.404059
_cell_angle_beta 22.382632
_cell_angle_gamma 115.570257
_cell_volume 433.220357
_symmetry_space_group_name_H-M "P -1"
_symmetry_group_IT_number 2
_symmetry_cell_setting 'triclinic'
loop_
_space_group_symop_operation_xyz
x,y,z
-x,-y,-z
loop_
_atom_site_type_symbol
_atom_site_label
_atom_site_fract_x
_atom_site_fract_y
_atom_site_fract_z
Si Si1 0.685619 0.364417 0.275854
Si Si2 0.894183 0.157205 0.201266
Si Si3 0.776566 0.889007 0.827613
Si Si4 0.353916 0.048926 0.380085
Si Si5 0.391200 0.435191 0.896763
Si Si6 0.011030 0.386798 0.576522
O O1 0.500000 0.500000 0.500000
O O2 0.688794 0.223888 0.339421
O O3 0.566501 0.237704 0.259189
O O4 0.000000 0.500000 0.000000
O O5 0.730693 0.085050 0.459659
O O6 0.181549 0.323976 0.984406
O O7 0.000000 0.000000 0.000000
O O8 0.909235 0.796640 0.578957
O O9 0.679953 0.715833 0.968847
O O10 0.043859 0.049523 0.650249
O O11 0.507427 0.963764 0.115443
O O12 0.729824 0.504089 0.574458
O O13 0.280504 0.608497 0.080898
O O14 0.000000 0.500000 0.500000
#
# Coordination Sequence:
#
# PCOD9072035 Si02
#       6
#     2   2   2   2   2   2
#     4  12  26  43  62  90 125 165 208 257 312 369
#     4  11  24  42  65  92 127 167 210 258 305 368
#     4  10  18  32  55  86 120 154 193 247 302 358
#     4  11  22  38  62  90 119 159 204 247 302 362
#     4  10  19  31  51  84 121 160 194 241 308 363
#     4  10  18  30  50  84 126 155 186 246 312 360
#
# _framework density 27.699531
#
# number of rings (size 3 to 8) (size 9 to 14) (size 15 to 20)
#    0.000    1.333    0.000   10.500    0.000    5.333 
#    0.000    0.000    0.000    0.000    0.000   23.333 
#    0.000    0.000    0.000    0.333    0.000    0.000 
#
# Total GULP energy -67275.519033 kJ/mol
# GULP energy per Si atom -5606.293253 kJ/mol
# Density = 2.763649 g / cm^3
# Si number density = 27.699531 Si / 1000 Ang^3
#
#
#
# Elastic Constant Matrix: (Units=GPa)
#
#
# Indices 1 2 3 4 5 6 
#
# 1 100.0621 25.7980 30.4254 -0.5890 6.0639 -15.9183
# 2 25.7980 127.4751 55.6969 13.3041 5.5176 17.0582
# 3 30.4254 55.6969 202.0696 23.6924 -31.8170 6.4706
# 4 -0.5890 13.3041 23.6924 58.6653 15.3665 -3.9021
# 5 6.0639 5.5176 -31.8170 15.3665 39.5064 -9.4499
# 6 -15.9183 17.0582 6.4706 -3.9021 -9.4499 56.5554
#
#
#
# Elastic Compliance Matrix: (Units=1/GPa)
#
#
# Indices 1 2 3 4 5 6 
#
# 1 0.012056 -0.002126 -0.002204 0.002650 -0.003428 0.003897
# 2 -0.002126 0.010406 -0.003104 -0.000216 -0.004537 -0.004155
# 3 -0.002204 -0.003104 0.008210 -0.005083 0.009508 0.000615
# 4 0.002650 -0.000216 -0.005083 0.022657 -0.013100 0.000767
# 5 -0.003428 -0.004537 0.009508 -0.013100 0.040462 0.005173
# 6 0.003897 -0.004155 0.000615 0.000767 0.005173 0.020879
#
#
# Mechanical properties :
#
#
# Convention : Reuss Voigt Hill
#
# Bulk Modulus (GPa) = 63.28439 72.60528 67.94483
# Shear Modulus (GPa) = 37.09047 52.12453 44.60750
#
# Velocity S-wave (km/s) = 3.66324 4.34266 4.01734
# Velocity P-wave (km/s) = 6.38661 7.17032 6.78979
#
# Compressibility (1/GPa) = 0.01580168
#
# Stress axis : x y z
#
# Youngs Moduli (GPa) = 82.94960 96.09695 121.80737
#
# Poissons Ratio (x) = 0.20434 0.26850
# Poissons Ratio (y) = 0.17638 0.37811
# Poissons Ratio (z) = 0.18285 0.29830
#
# Static dielectric constant tensor:
#      x y z
#    x 2.188800 -0.037320 0.083000 
#    y -0.037320 2.197640 -0.021720 
#    z 0.083000 -0.021720 2.033680 
# 
# From -- ./inp_files/526729.got.cif
#   From: 2010.05.17/outbox.cif.g08.bks.cpg/sg2_264_cif.got.tgz:526729.got - 2010.06.03 11:33:40.
