data_PCOD9072790
_publ_section_title
;
Structure prediction by ZEFSAII (Michael W. Deem and Ramdas Pophale) SiO2 
 PCOD9072790
Probable space group: P -1
;
_chemical_formula_sum "Si O2"
_cell_formula_units_Z 16
_cell_length_a 22.790147
_cell_length_b 12.759891
_cell_length_c 19.792860
_cell_angle_alpha 147.047890
_cell_angle_beta 160.826595
_cell_angle_gamma 23.246623
_cell_volume 727.558729
_symmetry_space_group_name_H-M "P -1"
_symmetry_group_IT_number 2
_symmetry_cell_setting 'triclinic'
loop_
_space_group_symop_operation_xyz
x,y,z
-x,-y,-z
loop_
_atom_site_type_symbol
_atom_site_label
_atom_site_fract_x
_atom_site_fract_y
_atom_site_fract_z
Si Si1 0.387331 0.182812 0.821179
Si Si2 0.192937 0.946227 0.442212
Si Si3 0.674738 0.122406 0.707732
Si Si4 0.706145 0.361134 0.739436
Si Si5 0.157420 0.634784 0.911740
Si Si6 0.294912 0.297170 0.993610
Si Si7 0.166616 0.614334 0.466911
Si Si8 0.867809 0.076622 0.283773
O O1 0.201263 0.490777 0.812259
O O2 0.267739 0.113875 0.604980
O O3 0.646318 0.093145 0.033888
O O4 0.472075 0.982612 0.868328
O O5 0.440614 0.642827 0.574397
O O6 0.140191 0.875371 0.276820
O O7 0.980659 0.084706 0.343519
O O8 0.650539 0.264287 0.689145
O O9 0.394167 0.299535 0.524062
O O10 0.794936 0.174263 0.923408
O O11 0.883305 0.810099 0.742487
O O12 0.828587 0.464074 0.956497
O O13 0.356813 0.385295 0.045565
O O14 0.093950 0.293427 0.751016
O O15 0.236674 0.690467 0.649083
O O16 0.089187 0.802638 0.419415
#
# Coordination Sequence:
#
# PCOD9072790 Si02
#       8
#     2   2   2   2   2   2   2   2
#     4  10  19  33  53  81 104 134 178 215 256 306
#     4  10  19  35  56  76 103 142 175 214 261 297
#     4  10  19  33  52  74 109 137 167 210 263 317
#     4   9  19  36  51  75 105 138 174 213 254 313
#     4  10  19  32  52  76 102 143 167 208 268 314
#     4   9  19  31  52  78 105 133 169 220 261 303
#     4  10  18  31  50  82 106 133 164 218 268 307
#     4  10  19  31  53  82 110 129 170 220 261 308
#
# _framework density 21.991353
#
# number of rings (size 3 to 8) (size 9 to 14) (size 15 to 20)
#    0.000    2.250    2.500    1.125    0.000    0.500 
#    2.250    3.125    0.000    0.750    0.000    0.000 
#    0.000    0.000    0.000    0.000    0.000    0.000 
#
# Total GULP energy -89196.523353 kJ/mol
# GULP energy per Si atom -5574.782710 kJ/mol
# Density = 2.194130 g / cm^3
# Si number density = 21.991353 Si / 1000 Ang^3
#
#
#
# Elastic Constant Matrix: (Units=GPa)
#
#
# Indices 1 2 3 4 5 6 
#
# 1 43.8333 11.9777 27.3938 10.0730 5.9963 -23.0058
# 2 11.9777 100.3129 24.9538 5.6230 -3.6915 -27.5565
# 3 27.3938 24.9538 75.6168 14.3818 6.6391 -23.0363
# 4 10.0730 5.6230 14.3818 36.9816 -7.8676 -3.3307
# 5 5.9963 -3.6915 6.6391 -7.8676 20.4057 -2.9261
# 6 -23.0058 -27.5565 -23.0363 -3.3307 -2.9261 35.1542
#
#
#
# Elastic Compliance Matrix: (Units=1/GPa)
#
#
# Indices 1 2 3 4 5 6 
#
# 1 0.042151 0.003406 -0.006292 -0.009452 -0.009866 0.024414
# 2 0.003406 0.013483 -0.002497 -0.000159 0.003834 0.011466
# 3 -0.006292 -0.002497 0.019947 -0.006587 -0.006800 0.005806
# 4 -0.009452 -0.000159 -0.006587 0.035451 0.017730 -0.005792
# 5 -0.009866 0.003834 -0.006800 0.017730 0.061488 -0.001110
# 6 0.024414 0.011466 0.005806 -0.005792 -0.001110 0.056575
#
#
# Mechanical properties :
#
#
# Convention : Reuss Voigt Hill
#
# Bulk Modulus (GPa) = 15.42875 38.71265 27.07070
# Shear Modulus (GPa) = 19.12299 28.87081 23.99690
#
# Velocity S-wave (km/s) = 2.95204 3.62722 3.30691
# Velocity P-wave (km/s) = 4.31862 5.93162 5.18819
#
# Compressibility (1/GPa) = 0.06481407
#
# Stress axis : x y z
#
# Youngs Moduli (GPa) = 23.72414 74.16807 50.13398
#
# Poissons Ratio (x) = -0.25261 0.31547
# Poissons Ratio (y) = -0.08080 0.12517
# Poissons Ratio (z) = 0.14928 0.18517
#
# Static dielectric constant tensor:
#      x y z
#    x 1.822110 0.020810 -0.035620 
#    y 0.020810 1.885490 0.008720 
#    z -0.035620 0.008720 1.822860 
# 
# From -- ./inp_files/171549.got.cif
#   From: 2010.05.17/outbox.cif.g08.bks.cpg/sg2_86_cif.got.tgz:171549.got - 2010.06.03 11:33:40.
