data_PCOD9072207
_publ_section_title
;
Structure prediction by ZEFSAII (Michael W. Deem and Ramdas Pophale) SiO2 
 PCOD9072207
Probable space group: P -1
;
_chemical_formula_sum "Si O2"
_cell_formula_units_Z 16
_cell_length_a 14.891295
_cell_length_b 10.684690
_cell_length_c 19.834523
_cell_angle_alpha 25.998504
_cell_angle_beta 139.334825
_cell_angle_gamma 149.795143
_cell_volume 693.572289
_symmetry_space_group_name_H-M "P -1"
_symmetry_group_IT_number 2
_symmetry_cell_setting 'triclinic'
loop_
_space_group_symop_operation_xyz
x,y,z
-x,-y,-z
loop_
_atom_site_type_symbol
_atom_site_label
_atom_site_fract_x
_atom_site_fract_y
_atom_site_fract_z
Si Si1 0.617906 0.494520 0.625040
Si Si2 0.537573 0.237990 0.180758
Si Si3 0.570216 0.450123 0.239695
Si Si4 0.619801 0.664718 0.306912
Si Si5 0.886525 0.562873 0.157556
Si Si6 0.987938 0.757156 0.693608
Si Si7 0.943683 0.224047 0.040636
Si Si8 0.298445 0.603538 0.007430
O O1 0.500000 0.500000 0.500000
O O2 0.537963 0.493105 0.651782
O O3 0.831980 0.784324 0.597965
O O4 0.574747 0.115174 0.760837
O O5 0.497782 0.163342 0.274568
O O6 0.746573 0.421777 0.205702
O O7 0.500000 0.500000 0.000000
O O8 0.582120 0.404269 0.348995
O O9 0.441228 0.550476 0.113584
O O10 0.767542 0.815435 0.153153
O O11 0.813857 0.867461 0.354418
O O12 0.643062 0.011255 0.118414
O O13 0.993223 0.406741 0.285046
O O14 0.754897 0.389096 0.102469
O O15 0.000000 0.000000 0.000000
O O16 0.931523 0.430856 0.871956
O O17 0.117100 0.261899 0.105482
O O18 0.000000 0.500000 0.000000
#
# Coordination Sequence:
#
# PCOD9072207 Si02
#       8
#     2   2   2   2   2   2   2   2
#     4  12  26  45  67  89 120 173 219 257 312 380
#     4  12  21  39  63  98 131 160 207 260 315 366
#     4  12  21  32  58  88 130 161 201 257 311 367
#     4  10  21  39  56  89 117 164 210 260 304 373
#     4  10  18  34  53  88 130 160 193 247 314 361
#     4  10  21  37  61  84 126 159 214 257 301 370
#     4  10  18  30  52  92 124 163 194 243 314 376
#     4  10  19  30  53  84 127 161 198 239 313 365
#
# _framework density 23.068973
#
# number of rings (size 3 to 8) (size 9 to 14) (size 15 to 20)
#    0.000    1.500    6.250    4.125    1.750    0.500 
#    0.000    0.625    0.000    0.750    0.000    0.000 
#    0.000    0.000    0.000    0.000    0.000    0.000 
#
# Total GULP energy -89234.116361 kJ/mol
# GULP energy per Si atom -5577.132273 kJ/mol
# Density = 2.301647 g / cm^3
# Si number density = 23.068973 Si / 1000 Ang^3
#
#
#
# Elastic Constant Matrix: (Units=GPa)
#
#
# Indices 1 2 3 4 5 6 
#
# 1 176.3955 69.5513 26.7349 13.8137 -15.4154 15.7436
# 2 69.5513 68.6639 13.2864 3.8867 -0.6657 11.7317
# 3 26.7349 13.2864 37.3698 2.0464 -0.5603 5.1311
# 4 13.8137 3.8867 2.0464 22.2087 0.8586 6.8738
# 5 -15.4154 -0.6657 -0.5603 0.8586 17.1513 9.7717
# 6 15.7436 11.7317 5.1311 6.8738 9.7717 48.7326
#
#
#
# Elastic Compliance Matrix: (Units=1/GPa)
#
#
# Indices 1 2 3 4 5 6 
#
# 1 0.012213 -0.010719 -0.004103 -0.004986 0.012201 -0.002676
# 2 -0.010719 0.025710 -0.001571 0.003050 -0.008057 -0.001376
# 3 -0.004103 -0.001571 0.030351 0.000462 -0.002137 -0.001129
# 4 -0.004986 0.003050 0.000462 0.049363 -0.003752 -0.005383
# 5 0.012201 -0.008057 -0.002137 -0.003752 0.078789 -0.017046
# 6 -0.002676 -0.001376 -0.001129 -0.005383 -0.017046 0.026012
#
#
# Mechanical properties :
#
#
# Convention : Reuss Voigt Hill
#
# Bulk Modulus (GPa) = 28.17886 55.73049 41.95468
# Shear Modulus (GPa) = 18.72287 29.14227 23.93257
#
# Velocity S-wave (km/s) = 2.85196 3.55810 3.22442
# Velocity P-wave (km/s) = 4.80484 6.41021 5.66468
#
# Compressibility (1/GPa) = 0.03548759
#
# Stress axis : x y z
#
# Youngs Moduli (GPa) = 81.87979 38.89582 32.94780
#
# Poissons Ratio (x) = 0.41693 0.13518
# Poissons Ratio (y) = 0.87769 0.05176
# Poissons Ratio (z) = 0.33594 0.06111
#
# Static dielectric constant tensor:
#      x y z
#    x 2.009810 -0.004610 -0.011410 
#    y -0.004610 1.821180 0.057140 
#    z -0.011410 0.057140 1.877430 
# 
# From -- ./inp_files/597793.got.cif
#   From: 2010.05.17/outbox.cif.g08.bks.cpg/sg2_299_cif.got.tgz:597793.got - 2010.06.03 11:33:40.
