data_PCOD9072467
_publ_section_title
;
Structure prediction by ZEFSAII (Michael W. Deem and Ramdas Pophale) SiO2 
 PCOD9072467
Probable space group: P -1
;
_chemical_formula_sum "Si O2"
_cell_formula_units_Z 16
_cell_length_a 9.000000
_cell_length_b 18.000000
_cell_length_c 12.000000
_cell_angle_alpha 150.000000
_cell_angle_beta 120.000000
_cell_angle_gamma 70.000000
_cell_volume 822.981223
_symmetry_space_group_name_H-M "P -1"
_symmetry_group_IT_number 2
_symmetry_cell_setting 'triclinic'
loop_
_space_group_symop_operation_xyz
x,y,z
-x,-y,-z
loop_
_atom_site_type_symbol
_atom_site_label
_atom_site_fract_x
_atom_site_fract_y
_atom_site_fract_z
Si Si1 0.889840 0.620363 0.159126
Si Si2 0.312594 0.053736 0.709965
Si Si3 0.957674 0.977055 0.614542
Si Si4 0.390223 0.963932 0.024415
Si Si5 0.907589 0.857468 0.908258
Si Si6 0.401998 0.400798 0.157361
Si Si7 0.929645 0.308170 0.437532
Si Si8 0.763510 0.559529 0.610183
O O1 0.942834 0.794996 0.363365
O O2 0.947413 0.641637 0.341225
O O3 0.699389 0.565012 0.950163
O O4 0.000000 0.500000 0.000000
O O5 0.201796 0.979166 0.461056
O O6 0.470902 0.008609 0.783919
O O7 0.398623 0.222378 0.921342
O O8 0.147493 0.049013 0.725502
O O9 0.966163 0.022912 0.807428
O O10 0.252919 0.073687 0.107981
O O11 0.500000 0.000000 0.000000
O O12 0.268120 0.792917 0.744868
O O13 0.845464 0.716511 0.785395
O O14 0.992800 0.799296 0.756895
O O15 0.598437 0.488293 0.375763
O O16 0.298363 0.422414 0.261432
O O17 0.900587 0.451546 0.540578
#
# Coordination Sequence:
#
# PCOD9072467 Si02
#       8
#     2   2   2   2   2   2   2   2
#     4  11  22  38  61  94 124 168 211 266 320 372
#     4  10  19  37  61  95 120 161 213 270 307 362
#     4  10  21  37  62  93 130 157 211 265 320 372
#     4  12  22  40  65  95 124 166 222 260 310 375
#     4  12  25  42  63  97 135 170 209 260 327 385
#     4  10  20  36  65  92 122 157 224 271 300 363
#     4  12  25  42  64  94 135 172 207 260 329 386
#     4  11  22  40  64  91 127 173 213 259 316 377
#
# _framework density 19.441513
#
# number of rings (size 3 to 8) (size 9 to 14) (size 15 to 20)
#    0.000    1.000    6.250    0.750    1.750    1.000 
#    0.000    2.500    0.000    0.000    0.000    0.000 
#    0.000    0.000    0.000    0.000    0.000    0.000 
#
# Total GULP energy -89106.129738 kJ/mol
# GULP energy per Si atom -5569.133109 kJ/mol
# Density = 1.939726 g / cm^3
# Si number density = 19.441513 Si / 1000 Ang^3
#
#
#
# Elastic Constant Matrix: (Units=GPa)
#
#
# Indices 1 2 3 4 5 6 
#
# 1 40.8656 34.0209 33.5544 -15.9767 -9.4578 -8.6441
# 2 34.0209 168.7852 51.0994 -33.7490 -0.1104 -31.5865
# 3 33.5544 51.0994 106.0046 -31.1766 -3.3146 -4.1876
# 4 -15.9767 -33.7490 -31.1766 60.5335 3.2666 6.7873
# 5 -9.4578 -0.1104 -3.3146 3.2666 30.6622 -3.9878
# 6 -8.6441 -31.5865 -4.1876 6.7873 -3.9878 29.3861
#
#
#
# Elastic Compliance Matrix: (Units=1/GPa)
#
#
# Indices 1 2 3 4 5 6 
#
# 1 0.040843 -0.003186 -0.010018 0.002245 0.012346 0.008319
# 2 -0.003186 0.009282 -0.002527 0.002142 -0.000393 0.008131
# 3 -0.010018 -0.002527 0.014801 0.004258 -0.002588 -0.004888
# 4 0.002245 0.002142 0.004258 0.020721 -0.001227 -0.001383
# 5 0.012346 -0.000393 -0.002588 -0.001227 0.037336 0.008190
# 6 0.008319 0.008131 -0.004888 -0.001383 0.008190 0.045951
#
#
# Mechanical properties :
#
#
# Convention : Reuss Voigt Hill
#
# Bulk Modulus (GPa) = 29.88212 61.44500 45.66356
# Shear Modulus (GPa) = 23.63519 37.24840 30.44180
#
# Velocity S-wave (km/s) = 3.49048 4.38187 3.96133
# Velocity P-wave (km/s) = 5.62568 7.56801 6.66795
#
# Compressibility (1/GPa) = 0.03346483
#
# Stress axis : x y z
#
# Youngs Moduli (GPa) = 24.48406 107.74070 67.56401
#
# Poissons Ratio (x) = 0.34324 0.67683
# Poissons Ratio (y) = 0.07800 0.17072
# Poissons Ratio (z) = 0.24527 0.27224
#
# Static dielectric constant tensor:
#      x y z
#    x 1.711600 -0.007130 -0.005920 
#    y -0.007130 1.705610 0.004070 
#    z -0.005920 0.004070 1.723450 
# 
# From -- ./inp_files/260292.got.cif
#   From: 2010.05.17/outbox.ucp.g08.bks.cvg/sg2_131_cif.got.tgz:260292.got - 2010.06.11 11:32:03.
