data_PCOD9072359
_publ_section_title
;
Structure prediction by ZEFSAII (Michael W. Deem and Ramdas Pophale) SiO2 
 PCOD9072359
Probable space group: P -1
;
_chemical_formula_sum "Si O2"
_cell_formula_units_Z 14
_cell_length_a 12.000000
_cell_length_b 9.000000
_cell_length_c 9.000000
_cell_angle_alpha 110.000000
_cell_angle_beta 60.000000
_cell_angle_gamma 130.000000
_cell_volume 644.526612
_symmetry_space_group_name_H-M "P -1"
_symmetry_group_IT_number 2
_symmetry_cell_setting 'triclinic'
loop_
_space_group_symop_operation_xyz
x,y,z
-x,-y,-z
loop_
_atom_site_type_symbol
_atom_site_label
_atom_site_fract_x
_atom_site_fract_y
_atom_site_fract_z
Si Si1 0.539349 0.599607 0.844397
Si Si2 0.706665 0.129490 0.231786
Si Si3 0.269681 0.654407 0.971775
Si Si4 0.953788 0.758418 0.039759
Si Si5 0.133737 0.156690 0.172128
Si Si6 0.560442 0.277679 0.598473
Si Si7 0.858068 0.478939 0.669086
O O1 0.420003 0.652108 0.901182
O O2 0.712826 0.789876 0.824952
O O3 0.540395 0.453453 0.677779
O O4 0.500000 0.500000 0.000000
O O5 0.686127 0.157727 0.081569
O O6 0.638676 0.241259 0.394406
O O7 0.601391 0.919632 0.307146
O O8 0.889806 0.201661 0.134095
O O9 0.146480 0.454098 0.896018
O O10 0.172318 0.600993 0.171005
O O11 0.851435 0.782777 0.992913
O O12 0.008713 0.928512 0.177302
O O13 0.102165 0.307727 0.304852
O O14 0.689867 0.333242 0.656316
O O15 0.000000 0.500000 0.500000
#
# Coordination Sequence:
#
# PCOD9072359 Si02
#       7
#     2   2   2   2   2   2   2
#     4  11  18  39  62  86 117 162 207 242 299 372
#     4  11  24  38  59  95 124 156 201 257 305 354
#     4  11  23  38  64  91 123 158 205 253 302 346
#     4  10  19  35  60  88 119 156 199 250 290 365
#     4   9  19  33  61  88 111 162 206 236 294 359
#     4  10  22  39  62  86 121 164 202 245 306 363
#     4  10  20  38  62  88 117 163 201 247 294 365
#
# _framework density 21.721367999999998
#
# number of rings (size 3 to 8) (size 9 to 14) (size 15 to 20)
#    0.000    1.714    4.286    3.000    2.000    1.143 
#    0.000    0.000    0.000    2.571    0.000    0.000 
#    0.000    0.000    0.000    0.000    0.000    0.000 
#
# Total GULP energy -78000.549158 kJ/mol
# GULP energy per Si atom -5571.467797 kJ/mol
# Density = 2.167193 g / cm^3
# Si number density = 21.721368 Si / 1000 Ang^3
#
#
#
# Elastic Constant Matrix: (Units=GPa)
#
#
# Indices 1 2 3 4 5 6 
#
# 1 89.7338 21.0701 33.0383 -5.2377 -12.6300 9.4560
# 2 21.0701 45.7313 29.4839 3.8519 -7.0983 14.8592
# 3 33.0383 29.4839 85.1051 3.9247 -18.4175 -0.6724
# 4 -5.2377 3.8519 3.9247 21.9922 -1.8753 3.5065
# 5 -12.6300 -7.0983 -18.4175 -1.8753 15.0860 -7.8628
# 6 9.4560 14.8592 -0.6724 3.5065 -7.8628 23.5910
#
#
#
# Elastic Compliance Matrix: (Units=1/GPa)
#
#
# Indices 1 2 3 4 5 6 
#
# 1 0.014642 -0.002865 -0.003853 0.005643 0.005198 -0.003281
# 2 -0.002865 0.043038 -0.019056 -0.001376 -0.023346 -0.034080
# 3 -0.003853 -0.019056 0.027859 -0.003796 0.035237 0.026650
# 4 0.005643 -0.001376 -0.003796 0.049176 0.001164 -0.008424
# 5 0.005198 -0.023346 0.035237 0.001164 0.132919 0.057754
# 6 -0.003281 -0.034080 0.026650 -0.008424 0.057754 0.086431
#
#
# Mechanical properties :
#
#
# Convention : Reuss Voigt Hill
#
# Bulk Modulus (GPa) = 29.41864 43.08387 36.25125
# Shear Modulus (GPa) = 11.99206 21.26570 16.62888
#
# Velocity S-wave (km/s) = 2.35220 3.13233 2.76987
# Velocity P-wave (km/s) = 4.57713 5.74106 5.19182
#
# Compressibility (1/GPa) = 0.03399206
#
# Stress axis : x y z
#
# Youngs Moduli (GPa) = 68.29677 23.23523 35.89497
#
# Poissons Ratio (x) = 0.06656 0.13830
# Poissons Ratio (y) = 0.19564 0.68402
# Poissons Ratio (z) = 0.26314 0.44277
#
# Static dielectric constant tensor:
#      x y z
#    x 1.802850 0.079850 -0.132850 
#    y 0.079850 1.828680 0.196500 
#    z -0.132850 0.196500 1.068030 
# 
# From -- ./inp_files/217000.got.cif
#   From: 2010.05.17/outbox.ucp.g08.bks.cvg/sg2_109_cif.got.tgz:217000.got - 2010.06.11 11:32:03.
