data_PCOD9072660
_publ_section_title
;
Structure prediction by ZEFSAII (Michael W. Deem and Ramdas Pophale) SiO2 
 PCOD9072660
Probable space group: P -1
;
_chemical_formula_sum "Si O2"
_cell_formula_units_Z 16
_cell_length_a 18.000000
_cell_length_b 9.000000
_cell_length_c 12.000000
_cell_angle_alpha 130.000000
_cell_angle_beta 150.000000
_cell_angle_gamma 50.000000
_cell_volume 725.531033
_symmetry_space_group_name_H-M "P -1"
_symmetry_group_IT_number 2
_symmetry_cell_setting 'triclinic'
loop_
_space_group_symop_operation_xyz
x,y,z
-x,-y,-z
loop_
_atom_site_type_symbol
_atom_site_label
_atom_site_fract_x
_atom_site_fract_y
_atom_site_fract_z
Si Si1 0.687443 0.318544 0.734825
Si Si2 0.544082 0.138570 0.879323
Si Si3 0.992526 0.917415 0.625415
Si Si4 0.219630 0.288152 0.322888
Si Si5 0.192938 0.724645 0.591428
Si Si6 0.798988 0.891895 0.571426
Si Si7 0.708005 0.115465 0.872935
Si Si8 0.665366 0.686530 0.749472
O O1 0.747382 0.269120 0.911800
O O2 0.724504 0.516309 0.832311
O O3 0.503110 0.342992 0.519422
O O4 0.754563 0.130282 0.651777
O O5 0.365338 0.168086 0.682337
O O6 0.578210 0.216100 0.838539
O O7 0.623515 0.904078 0.854960
O O8 0.646494 0.227117 0.140369
O O9 0.895202 0.844923 0.561488
O O10 0.075154 0.764757 0.563226
O O11 0.888495 0.111019 0.524837
O O12 0.136910 0.970510 0.900658
O O13 0.229478 0.499900 0.488207
O O14 0.125712 0.210698 0.264952
O O15 0.216190 0.342061 0.212491
O O16 0.330818 0.065660 0.336903
#
# Coordination Sequence:
#
# PCOD9072660 Si02
#       8
#     2   2   2   2   2   2   2   2
#     4   9  17  31  57  86 114 140 179 231 277 323
#     4   9  19  37  59  82 112 147 183 225 276 327
#     4  10  22  40  56  75 112 151 186 228 275 326
#     4  10  20  34  58  84 110 143 185 227 274 327
#     4  10  22  40  57  77 111 152 188 226 272 328
#     4  10  20  35  57  86 114 142 182 232 277 324
#     4   9  19  37  59  83 112 146 181 225 278 329
#     4   9  17  33  57  87 111 140 182 228 275 326
#
# _framework density 22.052813
#
# number of rings (size 3 to 8) (size 9 to 14) (size 15 to 20)
#    0.000    2.500    0.000    1.500    0.000    7.000 
#    0.000   10.000    0.000    3.000    0.000    0.000 
#    0.000    0.000    0.000    0.000    0.000    0.000 
#
# Total GULP energy -89069.743191 kJ/mol
# GULP energy per Si atom -5566.858949 kJ/mol
# Density = 2.200262 g / cm^3
# Si number density = 22.052813 Si / 1000 Ang^3
#
#
#
# Elastic Constant Matrix: (Units=GPa)
#
#
# Indices 1 2 3 4 5 6 
#
# 1 145.2086 33.6155 42.4976 5.8646 7.8697 17.1235
# 2 33.6155 76.7868 15.3611 14.8072 -12.2705 8.9232
# 3 42.4976 15.3611 54.2741 -4.9121 0.1755 -8.5089
# 4 5.8646 14.8072 -4.9121 18.8724 -2.2082 -3.5515
# 5 7.8697 -12.2705 0.1755 -2.2082 25.4440 -5.9940
# 6 17.1235 8.9232 -8.5089 -3.5515 -5.9940 34.2973
#
#
#
# Elastic Compliance Matrix: (Units=1/GPa)
#
#
# Indices 1 2 3 4 5 6 
#
# 1 0.013053 -0.001353 -0.012490 -0.009396 -0.008167 -0.011664
# 2 -0.001353 0.020636 -0.007590 -0.018270 0.007136 -0.007221
# 3 -0.012490 -0.007590 0.035744 0.023855 0.006917 0.020758
# 4 -0.009396 -0.018270 0.023855 0.081981 0.006951 0.025067
# 5 -0.008167 0.007136 0.006917 0.006951 0.048937 0.013209
# 6 -0.011664 -0.007221 0.020758 0.025067 0.013209 0.046913
#
#
# Mechanical properties :
#
#
# Convention : Reuss Voigt Hill
#
# Bulk Modulus (GPa) = 37.64076 51.02421 44.33248
# Shear Modulus (GPa) = 16.72315 28.04240 22.38278
#
# Velocity S-wave (km/s) = 2.75675 3.56982 3.18930
# Velocity P-wave (km/s) = 5.21905 6.33869 5.80592
#
# Compressibility (1/GPa) = 0.02656695
#
# Stress axis : x y z
#
# Youngs Moduli (GPa) = 76.61113 48.45791 27.97662
#
# Poissons Ratio (x) = 0.06558 0.34943
# Poissons Ratio (y) = 0.10369 0.21233
# Poissons Ratio (z) = 0.95689 0.36778
#
# Static dielectric constant tensor:
#      x y z
#    x 1.864500 0.066340 -0.003030 
#    y 0.066340 1.821630 -0.022880 
#    z -0.003030 -0.022880 1.860890 
# 
# From -- ./inp_files/286113.got.cif
#   From: 2010.05.17/outbox.ucp.g08.bks.cvg/sg2_144_cif.got.tgz:286113.got - 2010.06.11 11:32:03.
