data_PCOD9072877
_publ_section_title
;
Structure prediction by ZEFSAII (Michael W. Deem and Ramdas Pophale) SiO2 
 PCOD9072877
Probable space group: P -1
;
_chemical_formula_sum "Si O2"
_cell_formula_units_Z 14
_cell_length_a 13.033642
_cell_length_b 11.702311
_cell_length_c 7.611603
_cell_angle_alpha 78.392187
_cell_angle_beta 95.999568
_cell_angle_gamma 36.776554
_cell_volume 606.962296
_symmetry_space_group_name_H-M "P -1"
_symmetry_group_IT_number 2
_symmetry_cell_setting 'triclinic'
loop_
_space_group_symop_operation_xyz
x,y,z
-x,-y,-z
loop_
_atom_site_type_symbol
_atom_site_label
_atom_site_fract_x
_atom_site_fract_y
_atom_site_fract_z
Si Si1 0.724329 0.980981 0.039952
Si Si2 0.940087 0.190093 0.949395
Si Si3 0.461562 0.177437 0.210948
Si Si4 0.884901 0.381313 0.222120
Si Si5 0.568617 0.556728 0.280193
Si Si6 0.505431 0.364447 0.358226
Si Si7 0.821845 0.736477 0.800451
O O1 0.581663 0.229074 0.932296
O O2 0.727975 0.908784 0.878858
O O3 0.634995 0.980710 0.170467
O O4 0.933366 0.839929 0.132299
O O5 0.720348 0.406995 0.789253
O O6 0.957359 0.215605 0.146776
O O7 0.000000 0.000000 0.000000
O O8 0.549464 0.197928 0.335497
O O9 0.345378 0.193927 0.299542
O O10 0.285613 0.390179 0.987964
O O11 0.771621 0.429200 0.344907
O O12 0.063626 0.296300 0.312046
O O13 0.598268 0.393145 0.287441
O O14 0.471853 0.654193 0.423454
O O15 0.000000 0.500000 0.000000
#
# Coordination Sequence:
#
# PCOD9072877 Si02
#       7
#     2   2   2   2   2   2   2
#     4  10  19  32  57  81 103 135 176 218 255 314
#     4  10  18  31  51  79 103 132 175 212 253 304
#     4   9  18  32  55  78 102 137 179 215 254 307
#     4   8  18  31  53  74 104 139 169 215 260 306
#     4  10  20  36  52  77 108 143 175 207 268 308
#     4  10  21  35  52  76 113 141 168 218 258 312
#     4   9  17  34  54  81 105 131 173 223 264 300
#
# _framework density 23.065683
#
# number of rings (size 3 to 8) (size 9 to 14) (size 15 to 20)
#    0.000    2.571    1.429    1.286    2.000    1.714 
#    0.000    5.000    0.000    0.000    0.000    0.000 
#    0.000    0.000    0.000    0.000    0.000    0.000 
#
# Total GULP energy -78068.382050 kJ/mol
# GULP energy per Si atom -5576.313004 kJ/mol
# Density = 2.301318 g / cm^3
# Si number density = 23.065683 Si / 1000 Ang^3
#
#
#
# Elastic Constant Matrix: (Units=GPa)
#
#
# Indices 1 2 3 4 5 6 
#
# 1 133.7409 17.2884 6.2017 4.7184 -23.5939 -19.8799
# 2 17.2884 51.1502 -5.2173 2.5756 -10.5078 -11.5106
# 3 6.2017 -5.2173 24.3902 -7.7470 0.5957 -2.6162
# 4 4.7184 2.5756 -7.7470 16.0381 3.2637 -7.7601
# 5 -23.5939 -10.5078 0.5957 3.2637 2.7281 19.8097
# 6 -19.8799 -11.5106 -2.6162 -7.7601 19.8097 26.6540
#
#
#
# Elastic Compliance Matrix: (Units=1/GPa)
#
#
# Indices 1 2 3 4 5 6 
#
# 1 0.008296 -0.001757 -0.000550 0.002740 -0.003867 0.009046
# 2 -0.001757 0.023218 0.007693 0.004342 0.002409 0.008945
# 3 -0.000550 0.007693 0.046881 0.015661 0.020871 -0.003439
# 4 0.002740 0.004342 0.015661 0.055114 0.042092 -0.009782
# 5 -0.003867 0.002409 0.020871 0.042092 -0.044807 0.045761
# 6 0.009046 0.008945 -0.003439 -0.009782 0.045761 0.010932
#
#
# Mechanical properties :
#
#
# Convention : Reuss Voigt Hill
#
# Bulk Modulus (GPa) = 11.21487 27.31411 19.26449
# Shear Modulus (GPa) = 42.16441 21.81797 31.99119
#
# Velocity S-wave (km/s) = 4.28017 3.07889 3.72823
# Velocity P-wave (km/s) = 5.41287 4.95046 5.18682
#
# Compressibility (1/GPa) = 0.08916734
#
# Stress axis : x y z
#
# Youngs Moduli (GPa) = 120.54619 43.07016 21.33053
#
# Poissons Ratio (x) = 0.07565 0.01173
# Poissons Ratio (y) = 0.21174 -0.16409
# Poissons Ratio (z) = 0.06631 -0.33134
#
# Static dielectric constant tensor:
#      x y z
#    x 1.948710 0.029700 -0.053050 
#    y 0.029700 1.868460 0.010270 
#    z -0.053050 0.010270 1.888810 
# 
# From -- ./inp_files/168896.got.cif
#   From: 2010.05.17/outbox.cif.g08.bks.cpg/sg2_85_cif.got.tgz:168896.got - 2010.06.03 11:33:40.
