data_PCOD9072772
_publ_section_title
;
Structure prediction by ZEFSAII (Michael W. Deem and Ramdas Pophale) SiO2 
 PCOD9072772
Probable space group: P -1
;
_chemical_formula_sum "Si O2"
_cell_formula_units_Z 16
_cell_length_a 9.000000
_cell_length_b 15.000000
_cell_length_c 15.000000
_cell_angle_alpha 140.000000
_cell_angle_beta 120.000000
_cell_angle_gamma 90.000000
_cell_volume 817.999524
_symmetry_space_group_name_H-M "P -1"
_symmetry_group_IT_number 2
_symmetry_cell_setting 'triclinic'
loop_
_space_group_symop_operation_xyz
x,y,z
-x,-y,-z
loop_
_atom_site_type_symbol
_atom_site_label
_atom_site_fract_x
_atom_site_fract_y
_atom_site_fract_z
Si Si1 0.422350 0.046731 0.659938
Si Si2 0.128099 0.997876 0.897470
Si Si3 0.438225 0.723738 0.629479
Si Si4 0.637649 0.862835 0.601211
Si Si5 0.900970 0.782815 0.306188
Si Si6 0.483772 0.351208 0.784134
Si Si7 0.553284 0.943763 0.120604
Si Si8 0.995858 0.364656 0.330020
O O1 0.502437 0.223222 0.757688
O O2 0.402163 0.079447 0.782918
O O3 0.584426 0.997524 0.669476
O O4 0.150367 0.848779 0.408135
O O5 0.913933 0.981818 0.795361
O O6 0.008616 0.787808 0.738085
O O7 0.294439 0.054045 0.905184
O O8 0.316630 0.158764 0.150960
O O9 0.496424 0.739200 0.553935
O O10 0.219572 0.513942 0.444619
O O11 0.381405 0.857524 0.722545
O O12 0.552902 0.728636 0.386967
O O13 0.758662 0.707826 0.300288
O O14 0.698327 0.583288 0.036548
O O15 0.000000 0.000000 0.500000
O O16 0.269360 0.777148 0.898202
O O17 0.000000 0.500000 0.500000
#
# Coordination Sequence:
#
# PCOD9072772 Si02
#       8
#     2   2   2   2   2   2   2   2
#     4  10  22  40  62  93 131 169 211 259 315 386
#     4  11  21  39  61  92 129 168 215 267 318 378
#     4  10  21  40  61  88 130 168 212 266 318 381
#     4  11  24  39  61  96 135 178 206 254 331 389
#     4   9  20  42  67  89 117 159 216 274 312 361
#     4  10  21  43  67  92 125 165 217 266 315 377
#     4  10  20  36  65  93 118 165 219 269 318 362
#     4  11  19  38  63  89 118 164 221 271 311 364
#
# _framework density 19.559913999999999
#
# number of rings (size 3 to 8) (size 9 to 14) (size 15 to 20)
#    0.000    1.750    2.500    2.250    0.000    3.000 
#    6.750   10.000    0.000    0.000    0.000    0.000 
#    0.000    0.000    0.000    0.000    0.000    0.000 
#
# Total GULP energy -89172.025590 kJ/mol
# GULP energy per Si atom -5573.251599 kJ/mol
# Density = 1.951539 g / cm^3
# Si number density = 19.559914 Si / 1000 Ang^3
#
#
#
# Elastic Constant Matrix: (Units=GPa)
#
#
# Indices 1 2 3 4 5 6 
#
# 1 109.5947 41.3289 38.0703 -5.9518 10.9373 5.7585
# 2 41.3289 91.9089 54.0355 -0.1297 7.4818 10.7027
# 3 38.0703 54.0355 115.1419 14.9753 14.3878 15.0111
# 4 -5.9518 -0.1297 14.9753 32.7186 8.8142 0.3623
# 5 10.9373 7.4818 14.3878 8.8142 40.7799 -9.9369
# 6 5.7585 10.7027 15.0111 0.3623 -9.9369 39.1378
#
#
#
# Elastic Compliance Matrix: (Units=1/GPa)
#
#
# Indices 1 2 3 4 5 6 
#
# 1 0.011813 -0.003684 -0.002276 0.003902 -0.002672 -0.000572
# 2 -0.003684 0.016711 -0.006662 0.002655 -0.000710 -0.001677
# 3 -0.002276 -0.006662 0.014233 -0.006150 -0.002826 -0.003963
# 4 0.003902 0.002655 -0.006150 0.036120 -0.007456 -0.001169
# 5 -0.002672 -0.000710 -0.002826 -0.007456 0.030274 0.009426
# 6 -0.000572 -0.001677 -0.003963 -0.001169 0.009426 0.030018
#
#
# Mechanical properties :
#
#
# Convention : Reuss Voigt Hill
#
# Bulk Modulus (GPa) = 57.10062 64.83499 60.96780
# Shear Modulus (GPa) = 29.36832 34.74132 32.05482
#
# Velocity S-wave (km/s) = 3.87906 4.21901 4.05260
# Velocity P-wave (km/s) = 7.02274 7.54667 7.28941
#
# Compressibility (1/GPa) = 0.01751295
#
# Stress axis : x y z
#
# Youngs Moduli (GPa) = 84.65141 59.84195 70.25714
#
# Poissons Ratio (x) = 0.22048 0.15989
# Poissons Ratio (y) = 0.31189 0.46805
# Poissons Ratio (z) = 0.19265 0.39867
#
# Static dielectric constant tensor:
#      x y z
#    x 1.731160 -0.024210 0.005610 
#    y -0.024210 1.715770 -0.040210 
#    z 0.005610 -0.040210 1.714660 
# 
# From -- ./inp_files/504521.got.cif
#   From: 2010.05.17/outbox.ucp.g08.bks.cvg/sg2_253_cif.got.tgz:504521.got - 2010.06.11 11:32:03.
