data_PCOD9072630
_publ_section_title
;
Structure prediction by ZEFSAII (Michael W. Deem and Ramdas Pophale) SiO2 
 PCOD9072630
Probable space group: P -1
;
_chemical_formula_sum "Si O2"
_cell_formula_units_Z 15
_cell_length_a 8.470868
_cell_length_b 9.356624
_cell_length_c 8.155773
_cell_angle_alpha 97.406238
_cell_angle_beta 84.796677
_cell_angle_gamma 126.947079
_cell_volume 512.228846
_symmetry_space_group_name_H-M "P -1"
_symmetry_group_IT_number 2
_symmetry_cell_setting 'triclinic'
loop_
_space_group_symop_operation_xyz
x,y,z
-x,-y,-z
loop_
_atom_site_type_symbol
_atom_site_label
_atom_site_fract_x
_atom_site_fract_y
_atom_site_fract_z
Si Si1 0.500000 0.000000 0.000000
Si Si2 0.317135 0.230266 0.028392
Si Si3 0.222320 0.010424 0.486377
Si Si4 0.442140 0.616176 0.665042
Si Si5 0.169977 0.496259 0.399553
Si Si6 0.982047 0.892058 0.219689
Si Si7 0.486027 0.881193 0.270723
Si Si8 0.886416 0.356129 0.134410
O O1 0.262972 0.834599 0.960263
O O2 0.557784 0.998018 0.801487
O O3 0.451691 0.381455 0.174912
O O4 0.201143 0.252470 0.898520
O O5 0.444402 0.170496 0.913276
O O6 0.144738 0.056541 0.117341
O O7 0.377820 0.205902 0.419644
O O8 0.100063 0.030111 0.638434
O O9 0.352256 0.987560 0.593347
O O10 0.083483 0.852447 0.347010
O O11 0.310160 0.477519 0.504689
O O12 0.261267 0.613738 0.755179
O O13 0.324579 0.691979 0.333634
O O14 0.000000 0.500000 0.500000
O O15 0.045480 0.364586 0.239838
O O16 0.000000 0.500000 0.000000
#
# Coordination Sequence:
#
# PCOD9072630 Si02
#       8
#     1   2   2   2   2   2   2   2
#     4  12  22  32  54  78 102 154 178 212 262 300
#     4   9  14  25  44  73 103 137 167 218 265 309
#     4   8  15  27  43  72 104 137 166 218 268 312
#     4   9  16  28  49  68 103 139 168 220 259 301
#     4   9  18  32  50  68  99 147 172 219 255 295
#     4   8  14  23  44  69 106 134 162 219 277 306
#     4  10  18  31  48  73 108 141 179 216 252 312
#     4  11  20  35  52  72 106 147 183 219 250 306
#
# _framework density 29.283788000000001
#
# number of rings (size 3 to 8) (size 9 to 14) (size 15 to 20)
#    0.000    2.667    2.667    0.000    0.000    0.000 
#    0.000    6.000    0.000    0.000    0.000    0.000 
#    0.000  260.267    0.000    0.000    0.000    0.000 
#
# Total GULP energy -83643.077089 kJ/mol
# GULP energy per Si atom -5576.205139 kJ/mol
# Density = 2.921714 g / cm^3
# Si number density = 29.283788 Si / 1000 Ang^3
#
#
#
# Elastic Constant Matrix: (Units=GPa)
#
#
# Indices 1 2 3 4 5 6 
#
# 1 90.4245 40.1817 75.0272 13.7461 10.9682 21.9965
# 2 40.1817 195.4165 85.2134 9.8278 21.7352 32.7349
# 3 75.0272 85.2134 205.3342 46.8309 53.9078 28.6277
# 4 13.7461 9.8278 46.8309 79.3062 55.5226 10.8520
# 5 10.9682 21.7352 53.9078 55.5226 84.4310 17.4142
# 6 21.9965 32.7349 28.6277 10.8520 17.4142 40.2585
#
#
#
# Elastic Compliance Matrix: (Units=1/GPa)
#
#
# Indices 1 2 3 4 5 6 
#
# 1 0.017525 -0.000218 -0.006157 -0.001150 0.003775 -0.006342
# 2 -0.000218 0.006858 -0.002458 0.001347 -0.000234 -0.003970
# 3 -0.006157 -0.002458 0.009376 -0.001800 -0.003514 0.000702
# 4 -0.001150 0.001347 -0.001800 0.024174 -0.015118 0.000836
# 5 0.003775 -0.000234 -0.003514 -0.015118 0.024846 -0.006045
# 6 -0.006342 -0.003970 0.000702 0.000836 -0.006045 0.033424
#
#
# Mechanical properties :
#
#
# Convention : Reuss Voigt Hill
#
# Bulk Modulus (GPa) = 62.15080 99.11331 80.63205
# Shear Modulus (GPa) = 35.91102 60.18267 48.04684
#
# Velocity S-wave (km/s) = 3.50567 4.53830 4.05499
# Velocity P-wave (km/s) = 6.13645 7.83459 7.03693
#
# Compressibility (1/GPa) = 0.01608990
#
# Stress axis : x y z
#
# Youngs Moduli (GPa) = 57.06296 145.82556 106.66026
#
# Poissons Ratio (x) = 0.03179 0.65676
# Poissons Ratio (y) = 0.01244 0.26221
# Poissons Ratio (z) = 0.35136 0.35849
#
# Static dielectric constant tensor:
#      x y z
#    x 2.323500 0.530130 -0.292460 
#    y 0.530130 1.966720 0.198810 
#    z -0.292460 0.198810 2.210730 
# 
# From -- ./inp_files/267885.got.cif
#   From: 2010.05.17/outbox.cif.g08.bks.cpg/sg2_134_cif.got.tgz:267885.got - 2010.06.03 11:33:40.
