data_PCOD9072860
_publ_section_title
;
Structure prediction by ZEFSAII (Michael W. Deem and Ramdas Pophale) SiO2 
 PCOD9072860
Probable space group: P -1
;
_chemical_formula_sum "Si O2"
_cell_formula_units_Z 14
_cell_length_a 11.783021
_cell_length_b 14.925164
_cell_length_c 5.124060
_cell_angle_alpha 122.625620
_cell_angle_beta 70.952335
_cell_angle_gamma 134.478528
_cell_volume 539.534024
_symmetry_space_group_name_H-M "P -1"
_symmetry_group_IT_number 2
_symmetry_cell_setting 'triclinic'
loop_
_space_group_symop_operation_xyz
x,y,z
-x,-y,-z
loop_
_atom_site_type_symbol
_atom_site_label
_atom_site_fract_x
_atom_site_fract_y
_atom_site_fract_z
Si Si1 0.181255 0.676752 0.551985
Si Si2 0.306260 0.387199 0.498036
Si Si3 0.461325 0.072074 0.328917
Si Si4 0.266448 0.492475 0.201805
Si Si5 0.845604 0.200395 0.704601
Si Si6 0.364695 0.229292 0.549625
Si Si7 0.919478 0.002417 0.312408
O O1 0.368453 0.785380 0.486598
O O2 0.163095 0.539560 0.398818
O O3 0.101141 0.688875 0.387605
O O4 0.158818 0.736594 0.920756
O O5 0.500000 0.500000 0.500000
O O6 0.234253 0.381372 0.265471
O O7 0.282223 0.261078 0.463154
O O8 0.252589 0.443159 0.840531
O O9 0.381575 0.116668 0.276307
O O10 0.334773 0.951843 0.437837
O O11 0.500000 0.000000 0.000000
O O12 0.543425 0.374342 0.695578
O O13 0.934371 0.138945 0.534681
O O14 0.262515 0.148453 0.760391
O O15 0.000000 0.000000 0.500000
O O16 0.000000 0.000000 0.000000
#
# Coordination Sequence:
#
# PCOD9072860 Si02
#       7
#     2   2   2   2   2   2   2
#     4  10  18  31  51  77 105 136 164 208 268 325
#     4  10  19  33  51  80 113 145 175 210 261 329
#     4   8  16  29  47  75 106 136 169 202 256 331
#     4  10  20  33  54  85 114 139 173 210 265 338
#     4  10  19  33  51  73 103 137 172 216 262 310
#     4   9  19  34  54  77 112 146 173 220 267 305
#     4  11  24  39  55  79 106 143 191 226 258 308
#
# _framework density 25.948316999999999
#
# number of rings (size 3 to 8) (size 9 to 14) (size 15 to 20)
#    0.000    2.286    0.000    3.857    0.000    4.571 
#    0.000   14.286    0.000    0.000    0.000   20.000 
#    0.000    0.000    0.000    0.000    0.000    0.000 
#
# Total GULP energy -78259.621014 kJ/mol
# GULP energy per Si atom -5589.972930 kJ/mol
# Density = 2.588926 g / cm^3
# Si number density = 25.948317 Si / 1000 Ang^3
#
#
#
# Elastic Constant Matrix: (Units=GPa)
#
#
# Indices 1 2 3 4 5 6 
#
# 1 95.3833 52.9038 54.5137 1.8302 -23.8305 -32.0618
# 2 52.9038 167.3130 55.3744 -1.4553 -15.5507 -29.9218
# 3 54.5137 55.3744 164.6330 -16.2049 -32.0100 -33.4150
# 4 1.8302 -1.4553 -16.2049 40.3579 -11.8384 -2.1536
# 5 -23.8305 -15.5507 -32.0100 -11.8384 45.8104 13.5523
# 6 -32.0618 -29.9218 -33.4150 -2.1536 13.5523 61.0220
#
#
#
# Elastic Compliance Matrix: (Units=1/GPa)
#
#
# Indices 1 2 3 4 5 6 
#
# 1 0.016311 -0.003060 -0.002679 -0.000483 0.004064 0.004683
# 2 -0.003060 0.007613 -0.001349 -0.000177 -0.000433 0.001476
# 3 -0.002679 -0.001349 0.009484 0.005640 0.005619 0.002075
# 4 -0.000483 -0.000177 0.005640 0.030380 0.011078 0.001359
# 5 0.004064 -0.000433 0.005619 0.011078 0.031029 -0.001500
# 6 0.004683 0.001476 0.002075 0.001359 -0.001500 0.021090
#
#
# Mechanical properties :
#
#
# Convention : Reuss Voigt Hill
#
# Bulk Modulus (GPa) = 51.99626 83.65699 67.82663
# Shear Modulus (GPa) = 36.63182 47.07391 41.85287
#
# Velocity S-wave (km/s) = 3.76137 4.26389 4.02049
# Velocity P-wave (km/s) = 6.24065 7.52003 6.91002
#
# Compressibility (1/GPa) = 0.01923215
#
# Stress axis : x y z
#
# Youngs Moduli (GPa) = 61.30888 131.35059 105.44380
#
# Poissons Ratio (x) = 0.40192 0.28244
# Poissons Ratio (y) = 0.18760 0.14228
# Poissons Ratio (z) = 0.16422 0.17724
#
# Static dielectric constant tensor:
#      x y z
#    x 2.191240 0.137730 -0.041410 
#    y 0.137730 2.127350 0.032200 
#    z -0.041410 0.032200 1.970620 
# 
# From -- ./inp_files/97419.got.cif
#   From: 2010.05.17/outbox.cif.g08.bks.cpg/sg2_49_cif.got.tgz:97419.got - 2010.06.03 11:33:40.
