data_PCOD9072217
_publ_section_title
;
Structure prediction by ZEFSAII (Michael W. Deem and Ramdas Pophale) SiO2 
 PCOD9072217
Probable space group: P -1
;
_chemical_formula_sum "Si O2"
_cell_formula_units_Z 12
_cell_length_a 8.299648
_cell_length_b 14.192326
_cell_length_c 9.287076
_cell_angle_alpha 44.278911
_cell_angle_beta 73.199668
_cell_angle_gamma 108.014713
_cell_volume 464.422492
_symmetry_space_group_name_H-M "P -1"
_symmetry_group_IT_number 2
_symmetry_cell_setting 'triclinic'
loop_
_space_group_symop_operation_xyz
x,y,z
-x,-y,-z
loop_
_atom_site_type_symbol
_atom_site_label
_atom_site_fract_x
_atom_site_fract_y
_atom_site_fract_z
Si Si1 0.401313 0.535194 0.823085
Si Si2 0.181673 0.848290 0.582919
Si Si3 0.510294 0.286714 0.679054
Si Si4 0.828691 0.705145 0.319073
Si Si5 0.659444 0.304610 0.084048
Si Si6 0.831320 0.243841 0.645789
O O1 0.399165 0.653180 0.576097
O O2 0.644891 0.603040 0.621022
O O3 0.428610 0.624250 0.870747
O O4 0.117103 0.288386 0.155391
O O5 0.242544 0.754495 0.769176
O O6 0.171385 0.804569 0.465783
O O7 0.407682 0.094812 0.292172
O O8 0.697799 0.510945 0.465522
O O9 0.222246 0.182015 0.869261
O O10 0.586153 0.185436 0.817126
O O11 0.110414 0.833140 0.163987
O O12 0.903943 0.496944 0.708519
#
# Coordination Sequence:
#
# PCOD9072217 Si02
#       6
#     2   2   2   2   2   2
#     4   9  16  35  50  73 103 130 166 205 248 300
#     4  10  18  30  53  78 103 134 164 207 257 298
#     4   9  17  34  54  76  99 135 172 202 250 301
#     4   9  19  31  56  76  98 137 170 205 249 294
#     4  10  18  30  53  78 103 134 164 207 257 298
#     4  11  18  34  55  77 101 132 169 207 250 300
#
# _framework density 25.838545
#
# number of rings (size 3 to 8) (size 9 to 14) (size 15 to 20)
#    1.000    1.333    3.333    1.500    0.000    2.667 
#    0.000    3.333    0.000   12.000    0.000    0.000 
#    0.000    0.000    0.000    0.000    0.000    0.000 
#
# Total GULP energy -67099.389311 kJ/mol
# GULP energy per Si atom -5591.615776 kJ/mol
# Density = 2.577974 g / cm^3
# Si number density = 25.838545 Si / 1000 Ang^3
#
#
#
# Elastic Constant Matrix: (Units=GPa)
#
#
# Indices 1 2 3 4 5 6 
#
# 1 153.3517 37.3001 7.0882 -6.1220 -29.1693 2.8229
# 2 37.3001 72.5332 5.9657 -15.7680 0.6350 -1.6148
# 3 7.0882 5.9657 100.4698 -8.3341 -5.1513 7.7231
# 4 -6.1220 -15.7680 -8.3341 35.2564 7.2488 -10.2728
# 5 -29.1693 0.6350 -5.1513 7.2488 34.6622 -1.4115
# 6 2.8229 -1.6148 7.7231 -10.2728 -1.4115 32.0538
#
#
#
# Elastic Compliance Matrix: (Units=1/GPa)
#
#
# Indices 1 2 3 4 5 6 
#
# 1 0.009450 -0.005666 -0.000016 -0.003186 0.008649 -0.001754
# 2 -0.005666 0.019141 -0.000606 0.010239 -0.007164 0.004575
# 3 -0.000016 -0.000606 0.010317 0.001331 0.001169 -0.002037
# 4 -0.003186 0.010239 0.001331 0.038394 -0.010198 0.012332
# 5 0.008649 -0.007164 0.001169 -0.010198 0.038444 -0.002980
# 6 -0.001754 0.004575 -0.002037 0.012332 -0.002980 0.035894
#
#
# Mechanical properties :
#
#
# Convention : Reuss Voigt Hill
#
# Bulk Modulus (GPa) = 37.97788 47.45141 42.71465
# Shear Modulus (GPa) = 28.90258 38.79451 33.84855
#
# Velocity S-wave (km/s) = 3.34815 3.87902 3.62332
# Velocity P-wave (km/s) = 5.44765 6.20216 5.83711
#
# Compressibility (1/GPa) = 0.02633112
#
# Stress axis : x y z
#
# Youngs Moduli (GPa) = 105.82059 52.24464 96.92419
#
# Poissons Ratio (x) = 0.29600 0.00158
# Poissons Ratio (y) = 0.59954 0.05878
# Poissons Ratio (z) = 0.00173 0.03169
#
# Static dielectric constant tensor:
#      x y z
#    x 2.172950 0.023890 -0.002240 
#    y 0.023890 1.962990 -0.071610 
#    z -0.002240 -0.071610 1.992220 
# 
# From -- ./inp_files/182009.got.cif
#   From: 2010.05.17/outbox.cif.g08.bks.cpg/sg2_92_cif.got.tgz:182009.got - 2010.06.03 11:33:40.
