data_PCOD9072121
_publ_section_title
;
Structure prediction by ZEFSAII (Michael W. Deem and Ramdas Pophale) SiO2 
 PCOD9072121
Probable space group: P -1
;
_chemical_formula_sum "Si O2"
_cell_formula_units_Z 16
_cell_length_a 18.000000
_cell_length_b 30.000000
_cell_length_c 12.000000
_cell_angle_alpha 30.000000
_cell_angle_beta 20.000000
_cell_angle_gamma 20.000000
_cell_volume 749.971719
_symmetry_space_group_name_H-M "P -1"
_symmetry_group_IT_number 2
_symmetry_cell_setting 'triclinic'
loop_
_space_group_symop_operation_xyz
x,y,z
-x,-y,-z
loop_
_atom_site_type_symbol
_atom_site_label
_atom_site_fract_x
_atom_site_fract_y
_atom_site_fract_z
Si Si1 0.462828 0.648010 0.747313
Si Si2 0.891481 0.976957 0.371672
Si Si3 0.877261 0.777522 0.449733
Si Si4 0.314755 0.997314 0.629208
Si Si5 0.689210 0.435584 0.541989
Si Si6 0.257204 0.695478 0.468044
Si Si7 0.336198 0.220988 0.752883
Si Si8 0.160810 0.602390 0.109544
O O1 0.576152 0.715374 0.442446
O O2 0.298017 0.653142 0.859569
O O3 0.761726 0.494317 0.695498
O O4 0.191627 0.722031 0.065601
O O5 0.189227 0.820272 0.310241
O O6 0.704981 0.989652 0.503163
O O7 0.655204 0.067179 0.611595
O O8 0.019574 0.031465 0.023979
O O9 0.623964 0.847516 0.555711
O O10 0.005766 0.657933 0.603151
O O11 0.707830 0.898744 0.509337
O O12 0.578308 0.558394 0.368853
O O13 0.730841 0.345015 0.587702
O O14 0.388186 0.507462 0.890943
O O15 0.943473 0.745988 0.859039
O O16 0.186064 0.288286 0.695646
#
# Coordination Sequence:
#
# PCOD9072121 Si02
#       8
#     2   2   2   2   2   2   2   2
#     4  10  19  36  57  90 119 148 195 241 301 349
#     4  11  21  38  57  90 117 153 199 237 290 362
#     4  10  18  37  58  85 116 143 188 252 295 338
#     4  10  21  33  61  86 111 149 189 243 304 338
#     4   9  19  39  60  79 113 156 194 241 290 335
#     4  10  21  38  59  84 117 163 197 235 282 355
#     4  11  21  36  58  85 119 162 191 234 296 351
#     4   9  20  35  60  86 116 152 192 252 290 343
#
# _framework density 21.334137999999999
#
# number of rings (size 3 to 8) (size 9 to 14) (size 15 to 20)
#    0.000    2.000    2.500    1.500    0.000    0.000 
#    0.000   15.000    0.000    5.250    0.000    0.000 
#    0.000    0.000    0.000    0.000    0.000    0.000 
#
# Total GULP energy -89220.028029 kJ/mol
# GULP energy per Si atom -5576.251752 kJ/mol
# Density = 2.128558 g / cm^3
# Si number density = 21.334138 Si / 1000 Ang^3
#
#
#
# Elastic Constant Matrix: (Units=GPa)
#
#
# Indices 1 2 3 4 5 6 
#
# 1 37.0752 19.9665 -0.7688 -0.7573 4.9874 -2.8083
# 2 19.9665 109.4844 -1.5031 7.4593 -4.0378 -2.5916
# 3 -0.7688 -1.5031 24.5776 -6.9178 -0.2165 8.7280
# 4 -0.7573 7.4593 -6.9178 21.3262 2.4331 -5.9437
# 5 4.9874 -4.0378 -0.2165 2.4331 19.5462 5.5467
# 6 -2.8083 -2.5916 8.7280 -5.9437 5.5467 41.8542
#
#
#
# Elastic Compliance Matrix: (Units=1/GPa)
#
#
# Indices 1 2 3 4 5 6 
#
# 1 0.032581 -0.006686 0.000828 0.006207 -0.011598 0.004018
# 2 -0.006686 0.010845 -0.000562 -0.005052 0.004859 -0.001021
# 3 0.000828 -0.000562 0.047272 0.013215 0.000842 -0.008072
# 4 0.006207 -0.005052 0.013215 0.056386 -0.011450 0.006873
# 5 -0.011598 0.004859 0.000842 -0.011450 0.059441 -0.010156
# 6 0.004018 -0.001021 -0.008072 0.006873 -0.010156 0.028104
#
#
# Mechanical properties :
#
#
# Convention : Reuss Voigt Hill
#
# Bulk Modulus (GPa) = 12.84386 22.94739 17.89563
# Shear Modulus (GPa) = 18.28672 26.77483 22.53077
#
# Velocity S-wave (km/s) = 2.93090 3.54647 3.25328
# Velocity P-wave (km/s) = 4.18174 5.24876 4.74534
#
# Compressibility (1/GPa) = 0.07785822
#
# Stress axis : x y z
#
# Youngs Moduli (GPa) = 30.69235 92.21243 21.15398
#
# Poissons Ratio (x) = 0.61653 -0.01752
# Poissons Ratio (y) = 0.20521 0.01190
# Poissons Ratio (z) = -0.02542 0.05186
#
# Static dielectric constant tensor:
#      x y z
#    x 1.791430 -0.044100 -0.001600 
#    y -0.044100 1.830600 -0.009680 
#    z -0.001600 -0.009680 1.754550 
# 
# From -- ./inp_files/274719.got.cif
#   From: 2010.05.17/outbox.ucp.g08.bks.cvg/sg2_138_cif.got.tgz:274719.got - 2010.06.11 11:32:03.
