data_PCOD9072978
_publ_section_title
;
Structure prediction by ZEFSAII (Michael W. Deem and Ramdas Pophale) SiO2 
 PCOD9072978
Probable space group: P -1
;
_chemical_formula_sum "Si O2"
_cell_formula_units_Z 14
_cell_length_a 12.000000
_cell_length_b 12.000000
_cell_length_c 9.000000
_cell_angle_alpha 70.000000
_cell_angle_beta 140.000000
_cell_angle_gamma 90.000000
_cell_volume 705.336177
_symmetry_space_group_name_H-M "P -1"
_symmetry_group_IT_number 2
_symmetry_cell_setting 'triclinic'
loop_
_space_group_symop_operation_xyz
x,y,z
-x,-y,-z
loop_
_atom_site_type_symbol
_atom_site_label
_atom_site_fract_x
_atom_site_fract_y
_atom_site_fract_z
Si Si1 0.212737 0.436669 0.185572
Si Si2 0.493375 0.310382 0.793116
Si Si3 0.862236 0.950557 0.788044
Si Si4 0.305589 0.613977 0.566419
Si Si5 0.472541 0.791643 0.818606
Si Si6 0.195982 0.715554 0.083981
Si Si7 0.152367 0.273017 0.937113
O O1 0.345551 0.341475 0.491560
O O2 0.240631 0.568859 0.137536
O O3 0.207609 0.360128 0.069433
O O4 0.000000 0.500000 0.000000
O O5 0.420196 0.457328 0.726073
O O6 0.695971 0.244098 0.947283
O O7 0.516526 0.211039 0.992536
O O8 0.800070 0.868095 0.877879
O O9 0.685153 0.073222 0.476958
O O10 0.989332 0.834758 0.853174
O O11 0.000000 0.000000 0.000000
O O12 0.404744 0.680146 0.744531
O O13 0.293203 0.681664 0.361642
O O14 0.079898 0.655367 0.359729
O O15 0.693152 0.752182 0.020093
#
# Coordination Sequence:
#
# PCOD9072978 Si02
#       7
#     2   2   2   2   2   2   2
#     4  11  19  40  66  91 120 156 210 255 298 365
#     4  11  23  38  61  98 125 157 202 259 321 354
#     4  11  22  42  65  88 118 170 217 243 296 374
#     4  10  20  41  64  94 122 162 208 250 306 368
#     4  12  24  40  61  95 131 160 201 257 312 364
#     4  10  20  39  67  88 117 165 212 246 298 368
#     4  11  22  41  70  89 120 166 211 251 300 371
#
# _framework density 19.848690999999999
#
# number of rings (size 3 to 8) (size 9 to 14) (size 15 to 20)
#    0.000    1.143    7.143    4.286    0.000    1.143 
#    2.571    0.714    0.000    0.000    0.000    0.000 
#    0.000    0.000    0.000    0.000    0.000    0.000 
#
# Total GULP energy -77975.879798 kJ/mol
# GULP energy per Si atom -5569.705700 kJ/mol
# Density = 1.980351 g / cm^3
# Si number density = 19.848691 Si / 1000 Ang^3
#
#
#
# Elastic Constant Matrix: (Units=GPa)
#
#
# Indices 1 2 3 4 5 6 
#
# 1 118.2510 -3.6870 39.7733 33.9949 -4.9311 5.1423
# 2 -3.6870 38.2268 0.2670 12.2843 -0.7424 2.7792
# 3 39.7733 0.2670 12.5575 -7.7511 20.9033 2.4683
# 4 33.9949 12.2843 -7.7511 9.5263 8.4548 7.3440
# 5 -4.9311 -0.7424 20.9033 8.4548 2.3551 0.7725
# 6 5.1423 2.7792 2.4683 7.3440 0.7725 3.1193
#
#
#
# Elastic Compliance Matrix: (Units=1/GPa)
#
#
# Indices 1 2 3 4 5 6 
#
# 1 0.007234 0.002089 0.006161 -0.005329 -0.019311 -0.001333
# 2 0.002089 0.035947 0.024477 -0.049996 -0.046460 0.074375
# 3 0.006161 0.024477 0.060419 -0.145093 -0.087779 0.283567
# 4 -0.005329 -0.049996 -0.145093 0.329807 0.300871 -0.682860
# 5 -0.019311 -0.046460 -0.087779 0.300871 0.276519 -0.634158
# 6 -0.001333 0.074375 0.283567 -0.682860 -0.634158 1.796894
#
#
# Mechanical properties :
#
#
# Convention : Reuss Voigt Hill
#
# Bulk Modulus (GPa) = 5.91521 26.86022 16.38772
# Shear Modulus (GPa) = 2.00183 11.84560 6.92372
#
# Velocity S-wave (km/s) = 1.00535 2.44559 1.86971
# Velocity P-wave (km/s) = 2.08189 4.64073 3.59657
#
# Compressibility (1/GPa) = 0.16905565
#
# Stress axis : x y z
#
# Youngs Moduli (GPa) = 138.23316 27.81871 16.55112
#
# Poissons Ratio (x) = -0.05812 -0.10197
# Poissons Ratio (y) = -0.28879 -0.40513
# Poissons Ratio (z) = -0.85168 -0.68093
#
# Static dielectric constant tensor:
#      x y z
#    x 1.734930 0.009210 0.026010 
#    y 0.009210 1.609370 0.015140 
#    z 0.026010 0.015140 1.674250 
# 
# From -- ./inp_files/257751.got.cif
#   From: 2010.05.17/outbox.ucp.g08.bks.cvg/sg2_129_cif.got.tgz:257751.got - 2010.06.11 11:32:03.
