data_PCOD9072747
_publ_section_title
;
Structure prediction by ZEFSAII (Michael W. Deem and Ramdas Pophale) SiO2 
 PCOD9072747
Probable space group: P -1
;
_chemical_formula_sum "Si O2"
_cell_formula_units_Z 16
_cell_length_a 12.000000
_cell_length_b 9.000000
_cell_length_c 12.000000
_cell_angle_alpha 50.000000
_cell_angle_beta 50.000000
_cell_angle_gamma 70.000000
_cell_volume 754.912344
_symmetry_space_group_name_H-M "P -1"
_symmetry_group_IT_number 2
_symmetry_cell_setting 'triclinic'
loop_
_space_group_symop_operation_xyz
x,y,z
-x,-y,-z
loop_
_atom_site_type_symbol
_atom_site_label
_atom_site_fract_x
_atom_site_fract_y
_atom_site_fract_z
Si Si1 0.112135 0.480608 0.625191
Si Si2 0.607190 0.827192 0.024558
Si Si3 0.638419 0.019594 0.318371
Si Si4 0.579780 0.511338 0.827163
Si Si5 0.639552 0.659309 0.328647
Si Si6 0.116725 0.895314 0.303029
Si Si7 0.804249 0.268857 0.900074
Si Si8 0.191852 0.165210 0.544010
O O1 0.218156 0.441217 0.677790
O O2 0.138756 0.699613 0.453311
O O3 0.146558 0.334850 0.573131
O O4 0.943665 0.401785 0.797821
O O5 0.525447 0.626002 0.121685
O O6 0.639850 0.766846 0.158572
O O7 0.500000 0.000000 0.000000
O O8 0.762368 0.925708 0.825941
O O9 0.621577 0.819349 0.356762
O O10 0.776725 0.015479 0.313433
O O11 0.500000 0.000000 0.500000
O O12 0.692706 0.177664 0.111569
O O13 0.720178 0.402795 0.810877
O O14 0.651487 0.732203 0.651285
O O15 0.500000 0.500000 0.000000
O O16 0.500000 0.500000 0.500000
O O17 0.143391 0.874717 0.160399
O O18 0.941734 0.900912 0.420656
#
# Coordination Sequence:
#
# PCOD9072747 Si02
#       8
#     2   2   2   2   2   2   2   2
#     4  10  20  36  64  93 123 154 211 263 304 359
#     4  12  22  38  63  95 124 158 209 261 307 360
#     4  11  23  38  59  92 130 162 204 252 307 377
#     4  12  23  40  63  90 125 167 206 247 308 382
#     4  11  23  38  63  92 124 161 204 259 315 357
#     4  11  19  37  64  94 123 153 213 272 298 352
#     4  11  20  37  63  91 120 165 208 252 311 358
#     4  10  20  36  60  89 125 162 205 251 307 365
#
# _framework density 21.194514000000002
#
# number of rings (size 3 to 8) (size 9 to 14) (size 15 to 20)
#    0.000    1.000    5.000    3.750    1.750    1.500 
#    0.000    0.625    2.750    1.500    0.000    0.000 
#    0.000    0.000    0.000    0.000    0.000    0.000 
#
# Total GULP energy -89144.277342 kJ/mol
# GULP energy per Si atom -5571.517334 kJ/mol
# Density = 2.114627 g / cm^3
# Si number density = 21.194514 Si / 1000 Ang^3
#
#
#
# Elastic Constant Matrix: (Units=GPa)
#
#
# Indices 1 2 3 4 5 6 
#
# 1 157.1640 26.2823 58.9070 -15.8134 -10.6410 -0.5035
# 2 26.2823 12.4924 20.5361 2.2240 1.7350 -2.3380
# 3 58.9070 20.5361 149.7017 -13.9372 -3.9001 -8.0075
# 4 -15.8134 2.2240 -13.9372 30.3829 3.6949 3.3395
# 5 -10.6410 1.7350 -3.9001 3.6949 42.1914 -8.5573
# 6 -0.5035 -2.3380 -8.0075 3.3395 -8.5573 14.0767
#
#
#
# Elastic Compliance Matrix: (Units=1/GPa)
#
#
# Indices 1 2 3 4 5 6 
#
# 1 0.012117 -0.027574 -0.000403 0.008382 0.002427 -0.004889
# 2 -0.027574 0.175359 -0.015514 -0.035899 -0.007769 0.023108
# 3 -0.000403 -0.015514 0.009600 0.004851 0.001537 0.002654
# 4 0.008382 -0.035899 0.004851 0.044145 -0.002897 -0.015137
# 5 0.002427 -0.007769 0.001537 -0.002897 0.028632 0.017763
# 6 -0.004889 0.023108 0.002654 -0.015137 0.017763 0.090601
#
#
# Mechanical properties :
#
#
# Convention : Reuss Voigt Hill
#
# Bulk Modulus (GPa) = 9.08318 58.97875 34.03096
# Shear Modulus (GPa) = 10.32769 31.57240 20.95004
#
# Velocity S-wave (km/s) = 2.20984 3.86378 3.14740
# Velocity P-wave (km/s) = 3.28727 6.91324 5.41290
#
# Compressibility (1/GPa) = 0.11009361
#
# Stress axis : x y z
#
# Youngs Moduli (GPa) = 82.52727 5.70259 104.16150
#
# Poissons Ratio (x) = 0.15724 0.04201
# Poissons Ratio (y) = 2.27562 1.61595
# Poissons Ratio (z) = 0.03329 0.08847
#
# Static dielectric constant tensor:
#      x y z
#    x 1.679190 0.059760 -0.028380 
#    y 0.059760 1.786030 -0.008700 
#    z -0.028380 -0.008700 1.787930 
# 
# From -- ./inp_files/260309.got.cif
#   From: 2010.05.17/outbox.ucp.g08.bks.cvg/sg2_131_cif.got.tgz:260309.got - 2010.06.11 11:32:03.
