data_PCOD9072077
_publ_section_title
;
Structure prediction by ZEFSAII (Michael W. Deem and Ramdas Pophale) SiO2 
 PCOD9072077
Probable space group: P -1
;
_chemical_formula_sum "Si O2"
_cell_formula_units_Z 16
_cell_length_a 15.686225
_cell_length_b 31.090255
_cell_length_c 13.276605
_cell_angle_alpha 26.359993
_cell_angle_beta 26.214338
_cell_angle_gamma 13.996090
_cell_volume 671.733702
_symmetry_space_group_name_H-M "P -1"
_symmetry_group_IT_number 2
_symmetry_cell_setting 'triclinic'
loop_
_space_group_symop_operation_xyz
x,y,z
-x,-y,-z
loop_
_atom_site_type_symbol
_atom_site_label
_atom_site_fract_x
_atom_site_fract_y
_atom_site_fract_z
Si Si1 0.146937 0.582410 0.719069
Si Si2 0.352136 0.285728 0.178927
Si Si3 0.256813 0.332015 0.655690
Si Si4 0.158878 0.861995 0.865112
Si Si5 0.201432 0.010798 0.343566
Si Si6 0.792793 0.424959 0.106446
Si Si7 0.735288 0.507795 0.532749
Si Si8 0.143006 0.150437 0.932934
O O1 0.500000 0.500000 0.500000
O O2 0.017970 0.650111 0.828452
O O3 0.801163 0.732323 0.695639
O O4 0.311807 0.403622 0.914727
O O5 0.742090 0.128953 0.151848
O O6 0.044626 0.409478 0.333080
O O7 0.568420 0.150570 0.641915
O O8 0.377325 0.356171 0.563026
O O9 0.000000 0.500000 0.500000
O O10 0.035708 0.343988 0.923406
O O11 0.131566 0.962623 0.605682
O O12 0.493002 0.640727 0.968123
O O13 0.852247 0.919317 0.025482
O O14 0.459691 0.980510 0.185051
O O15 0.966475 0.171423 0.173329
O O16 0.598601 0.403944 0.350845
O O17 0.917052 0.344130 0.747166
#
# Coordination Sequence:
#
# PCOD9072077 Si02
#       8
#     2   2   2   2   2   2   2   2
#     4  10  18  30  51  79 112 131 169 218 277 307
#     4  10  18  30  51  78 107 135 163 218 276 309
#     4  12  20  35  50  74 111 147 173 208 265 320
#     4  10  18  33  50  74 106 136 175 220 262 306
#     4  11  21  35  51  74 106 145 180 216 259 304
#     4  10  20  31  51  79 107 139 174 216 262 321
#     4  11  19  34  53  75 110 138 174 214 263 312
#     4  10  21  33  53  75 104 138 186 224 246 304
#
# _framework density 23.818961999999999
#
# number of rings (size 3 to 8) (size 9 to 14) (size 15 to 20)
#    0.000    1.500    7.500    0.375    0.000    1.500 
#    0.000    0.000    0.000    0.000    0.000    1.750 
#    0.000    0.125    0.000    0.000    0.000    0.000 
#
# Total GULP energy -89247.658683 kJ/mol
# GULP energy per Si atom -5577.978668 kJ/mol
# Density = 2.376475 g / cm^3
# Si number density = 23.818962 Si / 1000 Ang^3
#
#
#
# Elastic Constant Matrix: (Units=GPa)
#
#
# Indices 1 2 3 4 5 6 
#
# 1 162.9156 18.6667 29.8446 -3.1617 -16.3744 -32.3376
# 2 18.6667 23.7376 4.6612 -11.7224 4.3230 -0.9938
# 3 29.8446 4.6612 99.0309 -1.1188 -17.6310 -3.9352
# 4 -3.1617 -11.7224 -1.1188 18.3192 -6.6599 -2.0210
# 5 -16.3744 4.3230 -17.6310 -6.6599 47.2768 3.5686
# 6 -32.3376 -0.9938 -3.9352 -2.0210 3.5686 24.2149
#
#
#
# Elastic Compliance Matrix: (Units=1/GPa)
#
#
# Indices 1 2 3 4 5 6 
#
# 1 0.010064 -0.008165 -0.001734 -0.001335 0.002466 0.012349
# 2 -0.008165 0.069649 -0.001138 0.041356 -0.003473 -0.004267
# 3 -0.001734 -0.001138 0.011348 0.000990 0.003952 -0.001018
# 4 -0.001335 0.041356 0.000990 0.084286 0.007546 0.005998
# 5 0.002466 -0.003473 0.003952 0.007546 0.024802 0.000767
# 6 0.012349 -0.004267 -0.001018 0.005998 0.000767 0.057835
#
#
# Mechanical properties :
#
#
# Convention : Reuss Voigt Hill
#
# Bulk Modulus (GPa) = 14.49571 43.55880 29.02725
# Shear Modulus (GPa) = 16.49863 33.46295 24.98079
#
# Velocity S-wave (km/s) = 2.63471 3.75225 3.24200
# Velocity P-wave (km/s) = 3.91850 6.09095 5.12124
#
# Compressibility (1/GPa) = 0.06898593
#
# Stress axis : x y z
#
# Youngs Moduli (GPa) = 99.35956 14.35780 88.11849
#
# Poissons Ratio (x) = 0.11724 0.15281
# Poissons Ratio (y) = 0.81130 0.10030
# Poissons Ratio (z) = 0.17231 0.01634
#
# Static dielectric constant tensor:
#      x y z
#    x 2.008880 -0.059660 -0.033790 
#    y -0.059660 1.983370 0.044250 
#    z -0.033790 0.044250 1.924080 
# 
# From -- ./inp_files/458372.got.cif
#   From: 2010.05.17/outbox.cif.g08.bks.cpg/sg2_230_cif.got.tgz:458372.got - 2010.06.03 11:33:40.
