data_PCOD9072608
_publ_section_title
;
Structure prediction by ZEFSAII (Michael W. Deem and Ramdas Pophale) SiO2 
 PCOD9072608
Probable space group: P -1
;
_chemical_formula_sum "Si O2"
_cell_formula_units_Z 16
_cell_length_a 12.000000
_cell_length_b 15.000000
_cell_length_c 15.000000
_cell_angle_alpha 140.000000
_cell_angle_beta 140.000000
_cell_angle_gamma 30.000000
_cell_volume 822.330465
_symmetry_space_group_name_H-M "P -1"
_symmetry_group_IT_number 2
_symmetry_cell_setting 'triclinic'
loop_
_space_group_symop_operation_xyz
x,y,z
-x,-y,-z
loop_
_atom_site_type_symbol
_atom_site_label
_atom_site_fract_x
_atom_site_fract_y
_atom_site_fract_z
Si Si1 0.411237 0.953460 0.828374
Si Si2 0.178285 0.798136 0.633008
Si Si3 0.679508 0.500006 0.052280
Si Si4 0.255732 0.930481 0.129626
Si Si5 0.928194 0.197989 0.621426
Si Si6 0.565612 0.582137 0.408580
Si Si7 0.253276 0.814529 0.237408
Si Si8 0.203125 0.260200 0.256202
O O1 0.357567 0.824526 0.732023
O O2 0.623222 0.847725 0.805795
O O3 0.158313 0.134524 0.765445
O O4 0.500000 0.000000 0.000000
O O5 0.119498 0.736536 0.461357
O O6 0.279943 0.638820 0.647881
O O7 0.950592 0.002214 0.688626
O O8 0.492213 0.721583 0.076906
O O9 0.920035 0.423095 0.188221
O O10 0.500000 0.500000 0.000000
O O11 0.792281 0.323181 0.919468
O O12 0.276526 0.890752 0.218807
O O13 0.244718 0.096737 0.216263
O O14 0.000000 0.000000 0.000000
O O15 0.681897 0.323614 0.620338
O O16 0.000000 0.000000 0.500000
O O17 0.487637 0.669655 0.328805
O O18 0.702031 0.644865 0.574357
#
# Coordination Sequence:
#
# PCOD9072608 Si02
#       8
#     2   2   2   2   2   2   2   2
#     4  11  23  40  71 105 137 173 231 286 324 411
#     4  11  23  44  70  99 146 183 216 277 357 394
#     4  10  23  44  69  94 133 175 228 277 344 397
#     4  11  25  46  74  94 137 184 220 288 357 389
#     4  10  19  43  65  93 150 181 211 273 348 398
#     4  12  25  41  71 101 140 188 222 278 337 412
#     4  11  23  43  71 101 130 183 229 276 342 406
#     4  12  24  43  69 104 136 179 233 275 337 414
#
# _framework density 19.456897999999999
#
# number of rings (size 3 to 8) (size 9 to 14) (size 15 to 20)
#    0.000    1.000    7.500    1.125    1.750    2.500 
#    0.000    5.000    0.000    0.000    0.000    0.000 
#    0.000    0.000    0.000    0.000    0.000    0.000 
#
# Total GULP energy -89137.881498 kJ/mol
# GULP energy per Si atom -5571.117594 kJ/mol
# Density = 1.941261 g / cm^3
# Si number density = 19.456898 Si / 1000 Ang^3
#
#
#
# Elastic Constant Matrix: (Units=GPa)
#
#
# Indices 1 2 3 4 5 6 
#
# 1 100.0594 36.1200 37.3866 -9.4984 7.8231 12.4835
# 2 36.1200 151.8692 45.0232 -11.6121 12.0026 13.3101
# 3 37.3866 45.0232 119.1064 -29.1250 5.1840 3.9386
# 4 -9.4984 -11.6121 -29.1250 41.3739 0.7423 6.4140
# 5 7.8231 12.0026 5.1840 0.7423 30.7018 -4.7044
# 6 12.4835 13.3101 3.9386 6.4140 -4.7044 39.2162
#
#
#
# Elastic Compliance Matrix: (Units=1/GPa)
#
#
# Indices 1 2 3 4 5 6 
#
# 1 0.012347 -0.001492 -0.002821 0.001041 -0.002668 -0.003631
# 2 -0.001492 0.008095 -0.002180 0.000837 -0.002824 -0.002529
# 3 -0.002821 -0.002180 0.011951 0.007298 -0.000753 -0.000846
# 4 0.001041 0.000837 0.007298 0.030906 -0.003620 -0.006838
# 5 -0.002668 -0.002824 -0.000753 -0.003620 0.035604 0.006747
# 6 -0.003631 -0.002529 -0.000846 -0.006838 0.006747 0.029527
#
#
# Mechanical properties :
#
#
# Convention : Reuss Voigt Hill
#
# Bulk Modulus (GPa) = 51.52898 67.56605 59.54752
# Shear Modulus (GPa) = 33.81036 39.09205 36.45121
#
# Velocity S-wave (km/s) = 4.17310 4.48723 4.33301
# Velocity P-wave (km/s) = 7.05414 7.85165 7.46355
#
# Compressibility (1/GPa) = 0.01940655
#
# Stress axis : x y z
#
# Youngs Moduli (GPa) = 80.99120 123.53869 83.67614
#
# Poissons Ratio (x) = 0.18426 0.23606
# Poissons Ratio (y) = 0.12080 0.18244
# Poissons Ratio (z) = 0.22849 0.26936
#
# Static dielectric constant tensor:
#      x y z
#    x 1.721360 0.013450 -0.067610 
#    y 0.013450 1.719340 -0.020520 
#    z -0.067610 -0.020520 1.760460 
# 
# From -- ./inp_files/521789.got.cif
#   From: 2010.05.17/outbox.ucp.g08.bks.cvg/sg2_261_cif.got.tgz:521789.got - 2010.06.11 11:32:03.
