data_PCOD9072493
_publ_section_title
;
Structure prediction by ZEFSAII (Michael W. Deem and Ramdas Pophale) SiO2 
 PCOD9072493
Probable space group: P -1
;
_chemical_formula_sum "Si O2"
_cell_formula_units_Z 16
_cell_length_a 16.070679
_cell_length_b 10.021971
_cell_length_c 20.622119
_cell_angle_alpha 150.977918
_cell_angle_beta 25.144796
_cell_angle_gamma 135.598060
_cell_volume 634.962025
_symmetry_space_group_name_H-M "P -1"
_symmetry_group_IT_number 2
_symmetry_cell_setting 'triclinic'
loop_
_space_group_symop_operation_xyz
x,y,z
-x,-y,-z
loop_
_atom_site_type_symbol
_atom_site_label
_atom_site_fract_x
_atom_site_fract_y
_atom_site_fract_z
Si Si1 0.172748 0.061780 0.360293
Si Si2 0.894626 0.750980 0.123350
Si Si3 0.581400 0.581482 0.634565
Si Si4 0.227363 0.941984 0.543904
Si Si5 0.776820 0.950789 0.004349
Si Si6 0.788055 0.249658 0.935619
Si Si7 0.394067 0.418391 0.103091
Si Si8 0.535778 0.219044 0.401930
O O1 0.159719 0.947700 0.249095
O O2 0.200471 0.372744 0.487335
O O3 0.409233 0.847981 0.120728
O O4 0.000000 0.000000 0.500000
O O5 0.723467 0.016651 0.398274
O O6 0.052355 0.898798 0.049712
O O7 0.822691 0.562053 0.042047
O O8 0.000000 0.500000 0.000000
O O9 0.610477 0.282376 0.446873
O O10 0.421263 0.814639 0.796044
O O11 0.440942 0.660763 0.832673
O O12 0.318680 0.164338 0.537936
O O13 0.974800 0.039939 0.761342
O O14 0.321334 0.648065 0.310786
O O15 0.797718 0.659436 0.824657
O O16 0.697873 0.943512 0.130434
O O17 0.500000 0.500000 0.000000
O O18 0.500000 0.500000 0.500000
#
# Coordination Sequence:
#
# PCOD9072493 Si02
#       8
#     2   2   2   2   2   2   2   2
#     4  11  26  39  60  87 116 162 202 240 299 354
#     4  10  18  34  60  95 119 146 199 251 293 348
#     4  10  19  36  57  88 119 152 195 247 293 347
#     4  11  20  36  64  90 118 156 195 250 297 344
#     4  10  19  33  57  91 119 152 198 243 296 341
#     4  11  20  38  62  89 122 148 197 251 295 355
#     4  11  23  41  59  85 126 158 197 246 294 356
#     4  10  18  30  60  92 115 149 205 248 285 337
#
# _framework density 25.198357999999999
#
# number of rings (size 3 to 8) (size 9 to 14) (size 15 to 20)
#    0.000    1.500    5.000    3.375    5.250    0.500 
#    0.000    0.625    0.000    1.500    0.000    0.000 
#    0.000    0.000    0.000    0.000    0.000    0.000 
#
# Total GULP energy -89246.089458 kJ/mol
# GULP energy per Si atom -5577.880591 kJ/mol
# Density = 2.514100 g / cm^3
# Si number density = 25.198358 Si / 1000 Ang^3
#
#
#
# Elastic Constant Matrix: (Units=GPa)
#
#
# Indices 1 2 3 4 5 6 
#
# 1 61.2850 15.7174 15.1613 2.7351 22.8914 17.6607
# 2 15.7174 152.0181 39.6200 -17.6632 20.2980 36.3457
# 3 15.1613 39.6200 107.6037 0.3542 39.3077 14.1533
# 4 2.7351 -17.6632 0.3542 43.1528 8.5269 10.2178
# 5 22.8914 20.2980 39.3077 8.5269 57.3732 7.3412
# 6 17.6607 36.3457 14.1533 10.2178 7.3412 29.1146
#
#
#
# Elastic Compliance Matrix: (Units=1/GPa)
#
#
# Indices 1 2 3 4 5 6 
#
# 1 0.024567 0.004341 0.001642 0.007314 -0.010870 -0.020946
# 2 0.004341 0.013602 -0.001051 0.011424 -0.004717 -0.021922
# 3 0.001642 -0.001051 0.013427 0.002288 -0.009223 -0.004689
# 4 0.007314 0.011424 0.002288 0.036482 -0.010102 -0.030066
# 5 -0.010870 -0.004717 -0.009223 -0.010102 0.029586 0.013051
# 6 -0.020946 -0.021922 -0.004689 -0.030066 0.013051 0.083960
#
#
# Mechanical properties :
#
#
# Convention : Reuss Voigt Hill
#
# Bulk Modulus (GPa) = 16.27072 51.32268 33.79670
# Shear Modulus (GPa) = 23.55748 42.62200 33.08974
#
# Velocity S-wave (km/s) = 3.06090 4.11720 3.62770
# Velocity P-wave (km/s) = 4.35468 6.55846 5.56672
#
# Compressibility (1/GPa) = 0.06146010
#
# Stress axis : x y z
#
# Youngs Moduli (GPa) = 40.70436 73.52032 74.47558
#
# Poissons Ratio (x) = -0.31916 -0.12227
# Poissons Ratio (y) = -0.17670 0.07826
# Poissons Ratio (z) = -0.06682 0.07726
#
# Static dielectric constant tensor:
#      x y z
#    x 2.045390 -0.002980 -0.083270 
#    y -0.002980 2.137120 0.195540 
#    z -0.083270 0.195540 2.225480 
# 
# From -- ./inp_files/620821.got.cif
#   From: 2010.05.17/outbox.cif.g08.bks.cpg/sg2_311_cif.got.tgz:620821.got - 2010.06.03 11:33:40.
