data_PCOD9072622
_publ_section_title
;
Structure prediction by ZEFSAII (Michael W. Deem and Ramdas Pophale) SiO2 
 PCOD9072622
Probable space group: P -1
;
_chemical_formula_sum "Si O2"
_cell_formula_units_Z 16
_cell_length_a 11.854455
_cell_length_b 14.656713
_cell_length_c 12.035139
_cell_angle_alpha 61.108626
_cell_angle_beta 75.507019
_cell_angle_gamma 127.064481
_cell_volume 923.199723
_symmetry_space_group_name_H-M "P -1"
_symmetry_group_IT_number 2
_symmetry_cell_setting 'triclinic'
loop_
_space_group_symop_operation_xyz
x,y,z
-x,-y,-z
loop_
_atom_site_type_symbol
_atom_site_label
_atom_site_fract_x
_atom_site_fract_y
_atom_site_fract_z
Si Si1 0.676543 0.405883 0.502584
Si Si2 0.109168 0.746452 0.972676
Si Si3 0.886710 0.758079 0.110943
Si Si4 0.443602 0.099515 0.071510
Si Si5 0.824905 0.267128 0.790952
Si Si6 0.478425 0.054936 0.337060
Si Si7 0.704860 0.840370 0.081469
Si Si8 0.322225 0.727289 0.621848
O O1 0.745494 0.565815 0.329538
O O2 0.503754 0.297738 0.704725
O O3 0.578474 0.255516 0.520223
O O4 0.908657 0.527677 0.412701
O O5 0.301530 0.851017 0.785583
O O6 0.202737 0.815265 0.035940
O O7 0.001689 0.778411 0.972323
O O8 0.909194 0.509252 0.159018
O O9 0.745460 0.748642 0.110377
O O10 0.077286 0.948029 0.034044
O O11 0.455558 0.097371 0.202144
O O12 0.293816 0.889919 0.182995
O O13 0.685501 0.264166 0.856384
O O14 0.339635 0.126859 0.037038
O O15 0.526751 0.160334 0.371265
O O16 0.289621 0.823773 0.541353
#
# Coordination Sequence:
#
# PCOD9072622 Si02
#       8
#     2   2   2   2   2   2   2   2
#     4  10  19  33  51  74  99 127 164 204 236 288
#     4   9  16  33  50  69  99 120 162 205 235 279
#     4   9  19  33  47  75  99 126 169 199 239 289
#     4  10  18  31  48  70 106 129 154 199 246 296
#     4   8  17  30  44  71 101 126 152 189 248 297
#     4  10  19  32  49  72  99 127 160 198 235 298
#     4  11  19  31  52  72 101 133 158 198 252 283
#     4   9  19  31  49  72  93 131 164 190 243 283
#
# _framework density 17.331026999999999
#
# number of rings (size 3 to 8) (size 9 to 14) (size 15 to 20)
#    0.000    2.750    2.500    1.500    3.500    0.500 
#    4.500    0.000    0.000    3.000    0.000   14.000 
#    0.000    0.000    0.000    0.000    0.000    0.000 
#
# Total GULP energy -89120.841787 kJ/mol
# GULP energy per Si atom -5570.052612 kJ/mol
# Density = 1.729158 g / cm^3
# Si number density = 17.331027 Si / 1000 Ang^3
#
#
#
# Elastic Constant Matrix: (Units=GPa)
#
#
# Indices 1 2 3 4 5 6 
#
# 1 114.2194 39.9545 25.8227 1.2064 5.0961 9.2624
# 2 39.9545 73.1480 29.4353 1.8464 0.0044 3.8909
# 3 25.8227 29.4353 43.0750 3.5025 3.5254 6.1258
# 4 1.2064 1.8464 3.5025 19.9500 -4.4553 7.1524
# 5 5.0961 0.0044 3.5254 -4.4553 21.0837 2.4398
# 6 9.2624 3.8909 6.1258 7.1524 2.4398 18.0797
#
#
#
# Elastic Compliance Matrix: (Units=1/GPa)
#
#
# Indices 1 2 3 4 5 6 
#
# 1 0.011539 -0.004931 -0.002943 0.001456 -0.001499 -0.004227
# 2 -0.004931 0.021088 -0.011961 0.000672 0.003174 0.001346
# 3 -0.002943 -0.011961 0.034680 -0.004081 -0.005330 -0.005335
# 4 0.001456 0.000672 -0.004081 0.064266 0.017062 -0.027234
# 5 -0.001499 0.003174 -0.005330 0.017062 0.053689 -0.012104
# 6 -0.004227 0.001346 -0.005335 -0.027234 -0.012104 0.071401
#
#
# Mechanical properties :
#
#
# Convention : Reuss Voigt Hill
#
# Bulk Modulus (GPa) = 36.18074 46.76305 41.47189
# Shear Modulus (GPa) = 16.36417 20.83801 18.60109
#
# Velocity S-wave (km/s) = 3.07614 3.47126 3.27965
# Velocity P-wave (km/s) = 5.79124 6.56559 6.19054
#
# Compressibility (1/GPa) = 0.02763901
#
# Stress axis : x y z
#
# Youngs Moduli (GPa) = 86.65910 47.41938 28.83530
#
# Poissons Ratio (x) = 0.23381 0.08486
# Poissons Ratio (y) = 0.42728 0.34489
# Poissons Ratio (z) = 0.25503 0.56717
#
# Static dielectric constant tensor:
#      x y z
#    x 1.627840 0.001300 -0.008090 
#    y 0.001300 1.588590 -0.016250 
#    z -0.008090 -0.016250 1.635010 
# 
# From -- ./inp_files/432713.got.cif
#   From: 2010.05.17/outbox.cif.g08.bks.cpg/sg2_217_cif.got.tgz:432713.got - 2010.06.03 11:33:40.
