data_PCOD9072949
_publ_section_title
;
Structure prediction by ZEFSAII (Michael W. Deem and Ramdas Pophale) SiO2 
 PCOD9072949
Probable space group: P -1
;
_chemical_formula_sum "Si O2"
_cell_formula_units_Z 16
_cell_length_a 15.201807
_cell_length_b 7.830714
_cell_length_c 23.690177
_cell_angle_alpha 67.848063
_cell_angle_beta 17.520471
_cell_angle_gamma 64.016589
_cell_volume 754.477473
_symmetry_space_group_name_H-M "P -1"
_symmetry_group_IT_number 2
_symmetry_cell_setting 'triclinic'
loop_
_space_group_symop_operation_xyz
x,y,z
-x,-y,-z
loop_
_atom_site_type_symbol
_atom_site_label
_atom_site_fract_x
_atom_site_fract_y
_atom_site_fract_z
Si Si1 0.605017 0.242155 0.848382
Si Si2 0.251364 0.605695 0.594060
Si Si3 0.284789 0.065985 0.406860
Si Si4 0.411991 0.987225 0.465572
Si Si5 0.758085 0.597854 0.682900
Si Si6 0.444469 0.883609 0.978799
Si Si7 0.877794 0.299464 0.452757
Si Si8 0.942272 0.754632 0.248583
O O1 0.539460 0.465720 0.846519
O O2 0.931956 0.160247 0.628456
O O3 0.389352 0.112643 0.977071
O O4 0.637568 0.189058 0.901355
O O5 0.500000 0.500000 0.500000
O O6 0.216240 0.830070 0.600848
O O7 0.022633 0.471886 0.751483
O O8 0.345404 0.584808 0.473051
O O9 0.388223 0.193013 0.280760
O O10 0.444309 0.045735 0.373440
O O11 0.274398 0.861863 0.413051
O O12 0.731399 0.873473 0.313066
O O13 0.244297 0.156470 0.590431
O O14 0.983410 0.598426 0.597174
O O15 0.000000 0.500000 0.500000
O O16 0.808288 0.799518 0.761054
O O17 0.261352 0.800959 0.055234
#
# Coordination Sequence:
#
# PCOD9072949 Si02
#       8
#     2   2   2   2   2   2   2   2
#     4   9  18  30  47  74 103 135 164 209 263 313
#     4   9  19  32  48  75 109 132 167 216 256 315
#     4   9  17  33  51  71 104 131 176 216 254 299
#     4   9  18  32  51  77 104 137 176 213 258 309
#     4  10  20  32  50  73 102 137 179 218 255 299
#     4  10  19  32  50  74 111 135 163 214 271 325
#     4  10  20  32  51  79 103 138 170 210 272 316
#     4  10  18  31  52  75 108 140 168 211 266 313
#
# _framework density 21.206731000000001
#
# number of rings (size 3 to 8) (size 9 to 14) (size 15 to 20)
#    0.000    2.500    1.250    1.125    3.500    2.000 
#    0.000    0.000    0.000    1.500    0.000    3.500 
#    0.000    0.000    0.000    0.000    0.000    0.000 
#
# Total GULP energy -89070.285042 kJ/mol
# GULP energy per Si atom -5566.892815 kJ/mol
# Density = 2.115846 g / cm^3
# Si number density = 21.206731 Si / 1000 Ang^3
#
#
#
# Elastic Constant Matrix: (Units=GPa)
#
#
# Indices 1 2 3 4 5 6 
#
# 1 92.5213 37.8328 24.8639 -25.3944 -18.9230 4.6357
# 2 37.8328 112.6906 43.1132 -53.6615 -4.2616 -7.0384
# 3 24.8639 43.1132 45.7753 -31.4568 -3.6729 -2.0357
# 4 -25.3944 -53.6615 -31.4568 39.4113 2.3780 1.5131
# 5 -18.9230 -4.2616 -3.6729 2.3780 32.1332 -2.8678
# 6 4.6357 -7.0384 -2.0357 1.5131 -2.8678 28.3833
#
#
#
# Elastic Compliance Matrix: (Units=1/GPa)
#
#
# Indices 1 2 3 4 5 6 
#
# 1 0.015352 -0.001356 -0.002817 0.005418 0.007912 -0.002535
# 2 -0.001356 0.025975 0.000191 0.034425 0.000558 0.004898
# 3 -0.002817 0.000191 0.049217 0.037559 0.001407 0.002177
# 4 0.005418 0.034425 0.037559 0.105230 0.004727 0.005213
# 5 0.007912 0.000558 0.001407 0.004727 0.035872 0.002319
# 6 -0.002535 0.004898 0.002177 0.005213 0.002319 0.036973
#
#
# Mechanical properties :
#
#
# Convention : Reuss Voigt Hill
#
# Bulk Modulus (GPa) = 12.10934 51.40079 31.75506
# Shear Modulus (GPa) = 16.44151 29.66406 23.05279
#
# Velocity S-wave (km/s) = 2.78744 3.74412 3.30062
# Velocity P-wave (km/s) = 4.01027 6.55605 5.43434
#
# Compressibility (1/GPa) = 0.08258088
#
# Stress axis : x y z
#
# Youngs Moduli (GPa) = 65.13912 38.49788 20.31826
#
# Poissons Ratio (x) = 0.05219 0.05723
# Poissons Ratio (y) = 0.08830 -0.00387
# Poissons Ratio (z) = 0.18348 -0.00734
#
# Static dielectric constant tensor:
#      x y z
#    x 1.803010 0.017220 0.005750 
#    y 0.017220 1.911870 0.018350 
#    z 0.005750 0.018350 1.772590 
# 
# From -- ./inp_files/254800.got.cif
#   From: 2010.05.17/outbox.cif.g08.bks.cpg/sg2_128_cif.got.tgz:254800.got - 2010.06.03 11:33:40.
