data_PCOD9072303
_publ_section_title
;
Structure prediction by ZEFSAII (Michael W. Deem and Ramdas Pophale) SiO2 
 PCOD9072303
Probable space group: P -1
;
_chemical_formula_sum "Si O2"
_cell_formula_units_Z 16
_cell_length_a 9.000000
_cell_length_b 12.000000
_cell_length_c 15.000000
_cell_angle_alpha 150.000000
_cell_angle_beta 90.000000
_cell_angle_gamma 100.000000
_cell_volume 759.581896
_symmetry_space_group_name_H-M "P -1"
_symmetry_group_IT_number 2
_symmetry_cell_setting 'triclinic'
loop_
_space_group_symop_operation_xyz
x,y,z
-x,-y,-z
loop_
_atom_site_type_symbol
_atom_site_label
_atom_site_fract_x
_atom_site_fract_y
_atom_site_fract_z
Si Si1 0.687374 0.095504 0.578862
Si Si2 0.205370 0.938832 0.643715
Si Si3 0.572494 0.660071 0.712684
Si Si4 0.685624 0.596019 0.945012
Si Si5 0.876435 0.789725 0.908575
Si Si6 0.311201 0.692495 0.638179
Si Si7 0.915982 0.526439 0.352744
Si Si8 0.636254 0.598898 0.309062
O O1 0.759219 0.123754 0.499602
O O2 0.721894 0.356677 0.800588
O O3 0.500000 0.000000 0.500000
O O4 0.714612 0.879050 0.481120
O O5 0.281859 0.833784 0.651818
O O6 0.016453 0.804652 0.563004
O O7 0.288338 0.223020 0.848367
O O8 0.713524 0.795344 0.870530
O O9 0.475858 0.811680 0.774073
O O10 0.656950 0.540762 0.559835
O O11 0.453477 0.453870 0.631854
O O12 0.823382 0.753855 0.986358
O O13 0.509860 0.519870 0.844253
O O14 0.947955 0.581442 0.745821
O O15 0.000000 0.000000 0.000000
O O16 0.170322 0.606574 0.649880
O O17 0.781161 0.501307 0.260125
#
# Coordination Sequence:
#
# PCOD9072303 Si02
#       8
#     2   2   2   2   2   2   2   2
#     4  10  21  42  67  85 122 163 205 253 299 353
#     4  12  22  37  64  95 120 158 204 254 302 358
#     4   9  19  36  57  87 120 158 201 241 294 364
#     4  10  22  40  62  89 120 159 209 245 299 367
#     4  11  21  36  57  86 125 164 193 245 307 362
#     4  10  19  34  58  87 122 156 198 244 297 363
#     4  11  22  37  62  90 125 162 198 249 314 354
#     4   9  21  41  63  85 119 168 204 248 302 356
#
# _framework density 21.064219999999999
#
# number of rings (size 3 to 8) (size 9 to 14) (size 15 to 20)
#    0.000    1.750    2.500    2.625    1.750    3.500 
#    0.000    4.375    5.500    0.000    0.000    0.000 
#    0.000    0.000    0.000    0.000    0.000    0.000 
#
# Total GULP energy -89085.409628 kJ/mol
# GULP energy per Si atom -5567.838102 kJ/mol
# Density = 2.101628 g / cm^3
# Si number density = 21.064220 Si / 1000 Ang^3
#
#
#
# Elastic Constant Matrix: (Units=GPa)
#
#
# Indices 1 2 3 4 5 6 
#
# 1 75.5855 28.1607 14.2176 3.1234 3.2188 -3.0674
# 2 28.1607 85.5848 6.0639 24.4817 7.2272 -2.1617
# 3 14.2176 6.0639 76.0706 18.7523 1.8289 -2.7757
# 4 3.1234 24.4817 18.7523 25.2941 6.0090 1.7814
# 5 3.2188 7.2272 1.8289 6.0090 16.3855 2.6352
# 6 -3.0674 -2.1617 -2.7757 1.7814 2.6352 27.3950
#
#
#
# Elastic Compliance Matrix: (Units=1/GPa)
#
#
# Indices 1 2 3 4 5 6 
#
# 1 0.016722 -0.007630 -0.004780 0.009534 -0.002955 0.000450
# 2 -0.007630 0.020540 0.005638 -0.023294 -0.000108 0.002863
# 3 -0.004780 0.005638 0.018408 -0.019440 0.003086 0.002742
# 4 0.009534 -0.023294 -0.019440 0.079972 -0.017754 -0.006233
# 5 -0.002955 -0.000108 0.003086 -0.017754 0.068706 -0.005481
# 6 0.000450 0.002863 0.002742 -0.006233 -0.005481 0.037990
#
#
# Mechanical properties :
#
#
# Convention : Reuss Voigt Hill
#
# Bulk Modulus (GPa) = 23.73809 37.12504 30.43157
# Shear Modulus (GPa) = 18.52386 26.40151 22.46268
#
# Velocity S-wave (km/s) = 2.96868 3.54415 3.26911
# Velocity P-wave (km/s) = 4.80048 5.86609 5.35983
#
# Compressibility (1/GPa) = 0.04212638
#
# Stress axis : x y z
#
# Youngs Moduli (GPa) = 59.80208 48.68547 54.32551
#
# Poissons Ratio (x) = 0.37145 0.25966
# Poissons Ratio (y) = 0.45627 -0.30628
# Poissons Ratio (z) = 0.28584 -0.27449
#
# Static dielectric constant tensor:
#      x y z
#    x 1.780340 -0.061810 -0.021450 
#    y -0.061810 1.754020 -0.076330 
#    z -0.021450 -0.076330 1.879550 
# 
# From -- ./inp_files/501208.got.cif
#   From: 2010.05.17/outbox.ucp.g08.bks.cvg/sg2_251_cif.got.tgz:501208.got - 2010.06.11 11:32:03.
