data_PCOD9072335
_publ_section_title
;
Structure prediction by ZEFSAII (Michael W. Deem and Ramdas Pophale) SiO2 
 PCOD9072335
Probable space group: P -1
;
_chemical_formula_sum "Si O2"
_cell_formula_units_Z 16
_cell_length_a 12.000000
_cell_length_b 12.000000
_cell_length_c 12.000000
_cell_angle_alpha 80.000000
_cell_angle_beta 140.000000
_cell_angle_gamma 70.000000
_cell_volume 722.981415
_symmetry_space_group_name_H-M "P -1"
_symmetry_group_IT_number 2
_symmetry_cell_setting 'triclinic'
loop_
_space_group_symop_operation_xyz
x,y,z
-x,-y,-z
loop_
_atom_site_type_symbol
_atom_site_label
_atom_site_fract_x
_atom_site_fract_y
_atom_site_fract_z
Si Si1 0.291688 0.159416 0.668834
Si Si2 0.316785 0.279406 0.361610
Si Si3 0.581197 0.139470 0.066442
Si Si4 0.767642 0.977473 0.893722
Si Si5 0.010188 0.011573 0.249857
Si Si6 0.477418 0.301020 0.167837
Si Si7 0.055846 0.362215 0.918031
Si Si8 0.100180 0.675793 0.844877
O O1 0.014645 0.284789 0.374170
O O2 0.362395 0.001623 0.796612
O O3 0.516366 0.077878 0.764253
O O4 0.328498 0.234386 0.780433
O O5 0.229534 0.325470 0.159822
O O6 0.111366 0.288515 0.249887
O O7 0.611074 0.095028 0.643267
O O8 0.229806 0.440940 0.323500
O O9 0.581529 0.245120 0.131263
O O10 0.821550 0.037136 0.185230
O O11 0.921033 0.783681 0.035845
O O12 0.948078 0.982430 0.089676
O O13 0.916231 0.187359 0.152926
O O14 0.297346 0.855309 0.550235
O O15 0.225142 0.339340 0.955695
O O16 0.371066 0.474868 0.094204
#
# Coordination Sequence:
#
# PCOD9072335 Si02
#       8
#     2   2   2   2   2   2   2   2
#     4   9  18  35  56  78 105 138 183 227 257 300
#     4   9  20  37  60  82 103 133 179 232 264 301
#     4  10  19  35  56  77 108 144 176 222 264 302
#     4  10  19  35  58  79 107 142 176 217 264 317
#     4  11  23  36  51  80 117 144 171 212 267 323
#     4  11  21  36  57  78 108 146 178 215 266 318
#     4  10  19  37  61  82 101 135 184 224 264 310
#     4  10  21  37  55  79 110 140 177 221 265 318
#
# _framework density 22.130583000000001
#
# number of rings (size 3 to 8) (size 9 to 14) (size 15 to 20)
#    0.000    2.000    2.500    1.500    0.000    2.000 
#    0.000    2.500    0.000    4.500    0.000    0.000 
#    0.000    0.000    0.000    0.000    0.000    0.000 
#
# Total GULP energy -89253.893137 kJ/mol
# GULP energy per Si atom -5578.368321 kJ/mol
# Density = 2.208021 g / cm^3
# Si number density = 22.130583 Si / 1000 Ang^3
#
#
#
# Elastic Constant Matrix: (Units=GPa)
#
#
# Indices 1 2 3 4 5 6 
#
# 1 30.9802 -16.8826 2.2778 9.3702 -2.5105 0.5372
# 2 -16.8826 108.7768 36.7363 -3.8221 -4.3798 19.0515
# 3 2.2778 36.7363 21.9826 -1.7590 -0.6737 13.8980
# 4 9.3702 -3.8221 -1.7590 23.1757 3.4405 -6.6074
# 5 -2.5105 -4.3798 -0.6737 3.4405 19.0792 -1.8282
# 6 0.5372 19.0515 13.8980 -6.6074 -1.8282 20.6315
#
#
#
# Elastic Compliance Matrix: (Units=1/GPa)
#
#
# Indices 1 2 3 4 5 6 
#
# 1 0.060465 0.027513 -0.056616 -0.025483 0.017302 0.004530
# 2 0.027513 0.034785 -0.068649 -0.009072 0.011925 0.011558
# 3 -0.056616 -0.068649 0.217092 0.008702 -0.024854 -0.080790
# 4 -0.025483 -0.009072 0.008702 0.060804 -0.014042 0.021408
# 5 0.017302 0.011925 -0.024854 -0.014042 0.059663 0.006070
# 6 0.004530 0.011558 -0.080790 0.021408 0.006070 0.099495
#
#
# Mechanical properties :
#
#
# Convention : Reuss Voigt Hill
#
# Bulk Modulus (GPa) = 8.55893 22.88919 15.72406
# Shear Modulus (GPa) = 6.52099 21.88449 14.20274
#
# Velocity S-wave (km/s) = 1.71843 3.14806 2.53607
# Velocity P-wave (km/s) = 2.79521 4.85581 3.96183
#
# Compressibility (1/GPa) = 0.11683710
#
# Stress axis : x y z
#
# Youngs Moduli (GPa) = 16.53837 28.74840 4.60634
#
# Poissons Ratio (x) = -0.79095 0.26079
# Poissons Ratio (y) = -0.45502 0.31622
# Poissons Ratio (z) = 0.93634 1.97355
#
# Static dielectric constant tensor:
#      x y z
#    x 1.910450 -0.047260 -0.058910 
#    y -0.047260 1.804170 0.000490 
#    z -0.058910 0.000490 1.825980 
# 
# From -- ./inp_files/268207.got.cif
#   From: 2010.05.17/outbox.ucp.g08.bks.cvg/sg2_135_cif.got.tgz:268207.got - 2010.06.11 11:32:03.
