data_PCOD9072322
_publ_section_title
;
Structure prediction by ZEFSAII (Michael W. Deem and Ramdas Pophale) SiO2 
 PCOD9072322
Probable space group: P -1
;
_chemical_formula_sum "Si O2"
_cell_formula_units_Z 14
_cell_length_a 9.000000
_cell_length_b 9.000000
_cell_length_c 12.000000
_cell_angle_alpha 120.000000
_cell_angle_beta 100.000000
_cell_angle_gamma 50.000000
_cell_volume 628.643806
_symmetry_space_group_name_H-M "P -1"
_symmetry_group_IT_number 2
_symmetry_cell_setting 'triclinic'
loop_
_space_group_symop_operation_xyz
x,y,z
-x,-y,-z
loop_
_atom_site_type_symbol
_atom_site_label
_atom_site_fract_x
_atom_site_fract_y
_atom_site_fract_z
Si Si1 0.317041 0.891099 0.976543
Si Si2 0.889462 0.264428 0.966380
Si Si3 0.662691 0.388722 0.764464
Si Si4 0.369265 0.109314 0.249256
Si Si5 0.053987 0.621674 0.626518
Si Si6 0.353023 0.323046 0.752651
Si Si7 0.300502 0.564757 0.452043
O O1 0.493370 0.663272 0.849523
O O2 0.222538 0.812553 0.015671
O O3 0.124901 0.085256 0.951608
O O4 0.409273 0.983225 0.090640
O O5 0.827610 0.306054 0.846279
O O6 0.787416 0.503250 0.101827
O O7 0.537949 0.314115 0.754925
O O8 0.751355 0.308750 0.623375
O O9 0.333450 0.338511 0.341212
O O10 0.155321 0.178047 0.272278
O O11 0.541603 0.929853 0.291340
O O12 0.216611 0.441985 0.670394
O O13 0.143929 0.692014 0.579977
O O14 0.000000 0.500000 0.500000
O O15 0.500000 0.500000 0.500000
#
# Coordination Sequence:
#
# PCOD9072322 Si02
#       7
#     2   2   2   2   2   2   2
#     4  10  19  35  65  99 120 164 205 261 314 367
#     4  10  19  34  63 100 128 154 209 260 314 370
#     4  11  21  39  62  93 134 160 202 258 320 374
#     4  11  22  41  71  93 120 166 221 256 309 372
#     4  10  23  42  65  88 126 167 215 258 301 377
#     4  11  19  38  69  94 120 165 218 259 301 376
#     4  11  25  44  62  89 134 173 200 261 322 370
#
# _framework density 22.270163
#
# number of rings (size 3 to 8) (size 9 to 14) (size 15 to 20)
#    0.000    1.429    5.714    0.857    0.000    2.857 
#    0.000    5.714    0.000    0.000    0.000    0.000 
#    0.000    0.000    0.000    0.000    0.000    0.000 
#
# Total GULP energy -78205.523034 kJ/mol
# GULP energy per Si atom -5586.108788 kJ/mol
# Density = 2.221948 g / cm^3
# Si number density = 22.270163 Si / 1000 Ang^3
#
#
#
# Elastic Constant Matrix: (Units=GPa)
#
#
# Indices 1 2 3 4 5 6 
#
# 1 48.2069 5.9915 14.8586 -8.1437 -4.7885 -11.5282
# 2 5.9915 91.8965 -0.7575 -25.9796 -11.5722 -27.8362
# 3 14.8586 -0.7575 24.3311 -27.4927 -1.7334 0.6322
# 4 -8.1437 -25.9796 -27.4927 50.0979 3.3887 15.6519
# 5 -4.7885 -11.5722 -1.7334 3.3887 29.4221 -5.3822
# 6 -11.5282 -27.8362 0.6322 15.6519 -5.3822 17.9225
#
#
#
# Elastic Compliance Matrix: (Units=1/GPa)
#
#
# Indices 1 2 3 4 5 6 
#
# 1 -0.005010 -0.006929 0.058015 0.048457 -0.017330 -0.063553
# 2 -0.006929 0.023048 0.037405 0.028379 0.008286 0.007726
# 3 0.058015 0.037405 -0.082268 -0.078517 0.062300 0.185591
# 4 0.048457 0.028379 -0.078517 -0.043826 0.043111 0.129235
# 5 -0.017330 0.008286 0.062300 0.043111 0.027678 -0.029813
# 6 -0.063553 0.007726 0.185591 0.129235 -0.029813 -0.101445
#
#
# Mechanical properties :
#
#
# Convention : Reuss Voigt Hill
#
# Bulk Modulus (GPa) = 8.86907 22.73554 15.80230
# Shear Modulus (GPa) = -15.56567 29.11130 6.77282
#
# Velocity S-wave (km/s) = -2.64663 3.61943 1.74580
# Velocity P-wave (km/s) = 2.31266 5.26290 3.34288
#
# Compressibility (1/GPa) = 0.11275144
#
# Stress axis : x y z
#
# Youngs Moduli (GPa) = -199.60470 43.38708 -12.15541
#
# Poissons Ratio (x) = 0.30063 0.70519
# Poissons Ratio (y) = -1.38306 0.45467
# Poissons Ratio (z) = 11.58001 -1.62288
#
# Static dielectric constant tensor:
#      x y z
#    x 1.828570 0.049400 -0.070820 
#    y 0.049400 1.792430 -0.025820 
#    z -0.070820 -0.025820 1.900790 
# 
# From -- ./inp_files/179808.got.cif
#   From: 2010.05.17/outbox.ucp.g08.bks.cvg/sg2_90_cif.got.tgz:179808.got - 2010.06.11 11:32:03.
