data_PCOD9072725
_publ_section_title
;
Structure prediction by ZEFSAII (Michael W. Deem and Ramdas Pophale) SiO2 
 PCOD9072725
Probable space group: P -1
;
_chemical_formula_sum "Si O2"
_cell_formula_units_Z 16
_cell_length_a 15.000000
_cell_length_b 15.000000
_cell_length_c 15.000000
_cell_angle_alpha 30.000000
_cell_angle_beta 130.000000
_cell_angle_gamma 150.000000
_cell_volume 762.223433
_symmetry_space_group_name_H-M "P -1"
_symmetry_group_IT_number 2
_symmetry_cell_setting 'triclinic'
loop_
_space_group_symop_operation_xyz
x,y,z
-x,-y,-z
loop_
_atom_site_type_symbol
_atom_site_label
_atom_site_fract_x
_atom_site_fract_y
_atom_site_fract_z
Si Si1 0.185014 0.151856 0.665465
Si Si2 0.585939 0.486145 0.669007
Si Si3 0.838098 0.516429 0.890084
Si Si4 0.187238 0.872803 0.683737
Si Si5 0.440677 0.141614 0.447851
Si Si6 0.041832 0.762281 0.221975
Si Si7 0.330580 0.931899 0.376826
Si Si8 0.145116 0.204326 0.785625
O O1 0.352007 0.216208 0.747151
O O2 0.309117 0.416502 0.443234
O O3 0.123064 0.187600 0.680404
O O4 0.998980 0.822197 0.788321
O O5 0.658745 0.424457 0.834642
O O6 0.682996 0.796222 0.489881
O O7 0.962238 0.631672 0.778927
O O8 0.769637 0.251783 0.123451
O O9 0.251846 0.924382 0.578554
O O10 0.513156 0.025488 0.587264
O O11 0.626333 0.477384 0.317548
O O12 0.410335 0.156286 0.312312
O O13 0.242178 0.915363 0.247802
O O14 0.859317 0.401273 0.411595
O O15 0.980165 0.811024 0.223880
O O16 0.074605 0.924807 0.016997
#
# Coordination Sequence:
#
# PCOD9072725 Si02
#       8
#     2   2   2   2   2   2   2   2
#     4  10  20  37  61  85 117 158 190 248 295 342
#     4  10  21  41  61  84 124 155 195 246 293 349
#     4  10  23  39  61  88 120 158 199 241 295 350
#     4  10  20  39  59  85 119 154 195 248 287 350
#     4  10  20  36  58  79 114 149 183 240 289 337
#     4   9  20  37  56  81 113 145 189 234 282 350
#     4   9  20  37  56  81 112 148 185 235 288 338
#     4  10  20  36  57  82 112 147 188 235 288 344
#
# _framework density 20.991219999999998
#
# number of rings (size 3 to 8) (size 9 to 14) (size 15 to 20)
#    0.000    2.250    1.250    1.500    1.750    3.500 
#    0.000   11.250    0.000    0.000    0.000    0.000 
#    0.000    0.000    0.000    0.000    0.000    0.000 
#
# Total GULP energy -89285.477414 kJ/mol
# GULP energy per Si atom -5580.342338 kJ/mol
# Density = 2.094344 g / cm^3
# Si number density = 20.991220 Si / 1000 Ang^3
#
#
#
# Elastic Constant Matrix: (Units=GPa)
#
#
# Indices 1 2 3 4 5 6 
#
# 1 35.6417 11.7412 -3.1229 -2.2785 -18.9928 -25.6898
# 2 11.7412 54.7350 -11.5351 17.8579 14.7062 16.5574
# 3 -3.1229 -11.5351 12.4970 -0.3464 3.5125 3.0786
# 4 -2.2785 17.8579 -0.3464 2.5924 3.3664 3.3583
# 5 -18.9928 14.7062 3.5125 3.3664 21.7934 8.2091
# 6 -25.6898 16.5574 3.0786 3.3583 8.2091 24.2736
#
#
#
# Elastic Compliance Matrix: (Units=1/GPa)
#
#
# Indices 1 2 3 4 5 6 
#
# 1 0.421675 0.090367 -0.055875 -1.295291 0.344412 0.454449
# 2 0.090367 0.006450 -0.019558 -0.181556 0.069715 0.095261
# 3 -0.055875 -0.019558 0.092389 0.278935 -0.065635 -0.073905
# 4 -1.295291 -0.181556 0.278935 3.829674 -1.100390 -1.440092
# 5 0.344412 0.069715 -0.065635 -1.100390 0.343426 0.361372
# 6 0.454449 0.095261 -0.073905 -1.440092 0.361372 0.543579
#
#
# Mechanical properties :
#
#
# Convention : Reuss Voigt Hill
#
# Bulk Modulus (GPa) = 1.81692 10.78224 6.29958
# Shear Modulus (GPa) = 0.92751 16.78460 8.85605
#
# Velocity S-wave (km/s) = 0.66544 2.83079 2.05623
# Velocity P-wave (km/s) = 1.20742 3.97897 2.94024
#
# Compressibility (1/GPa) = 0.55038182
#
# Stress axis : x y z
#
# Youngs Moduli (GPa) = 2.37150 155.02932 10.82375
#
# Poissons Ratio (x) = -14.00950 0.60477
# Poissons Ratio (y) = -0.21430 0.21170
# Poissons Ratio (z) = 0.13251 3.03213
#
# Static dielectric constant tensor:
#      x y z
#    x 1.774300 -0.008880 0.023340 
#    y -0.008880 1.788650 0.029370 
#    z 0.023340 0.029370 1.718490 
# 
# From -- ./inp_files/317151.got.cif
#   From: 2010.05.17/outbox.ucp.g08.bks.cvg/sg2_159_cif.got.tgz:317151.got - 2010.06.11 11:32:03.
