data_PCOD9072193
_publ_section_title
;
Structure prediction by ZEFSAII (Michael W. Deem and Ramdas Pophale) SiO2 
 PCOD9072193
Probable space group: P -1
;
_chemical_formula_sum "Si O2"
_cell_formula_units_Z 16
_cell_length_a 18.707040
_cell_length_b 23.069869
_cell_length_c 10.749906
_cell_angle_alpha 41.720340
_cell_angle_beta 34.120835
_cell_angle_gamma 19.006504
_cell_volume 830.612731
_symmetry_space_group_name_H-M "P -1"
_symmetry_group_IT_number 2
_symmetry_cell_setting 'triclinic'
loop_
_space_group_symop_operation_xyz
x,y,z
-x,-y,-z
loop_
_atom_site_type_symbol
_atom_site_label
_atom_site_fract_x
_atom_site_fract_y
_atom_site_fract_z
Si Si1 0.160923 0.902571 0.553101
Si Si2 0.989126 0.194763 0.086154
Si Si3 0.949681 0.540513 0.309020
Si Si4 0.241047 0.582213 0.684696
Si Si5 0.847294 0.674487 0.002202
Si Si6 0.471223 0.186797 0.962917
Si Si7 0.659445 0.293960 0.741602
Si Si8 0.165399 0.536839 0.216298
O O1 0.417550 0.806069 0.304982
O O2 0.177202 0.790601 0.739096
O O3 0.000000 0.000000 0.500000
O O4 0.949224 0.077672 0.666905
O O5 0.893645 0.290372 0.204685
O O6 0.288567 0.985570 0.018257
O O7 0.958533 0.292493 0.878540
O O8 0.855003 0.507895 0.559207
O O9 0.006216 0.576917 0.276651
O O10 0.230133 0.357779 0.126645
O O11 0.754763 0.695414 0.236586
O O12 0.494366 0.384304 0.703242
O O13 0.314832 0.617067 0.431943
O O14 0.046840 0.632339 0.816536
O O15 0.630710 0.825543 0.967483
O O16 0.000000 0.500000 0.000000
O O17 0.465213 0.369989 0.001740
#
# Coordination Sequence:
#
# PCOD9072193 Si02
#       8
#     2   2   2   2   2   2   2   2
#     4  10  18  30  52  83 105 135 162 225 279 288
#     4  10  19  31  53  85 105 130 174 222 269 300
#     4  10  20  36  51  73 107 144 181 203 261 311
#     4  10  19  31  52  81 101 134 179 219 259 299
#     4  10  21  34  54  75 108 143 174 212 260 315
#     4  10  21  34  54  80 114 133 166 219 271 320
#     4  10  18  32  55  76 109 127 178 226 255 306
#     4  10  20  33  54  76 104 142 175 221 248 311
#
# _framework density 19.262888
#
# number of rings (size 3 to 8) (size 9 to 14) (size 15 to 20)
#    0.000    2.000    5.000    1.500    3.500    1.000 
#    0.000    0.000    0.000    7.500    0.000    0.000 
#    0.000    0.000    0.000    0.000    0.000    0.000 
#
# Total GULP energy -89114.609977 kJ/mol
# GULP energy per Si atom -5569.663124 kJ/mol
# Density = 1.921904 g / cm^3
# Si number density = 19.262888 Si / 1000 Ang^3
#
#
#
# Elastic Constant Matrix: (Units=GPa)
#
#
# Indices 1 2 3 4 5 6 
#
# 1 56.1872 -1.5961 26.6620 -7.6085 -19.1484 5.3361
# 2 -1.5961 61.3298 36.0334 -2.5721 -5.3588 13.7219
# 3 26.6620 36.0334 146.2433 -25.7709 -19.5259 4.8428
# 4 -7.6085 -2.5721 -25.7709 32.2413 4.4866 -3.7979
# 5 -19.1484 -5.3588 -19.5259 4.4866 24.4801 -5.8075
# 6 5.3361 13.7219 4.8428 -3.7979 -5.8075 14.8652
#
#
#
# Elastic Compliance Matrix: (Units=1/GPa)
#
#
# Indices 1 2 3 4 5 6 
#
# 1 0.026271 0.005842 -0.003598 0.000593 0.017245 -0.006762
# 2 0.005842 0.026564 -0.007896 -0.005724 -0.001009 -0.025902
# 3 -0.003598 -0.007896 0.011199 0.007816 0.005071 0.008910
# 4 0.000593 -0.005724 0.007816 0.038257 0.001490 0.012881
# 5 0.017245 -0.001009 0.005071 0.001490 0.062095 0.017729
# 6 -0.006762 -0.025902 0.008910 0.012881 0.017729 0.100923
#
#
# Mechanical properties :
#
#
# Convention : Reuss Voigt Hill
#
# Bulk Modulus (GPa) = 18.96464 42.88430 30.92447
# Shear Modulus (GPa) = 16.99594 27.82806 22.41200
#
# Velocity S-wave (km/s) = 2.97360 3.80497 3.41468
# Velocity P-wave (km/s) = 4.65363 6.45095 5.62455
#
# Compressibility (1/GPa) = 0.05272971
#
# Stress axis : x y z
#
# Youngs Moduli (GPa) = 38.06544 37.64561 89.29584
#
# Poissons Ratio (x) = -0.21994 0.32128
# Poissons Ratio (y) = -0.22239 0.70507
# Poissons Ratio (z) = 0.13696 0.29725
#
# Static dielectric constant tensor:
#      x y z
#    x 1.702490 0.016340 -0.038510 
#    y 0.016340 1.776590 0.004310 
#    z -0.038510 0.004310 1.733370 
# 
# From -- ./inp_files/472929.got.cif
#   From: 2010.05.17/outbox.cif.g08.bks.cpg/sg2_237_cif.got.tgz:472929.got - 2010.06.03 11:33:40.
