data_PCOD9072066
_publ_section_title
;
Structure prediction by ZEFSAII (Michael W. Deem and Ramdas Pophale) SiO2 
 PCOD9072066
Probable space group: P -1
;
_chemical_formula_sum "Si O2"
_cell_formula_units_Z 16
_cell_length_a 15.000000
_cell_length_b 9.000000
_cell_length_c 12.000000
_cell_angle_alpha 110.000000
_cell_angle_beta 30.000000
_cell_angle_gamma 100.000000
_cell_volume 734.803614
_symmetry_space_group_name_H-M "P -1"
_symmetry_group_IT_number 2
_symmetry_cell_setting 'triclinic'
loop_
_space_group_symop_operation_xyz
x,y,z
-x,-y,-z
loop_
_atom_site_type_symbol
_atom_site_label
_atom_site_fract_x
_atom_site_fract_y
_atom_site_fract_z
Si Si1 0.871888 0.292150 0.663541
Si Si2 0.227980 0.365787 0.222364
Si Si3 0.916079 0.997497 0.379768
Si Si4 0.778510 0.323775 0.015813
Si Si5 0.461468 0.872286 0.681014
Si Si6 0.492638 0.945074 0.119252
Si Si7 0.156522 0.368677 0.869155
Si Si8 0.837233 0.827319 0.979367
O O1 0.778774 0.444446 0.723241
O O2 0.911198 0.111994 0.523460
O O3 0.750269 0.313600 0.911307
O O4 0.074000 0.328604 0.463025
O O5 0.419438 0.246951 0.019212
O O6 0.185136 0.299530 0.128233
O O7 0.703060 0.015930 0.599361
O O8 0.022171 0.807975 0.224530
O O9 0.017937 0.078597 0.198915
O O10 0.653585 0.262352 0.224688
O O11 0.764014 0.508412 0.110111
O O12 0.671996 0.765211 0.408064
O O13 0.405799 0.954710 0.885158
O O14 0.358559 0.031735 0.759756
O O15 0.500000 0.000000 0.000000
O O16 0.087526 0.262161 0.010404
O O17 0.000000 0.500000 0.000000
#
# Coordination Sequence:
#
# PCOD9072066 Si02
#       8
#     2   2   2   2   2   2   2   2
#     4  10  18  35  59  87 117 156 202 230 290 355
#     4   9  19  34  59  87 117 160 198 232 290 365
#     4  10  21  36  60  92 120 156 195 245 299 349
#     4  11  21  39  63  86 118 156 202 243 291 359
#     4  10  23  42  63  87 117 164 206 232 297 370
#     4  11  21  38  59  92 128 154 191 248 300 342
#     4  12  24  41  62  92 118 152 200 263 306 340
#     4   9  20  43  62  84 119 162 201 242 295 367
#
# _framework density 21.774525000000001
#
# number of rings (size 3 to 8) (size 9 to 14) (size 15 to 20)
#    0.000    1.750    1.250    4.125    0.000    0.500 
#    2.250    6.875    0.000    0.000    0.000    0.000 
#    0.000    0.000    0.000    0.000    0.000    0.000 
#
# Total GULP energy -89090.711847 kJ/mol
# GULP energy per Si atom -5568.169490 kJ/mol
# Density = 2.172497 g / cm^3
# Si number density = 21.774525 Si / 1000 Ang^3
#
#
#
# Elastic Constant Matrix: (Units=GPa)
#
#
# Indices 1 2 3 4 5 6 
#
# 1 38.0751 20.4285 30.3433 0.6890 6.9116 -25.9833
# 2 20.4285 78.3508 28.8812 19.4106 2.0584 -10.1876
# 3 30.3433 28.8812 87.2024 27.6234 2.6655 -10.7727
# 4 0.6890 19.4106 27.6234 30.6730 -3.0774 0.4788
# 5 6.9116 2.0584 2.6655 -3.0774 26.7636 6.4259
# 6 -25.9833 -10.1876 -10.7727 0.4788 6.4259 29.6403
#
#
#
# Elastic Compliance Matrix: (Units=1/GPa)
#
#
# Indices 1 2 3 4 5 6 
#
# 1 0.270347 -0.027139 -0.074683 0.064217 -0.106337 0.222537
# 2 -0.027139 0.019326 0.005870 -0.015949 0.007012 -0.016277
# 3 -0.074683 0.005870 0.038774 -0.033697 0.024072 -0.054033
# 4 0.064217 -0.015949 -0.033697 0.069594 -0.013701 0.040411
# 5 -0.106337 0.007012 0.024072 -0.013701 0.084353 -0.100125
# 6 0.222537 -0.016277 -0.054033 0.040411 -0.100125 0.224640
#
#
# Mechanical properties :
#
#
# Convention : Reuss Voigt Hill
#
# Bulk Modulus (GPa) = 7.32370 40.32602 23.82486
# Shear Modulus (GPa) = 5.29407 25.68041 15.48724
#
# Velocity S-wave (km/s) = 1.56096 3.43793 2.66983
# Velocity P-wave (km/s) = 2.57284 5.85826 4.52431
#
# Compressibility (1/GPa) = 0.13654295
#
# Stress axis : x y z
#
# Youngs Moduli (GPa) = 3.69894 51.74392 25.79047
#
# Poissons Ratio (x) = 1.40428 1.92611
# Poissons Ratio (y) = 0.10039 -0.15138
# Poissons Ratio (z) = 0.27625 -0.30372
#
# Static dielectric constant tensor:
#      x y z
#    x 0.423990 -0.308230 0.886400 
#    y -0.308230 1.731990 0.185210 
#    z 0.886400 0.185210 1.225900 
# 
# From -- ./inp_files/201975.got.cif
#   From: 2010.05.17/outbox.ucp.g08.bks.cvg/sg2_101_cif.got.tgz:201975.got - 2010.06.11 11:32:03.
