data_PCOD9072374
_publ_section_title
;
Structure prediction by ZEFSAII (Michael W. Deem and Ramdas Pophale) SiO2 
 PCOD9072374
Probable space group: P -1
;
_chemical_formula_sum "Si O2"
_cell_formula_units_Z 14
_cell_length_a 9.000000
_cell_length_b 18.000000
_cell_length_c 12.000000
_cell_angle_alpha 130.000000
_cell_angle_beta 80.000000
_cell_angle_gamma 140.000000
_cell_volume 729.599496
_symmetry_space_group_name_H-M "P -1"
_symmetry_group_IT_number 2
_symmetry_cell_setting 'triclinic'
loop_
_space_group_symop_operation_xyz
x,y,z
-x,-y,-z
loop_
_atom_site_type_symbol
_atom_site_label
_atom_site_fract_x
_atom_site_fract_y
_atom_site_fract_z
Si Si1 0.216715 0.416032 0.463988
Si Si2 0.112114 0.748620 0.871230
Si Si3 0.535385 0.629483 0.072844
Si Si4 0.205385 0.505005 0.773450
Si Si5 0.183428 0.987420 0.211827
Si Si6 0.661686 0.355493 0.673758
Si Si7 0.502099 0.773263 0.806460
O O1 0.500000 0.500000 0.500000
O O2 0.124442 0.375546 0.567662
O O3 0.299403 0.575735 0.583699
O O4 0.985518 0.261691 0.246323
O O5 0.344851 0.790508 0.856326
O O6 0.824746 0.535063 0.760210
O O7 0.218526 0.893160 0.080682
O O8 0.485450 0.678172 0.228285
O O9 0.863382 0.820849 0.155132
O O10 0.500000 0.500000 0.000000
O O11 0.300085 0.519453 0.895846
O O12 0.488832 0.719092 0.880505
O O13 0.928830 0.427470 0.739049
O O14 0.433602 0.171615 0.441982
O O15 0.222484 0.061411 0.156681
#
# Coordination Sequence:
#
# PCOD9072374 Si02
#       7
#     2   2   2   2   2   2   2
#     4  10  19  35  62  98 129 162 201 260 334 375
#     4  11  20  40  67  95 134 167 206 262 333 385
#     4  12  25  42  67  91 129 177 217 262 321 372
#     4   9  22  42  67  92 128 172 207 265 328 373
#     4  12  23  39  70 100 127 167 219 263 322 382
#     4  11  22  44  68  90 131 173 219 260 309 389
#     4   9  21  38  66  93 130 159 207 265 327 376
#
# _framework density 19.188610000000001
#
# number of rings (size 3 to 8) (size 9 to 14) (size 15 to 20)
#    0.857    0.571    2.857    3.429    0.000    0.571 
#    0.000    0.714    6.286    0.000    0.000    0.000 
#    0.000    0.000    0.000    0.000    0.000    0.000 
#
# Total GULP energy -77985.386158 kJ/mol
# GULP energy per Si atom -5570.384726 kJ/mol
# Density = 1.914494 g / cm^3
# Si number density = 19.188610 Si / 1000 Ang^3
#
#
#
# Elastic Constant Matrix: (Units=GPa)
#
#
# Indices 1 2 3 4 5 6 
#
# 1 89.9447 40.8671 50.9258 -23.1509 -3.1855 8.4755
# 2 40.8671 133.1278 45.0874 -15.0086 -2.3170 15.1357
# 3 50.9258 45.0874 128.4683 -21.4501 -17.9460 1.4098
# 4 -23.1509 -15.0086 -21.4501 42.1080 4.9661 -3.3447
# 5 -3.1855 -2.3170 -17.9460 4.9661 34.1996 -14.0848
# 6 8.4755 15.1357 1.4098 -3.3447 -14.0848 39.8943
#
#
#
# Elastic Compliance Matrix: (Units=1/GPa)
#
#
# Indices 1 2 3 4 5 6 
#
# 1 0.016942 -0.002415 -0.005351 0.005893 -0.003596 -0.003269
# 2 -0.002415 0.009629 -0.002624 0.000771 -0.002680 -0.003929
# 3 -0.005351 -0.002624 0.012083 0.001776 0.007220 0.004403
# 4 0.005893 0.000771 0.001776 0.028470 -0.002668 -0.000162
# 5 -0.003596 -0.002680 0.007220 -0.002668 0.039125 0.015115
# 6 -0.003269 -0.003929 0.004403 -0.000162 0.015115 0.032419
#
#
# Mechanical properties :
#
#
# Convention : Reuss Voigt Hill
#
# Bulk Modulus (GPa) = 55.95002 69.47791 62.71397
# Shear Modulus (GPa) = 30.22873 37.55109 33.88991
#
# Velocity S-wave (km/s) = 3.97337 4.42854 4.20711
# Velocity P-wave (km/s) = 7.09024 7.90163 7.50690
#
# Compressibility (1/GPa) = 0.01787309
#
# Stress axis : x y z
#
# Youngs Moduli (GPa) = 59.02356 103.85526 82.76086
#
# Poissons Ratio (x) = 0.25083 0.44285
# Poissons Ratio (y) = 0.14255 0.21720
# Poissons Ratio (z) = 0.31583 0.27255
#
# Static dielectric constant tensor:
#      x y z
#    x 1.665790 -0.001710 0.004350 
#    y -0.001710 1.699020 0.023920 
#    z 0.004350 0.023920 1.692860 
# 
# From -- ./inp_files/402214.got.cif
#   From: 2010.05.17/outbox.ucp.g08.bks.cvg/sg2_202_cif.got.tgz:402214.got - 2010.06.11 11:32:03.
