data_PCOD9072149
_publ_section_title
;
Structure prediction by ZEFSAII (Michael W. Deem and Ramdas Pophale) SiO2 
 PCOD9072149
Probable space group: P -1
;
_chemical_formula_sum "Si O2"
_cell_formula_units_Z 12
_cell_length_a 19.587216
_cell_length_b 5.417811
_cell_length_c 15.065703
_cell_angle_alpha 105.836502
_cell_angle_beta 16.775611
_cell_angle_gamma 99.118049
_cell_volume 412.378148
_symmetry_space_group_name_H-M "P -1"
_symmetry_group_IT_number 2
_symmetry_cell_setting 'triclinic'
loop_
_space_group_symop_operation_xyz
x,y,z
-x,-y,-z
loop_
_atom_site_type_symbol
_atom_site_label
_atom_site_fract_x
_atom_site_fract_y
_atom_site_fract_z
Si Si1 0.129689 0.091223 0.932961
Si Si2 0.148368 0.694391 0.123902
Si Si3 0.500000 0.500000 0.500000
Si Si4 0.350043 0.641116 0.309476
Si Si5 0.654409 0.808939 0.626831
Si Si6 0.033557 0.308202 0.355951
Si Si7 0.000000 0.500000 0.000000
O O1 0.194252 0.339458 0.829916
O O2 0.333619 0.814317 0.687107
O O3 0.909271 0.215310 0.292062
O O4 0.000000 0.000000 0.000000
O O5 0.359622 0.619171 0.779996
O O6 0.881580 0.770033 0.411132
O O7 0.187363 0.422570 0.105704
O O8 0.131272 0.980995 0.217430
O O9 0.489857 0.361537 0.161295
O O10 0.238617 0.618273 0.349903
O O11 0.478524 0.864809 0.179525
O O12 0.787248 0.674027 0.355586
O O13 0.000000 0.500000 0.500000
#
# Coordination Sequence:
#
# PCOD9072149 Si02
#       7
#     2   2   1   2   2   2   1
#     4  11  20  37  54  85 126 169 206 246 318 393
#     4  10  21  36  51  90 120 163 205 253 332 369
#     4  12  22  38  62  90 142 164 196 272 318 410
#     4   9  17  31  49  78 111 142 205 239 304 355
#     4   9  16  29  47  70 112 142 189 239 278 370
#     4  10  19  36  58  82 120 161 218 267 299 370
#     4  10  18  30  52  76 116 162 210 230 296 384
#
# _framework density 29.099505000000001
#
# number of rings (size 3 to 8) (size 9 to 14) (size 15 to 20)
#    0.000    2.000    5.000    0.500    0.000    0.667 
#    3.000    0.000    0.000    0.000    0.000    2.333 
#    0.000    0.000    0.000    0.000    0.000    0.000 
#
# Total GULP energy -66941.678534 kJ/mol
# GULP energy per Si atom -5578.473211 kJ/mol
# Density = 2.903327 g / cm^3
# Si number density = 29.099505 Si / 1000 Ang^3
#
#
#
# Elastic Constant Matrix: (Units=GPa)
#
#
# Indices 1 2 3 4 5 6 
#
# 1 174.2152 44.3928 44.4201 26.1126 -2.7261 1.4478
# 2 44.3928 189.5567 35.7935 50.7151 -15.4073 -13.0892
# 3 44.4201 35.7935 108.3752 32.4078 -6.0300 -5.8929
# 4 26.1126 50.7151 32.4078 52.2709 0.2341 -5.6565
# 5 -2.7261 -15.4073 -6.0300 0.2341 61.9758 20.5326
# 6 1.4478 -13.0892 -5.8929 -5.6565 20.5326 68.6525
#
#
#
# Elastic Compliance Matrix: (Units=1/GPa)
#
#
# Indices 1 2 3 4 5 6 
#
# 1 0.006694 -0.000868 -0.002109 -0.001262 0.000082 -0.000616
# 2 -0.000868 0.007453 0.000041 -0.006791 0.001722 0.000368
# 3 -0.002109 0.000041 0.012079 -0.006453 0.001035 0.000248
# 4 -0.001262 -0.006791 -0.006453 0.030537 -0.003016 0.001596
# 5 0.000082 0.001722 0.001035 -0.003016 0.018452 -0.005352
# 6 -0.000616 0.000368 0.000248 0.001596 -0.005352 0.016403
#
#
# Mechanical properties :
#
#
# Convention : Reuss Voigt Hill
#
# Bulk Modulus (GPa) = 49.12917 80.15111 64.64014
# Shear Modulus (GPa) = 47.94998 59.74921 53.84960
#
# Velocity S-wave (km/s) = 4.06371 4.53622 4.30645
# Velocity P-wave (km/s) = 6.24004 7.41889 6.85486
#
# Compressibility (1/GPa) = 0.02035451
#
# Stress axis : x y z
#
# Youngs Moduli (GPa) = 149.37849 134.16745 82.79047
#
# Poissons Ratio (x) = 0.11643 0.17459
# Poissons Ratio (y) = 0.12963 -0.00337
# Poissons Ratio (z) = 0.31501 -0.00545
#
# Static dielectric constant tensor:
#      x y z
#    x 1.861930 -1.532970 -0.123220 
#    y -1.532970 -1.605720 0.113630 
#    z -0.123220 0.113630 2.180270 
# 
# From -- ./inp_files/246305.got.cif
#   From: 2010.05.17/outbox.cif.g08.bks.cpg/sg2_124_cif.got.tgz:246305.got - 2010.06.03 11:33:40.
