data_PCOD9072280
_publ_section_title
;
Structure prediction by ZEFSAII (Michael W. Deem and Ramdas Pophale) SiO2 
 PCOD9072280
Probable space group: P -1
;
_chemical_formula_sum "Si O2"
_cell_formula_units_Z 14
_cell_length_a 8.786303
_cell_length_b 10.916190
_cell_length_c 8.828922
_cell_angle_alpha 62.763700
_cell_angle_beta 49.855354
_cell_angle_gamma 90.069475
_cell_volume 517.984812
_symmetry_space_group_name_H-M "P -1"
_symmetry_group_IT_number 2
_symmetry_cell_setting 'triclinic'
loop_
_space_group_symop_operation_xyz
x,y,z
-x,-y,-z
loop_
_atom_site_type_symbol
_atom_site_label
_atom_site_fract_x
_atom_site_fract_y
_atom_site_fract_z
Si Si1 0.311129 0.668653 0.323445
Si Si2 0.371917 0.270669 0.333918
Si Si3 0.575507 0.792264 0.361674
Si Si4 0.014209 0.838397 0.589094
Si Si5 0.098925 0.676574 0.889041
Si Si6 0.166685 0.525106 0.189164
Si Si7 0.499370 0.051409 0.186319
O O1 0.492935 0.689344 0.322368
O O2 0.239484 0.541627 0.308394
O O3 0.073808 0.619508 0.585774
O O4 0.408755 0.816103 0.069922
O O5 0.290568 0.245420 0.573591
O O6 0.187488 0.262720 0.336802
O O7 0.422549 0.126949 0.330119
O O8 0.602067 0.423411 0.078438
O O9 0.348266 0.753590 0.622926
O O10 0.657664 0.970317 0.167551
O O11 0.981130 0.763251 0.821972
O O12 0.000000 0.000000 0.500000
O O13 0.277703 0.910656 0.346483
O O14 0.101904 0.657388 0.079802
O O15 0.000000 0.500000 0.000000
#
# Coordination Sequence:
#
# PCOD9072280 Si02
#       7
#     2   2   2   2   2   2   2
#     4  10  18  31  52  78 111 140 184 221 268 318
#     4   9  18  33  54  78 104 141 178 228 273 315
#     4  10  18  30  54  79 107 138 185 226 263 319
#     4   9  19  35  56  81 112 141 176 227 277 319
#     4  10  18  34  58  81 103 139 189 227 258 316
#     4   9  19  33  54  79 106 142 184 224 266 322
#     4   9  18  32  52  78 107 144 182 222 267 323
#
# _framework density 27.027819999999998
#
# number of rings (size 3 to 8) (size 9 to 14) (size 15 to 20)
#    0.000    2.571    1.429    0.857    0.000    3.429 
#    0.000    3.571    0.000   24.000    0.000    0.000 
#    0.000    0.000    0.000    0.000    0.000    0.000 
#
# Total GULP energy -78033.019729 kJ/mol
# GULP energy per Si atom -5573.787124 kJ/mol
# Density = 2.696630 g / cm^3
# Si number density = 27.027820 Si / 1000 Ang^3
#
#
#
# Elastic Constant Matrix: (Units=GPa)
#
#
# Indices 1 2 3 4 5 6 
#
# 1 127.2051 25.3765 57.8419 1.9867 36.2984 19.6363
# 2 25.3765 56.6008 20.1124 -7.0041 1.9185 30.4220
# 3 57.8419 20.1124 121.5985 -29.7166 11.0406 23.4664
# 4 1.9867 -7.0041 -29.7166 52.8629 17.1616 2.8997
# 5 36.2984 1.9185 11.0406 17.1616 56.7199 1.7655
# 6 19.6363 30.4220 23.4664 2.8997 1.7655 45.7341
#
#
#
# Elastic Compliance Matrix: (Units=1/GPa)
#
#
# Indices 1 2 3 4 5 6 
#
# 1 0.013008 -0.004087 -0.005471 -0.002005 -0.006525 0.000320
# 2 -0.004087 0.030243 0.002495 0.006766 -0.000316 -0.020060
# 3 -0.005471 0.002495 0.014360 0.009681 -0.002083 -0.007213
# 4 -0.002005 0.006766 0.009681 0.028889 -0.009257 -0.010081
# 5 -0.006525 -0.000316 -0.002083 -0.009257 0.024908 0.003706
# 6 0.000320 -0.020060 -0.007213 -0.010081 0.003706 0.039269
#
#
# Mechanical properties :
#
#
# Convention : Reuss Voigt Hill
#
# Bulk Modulus (GPa) = 22.99562 56.89623 39.94593
# Shear Modulus (GPa) = 27.88652 44.53495 36.21073
#
# Velocity S-wave (km/s) = 3.21560 4.06365 3.66424
# Velocity P-wave (km/s) = 4.72371 6.56615 5.71960
#
# Compressibility (1/GPa) = 0.04348654
#
# Stress axis : x y z
#
# Youngs Moduli (GPa) = 76.87438 33.06533 69.63617
#
# Poissons Ratio (x) = 0.13513 0.38098
# Poissons Ratio (y) = 0.31417 -0.17376
# Poissons Ratio (z) = 0.42059 -0.08251
#
# Static dielectric constant tensor:
#      x y z
#    x 2.233930 0.096950 -0.083300 
#    y 0.096950 2.210730 0.389670 
#    z -0.083300 0.389670 1.687190 
# 
# From -- ./inp_files/199462.got.cif
#   From: 2010.05.17/outbox.cif.g08.bks.cpg/sg2_100_cif.got.tgz:199462.got - 2010.06.03 11:33:40.
