data_PCOD9072091
_publ_section_title
;
Structure prediction by ZEFSAII (Michael W. Deem and Ramdas Pophale) SiO2 
 PCOD9072091
Probable space group: P -1
;
_chemical_formula_sum "Si O2"
_cell_formula_units_Z 14
_cell_length_a 15.000000
_cell_length_b 27.000000
_cell_length_c 15.000000
_cell_angle_alpha 20.000000
_cell_angle_beta 20.000000
_cell_angle_gamma 20.000000
_cell_volume 621.679612
_symmetry_space_group_name_H-M "P -1"
_symmetry_group_IT_number 2
_symmetry_cell_setting 'triclinic'
loop_
_space_group_symop_operation_xyz
x,y,z
-x,-y,-z
loop_
_atom_site_type_symbol
_atom_site_label
_atom_site_fract_x
_atom_site_fract_y
_atom_site_fract_z
Si Si1 0.807836 0.413411 0.307520
Si Si2 0.073695 0.318727 0.701702
Si Si3 0.424944 0.538257 0.752066
Si Si4 0.099664 0.110532 0.463340
Si Si5 0.127760 0.348102 0.799221
Si Si6 0.440754 0.724445 0.814049
Si Si7 0.573115 0.075227 0.943366
O O1 0.500000 0.500000 0.500000
O O2 0.739843 0.423665 0.249703
O O3 0.990095 0.216067 0.477751
O O4 0.000000 0.500000 0.000000
O O5 0.118392 0.387556 0.637070
O O6 0.243199 0.332939 0.431599
O O7 0.744648 0.344316 0.951937
O O8 0.265420 0.120186 0.874614
O O9 0.703201 0.570618 0.443007
O O10 0.541019 0.346209 0.986473
O O11 0.183838 0.620385 0.919819
O O12 0.826475 0.128089 0.628107
O O13 0.265803 0.918380 0.652501
O O14 0.339202 0.143286 0.130162
O O15 0.366277 0.156872 0.915148
#
# Coordination Sequence:
#
# PCOD9072091 Si02
#       7
#     2   2   2   2   2   2   2
#     4  12  24  42  66  92 111 143 199 251 307 360
#     4  10  22  35  59  89 122 170 201 238 268 347
#     4  12  25  40  61  88 122 158 192 251 299 348
#     4  10  20  40  63  84 118 158 188 243 299 351
#     4  12  21  36  60  89 127 157 207 241 285 332
#     4  10  23  41  58  86 127 163 197 227 294 351
#     4  10  18  36  58  87 122 156 204 236 289 336
#
# _framework density 22.519638
#
# number of rings (size 3 to 8) (size 9 to 14) (size 15 to 20)
#    0.000    1.143    2.857    3.857    0.000    3.429 
#    0.000    7.143    0.000    0.000    0.000    0.000 
#    0.000    0.000    0.000    0.000    0.000    0.000 
#
# Total GULP energy -78042.468217 kJ/mol
# GULP energy per Si atom -5574.462015 kJ/mol
# Density = 2.246838 g / cm^3
# Si number density = 22.519638 Si / 1000 Ang^3
#
#
#
# Elastic Constant Matrix: (Units=GPa)
#
#
# Indices 1 2 3 4 5 6 
#
# 1 1.7394 13.7599 -0.0119 -2.5909 -13.2449 7.6817
# 2 13.7599 84.4160 21.6057 19.2633 -21.2903 3.5767
# 3 -0.0119 21.6057 96.3237 15.1257 -15.1723 6.3129
# 4 -2.5909 19.2633 15.1257 27.5993 -7.0718 -4.6030
# 5 -13.2449 -21.2903 -15.1723 -7.0718 24.9595 -6.8386
# 6 7.6817 3.5767 6.3129 -4.6030 -6.8386 28.7329
#
#
#
# Elastic Compliance Matrix: (Units=1/GPa)
#
#
# Indices 1 2 3 4 5 6 
#
# 1 -0.123590 0.012172 -0.009297 -0.029616 -0.065626 0.013205
# 2 0.012172 0.015674 0.000327 -0.005719 0.017876 -0.001939
# 3 -0.009297 0.000327 0.011582 -0.007725 -0.000182 -0.001381
# 4 -0.029616 -0.005719 -0.007725 0.041727 -0.009421 0.014769
# 5 -0.065626 0.017876 -0.000182 -0.009421 0.023004 0.019325
# 6 0.013205 -0.001939 -0.001381 0.014769 0.019325 0.038783
#
#
# Mechanical properties :
#
#
# Convention : Reuss Voigt Hill
#
# Bulk Modulus (GPa) = -11.11969 28.13187 8.50609
# Shear Modulus (GPa) = -171.23612 26.06670 -72.58471
#
# Velocity S-wave (km/s) = -8.72947 3.40591 -5.68346
# Velocity P-wave (km/s) = 10.32247 5.29020 6.26766
#
# Compressibility (1/GPa) = -0.08993060
#
# Stress axis : x y z
#
# Youngs Moduli (GPa) = -8.09125 63.79942 86.33942
#
# Poissons Ratio (x) = -0.77659 0.80273
# Poissons Ratio (y) = 0.09849 -0.02820
# Poissons Ratio (z) = -0.07523 -0.02084
#
# Static dielectric constant tensor:
#      x y z
#    x 1.850460 -0.142170 0.072580 
#    y -0.142170 2.244530 -0.231800 
#    z 0.072580 -0.231800 1.873730 
# 
# From -- ./inp_files/68899.got.cif
#   From: 2010.05.17/outbox.ucp.g08.bks.cvg/sg2_35_cif.got.tgz:68899.got - 2010.06.11 11:32:03.
