data_PCOD9072581
_publ_section_title
;
Structure prediction by ZEFSAII (Michael W. Deem and Ramdas Pophale) SiO2 
 PCOD9072581
Probable space group: P -1
;
_chemical_formula_sum "Si O2"
_cell_formula_units_Z 14
_cell_length_a 13.383482
_cell_length_b 13.243622
_cell_length_c 13.271922
_cell_angle_alpha 22.698277
_cell_angle_beta 63.275774
_cell_angle_gamma 72.982140
_cell_volume 758.104608
_symmetry_space_group_name_H-M "P -1"
_symmetry_group_IT_number 2
_symmetry_cell_setting 'triclinic'
loop_
_space_group_symop_operation_xyz
x,y,z
-x,-y,-z
loop_
_atom_site_type_symbol
_atom_site_label
_atom_site_fract_x
_atom_site_fract_y
_atom_site_fract_z
Si Si1 0.019069 0.524329 0.087610
Si Si2 0.323390 0.416114 0.315764
Si Si3 0.922706 0.999371 0.758105
Si Si4 0.764884 0.214718 0.115478
Si Si5 0.575434 0.377774 0.719049
Si Si6 0.080535 0.431551 0.444412
Si Si7 0.659932 0.892415 0.055751
O O1 0.158311 0.675424 0.919641
O O2 0.967923 0.220182 0.442749
O O3 0.948400 0.719252 0.981265
O O4 0.000000 0.500000 0.000000
O O5 0.317222 0.612719 0.044118
O O6 0.424528 0.551246 0.228055
O O7 0.202280 0.386742 0.461607
O O8 0.306645 0.112582 0.560288
O O9 0.787030 0.946856 0.897364
O O10 0.003494 0.161834 0.664916
O O11 0.869084 0.311217 0.893742
O O12 0.634332 0.661197 0.367852
O O13 0.443804 0.226504 0.871381
O O14 0.646161 0.168156 0.856552
O O15 0.000000 0.500000 0.500000
#
# Coordination Sequence:
#
# PCOD9072581 Si02
#       7
#     2   2   2   2   2   2   2
#     4  11  21  38  56  75 104 138 174 225 275 315
#     4  10  18  31  47  69 103 130 173 196 248 302
#     4  11  21  35  52  81 108 134 177 219 258 314
#     4   9  19  33  44  75  99 125 177 199 252 316
#     4  10  20  34  52  73 103 154 177 201 250 297
#     4   9  19  28  45  71 106 135 154 197 254 309
#     4  10  21  35  50  74 108 139 187 212 236 306
#
# _framework density 18.467110000000002
#
# number of rings (size 3 to 8) (size 9 to 14) (size 15 to 20)
#    0.857    1.143    1.429    3.000    2.000    1.714 
#    0.000    0.000    0.000    0.000    0.000    6.000 
#    0.000    0.000    0.000    0.000    0.000    0.000 
#
# Total GULP energy -78022.687656 kJ/mol
# GULP energy per Si atom -5573.049118 kJ/mol
# Density = 1.842508 g / cm^3
# Si number density = 18.467110 Si / 1000 Ang^3
#
#
#
# Elastic Constant Matrix: (Units=GPa)
#
#
# Indices 1 2 3 4 5 6 
#
# 1 64.6520 15.2023 39.4737 -13.1117 6.5740 21.3412
# 2 15.2023 41.2537 9.2331 -11.5315 1.4790 30.3472
# 3 39.4737 9.2331 67.0194 -22.0551 22.4592 9.5270
# 4 -13.1117 -11.5315 -22.0551 13.6183 -6.1225 -3.3239
# 5 6.5740 1.4790 22.4592 -6.1225 23.8563 -4.4639
# 6 21.3412 30.3472 9.5270 -3.3239 -4.4639 33.6009
#
#
#
# Elastic Compliance Matrix: (Units=1/GPa)
#
#
# Indices 1 2 3 4 5 6 
#
# 1 0.017247 -0.141267 -0.099181 -0.198591 0.071601 0.134622
# 2 -0.141267 -1.543057 -0.883485 -2.157791 0.714820 1.615370
# 3 -0.099181 -0.883485 -0.449184 -1.177379 0.375278 0.921674
# 4 -0.198591 -2.157791 -1.177379 -2.857546 0.985904 2.257108
# 5 0.071601 0.714820 0.375278 0.985904 -0.259837 -0.734474
# 6 0.134622 1.615370 0.921674 2.257108 -0.734474 -1.650314
#
#
# Mechanical properties :
#
#
# Convention : Reuss Voigt Hill
#
# Bulk Modulus (GPa) = -0.23681 33.41591 16.58955
# Shear Modulus (GPa) = -0.84711 21.48282 10.31786
#
# Velocity S-wave (km/s) = -0.67802 3.41442 2.36628
# Velocity P-wave (km/s) = 0.86108 5.80332 4.05814
#
# Compressibility (1/GPa) = -4.22286037
#
# Stress axis : x y z
#
# Youngs Moduli (GPa) = 57.98133 -0.64806 -2.22626
#
# Poissons Ratio (x) = -0.09155 -0.22080
# Poissons Ratio (y) = 8.19083 -1.96687
# Poissons Ratio (z) = 5.75064 -0.57256
#
# Static dielectric constant tensor:
#      x y z
#    x 1.673550 0.019660 0.008150 
#    y 0.019660 1.618610 -0.004170 
#    z 0.008150 -0.004170 1.636700 
# 
# From -- ./inp_files/520567.got.cif
#   From: 2010.05.17/outbox.cif.g08.bks.cpg/sg2_261_cif.got.tgz:520567.got - 2010.06.03 11:33:40.
