data_PCOD9072942
_publ_section_title
;
Structure prediction by ZEFSAII (Michael W. Deem and Ramdas Pophale) SiO2 
 PCOD9072942
Probable space group: P -1
;
_chemical_formula_sum "Si O2"
_cell_formula_units_Z 16
_cell_length_a 18.000000
_cell_length_b 12.000000
_cell_length_c 9.000000
_cell_angle_alpha 100.000000
_cell_angle_beta 140.000000
_cell_angle_gamma 50.000000
_cell_volume 729.599496
_symmetry_space_group_name_H-M "P -1"
_symmetry_group_IT_number 2
_symmetry_cell_setting 'triclinic'
loop_
_space_group_symop_operation_xyz
x,y,z
-x,-y,-z
loop_
_atom_site_type_symbol
_atom_site_label
_atom_site_fract_x
_atom_site_fract_y
_atom_site_fract_z
Si Si1 0.109698 0.591648 0.892950
Si Si2 0.382968 0.853343 0.981804
Si Si3 0.026300 0.726999 0.462125
Si Si4 0.509033 0.372145 0.404601
Si Si5 0.742965 0.016939 0.511512
Si Si6 0.435583 0.061655 0.647239
Si Si7 0.165595 0.302018 0.006730
Si Si8 0.629404 0.384806 0.029882
O O1 0.078716 0.622469 0.673597
O O2 0.967515 0.800592 0.789041
O O3 0.337141 0.436219 0.230410
O O4 0.073966 0.497433 0.885069
O O5 0.402325 0.722627 0.075113
O O6 0.329769 0.875332 0.732354
O O7 0.539877 0.830219 0.228059
O O8 0.189228 0.058927 0.798205
O O9 0.156461 0.735296 0.637191
O O10 0.003905 0.654350 0.279990
O O11 0.500000 0.500000 0.500000
O O12 0.690488 0.146462 0.593375
O O13 0.441428 0.470143 0.164432
O O14 0.626750 0.990622 0.351736
O O15 0.268767 0.199254 0.297784
O O16 0.646497 0.859302 0.854286
O O17 0.500000 0.500000 0.000000
#
# Coordination Sequence:
#
# PCOD9072942 Si02
#       8
#     2   2   2   2   2   2   2   2
#     4  10  22  40  66  92 129 169 216 262 322 389
#     4  10  21  39  65  94 128 170 219 262 317 389
#     4   9  21  38  62  94 127 172 210 271 312 382
#     4  11  25  43  66  93 134 173 210 274 326 381
#     4  11  22  43  64  95 128 168 223 263 320 389
#     4  10  22  37  66  95 131 170 209 268 326 379
#     4  10  20  39  62  95 131 169 213 260 331 381
#     4  11  22  40  64  93 124 172 220 261 319 386
#
# _framework density 21.929839999999999
#
# number of rings (size 3 to 8) (size 9 to 14) (size 15 to 20)
#    0.000    1.750    2.500    1.125    1.750    3.000 
#    2.250    0.000    0.000    0.000    0.000    0.000 
#    0.000    0.000    0.000    0.000    0.000    0.000 
#
# Total GULP energy -89137.610548 kJ/mol
# GULP energy per Si atom -5571.100659 kJ/mol
# Density = 2.187993 g / cm^3
# Si number density = 21.929840 Si / 1000 Ang^3
#
#
#
# Elastic Constant Matrix: (Units=GPa)
#
#
# Indices 1 2 3 4 5 6 
#
# 1 61.7293 13.5467 -6.4495 -9.2085 19.2715 12.7650
# 2 13.5467 127.6016 36.8000 0.5639 5.6941 7.9301
# 3 -6.4495 36.8000 11.5359 -17.3301 4.7868 -10.5269
# 4 -9.2085 0.5639 -17.3301 12.5306 13.3411 1.1365
# 5 19.2715 5.6941 4.7868 13.3411 7.8362 -5.4195
# 6 12.7650 7.9301 -10.5269 1.1365 -5.4195 38.4433
#
#
#
# Elastic Compliance Matrix: (Units=1/GPa)
#
#
# Indices 1 2 3 4 5 6 
#
# 1 0.046687 0.039560 -0.120304 -0.001584 -0.117999 -0.073193
# 2 0.039560 0.049807 -0.121603 0.017652 -0.142751 -0.077355
# 3 -0.120304 -0.121603 0.354543 -0.055386 0.415731 0.222360
# 4 -0.001584 0.017652 -0.055386 0.011069 -0.007550 -0.019673
# 5 -0.117999 -0.142751 0.415731 -0.007550 0.450736 0.246233
# 6 -0.073193 -0.077355 0.222360 -0.019673 0.246233 0.162456
#
#
# Mechanical properties :
#
#
# Convention : Reuss Voigt Hill
#
# Bulk Modulus (GPa) = 21.57853 32.07348 26.82600
# Shear Modulus (GPa) = 3.34350 22.22666 12.78508
#
# Velocity S-wave (km/s) = 1.23610 3.18706 2.41716
# Velocity P-wave (km/s) = 3.44941 5.31040 4.47766
#
# Compressibility (1/GPa) = 0.04634236
#
# Stress axis : x y z
#
# Youngs Moduli (GPa) = 21.41934 20.07768 2.82054
#
# Poissons Ratio (x) = -0.79428 0.33932
# Poissons Ratio (y) = -0.84735 0.34299
# Poissons Ratio (z) = 2.57683 2.44151
#
# Static dielectric constant tensor:
#      x y z
#    x 1.562110 -0.092290 0.044810 
#    y -0.092290 1.803860 0.013430 
#    z 0.044810 0.013430 1.801260 
# 
# From -- ./inp_files/333440.got.cif
#   From: 2010.05.17/outbox.ucp.g08.bks.cvg/sg2_167_cif.got.tgz:333440.got - 2010.06.11 11:32:03.
