data_PCOD9072150
_publ_section_title
;
Structure prediction by ZEFSAII (Michael W. Deem and Ramdas Pophale) SiO2 
 PCOD9072150
Probable space group: P -1
;
_chemical_formula_sum "Si O2"
_cell_formula_units_Z 16
_cell_length_a 15.823295
_cell_length_b 9.167312
_cell_length_c 9.694888
_cell_angle_alpha 64.233815
_cell_angle_beta 104.610714
_cell_angle_gamma 145.859750
_cell_volume 694.505937
_symmetry_space_group_name_H-M "P -1"
_symmetry_group_IT_number 2
_symmetry_cell_setting 'triclinic'
loop_
_space_group_symop_operation_xyz
x,y,z
-x,-y,-z
loop_
_atom_site_type_symbol
_atom_site_label
_atom_site_fract_x
_atom_site_fract_y
_atom_site_fract_z
Si Si1 0.788916 0.237480 0.786880
Si Si2 0.084071 0.071559 0.142972
Si Si3 0.303119 0.053699 0.877858
Si Si4 0.853011 0.879185 0.292059
Si Si5 0.355079 0.292088 0.201260
Si Si6 0.319530 0.185495 0.544087
Si Si7 0.316130 0.717095 0.529919
Si Si8 0.939353 0.497943 0.341349
O O1 0.688474 0.927546 0.820708
O O2 0.741518 0.308983 0.634416
O O3 0.743396 0.168802 0.956732
O O4 0.970895 0.471362 0.750074
O O5 0.024682 0.087308 0.240317
O O6 0.020722 0.794601 0.249021
O O7 0.264669 0.316021 0.108689
O O8 0.000000 0.000000 0.000000
O O9 0.186814 0.028064 0.859134
O O10 0.467969 0.385735 0.845499
O O11 0.299657 0.020957 0.724609
O O12 0.797459 0.856954 0.427313
O O13 0.747163 0.559889 0.353067
O O14 0.297027 0.146630 0.388519
O O15 0.500000 0.500000 0.500000
O O16 0.235282 0.715904 0.605978
O O17 0.500000 0.000000 0.500000
O O18 0.000000 0.500000 0.500000
#
# Coordination Sequence:
#
# PCOD9072150 Si02
#       8
#     2   2   2   2   2   2   2   2
#     4  10  18  30  52  76  97 131 167 208 249 289
#     4  10  19  29  48  79 106 124 156 220 256 278
#     4   9  18  32  51  76  97 131 173 206 243 288
#     4   9  18  33  49  72 104 131 164 205 254 294
#     4  10  18  31  51  77 102 134 170 197 248 311
#     4   8  18  33  52  71 101 137 168 203 242 302
#     4  10  19  29  47  78 102 125 163 212 255 294
#     4   8  17  31  43  66 101 132 154 192 249 304
#
# _framework density 23.037960000000002
#
# number of rings (size 3 to 8) (size 9 to 14) (size 15 to 20)
#    0.750    2.000    0.000    2.625    0.000    2.500 
#    0.000    0.000    0.000    3.000   16.250   12.250 
#    0.000    0.000    0.000    0.000    0.000    0.000 
#
# Total GULP energy -89089.150888 kJ/mol
# GULP energy per Si atom -5568.071930 kJ/mol
# Density = 2.298552 g / cm^3
# Si number density = 23.037960 Si / 1000 Ang^3
#
#
#
# Elastic Constant Matrix: (Units=GPa)
#
#
# Indices 1 2 3 4 5 6 
#
# 1 51.8495 12.2143 15.7633 2.6172 -1.8589 13.7273
# 2 12.2143 61.0688 7.7245 0.4665 6.3579 14.1262
# 3 15.7633 7.7245 122.7780 15.8542 -4.4320 -5.3003
# 4 2.6172 0.4665 15.8542 19.8440 0.3511 1.5297
# 5 -1.8589 6.3579 -4.4320 0.3511 39.3930 2.8827
# 6 13.7273 14.1262 -5.3003 1.5297 2.8827 27.3858
#
#
#
# Elastic Compliance Matrix: (Units=1/GPa)
#
#
# Indices 1 2 3 4 5 6 
#
# 1 0.023987 -0.001780 -0.003490 0.000559 0.001901 -0.012012
# 2 -0.001780 0.019361 -0.001737 0.001929 -0.002745 -0.009250
# 3 -0.003490 -0.001737 0.009963 -0.007854 0.000947 0.004912
# 4 0.000559 0.001929 -0.007854 0.057022 -0.001249 -0.005849
# 5 0.001901 -0.002745 0.000947 -0.001249 0.026185 -0.002040
# 6 -0.012012 -0.009250 0.004912 -0.005849 -0.002040 0.048800
#
#
# Mechanical properties :
#
#
# Convention : Reuss Voigt Hill
#
# Bulk Modulus (GPa) = 25.44679 34.12227 29.78453
# Shear Modulus (GPa) = 23.53719 30.65752 27.09735
#
# Velocity S-wave (km/s) = 3.19982 3.65189 3.43330
# Velocity P-wave (km/s) = 4.97206 5.71185 5.35475
#
# Compressibility (1/GPa) = 0.03929769
#
# Stress axis : x y z
#
# Youngs Moduli (GPa) = 41.68917 51.64942 100.37608
#
# Poissons Ratio (x) = 0.09192 0.35029
# Poissons Ratio (y) = 0.07419 0.17436
# Poissons Ratio (z) = 0.14549 0.08972
#
# Static dielectric constant tensor:
#      x y z
#    x 1.850750 -0.073020 -0.058720 
#    y -0.073020 2.757350 0.045210 
#    z -0.058720 0.045210 1.883010 
# 
# From -- ./inp_files/463599.got.cif
#   From: 2010.05.17/outbox.cif.g08.bks.cpg/sg2_232_cif.got.tgz:463599.got - 2010.06.03 11:33:40.
