data_PCOD9072526
_publ_section_title
;
Structure prediction by ZEFSAII (Michael W. Deem and Ramdas Pophale) SiO2 
 PCOD9072526
Probable space group: P -1
;
_chemical_formula_sum "Si O2"
_cell_formula_units_Z 16
_cell_length_a 9.000000
_cell_length_b 12.000000
_cell_length_c 12.000000
_cell_angle_alpha 100.000000
_cell_angle_beta 50.000000
_cell_angle_gamma 120.000000
_cell_volume 838.191741
_symmetry_space_group_name_H-M "P -1"
_symmetry_group_IT_number 2
_symmetry_cell_setting 'triclinic'
loop_
_space_group_symop_operation_xyz
x,y,z
-x,-y,-z
loop_
_atom_site_type_symbol
_atom_site_label
_atom_site_fract_x
_atom_site_fract_y
_atom_site_fract_z
Si Si1 0.693466 0.464462 0.879489
Si Si2 0.869776 0.333985 0.159149
Si Si3 0.041596 0.860265 0.054342
Si Si4 0.489223 0.403375 0.335205
Si Si5 0.359568 0.302792 0.632249
Si Si6 0.716533 0.825788 0.996211
Si Si7 0.874587 0.709755 0.697134
Si Si8 0.641708 0.160350 0.463367
O O1 0.823944 0.563184 0.730830
O O2 0.886512 0.539428 0.896249
O O3 0.500000 0.500000 0.000000
O O4 0.545284 0.304167 0.902957
O O5 0.709748 0.390659 0.213666
O O6 0.754949 0.233480 0.303135
O O7 0.874663 0.237751 0.045887
O O8 0.896648 0.798139 0.225046
O O9 0.853268 0.833464 0.044362
O O10 0.220308 0.019214 0.012026
O O11 0.391870 0.343609 0.493989
O O12 0.552366 0.555853 0.325362
O O13 0.301937 0.317420 0.319308
O O14 0.496070 0.227341 0.578697
O O15 0.828167 0.786339 0.833580
O O16 0.139708 0.795181 0.556785
O O17 0.500000 0.000000 0.500000
#
# Coordination Sequence:
#
# PCOD9072526 Si02
#       8
#     2   2   2   2   2   2   2   2
#     4   9  16  34  58  93 115 150 205 258 291 347
#     4  10  21  39  65  89 121 168 205 241 308 372
#     4  11  20  37  62  93 124 157 200 256 308 359
#     4  10  23  42  62  87 126 165 207 242 305 372
#     4  10  23  39  61  91 123 163 202 252 301 366
#     4  10  20  33  61  94 124 149 200 264 309 342
#     4  10  19  38  64  90 118 160 206 253 298 363
#     4  10  20  39  65  90 120 159 206 248 310 363
#
# _framework density 19.088711
#
# number of rings (size 3 to 8) (size 9 to 14) (size 15 to 20)
#    0.000    2.000    3.750    1.500    3.500    1.000 
#    0.000    8.750    2.750    0.000    0.000    0.000 
#    0.000    0.000    0.000    0.000    0.000    0.000 
#
# Total GULP energy -89127.148484 kJ/mol
# GULP energy per Si atom -5570.446780 kJ/mol
# Density = 1.904526 g / cm^3
# Si number density = 19.088711 Si / 1000 Ang^3
#
#
#
# Elastic Constant Matrix: (Units=GPa)
#
#
# Indices 1 2 3 4 5 6 
#
# 1 103.5401 61.3323 23.5368 1.2270 -20.6526 11.6227
# 2 61.3323 202.5269 46.8798 -9.1921 -20.7535 13.5565
# 3 23.5368 46.8798 66.6340 0.5410 -18.0147 1.0294
# 4 1.2270 -9.1921 0.5410 36.4166 1.4818 -9.2531
# 5 -20.6526 -20.7535 -18.0147 1.4818 24.6735 -0.3463
# 6 11.6227 13.5565 1.0294 -9.2531 -0.3463 34.0372
#
#
#
# Elastic Compliance Matrix: (Units=1/GPa)
#
#
# Indices 1 2 3 4 5 6 
#
# 1 0.013789 -0.003055 -0.000229 -0.002639 0.008906 -0.004112
# 2 -0.003055 0.006905 -0.003645 0.001586 0.000479 -0.001161
# 3 -0.000229 -0.003645 0.020935 -0.001566 0.012131 0.000594
# 4 -0.002639 0.001586 -0.001566 0.030287 -0.003718 0.008513
# 5 0.008906 0.000479 0.012131 -0.003718 0.057411 -0.004025
# 6 -0.004112 -0.001161 0.000594 0.008513 -0.004025 0.033501
#
#
# Mechanical properties :
#
#
# Convention : Reuss Voigt Hill
#
# Bulk Modulus (GPa) = 36.00561 70.68875 53.34718
# Shear Modulus (GPa) = 26.89015 35.08894 30.98954
#
# Velocity S-wave (km/s) = 3.75733 4.29208 4.03358
# Velocity P-wave (km/s) = 6.14220 7.85332 7.04987
#
# Compressibility (1/GPa) = 0.02777345
#
# Stress axis : x y z
#
# Youngs Moduli (GPa) = 72.52213 144.82203 47.76608
#
# Poissons Ratio (x) = 0.44239 0.01092
# Poissons Ratio (y) = 0.22154 0.17408
# Poissons Ratio (z) = 0.01658 0.52781
#
# Static dielectric constant tensor:
#      x y z
#    x 1.685500 -0.005930 0.006850 
#    y -0.005930 1.670510 -0.018980 
#    z 0.006850 -0.018980 1.737140 
# 
# From -- ./inp_files/390344.got.cif
#   From: 2010.05.17/outbox.ucp.g08.bks.cvg/sg2_196_cif.got.tgz:390344.got - 2010.06.11 11:32:03.
