data_PCOD9072062
_publ_section_title
;
Structure prediction by ZEFSAII (Michael W. Deem and Ramdas Pophale) SiO2 
 PCOD9072062
Probable space group: P -1
;
_chemical_formula_sum "Si O2"
_cell_formula_units_Z 12
_cell_length_a 14.969312
_cell_length_b 22.805651
_cell_length_c 5.779353
_cell_angle_alpha 56.847102
_cell_angle_beta 53.885968
_cell_angle_gamma 18.226544
_cell_volume 497.866576
_symmetry_space_group_name_H-M "P -1"
_symmetry_group_IT_number 2
_symmetry_cell_setting 'triclinic'
loop_
_space_group_symop_operation_xyz
x,y,z
-x,-y,-z
loop_
_atom_site_type_symbol
_atom_site_label
_atom_site_fract_x
_atom_site_fract_y
_atom_site_fract_z
Si Si1 0.092661 0.386448 0.919680
Si Si2 0.657471 0.028164 0.062728
Si Si3 0.548194 0.739615 0.744487
Si Si4 0.416407 0.465223 0.707423
Si Si5 0.966803 0.962025 0.433069
Si Si6 0.776237 0.392950 0.803216
O O1 0.266362 0.324383 0.585237
O O2 0.775649 0.554644 0.928386
O O3 0.340049 0.192311 0.082823
O O4 0.000000 0.500000 0.000000
O O5 0.831727 0.970598 0.729307
O O6 0.582212 0.128312 0.160139
O O7 0.895506 0.833134 0.209640
O O8 0.276425 0.868078 0.741427
O O9 0.500000 0.500000 0.500000
O O10 0.261631 0.545249 0.517669
O O11 0.257640 0.550317 0.016994
O O12 0.724917 0.242797 0.701534
O O13 0.000000 0.000000 0.500000
O O14 0.500000 0.500000 0.000000
#
# Coordination Sequence:
#
# PCOD9072062 Si02
#       6
#     2   2   2   2   2   2
#     4   8  16  29  48  72  99 128 168 218 268 302
#     4  10  18  30  51  77 102 133 176 218 260 308
#     4   9  17  31  47  69 106 132 167 216 265 308
#     4  10  19  34  50  72 103 140 178 216 257 306
#     4  11  22  32  48  76 109 143 173 208 260 318
#     4  10  18  30  52  72 102 134 174 221 258 305
#
# _framework density 24.102841999999999
#
# number of rings (size 3 to 8) (size 9 to 14) (size 15 to 20)
#    0.000    2.333    3.333    2.000    2.333    0.667 
#    0.000    0.000    0.000    0.000    0.000    2.333 
#    0.000    0.000    0.000    0.000    0.000    0.000 
#
# Total GULP energy -67015.371487 kJ/mol
# GULP energy per Si atom -5584.614291 kJ/mol
# Density = 2.404798 g / cm^3
# Si number density = 24.102842 Si / 1000 Ang^3
#
#
#
# Elastic Constant Matrix: (Units=GPa)
#
#
# Indices 1 2 3 4 5 6 
#
# 1 74.7386 63.8347 31.5293 -11.2623 31.9169 -19.0225
# 2 63.8347 231.0146 89.4154 -23.7824 32.2533 -34.6418
# 3 31.5293 89.4154 178.6740 -13.7513 27.7667 -7.1818
# 4 -11.2623 -23.7824 -13.7513 53.1984 -9.9780 11.7523
# 5 31.9169 32.2533 27.7667 -9.9780 41.8781 -5.2808
# 6 -19.0225 -34.6418 -7.1818 11.7523 -5.2808 43.4655
#
#
#
# Elastic Compliance Matrix: (Units=1/GPa)
#
#
# Indices 1 2 3 4 5 6 
#
# 1 0.024573 -0.003898 0.000173 -0.000683 -0.015246 0.006009
# 2 -0.003898 0.006995 -0.002603 0.000912 -0.000072 0.003183
# 3 0.000173 -0.002603 0.007326 0.000482 -0.003031 -0.001288
# 4 -0.000683 0.000912 0.000482 0.020951 0.003899 -0.004683
# 5 -0.015246 -0.000072 -0.003031 0.003899 0.038030 -0.003664
# 6 0.006009 0.003183 -0.001288 -0.004683 -0.003664 0.028782
#
#
# Mechanical properties :
#
#
# Convention : Reuss Voigt Hill
#
# Bulk Modulus (GPa) = 38.11461 94.88735 66.50098
# Shear Modulus (GPa) = 33.77021 47.68493 40.72757
#
# Velocity S-wave (km/s) = 3.74717 4.45274 4.11511
# Velocity P-wave (km/s) = 5.87957 8.11721 7.08726
#
# Compressibility (1/GPa) = 0.02623666
#
# Stress axis : x y z
#
# Youngs Moduli (GPa) = 40.69452 142.96647 136.50871
#
# Poissons Ratio (x) = 0.55723 -0.02355
# Poissons Ratio (y) = 0.15861 0.35537
# Poissons Ratio (z) = -0.00702 0.37219
#
# Static dielectric constant tensor:
#      x y z
#    x 2.008500 -0.022490 -0.074030 
#    y -0.022490 1.878190 -0.088690 
#    z -0.074030 -0.088690 2.024550 
# 
# From -- ./inp_files/100082.got.cif
#   From: 2010.05.17/outbox.cif.g08.bks.cpg/sg2_51_cif.got.tgz:100082.got - 2010.06.03 11:33:40.
