data_PCOD9072522
_publ_section_title
;
Structure prediction by ZEFSAII (Michael W. Deem and Ramdas Pophale) SiO2 
 PCOD9072522
Probable space group: P -1
;
_chemical_formula_sum "Si O2"
_cell_formula_units_Z 16
_cell_length_a 9.000000
_cell_length_b 12.000000
_cell_length_c 9.000000
_cell_angle_alpha 130.000000
_cell_angle_beta 80.000000
_cell_angle_gamma 100.000000
_cell_volume 730.800219
_symmetry_space_group_name_H-M "P -1"
_symmetry_group_IT_number 2
_symmetry_cell_setting 'triclinic'
loop_
_space_group_symop_operation_xyz
x,y,z
-x,-y,-z
loop_
_atom_site_type_symbol
_atom_site_label
_atom_site_fract_x
_atom_site_fract_y
_atom_site_fract_z
Si Si1 0.795439 0.983211 0.251693
Si Si2 0.194089 0.738051 0.335950
Si Si3 0.833213 0.467510 0.570940
Si Si4 0.864556 0.805288 0.366425
Si Si5 0.653415 0.757211 0.855483
Si Si6 0.171520 0.523278 0.924970
Si Si7 0.851142 0.968172 0.800595
Si Si8 0.707611 0.270260 0.168109
O O1 0.827397 0.863697 0.264576
O O2 0.733850 0.122842 0.465214
O O3 0.683575 0.890674 0.081976
O O4 0.966558 0.028320 0.196916
O O5 0.134968 0.615216 0.355872
O O6 0.269577 0.637350 0.115324
O O7 0.044692 0.795423 0.338322
O O8 0.734304 0.606066 0.738355
O O9 0.735766 0.343617 0.386336
O O10 0.000000 0.500000 0.500000
O O11 0.829363 0.927593 0.596566
O O12 0.785971 0.641011 0.253254
O O13 0.756237 0.828869 0.767028
O O14 0.472712 0.735144 0.839714
O O15 0.190365 0.614244 0.850261
O O16 0.000000 0.500000 0.000000
O O17 0.777530 0.114599 0.993371
#
# Coordination Sequence:
#
# PCOD9072522 Si02
#       8
#     2   2   2   2   2   2   2   2
#     4  11  21  40  65  94 124 164 214 262 308 374
#     4  10  20  36  63  95 121 154 209 264 306 359
#     4  12  23  41  66  93 122 166 212 256 308 379
#     4  10  20  37  65  97 121 154 210 270 309 357
#     4  12  26  42  60  94 132 166 207 261 320 373
#     4  10  19  38  63  90 120 160 205 253 307 371
#     4  11  21  40  65  90 124 171 213 256 309 376
#     4  12  25  42  63  93 130 165 205 264 321 371
#
# _framework density 21.893808
#
# number of rings (size 3 to 8) (size 9 to 14) (size 15 to 20)
#    0.000    1.000    0.000   10.875    0.000    0.000 
#    0.000    6.250    0.000    0.000    0.000    0.000 
#    0.000    0.000    0.000    0.000    0.000    0.000 
#
# Total GULP energy -89191.675819 kJ/mol
# GULP energy per Si atom -5574.479739 kJ/mol
# Density = 2.184398 g / cm^3
# Si number density = 21.893808 Si / 1000 Ang^3
#
#
#
# Elastic Constant Matrix: (Units=GPa)
#
#
# Indices 1 2 3 4 5 6 
#
# 1 62.0480 -5.9845 27.0558 25.2415 41.5893 5.9514
# 2 -5.9845 109.1303 10.5310 17.0199 8.9115 -7.8359
# 3 27.0558 10.5310 146.9498 34.7183 13.9033 -3.9967
# 4 25.2415 17.0199 34.7183 39.2583 -23.8159 0.3674
# 5 41.5893 8.9115 13.9033 -23.8159 7.4966 7.6954
# 6 5.9514 -7.8359 -3.9967 0.3674 7.6954 13.9914
#
#
#
# Elastic Compliance Matrix: (Units=1/GPa)
#
#
# Indices 1 2 3 4 5 6 
#
# 1 0.007116 -0.002472 -0.004723 0.008567 0.012810 -0.013031
# 2 -0.002472 0.008829 -0.000736 0.001013 0.004339 0.003373
# 3 -0.004723 -0.000736 0.008057 -0.002177 0.002664 0.002491
# 4 0.008567 0.001013 -0.002177 0.010274 -0.018329 0.006113
# 5 0.012810 0.004339 0.002664 -0.018329 -0.009598 0.003502
# 6 -0.013031 0.003373 0.002491 0.006113 0.003502 0.077529
#
#
# Mechanical properties :
#
#
# Convention : Reuss Voigt Hill
#
# Bulk Modulus (GPa) = 122.84405 42.37031 82.60718
# Shear Modulus (GPa) = 41.39659 31.25098 36.32378
#
# Velocity S-wave (km/s) = 4.35304 3.78218 4.07761
# Velocity P-wave (km/s) = 9.02752 6.20224 7.74480
#
# Compressibility (1/GPa) = 0.00814040
#
# Stress axis : x y z
#
# Youngs Moduli (GPa) = 140.52082 113.26790 124.10979
#
# Poissons Ratio (x) = 0.27997 0.58623
# Poissons Ratio (y) = 0.34733 0.09132
# Poissons Ratio (z) = 0.66374 0.08334
#
# Static dielectric constant tensor:
#      x y z
#    x 1.735850 0.014310 -0.014150 
#    y 0.014310 1.745720 0.130460 
#    z -0.014150 0.130460 1.566250 
# 
# From -- ./inp_files/184207.got.cif
#   From: 2010.05.17/outbox.ucp.g08.bks.cvg/sg2_93_cif.got.tgz:184207.got - 2010.06.11 11:32:03.
