data_PCOD9072928
_publ_section_title
;
Structure prediction by ZEFSAII (Michael W. Deem and Ramdas Pophale) SiO2 
 PCOD9072928
Probable space group: P -1
;
_chemical_formula_sum "Si O2"
_cell_formula_units_Z 14
_cell_length_a 13.080546
_cell_length_b 12.144598
_cell_length_c 12.159873
_cell_angle_alpha 155.543691
_cell_angle_beta 139.148299
_cell_angle_gamma 50.954112
_cell_volume 510.706329
_symmetry_space_group_name_H-M "P -1"
_symmetry_group_IT_number 2
_symmetry_cell_setting 'triclinic'
loop_
_space_group_symop_operation_xyz
x,y,z
-x,-y,-z
loop_
_atom_site_type_symbol
_atom_site_label
_atom_site_fract_x
_atom_site_fract_y
_atom_site_fract_z
Si Si1 0.866545 0.289328 0.347264
Si Si2 0.600384 0.960501 0.942464
Si Si3 0.568980 0.530962 0.928113
Si Si4 0.728426 0.065671 0.647034
Si Si5 0.280694 0.635583 0.293402
Si Si6 0.105387 0.874160 0.554993
Si Si7 0.202579 0.197425 0.325492
O O1 0.969296 0.270632 0.524166
O O2 0.898222 0.576114 0.575464
O O3 0.687185 0.240701 0.211745
O O4 0.836233 0.034290 0.009158
O O5 0.467865 0.778633 0.595673
O O6 0.500000 0.000000 0.000000
O O7 0.756926 0.886116 0.058694
O O8 0.660937 0.317895 0.868661
O O9 0.675458 0.600804 0.964478
O O10 0.388426 0.355946 0.617019
O O11 0.589463 0.811639 0.264334
O O12 0.800664 0.195086 0.708347
O O13 0.823918 0.940189 0.701734
O O14 0.186234 0.671040 0.360678
O O15 0.000000 0.000000 0.500000
#
# Coordination Sequence:
#
# PCOD9072928 Si02
#       7
#     2   2   2   2   2   2   2
#     4  10  22  34  58  83 117 152 189 238 288 342
#     4   8  15  34  54  83 116 146 186 239 289 339
#     4  10  18  31  51  87 117 153 184 231 285 337
#     4  10  21  31  55  85 122 154 186 235 283 347
#     4   9  18  34  57  88 118 148 191 236 292 338
#     4   9  19  40  62  84 112 153 198 242 290 346
#     4  12  19  35  53  87 122 152 190 230 293 343
#
# _framework density 27.413015000000001
#
# number of rings (size 3 to 8) (size 9 to 14) (size 15 to 20)
#    1.714    0.571    1.429    3.429    0.000    0.000 
#    2.571    2.143    0.000    1.714    0.000    0.000 
#    0.000    0.000    0.000    0.000    0.000    0.000 
#
# Total GULP energy -78044.918498 kJ/mol
# GULP energy per Si atom -5574.637036 kJ/mol
# Density = 2.735062 g / cm^3
# Si number density = 27.413015 Si / 1000 Ang^3
#
#
#
# Elastic Constant Matrix: (Units=GPa)
#
#
# Indices 1 2 3 4 5 6 
#
# 1 89.2981 13.7314 23.1698 -13.5710 -16.9881 18.7730
# 2 13.7314 153.5121 36.1938 -28.9901 -11.7922 4.8409
# 3 23.1698 36.1938 104.8032 -7.1827 7.3070 2.8364
# 4 -13.5710 -28.9901 -7.1827 31.3782 -12.4775 -17.3734
# 5 -16.9881 -11.7922 7.3070 -12.4775 26.4033 -26.8111
# 6 18.7730 4.8409 2.8364 -17.3734 -26.8111 25.6039
#
#
#
# Elastic Compliance Matrix: (Units=1/GPa)
#
#
# Indices 1 2 3 4 5 6 
#
# 1 0.014034 -0.000212 -0.002791 0.000307 0.000471 -0.009239
# 2 -0.000212 0.006402 -0.001622 -0.001631 -0.006124 -0.008395
# 3 -0.002791 -0.001622 0.010681 0.003588 0.001896 0.005590
# 4 0.000307 -0.001631 0.003588 0.003212 -0.029810 -0.029350
# 5 0.000471 -0.006124 0.001896 -0.029810 -0.014246 -0.034542
# 6 -0.009239 -0.008395 0.005590 -0.029350 -0.034542 -0.009288
#
#
# Mechanical properties :
#
#
# Convention : Reuss Voigt Hill
#
# Bulk Modulus (GPa) = 45.72980 54.86705 50.29842
# Shear Modulus (GPa) = 182.92892 34.97831 108.95362
#
# Velocity S-wave (km/s) = 8.17775 3.57595 6.31122
# Velocity P-wave (km/s) = 10.29006 6.09166 8.45558
#
# Compressibility (1/GPa) = 0.02186758
#
# Stress axis : x y z
#
# Youngs Moduli (GPa) = 71.25663 156.20854 93.62142
#
# Poissons Ratio (x) = 0.03306 0.26132
# Poissons Ratio (y) = 0.01508 0.15183
# Poissons Ratio (z) = 0.19889 0.25332
#
# Static dielectric constant tensor:
#      x y z
#    x 2.212860 0.031880 0.039640 
#    y 0.031880 2.122190 -0.013660 
#    z 0.039640 -0.013660 2.188660 
# 
# From -- ./inp_files/538785.got.cif
#   From: 2010.05.17/outbox.cif.g08.bks.cpg/sg2_270_cif.got.tgz:538785.got - 2010.06.03 11:33:40.
