data_PCOD9072782
_publ_section_title
;
Structure prediction by ZEFSAII (Michael W. Deem and Ramdas Pophale) SiO2 
 PCOD9072782
Probable space group: P -1
;
_chemical_formula_sum "Si O2"
_cell_formula_units_Z 16
_cell_length_a 9.000000
_cell_length_b 12.000000
_cell_length_c 18.000000
_cell_angle_alpha 80.000000
_cell_angle_beta 70.000000
_cell_angle_gamma 140.000000
_cell_volume 813.354092
_symmetry_space_group_name_H-M "P -1"
_symmetry_group_IT_number 2
_symmetry_cell_setting 'triclinic'
loop_
_space_group_symop_operation_xyz
x,y,z
-x,-y,-z
loop_
_atom_site_type_symbol
_atom_site_label
_atom_site_fract_x
_atom_site_fract_y
_atom_site_fract_z
Si Si1 0.080601 0.970212 0.264126
Si Si2 0.456094 0.806590 0.204394
Si Si3 0.418573 0.550954 0.952005
Si Si4 0.572077 0.630828 0.269736
Si Si5 0.076306 0.481017 0.790656
Si Si6 0.029624 0.792066 0.062980
Si Si7 0.300811 0.810658 0.823928
Si Si8 0.185638 0.164893 0.376312
O O1 0.244554 0.159392 0.153003
O O2 0.381709 0.064236 0.211090
O O3 0.045819 0.015379 0.342585
O O4 0.706643 0.701848 0.323451
O O5 0.490684 0.705904 0.246828
O O6 0.093674 0.604089 0.249590
O O7 0.554992 0.969302 0.226286
O O8 0.704045 0.984371 0.068077
O O9 0.317088 0.442541 0.900572
O O10 0.500000 0.500000 0.000000
O O11 0.076655 0.409648 0.045781
O O12 0.242825 0.336960 0.345418
O O13 0.907088 0.798685 0.146378
O O14 0.180866 0.666137 0.788786
O O15 0.421902 0.629629 0.705970
O O16 0.874475 0.269215 0.909485
O O17 0.000000 0.000000 0.500000
#
# Coordination Sequence:
#
# PCOD9072782 Si02
#       8
#     2   2   2   2   2   2   2   2
#     4  11  21  39  62  86 120 154 203 249 288 358
#     4  11  23  33  56  90 128 160 192 238 297 357
#     4  11  21  32  54  89 126 165 194 230 293 351
#     4  11  23  38  59  90 122 154 199 251 300 354
#     4  10  21  38  61  86 116 161 207 244 290 349
#     4  10  20  37  51  86 126 169 201 226 286 357
#     4  10  21  34  54  84 124 162 199 228 286 351
#     4  10  23  46  68  84 110 153 212 260 300 350
#
# _framework density 19.671628999999999
#
# number of rings (size 3 to 8) (size 9 to 14) (size 15 to 20)
#    0.000    1.500    3.750    4.125    5.250    1.500 
#    0.000    0.625    0.000    3.750    0.000    0.000 
#    0.000    0.000    0.000    0.000    0.000    0.000 
#
# Total GULP energy -89075.605815 kJ/mol
# GULP energy per Si atom -5567.225363 kJ/mol
# Density = 1.962686 g / cm^3
# Si number density = 19.671629 Si / 1000 Ang^3
#
#
#
# Elastic Constant Matrix: (Units=GPa)
#
#
# Indices 1 2 3 4 5 6 
#
# 1 94.4862 47.8108 18.4662 11.8225 16.4922 -17.8736
# 2 47.8108 116.0277 19.3824 9.3635 6.4303 -8.4752
# 3 18.4662 19.3824 48.2127 5.4381 15.1361 -12.6656
# 4 11.8225 9.3635 5.4381 9.2234 -0.0354 1.4432
# 5 16.4922 6.4303 15.1361 -0.0354 13.7920 -9.2700
# 6 -17.8736 -8.4752 -12.6656 1.4432 -9.2700 39.8970
#
#
#
# Elastic Compliance Matrix: (Units=1/GPa)
#
#
# Indices 1 2 3 4 5 6 
#
# 1 0.021119 -0.005903 0.006988 -0.026106 -0.026777 0.005148
# 2 -0.005903 0.011533 -0.004139 -0.001677 0.006218 -0.000003
# 3 0.006988 -0.004139 0.038489 -0.028396 -0.045415 0.004945
# 4 -0.026106 -0.001677 -0.028396 0.162795 0.053878 -0.014437
# 5 -0.026777 0.006218 -0.045415 0.053878 0.158125 0.009698
# 6 0.005148 -0.000003 0.004945 -0.014437 0.009698 0.031716
#
#
# Mechanical properties :
#
#
# Convention : Reuss Voigt Hill
#
# Bulk Modulus (GPa) = 15.37695 47.78282 31.57988
# Shear Modulus (GPa) = 11.07267 24.12028 17.59648
#
# Velocity S-wave (km/s) = 2.37507 3.50543 2.99408
# Velocity P-wave (km/s) = 3.91856 6.38177 5.29538
#
# Compressibility (1/GPa) = 0.06503242
#
# Stress axis : x y z
#
# Youngs Moduli (GPa) = 47.35056 86.70804 25.98157
#
# Poissons Ratio (x) = 0.51182 -0.18156
# Poissons Ratio (y) = 0.27950 0.10754
# Poissons Ratio (z) = -0.33088 0.35891
#
# Static dielectric constant tensor:
#      x y z
#    x 1.683930 -0.037450 0.005690 
#    y -0.037450 1.844910 -0.035560 
#    z 0.005690 -0.035560 1.820660 
# 
# From -- ./inp_files/278070.got.cif
#   From: 2010.05.17/outbox.ucp.g08.bks.cvg/sg2_140_cif.got.tgz:278070.got - 2010.06.11 11:32:03.
