data_PCOD9072804
_publ_section_title
;
Structure prediction by ZEFSAII (Michael W. Deem and Ramdas Pophale) SiO2 
 PCOD9072804
Probable space group: P -1
;
_chemical_formula_sum "Si O2"
_cell_formula_units_Z 16
_cell_length_a 11.205817
_cell_length_b 11.509883
_cell_length_c 12.268345
_cell_angle_alpha 38.810791
_cell_angle_beta 51.894112
_cell_angle_gamma 75.792887
_cell_volume 685.696550
_symmetry_space_group_name_H-M "P -1"
_symmetry_group_IT_number 2
_symmetry_cell_setting 'triclinic'
loop_
_space_group_symop_operation_xyz
x,y,z
-x,-y,-z
loop_
_atom_site_type_symbol
_atom_site_label
_atom_site_fract_x
_atom_site_fract_y
_atom_site_fract_z
Si Si1 0.252577 0.660160 0.649878
Si Si2 0.719602 0.568413 0.757582
Si Si3 0.799173 0.150208 0.898244
Si Si4 0.324714 0.070312 0.557583
Si Si5 0.470049 0.135022 0.213935
Si Si6 0.618743 0.712277 0.396325
Si Si7 0.838149 0.517885 0.490037
Si Si8 0.127937 0.583394 0.022794
O O1 0.417971 0.633341 0.541620
O O2 0.079312 0.540242 0.766350
O O3 0.311794 0.912325 0.430343
O O4 0.197558 0.576437 0.866559
O O5 0.748730 0.803820 0.567720
O O6 0.811266 0.554924 0.605685
O O7 0.795664 0.510166 0.861882
O O8 0.520074 0.380161 0.989445
O O9 0.818001 0.283317 0.679702
O O10 0.969145 0.289849 0.773043
O O11 0.630945 0.133262 0.065311
O O12 0.748291 0.904630 0.104617
O O13 0.477327 0.106720 0.360374
O O14 0.367437 0.189268 0.561246
O O15 0.189568 0.829657 0.822962
O O16 0.693078 0.549255 0.486507
#
# Coordination Sequence:
#
# PCOD9072804 Si02
#       8
#     2   2   2   2   2   2   2   2
#     4   9  19  32  49  72 100 136 163 191 242 295
#     4  10  19  31  51  74  98 130 161 201 244 285
#     4   9  17  29  46  72  99 123 154 202 247 279
#     4  10  19  31  50  78 100 125 163 197 245 295
#     4   9  17  31  50  73  98 124 159 201 240 283
#     4  10  18  31  51  73  97 124 159 204 242 282
#     4   9  18  30  47  74  96 121 163 200 242 285
#     4  10  19  34  48  68 106 135 159 195 239 295
#
# _framework density 23.333938
#
# number of rings (size 3 to 8) (size 9 to 14) (size 15 to 20)
#    0.000    2.500    0.000    3.750    0.000    5.500 
#    0.000   10.625    0.000    3.000    0.000   45.500 
#    0.000    0.000    0.000    0.000    0.000    0.000 
#
# Total GULP energy -89199.431246 kJ/mol
# GULP energy per Si atom -5574.964453 kJ/mol
# Density = 2.328083 g / cm^3
# Si number density = 23.333938 Si / 1000 Ang^3
#
#
#
# Elastic Constant Matrix: (Units=GPa)
#
#
# Indices 1 2 3 4 5 6 
#
# 1 129.6557 29.3432 78.8055 -29.8128 -10.0496 -12.2915
# 2 29.3432 16.2369 20.6804 -6.9810 -4.0209 1.7167
# 3 78.8055 20.6804 163.2274 -11.8971 -7.6644 -14.1929
# 4 -29.8128 -6.9810 -11.8971 27.8957 -5.4071 9.5307
# 5 -10.0496 -4.0209 -7.6644 -5.4071 38.0769 0.3857
# 6 -12.2915 1.7167 -14.1929 9.5307 0.3857 26.8652
#
#
#
# Elastic Compliance Matrix: (Units=1/GPa)
#
#
# Indices 1 2 3 4 5 6 
#
# 1 0.019388 -0.022587 -0.005158 0.012469 0.003433 0.003116
# 2 -0.022587 0.119546 -0.005093 0.013917 0.007874 -0.025714
# 3 -0.005158 -0.005093 0.009290 -0.004493 -0.000712 0.004478
# 4 0.012469 0.013917 -0.004493 0.059619 0.012514 -0.018888
# 5 0.003433 0.007874 -0.000712 0.012514 0.029676 -0.004174
# 6 0.003116 -0.025714 0.004478 -0.018888 -0.004174 0.049418
#
#
# Mechanical properties :
#
#
# Convention : Reuss Voigt Hill
#
# Bulk Modulus (GPa) = 12.11400 62.97536 37.54468
# Shear Modulus (GPa) = 13.15338 30.58696 21.87017
#
# Velocity S-wave (km/s) = 2.37682 3.62447 3.06481
# Velocity P-wave (km/s) = 3.56864 6.67556 5.35249
#
# Compressibility (1/GPa) = 0.08254910
#
# Stress axis : x y z
#
# Youngs Moduli (GPa) = 51.57804 8.36495 107.63913
#
# Poissons Ratio (x) = 0.18894 0.55518
# Poissons Ratio (y) = 1.16500 0.54821
# Poissons Ratio (z) = 0.26603 0.04260
#
# Static dielectric constant tensor:
#      x y z
#    x 1.915510 -0.081300 0.020760 
#    y -0.081300 2.082190 -0.008990 
#    z 0.020760 -0.008990 1.966100 
# 
# From -- ./inp_files/195722.got.cif
#   From: 2010.05.17/outbox.cif.g08.bks.cpg/sg2_98_cif.got.tgz:195722.got - 2010.06.03 11:33:40.
