data_PCOD9072411
_publ_section_title
;
Structure prediction by ZEFSAII (Michael W. Deem and Ramdas Pophale) SiO2 
 PCOD9072411
Probable space group: P -1
;
_chemical_formula_sum "Si O2"
_cell_formula_units_Z 14
_cell_length_a 12.000000
_cell_length_b 18.000000
_cell_length_c 9.000000
_cell_angle_alpha 40.000000
_cell_angle_beta 100.000000
_cell_angle_gamma 130.000000
_cell_volume 729.599496
_symmetry_space_group_name_H-M "P -1"
_symmetry_group_IT_number 2
_symmetry_cell_setting 'triclinic'
loop_
_space_group_symop_operation_xyz
x,y,z
-x,-y,-z
loop_
_atom_site_type_symbol
_atom_site_label
_atom_site_fract_x
_atom_site_fract_y
_atom_site_fract_z
Si Si1 0.551427 0.661749 0.685331
Si Si2 0.218295 0.844945 0.247078
Si Si3 0.376512 0.728202 0.425892
Si Si4 0.908945 0.047347 0.370889
Si Si5 0.896446 0.059532 0.697303
Si Si6 0.845488 0.603693 0.341364
Si Si7 0.738199 0.710529 0.372209
O O1 0.391489 0.629706 0.688230
O O2 0.591700 0.653807 0.536586
O O3 0.726276 0.866100 0.502202
O O4 0.500000 0.500000 0.000000
O O5 0.263920 0.747279 0.429455
O O6 0.185977 0.896337 0.306003
O O7 0.026722 0.704446 0.321228
O O8 0.405809 0.052254 0.892023
O O9 0.278259 0.599153 0.450968
O O10 0.878917 0.065620 0.506597
O O11 0.000000 0.000000 0.500000
O O12 0.054214 0.241141 0.006875
O O13 0.104631 0.203464 0.599631
O O14 0.794324 0.858697 0.042362
O O15 0.722778 0.586531 0.449584
#
# Coordination Sequence:
#
# PCOD9072411 Si02
#       7
#     2   2   2   2   2   2   2
#     4  12  24  38  59  96 128 155 202 256 307 363
#     4  10  22  44  64  86 122 165 211 243 295 370
#     4  11  23  40  66  88 122 165 205 249 299 364
#     4  12  20  36  60  91 124 160 195 252 312 353
#     4  10  19  36  62  88 118 164 202 247 302 359
#     4  11  22  39  66  91 120 160 208 250 305 360
#     4  10  19  36  60  90 122 155 203 250 306 358
#
# _framework density 19.188610000000001
#
# number of rings (size 3 to 8) (size 9 to 14) (size 15 to 20)
#    0.000    1.143    5.714    2.143    0.000    1.714 
#    0.000    1.429    3.143    0.000    0.000    0.000 
#    0.000    0.000    0.000    0.000    0.000    0.000 
#
# Total GULP energy -78047.566375 kJ/mol
# GULP energy per Si atom -5574.826170 kJ/mol
# Density = 1.914494 g / cm^3
# Si number density = 19.188610 Si / 1000 Ang^3
#
#
#
# Elastic Constant Matrix: (Units=GPa)
#
#
# Indices 1 2 3 4 5 6 
#
# 1 153.9301 41.5106 9.8465 6.3983 25.9825 -15.7409
# 2 41.5106 104.9430 7.0907 -0.3752 2.3683 -7.4490
# 3 9.8465 7.0907 36.5152 8.5992 14.0373 -0.4416
# 4 6.3983 -0.3752 8.5992 39.2379 -4.1151 -2.1192
# 5 25.9825 2.3683 14.0373 -4.1151 23.8703 1.0770
# 6 -15.7409 -7.4490 -0.4416 -2.1192 1.0770 32.6806
#
#
#
# Elastic Compliance Matrix: (Units=1/GPa)
#
#
# Indices 1 2 3 4 5 6 
#
# 1 0.010231 -0.003729 0.004417 -0.003930 -0.014238 0.004352
# 2 -0.003729 0.011190 -0.003790 0.002160 0.005521 0.000661
# 3 0.004417 -0.003790 0.042230 -0.013220 -0.031636 0.002019
# 4 -0.003930 0.002160 -0.013220 0.030836 0.017161 -0.000145
# 5 -0.014238 0.005521 -0.031636 0.017161 0.078744 -0.007509
# 6 0.004352 0.000661 0.002019 -0.000145 -0.007509 0.033111
#
#
# Mechanical properties :
#
#
# Convention : Reuss Voigt Hill
#
# Bulk Modulus (GPa) = 17.40766 45.80932 31.60849
# Shear Modulus (GPa) = 21.57977 34.95379 28.26678
#
# Velocity S-wave (km/s) = 3.35716 4.27264 3.84227
# Velocity P-wave (km/s) = 4.91111 6.94735 6.01600
#
# Compressibility (1/GPa) = 0.05744599
#
# Stress axis : x y z
#
# Youngs Moduli (GPa) = 97.73961 89.36308 23.67971
#
# Poissons Ratio (x) = 0.33326 -0.10459
# Poissons Ratio (y) = 0.36450 0.08976
# Poissons Ratio (z) = -0.43170 0.33872
#
# Static dielectric constant tensor:
#      x y z
#    x 1.704000 -0.018090 -0.049540 
#    y -0.018090 1.744570 -0.001060 
#    z -0.049540 -0.001060 1.722160 
# 
# From -- ./inp_files/176458.got.cif
#   From: 2010.05.17/outbox.ucp.g08.bks.cvg/sg2_89_cif.got.tgz:176458.got - 2010.06.11 11:32:03.
