data_PCOD9072137
_publ_section_title
;
Structure prediction by ZEFSAII (Michael W. Deem and Ramdas Pophale) SiO2 
 PCOD9072137
Probable space group: P -1
;
_chemical_formula_sum "Si O2"
_cell_formula_units_Z 16
_cell_length_a 24.000000
_cell_length_b 15.000000
_cell_length_c 9.000000
_cell_angle_alpha 50.000000
_cell_angle_beta 30.000000
_cell_angle_gamma 30.000000
_cell_volume 731.734496
_symmetry_space_group_name_H-M "P -1"
_symmetry_group_IT_number 2
_symmetry_cell_setting 'triclinic'
loop_
_space_group_symop_operation_xyz
x,y,z
-x,-y,-z
loop_
_atom_site_type_symbol
_atom_site_label
_atom_site_fract_x
_atom_site_fract_y
_atom_site_fract_z
Si Si1 0.142347 0.556148 0.383397
Si Si2 0.435575 0.278154 0.235281
Si Si3 0.241793 0.533297 0.676959
Si Si4 0.165970 0.069038 0.754719
Si Si5 0.246670 0.141889 0.193782
Si Si6 0.396378 0.255128 0.865949
Si Si7 0.215597 0.763612 0.942108
Si Si8 0.406543 0.606694 0.355400
O O1 0.223688 0.459094 0.461203
O O2 0.942093 0.675182 0.663545
O O3 0.319896 0.348813 0.106078
O O4 0.129499 0.708210 0.231488
O O5 0.381817 0.335910 0.468751
O O6 0.537605 0.312197 0.913408
O O7 0.581550 0.055455 0.088893
O O8 0.278387 0.452641 0.841336
O O9 0.322696 0.596360 0.430792
O O10 0.017005 0.719776 0.970516
O O11 0.182166 0.104800 0.510541
O O12 0.378271 0.917558 0.485284
O O13 0.124283 0.965785 0.968895
O O14 0.324917 0.190156 0.045459
O O15 0.264340 0.729628 0.691345
O O16 0.404829 0.604427 0.777287
#
# Coordination Sequence:
#
# PCOD9072137 Si02
#       8
#     2   2   2   2   2   2   2   2
#     4  11  23  43  68  99 131 163 217 277 313 381
#     4  11  26  43  63  98 137 168 212 267 330 379
#     4  12  26  41  65  98 134 175 207 267 331 382
#     4  12  23  40  70 100 125 169 220 264 320 383
#     4  12  25  41  73  95 123 179 221 262 316 386
#     4  12  24  44  68  97 131 164 228 269 308 378
#     4  10  18  37  70 100 122 160 216 275 314 371
#     4  10  18  40  64  93 134 166 206 270 324 378
#
# _framework density 21.865853999999999
#
# number of rings (size 3 to 8) (size 9 to 14) (size 15 to 20)
#    0.000    0.750    6.250    1.875    1.750    2.500 
#    0.000    2.500    0.000    0.000    0.000    0.000 
#    0.000    0.000    0.000    0.000    0.000    0.000 
#
# Total GULP energy -89321.429286 kJ/mol
# GULP energy per Si atom -5582.589330 kJ/mol
# Density = 2.181609 g / cm^3
# Si number density = 21.865854 Si / 1000 Ang^3
#
#
#
# Elastic Constant Matrix: (Units=GPa)
#
#
# Indices 1 2 3 4 5 6 
#
# 1 46.8789 9.2791 24.9161 6.0053 -22.6454 10.6727
# 2 9.2791 57.6887 22.8372 24.7433 -17.1863 14.8204
# 3 24.9161 22.8372 54.0980 29.8270 -12.6592 6.6772
# 4 6.0053 24.7433 29.8270 23.1780 3.7635 -1.8844
# 5 -22.6454 -17.1863 -12.6592 3.7635 34.3969 6.3450
# 6 10.6727 14.8204 6.6772 -1.8844 6.3450 32.0387
#
#
#
# Elastic Compliance Matrix: (Units=1/GPa)
#
#
# Indices 1 2 3 4 5 6 
#
# 1 0.041544 -0.003993 -0.033629 0.034735 0.010090 -0.004939
# 2 -0.003993 -0.001459 -0.031950 0.048830 -0.023444 0.016179
# 3 -0.033629 -0.031950 0.022874 0.021927 -0.037609 0.029952
# 4 0.034735 0.048830 0.021927 -0.062616 0.072664 -0.056801
# 5 0.010090 -0.023444 -0.037609 0.072664 -0.001458 0.019884
# 6 -0.004939 0.016179 0.029952 -0.056801 0.019884 0.011852
#
#
# Mechanical properties :
#
#
# Convention : Reuss Voigt Hill
#
# Bulk Modulus (GPa) = -13.12594 30.30338 8.58872
# Shear Modulus (GPa) = 40.16493 24.69828 32.43160
#
# Velocity S-wave (km/s) = 4.29053 3.36450 3.85542
# Velocity P-wave (km/s) = 4.30452 5.38350 4.87396
#
# Compressibility (1/GPa) = -0.07618505
#
# Stress axis : x y z
#
# Youngs Moduli (GPa) = 24.07060 -685.18134 43.71756
#
# Poissons Ratio (x) = -2.73608 1.47018
# Poissons Ratio (y) = 0.09612 1.39677
# Poissons Ratio (z) = 0.80947 -21.89138
#
# Static dielectric constant tensor:
#      x y z
#    x 1.797410 0.002770 -0.013220 
#    y 0.002770 1.795790 -0.024450 
#    z -0.013220 -0.024450 1.791230 
# 
# From -- ./inp_files/208049.got.cif
#   From: 2010.05.17/outbox.ucp.g08.bks.cvg/sg2_105_cif.got.tgz:208049.got - 2010.06.11 11:32:03.
