data_PCOD9072085
_publ_section_title
;
Structure prediction by ZEFSAII (Michael W. Deem and Ramdas Pophale) SiO2 
 PCOD9072085
Probable space group: P -1
;
_chemical_formula_sum "Si O2"
_cell_formula_units_Z 16
_cell_length_a 10.609868
_cell_length_b 8.766016
_cell_length_c 9.591679
_cell_angle_alpha 80.436977
_cell_angle_beta 120.521430
_cell_angle_gamma 83.367257
_cell_volume 736.522752
_symmetry_space_group_name_H-M "P -1"
_symmetry_group_IT_number 2
_symmetry_cell_setting 'triclinic'
loop_
_space_group_symop_operation_xyz
x,y,z
-x,-y,-z
loop_
_atom_site_type_symbol
_atom_site_label
_atom_site_fract_x
_atom_site_fract_y
_atom_site_fract_z
Si Si1 0.530920 0.470901 0.860093
Si Si2 0.863750 0.232652 0.477058
Si Si3 0.797761 0.985569 0.272431
Si Si4 0.847973 0.218294 0.047678
Si Si5 0.590764 0.613412 0.612567
Si Si6 0.331750 0.265654 0.627061
Si Si7 0.006649 0.595382 0.686477
Si Si8 0.879578 0.346390 0.763156
O O1 0.533009 0.622110 0.737598
O O2 0.415745 0.377896 0.741786
O O3 0.500000 0.500000 0.000000
O O4 0.694799 0.353286 0.956576
O O5 0.815481 0.279772 0.599464
O O6 0.034833 0.126429 0.598512
O O7 0.875921 0.385403 0.369467
O O8 0.778724 0.127682 0.353262
O O9 0.678356 0.884974 0.261890
O O10 0.807180 0.063313 0.114751
O O11 0.969038 0.278423 0.202626
O O12 0.901318 0.220044 0.918364
O O13 0.500000 0.500000 0.500000
O O14 0.591161 0.755055 0.481713
O O15 0.761149 0.504022 0.727449
O O16 0.158643 0.349109 0.481118
O O17 0.018968 0.419346 0.781207
#
# Coordination Sequence:
#
# PCOD9072085 Si02
#       8
#     2   2   2   2   2   2   2   2
#     4  10  21  36  55  79 103 129 164 215 266 298
#     4   9  18  32  51  74 104 135 173 211 244 300
#     4   9  19  34  49  72 103 142 172 197 247 305
#     4  10  21  34  51  77 110 133 163 212 258 303
#     4   8  17  33  53  74  99 130 168 209 252 298
#     4   9  18  36  56  71 101 140 171 203 245 309
#     4   9  18  33  54  78 100 131 172 212 253 299
#     4  10  18  30  51  79 104 131 167 216 264 290
#
# _framework density 21.723701999999999
#
# number of rings (size 3 to 8) (size 9 to 14) (size 15 to 20)
#    0.000    2.750    0.000    1.500    0.000    9.000 
#    0.000    1.250    0.000    7.500    0.000    0.000 
#    0.000    0.000    0.000    0.000    0.000    0.000 
#
# Total GULP energy -89163.012024 kJ/mol
# GULP energy per Si atom -5572.688252 kJ/mol
# Density = 2.167426 g / cm^3
# Si number density = 21.723702 Si / 1000 Ang^3
#
#
#
# Elastic Constant Matrix: (Units=GPa)
#
#
# Indices 1 2 3 4 5 6 
#
# 1 57.9099 49.6243 53.3317 3.1875 -32.2867 19.8966
# 2 49.6243 60.3397 31.3606 -16.7056 -28.6083 35.2110
# 3 53.3317 31.3606 117.3597 -2.0968 -47.4031 25.7216
# 4 3.1875 -16.7056 -2.0968 30.0990 12.9004 -10.4334
# 5 -32.2867 -28.6083 -47.4031 12.9004 60.8334 -17.0477
# 6 19.8966 35.2110 25.7216 -10.4334 -17.0477 37.6876
#
#
#
# Elastic Compliance Matrix: (Units=1/GPa)
#
#
# Indices 1 2 3 4 5 6 
#
# 1 -0.159448 0.187913 0.040437 0.095293 -0.012487 -0.098251
# 2 0.187913 -0.178798 -0.048146 -0.103877 0.023272 0.082472
# 3 0.040437 -0.048146 0.003747 -0.029944 0.013367 0.018834
# 4 0.095293 -0.103877 -0.029944 -0.014446 -0.000961 0.062745
# 5 -0.012487 0.023272 0.013367 -0.000961 0.028054 -0.011849
# 6 -0.098251 0.082472 0.018834 0.062745 -0.011849 0.000509
#
#
# Mechanical properties :
#
#
# Convention : Reuss Voigt Hill
#
# Bulk Modulus (GPa) = 38.59937 56.02694 47.31316
# Shear Modulus (GPa) = -7.43879 32.47685 12.51903
#
# Velocity S-wave (km/s) = -1.85249 3.87071 2.40320
# Velocity P-wave (km/s) = 3.63748 6.76929 5.43390
#
# Compressibility (1/GPa) = 0.02590716
#
# Stress axis : x y z
#
# Youngs Moduli (GPa) = -6.27162 -5.59292 266.87153
#
# Poissons Ratio (x) = 1.05098 -10.79143
# Poissons Ratio (y) = 1.17852 12.84892
# Poissons Ratio (z) = 0.25360 -0.26928
#
# Static dielectric constant tensor:
#      x y z
#    x 1.878260 0.013180 -0.039980 
#    y 0.013180 1.832330 -0.055840 
#    z -0.039980 -0.055840 1.850830 
# 
# From -- ./inp_files/244185.got.cif
#   From: 2010.05.17/outbox.cif.g08.bks.cpg/sg2_123_cif.got.tgz:244185.got - 2010.06.03 11:33:40.
