data_PCOD9072932
_publ_section_title
;
Structure prediction by ZEFSAII (Michael W. Deem and Ramdas Pophale) SiO2 
 PCOD9072932
Probable space group: P -1
;
_chemical_formula_sum "Si O2"
_cell_formula_units_Z 16
_cell_length_a 9.247651
_cell_length_b 10.164223
_cell_length_c 11.443172
_cell_angle_alpha 37.894492
_cell_angle_beta 109.154608
_cell_angle_gamma 94.316664
_cell_volume 591.977676
_symmetry_space_group_name_H-M "P -1"
_symmetry_group_IT_number 2
_symmetry_cell_setting 'triclinic'
loop_
_space_group_symop_operation_xyz
x,y,z
-x,-y,-z
loop_
_atom_site_type_symbol
_atom_site_label
_atom_site_fract_x
_atom_site_fract_y
_atom_site_fract_z
Si Si1 0.139704 0.773146 0.144503
Si Si2 0.448083 0.851701 0.218228
Si Si3 0.024118 0.742320 0.873092
Si Si4 0.413414 0.536089 0.644395
Si Si5 0.643967 0.468675 0.972300
Si Si6 0.048708 0.707983 0.417447
Si Si7 0.246752 0.226563 0.550075
Si Si8 0.306920 0.119104 0.370594
O O1 0.268350 0.913153 0.077328
O O2 0.056352 0.835094 0.207177
O O3 0.233049 0.494372 0.379905
O O4 0.060405 0.755593 0.010686
O O5 0.425684 0.718340 0.423621
O O6 0.546957 0.698621 0.247062
O O7 0.585603 0.950553 0.231773
O O8 0.854370 0.938974 0.667719
O O9 0.188513 0.732661 0.853585
O O10 0.000000 0.500000 0.000000
O O11 0.549792 0.509294 0.795566
O O12 0.229396 0.610378 0.585481
O O13 0.701386 0.683683 0.861444
O O14 0.500000 0.500000 0.000000
O O15 0.000000 0.500000 0.500000
O O16 0.909269 0.806292 0.406641
O O17 0.260315 0.192414 0.439569
O O18 0.500000 0.000000 0.500000
#
# Coordination Sequence:
#
# PCOD9072932 Si02
#       8
#     2   2   2   2   2   2   2   2
#     4  10  15  29  49  83 112 131 180 237 294 314
#     4  10  13  26  49  74 110 139 171 229 281 331
#     4  10  19  35  56  80 115 150 187 237 278 331
#     4  10  15  27  46  81 117 132 171 235 291 318
#     4  11  22  35  58  89 112 144 193 241 281 320
#     4   9  18  22  46  84 112 140 169 236 287 327
#     4  11  16  31  51  79 111 143 188 224 278 331
#     4  11  24  41  58  78 115 163 191 221 281 347
#
# _framework density 27.028044999999999
#
# number of rings (size 3 to 8) (size 9 to 14) (size 15 to 20)
#    0.000    1.750   10.000    0.000    1.750    1.000 
#    0.000    0.625    0.000    1.500    0.000    0.000 
#    0.000    0.000    0.000    0.000    0.000    0.000 
#
# Total GULP energy -89172.984614 kJ/mol
# GULP energy per Si atom -5573.311538 kJ/mol
# Density = 2.696653 g / cm^3
# Si number density = 27.028045 Si / 1000 Ang^3
#
#
#
# Elastic Constant Matrix: (Units=GPa)
#
#
# Indices 1 2 3 4 5 6 
#
# 1 239.1688 44.3700 58.7495 2.4578 51.8691 -47.5457
# 2 44.3700 89.2141 11.1664 0.7316 10.7061 -32.1675
# 3 58.7495 11.1664 73.5984 21.0263 40.9310 -18.3884
# 4 2.4578 0.7316 21.0263 40.4074 -1.5209 5.5474
# 5 51.8691 10.7061 40.9310 -1.5209 71.3696 -2.2668
# 6 -47.5457 -32.1675 -18.3884 5.5474 -2.2668 48.6149
#
#
#
# Elastic Compliance Matrix: (Units=1/GPa)
#
#
# Indices 1 2 3 4 5 6 
#
# 1 0.006525 -0.000797 -0.001899 -0.000208 -0.003379 0.005002
# 2 -0.000797 0.015833 0.004936 -0.004602 -0.004348 0.011887
# 3 -0.001899 0.004936 0.035496 -0.021431 -0.019654 0.016364
# 4 -0.000208 -0.004602 -0.021431 0.038580 0.013474 -0.015129
# 5 -0.003379 -0.004348 -0.019654 0.013474 0.028239 -0.013836
# 6 0.005002 0.011887 0.016364 -0.015129 -0.013836 0.040598
#
#
# Mechanical properties :
#
#
# Convention : Reuss Voigt Hill
#
# Bulk Modulus (GPa) = 16.04237 70.06144 43.05191
# Shear Modulus (GPa) = 27.53799 51.25806 39.39802
#
# Velocity S-wave (km/s) = 3.19543 4.35958 3.82209
# Velocity P-wave (km/s) = 4.42298 7.16375 5.95323
#
# Compressibility (1/GPa) = 0.06233492
#
# Stress axis : x y z
#
# Youngs Moduli (GPa) = 153.26318 63.16006 28.17212
#
# Poissons Ratio (x) = 0.05031 0.05350
# Poissons Ratio (y) = 0.12209 -0.13907
# Poissons Ratio (z) = 0.29108 -0.31179
#
# Static dielectric constant tensor:
#      x y z
#    x 2.240600 -0.006260 0.024880 
#    y -0.006260 2.308060 -0.164860 
#    z 0.024880 -0.164860 2.456770 
# 
# From -- ./inp_files/389478.got.cif
#   From: 2010.05.17/outbox.cif.g08.bks.cpg/sg2_195_cif.got.tgz:389478.got - 2010.06.03 11:33:40.
