data_PCOD9072382
_publ_section_title
;
Structure prediction by ZEFSAII (Michael W. Deem and Ramdas Pophale) SiO2 
 PCOD9072382
Probable space group: P -1
;
_chemical_formula_sum "Si O2"
_cell_formula_units_Z 15
_cell_length_a 11.516722
_cell_length_b 6.876345
_cell_length_c 9.680502
_cell_angle_alpha 47.023865
_cell_angle_beta 97.499473
_cell_angle_gamma 89.518101
_cell_volume 551.061595
_symmetry_space_group_name_H-M "P -1"
_symmetry_group_IT_number 2
_symmetry_cell_setting 'triclinic'
loop_
_space_group_symop_operation_xyz
x,y,z
-x,-y,-z
loop_
_atom_site_type_symbol
_atom_site_label
_atom_site_fract_x
_atom_site_fract_y
_atom_site_fract_z
Si Si1 0.669693 0.682647 0.108491
Si Si2 0.576425 0.194632 0.035866
Si Si3 0.911625 0.113892 0.680831
Si Si4 0.653116 0.162516 0.541580
Si Si5 0.597600 0.658004 0.597261
Si Si6 0.913672 0.642915 0.247873
Si Si7 0.772019 0.896810 0.364669
Si Si8 0.000000 0.000000 0.500000
O O1 0.669645 0.408523 0.324328
O O2 0.809614 0.688434 0.096144
O O3 0.614814 0.915424 0.094880
O O4 0.557920 0.731735 0.963003
O O5 0.676209 0.151596 0.189442
O O6 0.593668 0.415121 0.817094
O O7 0.773537 0.102765 0.673607
O O8 0.937075 0.325349 0.449070
O O9 0.964159 0.232129 0.771036
O O10 0.985390 0.871465 0.727470
O O11 0.525607 0.258577 0.542113
O O12 0.627634 0.907000 0.573727
O O13 0.703998 0.645581 0.513793
O O14 0.845920 0.794172 0.292406
O O15 0.862216 0.954307 0.466993
#
# Coordination Sequence:
#
# PCOD9072382 Si02
#       8
#     2   2   2   2   2   2   2   1
#     4   8  15  32  50  73 105 146 173 220 265 321
#     4   9  18  33  54  79 112 142 183 224 275 316
#     4   9  15  29  49  81 103 140 185 223 261 329
#     4   9  17  31  52  76 112 148 172 223 282 312
#     4  10  19  33  54  81 114 145 176 230 272 326
#     4   8  16  28  53  75 103 142 185 218 269 314
#     4  10  19  34  54  84 106 147 185 220 269 342
#     4  10  18  30  56  80 106 144 190 216 274 334
#
# _framework density 27.220185000000001
#
# number of rings (size 3 to 8) (size 9 to 14) (size 15 to 20)
#    0.000    2.933    1.333    0.000    0.000    0.000 
#    0.000   30.667    0.000    0.000    0.000   26.133 
#    0.000    0.000    0.000    0.000    0.000    0.000 
#
# Total GULP energy -83547.021256 kJ/mol
# GULP energy per Si atom -5569.801417 kJ/mol
# Density = 2.715823 g / cm^3
# Si number density = 27.220185 Si / 1000 Ang^3
#
#
#
# Elastic Constant Matrix: (Units=GPa)
#
#
# Indices 1 2 3 4 5 6 
#
# 1 201.3909 22.2727 31.9255 6.6832 44.3716 52.9020
# 2 22.2727 75.8372 21.3893 -13.5173 0.1577 8.5031
# 3 31.9255 21.3893 137.4710 -10.9324 21.5672 10.6017
# 4 6.6832 -13.5173 -10.9324 27.2348 1.5471 8.3317
# 5 44.3716 0.1577 21.5672 1.5471 21.7217 -2.3502
# 6 52.9020 8.5031 10.6017 8.3317 -2.3502 45.1788
#
#
#
# Elastic Compliance Matrix: (Units=1/GPa)
#
#
# Indices 1 2 3 4 5 6 
#
# 1 0.044543 -0.006783 0.014865 0.017572 -0.113824 -0.063531
# 2 -0.006783 0.016588 -0.003754 0.005683 0.017660 0.005571
# 3 0.014865 -0.003754 0.014755 0.010705 -0.048418 -0.024655
# 4 0.017572 0.005683 0.010705 0.053911 -0.054399 -0.036929
# 5 -0.113824 0.017660 -0.048418 -0.054399 0.348707 0.169492
# 6 -0.063531 0.005571 -0.024655 -0.036929 0.169492 0.116890
#
#
# Mechanical properties :
#
#
# Convention : Reuss Voigt Hill
#
# Bulk Modulus (GPa) = 11.82829 62.87489 37.35159
# Shear Modulus (GPa) = 8.13116 41.43450 24.78283
#
# Velocity S-wave (km/s) = 1.73022 3.90577 3.02065
# Velocity P-wave (km/s) = 2.88901 6.59460 5.09093
#
# Compressibility (1/GPa) = 0.08454307
#
# Stress axis : x y z
#
# Youngs Moduli (GPa) = 22.45033 60.28277 67.77378
#
# Poissons Ratio (x) = 0.40887 -1.00747
# Poissons Ratio (y) = 0.15227 0.25444
# Poissons Ratio (z) = -0.33373 0.22631
#
# Static dielectric constant tensor:
#      x y z
#    x -6.652130 21.327730 -2.290470 
#    y 21.327730 -48.303650 5.439580 
#    z -2.290470 5.439580 1.575710 
# 
# From -- ./inp_files/387957.got.cif
#   From: 2010.05.17/outbox.cif.g08.bks.cpg/sg2_194_cif.got.tgz:387957.got - 2010.06.03 11:33:40.
