data_PCOD9072702
_publ_section_title
;
Structure prediction by ZEFSAII (Michael W. Deem and Ramdas Pophale) SiO2 
 PCOD9072702
Probable space group: P -1
;
_chemical_formula_sum "Si O2"
_cell_formula_units_Z 16
_cell_length_a 23.515813
_cell_length_b 14.537758
_cell_length_c 11.659940
_cell_angle_alpha 149.608325
_cell_angle_beta 32.299821
_cell_angle_gamma 149.469884
_cell_volume 939.833136
_symmetry_space_group_name_H-M "P -1"
_symmetry_group_IT_number 2
_symmetry_cell_setting 'triclinic'
loop_
_space_group_symop_operation_xyz
x,y,z
-x,-y,-z
loop_
_atom_site_type_symbol
_atom_site_label
_atom_site_fract_x
_atom_site_fract_y
_atom_site_fract_z
Si Si1 0.119044 0.243443 0.672963
Si Si2 0.353732 0.560974 0.745635
Si Si3 0.831390 0.848668 0.015295
Si Si4 0.379022 0.288838 0.593630
Si Si5 0.901010 0.791328 0.601469
Si Si6 0.979835 0.279607 0.342704
Si Si7 0.237849 0.856493 0.249817
Si Si8 0.037663 0.565056 0.135613
O O1 0.246082 0.364558 0.652145
O O2 0.139614 0.249867 0.506658
O O3 0.049968 0.375275 0.962336
O O4 0.029106 0.008454 0.611267
O O5 0.374383 0.479630 0.744252
O O6 0.481710 0.650953 0.558095
O O7 0.310628 0.732064 0.016745
O O8 0.707624 0.778740 0.220993
O O9 0.919306 0.094767 0.153558
O O10 0.817844 0.810141 0.860913
O O11 0.902797 0.734771 0.827076
O O12 0.323260 0.097429 0.391560
O O13 0.934374 0.619345 0.406795
O O14 0.878623 0.215342 0.545718
O O15 0.000000 0.500000 0.500000
O O16 0.170367 0.768299 0.148114
O O17 0.000000 0.500000 0.000000
#
# Coordination Sequence:
#
# PCOD9072702 Si02
#       8
#     2   2   2   2   2   2   2   2
#     4   9  20  31  51  74  97 131 168 201 250 292
#     4  10  20  34  53  69  98 131 175 205 238 296
#     4  10  21  31  49  74 104 130 162 200 256 299
#     4  10  21  35  48  72  99 135 167 206 245 290
#     4  10  18  33  49  74 105 127 157 209 252 300
#     4  10  20  30  47  74 101 131 158 199 256 303
#     4  10  18  31  50  72  96 127 163 205 245 291
#     4   9  17  29  46  71  98 125 156 197 247 293
#
# _framework density 17.024298000000002
#
# number of rings (size 3 to 8) (size 9 to 14) (size 15 to 20)
#    0.000    2.250    1.250    1.875    7.000    0.000 
#    0.000    0.625    0.000    0.000    0.000    0.000 
#    0.000   26.000    0.000    0.000    0.000    0.000 
#
# Total GULP energy -89087.332213 kJ/mol
# GULP energy per Si atom -5567.958263 kJ/mol
# Density = 1.698555 g / cm^3
# Si number density = 17.024298 Si / 1000 Ang^3
#
#
#
# Elastic Constant Matrix: (Units=GPa)
#
#
# Indices 1 2 3 4 5 6 
#
# 1 37.1649 7.2516 26.6749 0.5874 0.6327 4.7171
# 2 7.2516 39.0809 13.5204 2.0856 -2.0158 3.6282
# 3 26.6749 13.5204 83.3428 5.0228 1.6300 0.7772
# 4 0.5874 2.0856 5.0228 24.2472 -6.0484 -5.8094
# 5 0.6327 -2.0158 1.6300 -6.0484 29.9141 -0.8367
# 6 4.7171 3.6282 0.7772 -5.8094 -0.8367 18.3169
#
#
#
# Elastic Compliance Matrix: (Units=1/GPa)
#
#
# Indices 1 2 3 4 5 6 
#
# 1 0.036489 -0.002082 -0.011207 -0.000647 -0.000677 -0.008745
# 2 -0.002082 0.027984 -0.003695 -0.002570 0.001455 -0.005599
# 3 -0.011207 -0.003695 0.016354 -0.002660 -0.001385 0.002017
# 4 -0.000647 -0.002570 -0.002660 0.048586 0.010276 0.016667
# 5 -0.000677 0.001455 -0.001385 0.010276 0.035830 0.004841
# 6 -0.008745 -0.005599 0.002017 0.016667 0.004841 0.063377
#
#
# Mechanical properties :
#
#
# Convention : Reuss Voigt Hill
#
# Bulk Modulus (GPa) = 21.34057 28.27583 24.80820
# Shear Modulus (GPa) = 17.97217 21.97176 19.97197
#
# Velocity S-wave (km/s) = 3.25264 3.59641 3.42884
# Velocity P-wave (km/s) = 5.16419 5.82157 5.50270
#
# Compressibility (1/GPa) = 0.04685911
#
# Stress axis : x y z
#
# Youngs Moduli (GPa) = 27.40555 35.73413 61.14853
#
# Poissons Ratio (x) = 0.07440 0.68530
# Poissons Ratio (y) = 0.05706 0.22593
# Poissons Ratio (z) = 0.30714 0.13203
#
# Static dielectric constant tensor:
#      x y z
#    x 1.606930 -0.002830 0.016290 
#    y -0.002830 1.570910 0.031400 
#    z 0.016290 0.031400 1.619810 
# 
# From -- ./inp_files/423404.got.cif
#   From: 2010.05.17/outbox.cif.g08.bks.cpg/sg2_212_cif.got.tgz:423404.got - 2010.06.03 11:33:40.
