data_PCOD9072563
_publ_section_title
;
Structure prediction by ZEFSAII (Michael W. Deem and Ramdas Pophale) SiO2 
 PCOD9072563
Probable space group: P -1
;
_chemical_formula_sum "Si O2"
_cell_formula_units_Z 16
_cell_length_a 12.000000
_cell_length_b 9.000000
_cell_length_c 15.000000
_cell_angle_alpha 90.000000
_cell_angle_beta 30.000000
_cell_angle_gamma 100.000000
_cell_volume 759.581896
_symmetry_space_group_name_H-M "P -1"
_symmetry_group_IT_number 2
_symmetry_cell_setting 'triclinic'
loop_
_space_group_symop_operation_xyz
x,y,z
-x,-y,-z
loop_
_atom_site_type_symbol
_atom_site_label
_atom_site_fract_x
_atom_site_fract_y
_atom_site_fract_z
Si Si1 0.256028 0.801432 0.049267
Si Si2 0.799052 0.706704 0.268090
Si Si3 0.055977 0.187397 0.447506
Si Si4 0.456557 0.316849 0.023997
Si Si5 0.832682 0.729279 0.045427
Si Si6 0.508128 0.360975 0.255265
Si Si7 0.490150 0.843777 0.182701
Si Si8 0.314855 0.670198 0.672086
O O1 0.985556 0.782933 0.217480
O O2 0.325716 0.734460 0.091370
O O3 0.336688 0.699287 0.920691
O O4 0.423089 0.981725 0.919881
O O5 0.906870 0.762873 0.097008
O O6 0.550118 0.737912 0.447673
O O7 0.762974 0.518856 0.293889
O O8 0.223261 0.232522 0.244237
O O9 0.237576 0.289675 0.401089
O O10 0.798960 0.209307 0.608889
O O11 0.000000 0.000000 0.500000
O O12 0.500000 0.500000 0.000000
O O13 0.437913 0.268162 0.935677
O O14 0.632204 0.551582 0.176144
O O15 0.679413 0.842061 0.128338
O O16 0.081244 0.723572 0.828036
O O17 0.563835 0.303436 0.313458
#
# Coordination Sequence:
#
# PCOD9072563 Si02
#       8
#     2   2   2   2   2   2   2   2
#     4  11  21  42  66  94 131 170 215 268 334 391
#     4  10  21  38  65  95 122 169 221 266 328 387
#     4  11  24  43  67  98 135 175 223 267 330 400
#     4  11  26  44  68  98 132 176 223 275 321 395
#     4  11  22  41  62  94 133 163 221 273 324 386
#     4  10  19  39  66  88 126 173 216 273 317 383
#     4  12  26  42  67  97 137 179 210 273 340 395
#     4  10  20  37  65  92 122 169 217 274 322 386
#
# _framework density 21.064219999999999
#
# number of rings (size 3 to 8) (size 9 to 14) (size 15 to 20)
#    0.000    1.250    5.000    2.625    1.750    3.500 
#    2.250    0.625    0.000    0.000    0.000    0.000 
#    0.000    0.000    0.000    0.000    0.000    0.000 
#
# Total GULP energy -89159.265375 kJ/mol
# GULP energy per Si atom -5572.454086 kJ/mol
# Density = 2.101628 g / cm^3
# Si number density = 21.064220 Si / 1000 Ang^3
#
#
#
# Elastic Constant Matrix: (Units=GPa)
#
#
# Indices 1 2 3 4 5 6 
#
# 1 75.6930 -2.3689 27.8612 -2.8143 -31.0670 -10.2602
# 2 -2.3689 12.3994 4.3541 -5.9208 -3.8396 -27.5619
# 3 27.8612 4.3541 127.5043 9.8156 -35.7216 -13.3107
# 4 -2.8143 -5.9208 9.8156 23.1279 0.4113 -6.8304
# 5 -31.0670 -3.8396 -35.7216 0.4113 50.3839 7.5461
# 6 -10.2602 -27.5619 -13.3107 -6.8304 7.5461 31.1186
#
#
#
# Elastic Compliance Matrix: (Units=1/GPa)
#
#
# Indices 1 2 3 4 5 6 
#
# 1 0.016155 -0.010123 -0.001064 -0.002387 0.009491 -0.006920
# 2 -0.010123 -0.046359 0.000185 -0.027903 -0.001931 -0.049975
# 3 -0.001064 0.000185 0.010387 -0.004078 0.006488 0.001788
# 4 -0.002387 -0.027903 -0.004078 0.031901 -0.003858 -0.019308
# 5 0.009491 -0.001931 0.006488 -0.003858 0.030802 -0.004122
# 6 -0.006920 -0.049975 0.001788 -0.019308 -0.004122 -0.016884
#
#
# Mechanical properties :
#
#
# Convention : Reuss Voigt Hill
#
# Bulk Modulus (GPa) = -23.91174 30.58772 3.33799
# Shear Modulus (GPa) = 146.77240 33.30944 90.04092
#
# Velocity S-wave (km/s) = 8.35642 3.98091 6.54513
# Velocity P-wave (km/s) = 9.04046 5.97351 7.66201
#
# Compressibility (1/GPa) = -0.04182047
#
# Stress axis : x y z
#
# Youngs Moduli (GPa) = 61.90087 -21.57087 96.27151
#
# Poissons Ratio (x) = -0.21836 0.10243
# Poissons Ratio (y) = 0.62663 -0.01782
# Poissons Ratio (z) = 0.06586 0.00399
#
# Static dielectric constant tensor:
#      x y z
#    x 1.890090 -0.017440 0.033090 
#    y -0.017440 1.724090 -0.036940 
#    z 0.033090 -0.036940 1.781700 
# 
# From -- ./inp_files/515611.got.cif
#   From: 2010.05.17/outbox.ucp.g08.bks.cvg/sg2_258_cif.got.tgz:515611.got - 2010.06.11 11:32:03.
