data_PCOD9072713
_publ_section_title
;
Structure prediction by ZEFSAII (Michael W. Deem and Ramdas Pophale) SiO2 
 PCOD9072713
Probable space group: P -1
;
_chemical_formula_sum "Si O2"
_cell_formula_units_Z 16
_cell_length_a 27.000000
_cell_length_b 27.000000
_cell_length_c 18.000000
_cell_angle_alpha 20.000000
_cell_angle_beta 160.000000
_cell_angle_gamma 170.000000
_cell_volume 756.481449
_symmetry_space_group_name_H-M "P -1"
_symmetry_group_IT_number 2
_symmetry_cell_setting 'triclinic'
loop_
_space_group_symop_operation_xyz
x,y,z
-x,-y,-z
loop_
_atom_site_type_symbol
_atom_site_label
_atom_site_fract_x
_atom_site_fract_y
_atom_site_fract_z
Si Si1 0.190663 0.307897 0.845986
Si Si2 0.182325 0.509617 0.411564
Si Si3 0.200228 0.365940 0.153295
Si Si4 0.134246 0.288380 0.965048
Si Si5 0.235701 0.048350 0.475380
Si Si6 0.509212 0.689273 0.370456
Si Si7 0.645834 0.858318 0.982646
Si Si8 0.950099 0.265968 0.096044
O O1 0.125739 0.373204 0.600534
O O2 0.500000 0.500000 0.000000
O O3 0.159551 0.339994 0.840802
O O4 0.000000 0.000000 0.000000
O O5 0.512953 0.761730 0.498489
O O6 0.993476 0.277011 0.406077
O O7 0.121523 0.627298 0.165233
O O8 0.411544 0.409663 0.393439
O O9 0.091891 0.325847 0.136454
O O10 0.383222 0.651091 0.965632
O O11 0.918702 0.065722 0.131659
O O12 0.088011 0.075463 0.212294
O O13 0.440167 0.585585 0.020612
O O14 0.852914 0.121636 0.842380
O O15 0.375803 0.174160 0.577448
O O16 0.169797 0.425870 0.248923
O O17 0.666583 0.927026 0.196359
#
# Coordination Sequence:
#
# PCOD9072713 Si02
#       8
#     2   2   2   2   2   2   2   2
#     4  12  22  38  65  94 121 163 208 253 305 369
#     4  12  26  43  61  93 131 172 194 251 318 379
#     4  11  22  41  66  91 122 162 216 264 297 357
#     4  11  20  36  63  97 125 147 201 271 308 358
#     4  12  23  39  67  90 132 157 214 250 307 368
#     4  12  24  39  66  91 119 170 215 258 300 351
#     4  10  20  35  64  95 118 154 196 267 323 333
#     4  12  27  43  60  89 134 167 208 250 312 370
#
# _framework density 21.150552000000001
#
# number of rings (size 3 to 8) (size 9 to 14) (size 15 to 20)
#    0.000    0.500    5.000    5.250    0.000    3.000 
#    0.000    0.000    0.000    4.500    0.000    0.000 
#    0.000    0.000    0.000    0.000    0.000    0.000 
#
# Total GULP energy -89185.796596 kJ/mol
# GULP energy per Si atom -5574.112287 kJ/mol
# Density = 2.110241 g / cm^3
# Si number density = 21.150552 Si / 1000 Ang^3
#
#
#
# Elastic Constant Matrix: (Units=GPa)
#
#
# Indices 1 2 3 4 5 6 
#
# 1 104.6589 9.6142 36.8034 9.0003 -22.4361 2.4011
# 2 9.6142 107.9335 -6.8631 -13.6398 3.4158 4.6431
# 3 36.8034 -6.8631 29.3316 1.1680 -6.3749 -0.6728
# 4 9.0003 -13.6398 1.1680 -16.1924 6.9793 -17.8903
# 5 -22.4361 3.4158 -6.3749 6.9793 16.5757 2.7942
# 6 2.4011 4.6431 -0.6728 -17.8903 2.7942 21.5563
#
#
#
# Elastic Compliance Matrix: (Units=1/GPa)
#
#
# Indices 1 2 3 4 5 6 
#
# 1 0.019249 -0.002373 -0.022301 0.010880 0.012529 0.005077
# 2 -0.002373 0.009530 0.005095 -0.003964 -0.000733 -0.004825
# 3 -0.022301 0.005095 0.062982 -0.009036 -0.002566 -0.003814
# 4 0.010880 -0.003964 -0.009036 -0.020107 0.023980 -0.020436
# 5 0.012529 -0.000733 -0.002566 0.023980 0.064635 0.010206
# 6 0.005077 -0.004825 -0.003814 -0.020436 0.010206 0.028461
#
#
# Mechanical properties :
#
#
# Convention : Reuss Voigt Hill
#
# Bulk Modulus (GPa) = 19.01049 35.67033 27.34041
# Shear Modulus (GPa) = 22.57927 17.87922 20.22925
#
# Velocity S-wave (km/s) = 3.27088 2.91061 3.09599
# Velocity P-wave (km/s) = 4.82417 5.31010 5.07295
#
# Compressibility (1/GPa) = 0.05260255
#
# Stress axis : x y z
#
# Youngs Moduli (GPa) = 51.95130 104.93163 15.87767
#
# Poissons Ratio (x) = 0.24896 0.35409
# Poissons Ratio (y) = 0.12326 -0.08089
# Poissons Ratio (z) = 1.15857 -0.53459
#
# Static dielectric constant tensor:
#      x y z
#    x 1.778300 0.018430 -0.020550 
#    y 0.018430 1.788420 -0.008210 
#    z -0.020550 -0.008210 1.722250 
# 
# From -- ./inp_files/465189.got.cif
#   From: 2010.05.17/outbox.ucp.g08.bks.cvg/sg2_233_cif.got.tgz:465189.got - 2010.06.11 11:32:03.
