data_PCOD9072562
_publ_section_title
;
Structure prediction by ZEFSAII (Michael W. Deem and Ramdas Pophale) SiO2 
 PCOD9072562
Probable space group: P -1
;
_chemical_formula_sum "Si O2"
_cell_formula_units_Z 16
_cell_length_a 21.000000
_cell_length_b 9.000000
_cell_length_c 27.000000
_cell_angle_alpha 150.000000
_cell_angle_beta 160.000000
_cell_angle_gamma 30.000000
_cell_volume 830.970076
_symmetry_space_group_name_H-M "P -1"
_symmetry_group_IT_number 2
_symmetry_cell_setting 'triclinic'
loop_
_space_group_symop_operation_xyz
x,y,z
-x,-y,-z
loop_
_atom_site_type_symbol
_atom_site_label
_atom_site_fract_x
_atom_site_fract_y
_atom_site_fract_z
Si Si1 0.261748 0.207422 0.238984
Si Si2 0.937031 0.040299 0.888199
Si Si3 0.941291 0.861208 0.547915
Si Si4 0.316591 0.306074 0.769596
Si Si5 0.033092 0.821546 0.782025
Si Si6 0.704528 0.773229 0.941404
Si Si7 0.338517 0.915599 0.894221
Si Si8 0.710833 0.098297 0.547292
O O1 0.495307 0.053667 0.375214
O O2 0.270511 0.553275 0.330317
O O3 0.147954 0.162460 0.193255
O O4 0.139925 0.081466 0.071575
O O5 0.778961 0.397387 0.875838
O O6 0.977055 0.870279 0.813977
O O7 0.822809 0.860529 0.410122
O O8 0.000000 0.500000 0.500000
O O9 0.141238 0.954883 0.728480
O O10 0.798296 0.025585 0.535128
O O11 0.194879 0.511514 0.786614
O O12 0.368714 0.571152 0.846837
O O13 0.504778 0.020514 0.843437
O O14 0.845404 0.884755 0.626582
O O15 0.126823 0.096918 0.919072
O O16 0.695263 0.844184 0.014506
O O17 0.500000 0.000000 0.000000
#
# Coordination Sequence:
#
# PCOD9072562 Si02
#       8
#     2   2   2   2   2   2   2   2
#     4  10  25  43  66  97 123 171 217 274 322 389
#     4  11  24  44  68  96 129 164 228 275 313 384
#     4  10  19  39  65  93 124 168 212 261 309 393
#     4  10  23  42  66  96 131 176 215 253 331 397
#     4  11  21  41  66  95 132 169 208 269 324 387
#     4  11  22  43  63  99 130 173 215 262 328 394
#     4  10  20  39  66  97 132 166 213 274 320 370
#     4  11  21  42  69  90 131 168 213 262 339 387
#
# _framework density 19.254604
#
# number of rings (size 3 to 8) (size 9 to 14) (size 15 to 20)
#    0.000    1.500    5.000    1.875    1.750    3.500 
#   11.250    0.625    0.000    0.000    0.000    0.000 
#    0.000    0.000    0.000    0.000    0.000    0.000 
#
# Total GULP energy -89084.801037 kJ/mol
# GULP energy per Si atom -5567.800065 kJ/mol
# Density = 1.921078 g / cm^3
# Si number density = 19.254604 Si / 1000 Ang^3
#
#
#
# Elastic Constant Matrix: (Units=GPa)
#
#
# Indices 1 2 3 4 5 6 
#
# 1 137.2074 11.0036 52.7851 -4.2808 -4.2469 -11.1287
# 2 11.0036 64.2105 31.9057 -24.3381 -8.7428 -1.1066
# 3 52.7851 31.9057 158.1408 -25.9886 -0.2559 -7.0995
# 4 -4.2808 -24.3381 -25.9886 33.1029 0.0602 -2.2100
# 5 -4.2469 -8.7428 -0.2559 0.0602 44.9297 1.7352
# 6 -11.1287 -1.1066 -7.0995 -2.2100 1.7352 24.1172
#
#
#
# Elastic Compliance Matrix: (Units=1/GPa)
#
#
# Indices 1 2 3 4 5 6 
#
# 1 0.008647 -0.000382 -0.002876 -0.001223 0.000614 0.002970
# 2 -0.000382 0.023088 -0.001910 0.015513 0.004370 0.001428
# 3 -0.002876 -0.001910 0.008573 0.005063 -0.000664 0.001621
# 4 -0.001223 0.015513 0.005063 0.045804 0.002653 0.005644
# 5 0.000614 0.004370 -0.000664 0.002653 0.023202 -0.001138
# 6 0.002970 0.001428 0.001621 0.005644 -0.001138 0.043976
#
#
# Mechanical properties :
#
#
# Convention : Reuss Voigt Hill
#
# Bulk Modulus (GPa) = 33.36427 61.21640 47.29033
# Shear Modulus (GPa) = 28.79932 38.02093 33.41013
#
# Velocity S-wave (km/s) = 3.87164 4.44851 4.17006
# Velocity P-wave (km/s) = 6.11160 7.63203 6.91374
#
# Compressibility (1/GPa) = 0.02997219
#
# Stress axis : x y z
#
# Youngs Moduli (GPa) = 115.64779 43.31252 116.65124
#
# Poissons Ratio (x) = 0.01653 0.33548
# Poissons Ratio (y) = 0.04414 0.22282
# Poissons Ratio (z) = 0.33259 0.08273
#
# Static dielectric constant tensor:
#      x y z
#    x 1.640510 0.021610 0.013310 
#    y 0.021610 1.722710 -0.052150 
#    z 0.013310 -0.052150 1.682210 
# 
# From -- ./inp_files/620675.got.cif
#   From: 2010.05.17/outbox.ucp.g08.bks.cvg/sg2_311_cif.got.tgz:620675.got - 2010.06.11 11:32:03.
