data_PCOD9072733
_publ_section_title
;
Structure prediction by ZEFSAII (Michael W. Deem and Ramdas Pophale) SiO2 
 PCOD9072733
Probable space group: P -1
;
_chemical_formula_sum "Si O2"
_cell_formula_units_Z 16
_cell_length_a 15.000000
_cell_length_b 21.000000
_cell_length_c 9.000000
_cell_angle_alpha 80.000000
_cell_angle_beta 90.000000
_cell_angle_gamma 160.000000
_cell_volume 835.359047
_symmetry_space_group_name_H-M "P -1"
_symmetry_group_IT_number 2
_symmetry_cell_setting 'triclinic'
loop_
_space_group_symop_operation_xyz
x,y,z
-x,-y,-z
loop_
_atom_site_type_symbol
_atom_site_label
_atom_site_fract_x
_atom_site_fract_y
_atom_site_fract_z
Si Si1 0.384336 0.042178 0.727093
Si Si2 0.460648 0.497527 0.251844
Si Si3 0.400067 0.664172 0.415927
Si Si4 0.268031 0.429536 0.967115
Si Si5 0.418805 0.228551 0.276293
Si Si6 0.281953 0.850360 0.413773
Si Si7 0.876817 0.892622 0.204741
Si Si8 0.819910 0.075139 0.565787
O O1 0.546512 0.223791 0.677695
O O2 0.568573 0.102081 0.709987
O O3 0.293056 0.987460 0.576031
O O4 0.085106 0.828875 0.912451
O O5 0.393533 0.492630 0.102520
O O6 0.718030 0.713801 0.250818
O O7 0.165024 0.294200 0.438769
O O8 0.572048 0.505016 0.185274
O O9 0.485391 0.710438 0.572910
O O10 0.631067 0.776248 0.290769
O O11 0.063338 0.411971 0.471417
O O12 0.339553 0.554560 0.883913
O O13 0.356268 0.108651 0.292565
O O14 0.117244 0.052497 0.274975
O O15 0.239646 0.898235 0.358417
O O16 0.500000 0.000000 0.500000
O O17 0.000000 0.000000 0.000000
#
# Coordination Sequence:
#
# PCOD9072733 Si02
#       8
#     2   2   2   2   2   2   2   2
#     4   9  20  38  64  87 120 166 212 251 309 370
#     4  10  20  36  59  84 127 163 210 250 305 376
#     4  11  23  40  63  97 125 161 213 263 310 368
#     4  10  21  38  59  89 126 168 202 253 312 373
#     4  11  25  38  61  93 136 165 202 260 319 370
#     4  10  20  40  67  90 119 163 216 264 302 365
#     4  12  23  37  61  94 130 169 205 248 315 384
#     4   9  20  37  58  93 121 159 210 262 305 365
#
# _framework density 19.153441000000001
#
# number of rings (size 3 to 8) (size 9 to 14) (size 15 to 20)
#    0.000    1.750    2.500    1.500    7.000    1.500 
#    0.000    1.250    0.000    1.500    0.000    0.000 
#    0.000    0.000    0.000    0.000    0.000    0.000 
#
# Total GULP energy -89097.626926 kJ/mol
# GULP energy per Si atom -5568.601683 kJ/mol
# Density = 1.910985 g / cm^3
# Si number density = 19.153441 Si / 1000 Ang^3
#
#
#
# Elastic Constant Matrix: (Units=GPa)
#
#
# Indices 1 2 3 4 5 6 
#
# 1 152.9741 35.7602 50.4272 -26.9619 3.0599 -15.6373
# 2 35.7602 117.4678 26.6420 -17.9075 -1.3448 -7.4718
# 3 50.4272 26.6420 60.9070 -15.0368 10.7003 -1.9047
# 4 -26.9619 -17.9075 -15.0368 27.8244 -7.3280 5.8571
# 5 3.0599 -1.3448 10.7003 -7.3280 33.4231 -12.6546
# 6 -15.6373 -7.4718 -1.9047 5.8571 -12.6546 38.7313
#
#
#
# Elastic Compliance Matrix: (Units=1/GPa)
#
#
# Indices 1 2 3 4 5 6 
#
# 1 0.010620 -0.000173 -0.007848 0.006211 0.004569 0.004422
# 2 -0.000173 0.010338 -0.003706 0.004959 0.003516 0.002141
# 3 -0.007848 -0.003706 0.026851 0.003285 -0.009660 -0.006216
# 4 0.006211 0.004959 0.003285 0.049508 0.009097 -0.000889
# 5 0.004569 0.003516 -0.009660 0.009097 0.039923 0.013716
# 6 0.004422 0.002141 -0.006216 -0.000889 0.013716 0.032328
#
#
# Mechanical properties :
#
#
# Convention : Reuss Voigt Hill
#
# Bulk Modulus (GPa) = 41.05741 61.88974 51.47358
# Shear Modulus (GPa) = 24.85831 34.56372 29.71102
#
# Velocity S-wave (km/s) = 3.60648 4.25263 3.94281
# Velocity P-wave (km/s) = 6.23096 7.51638 6.90365
#
# Compressibility (1/GPa) = 0.02435614
#
# Stress axis : x y z
#
# Youngs Moduli (GPa) = 94.16358 96.72619 37.24242
#
# Poissons Ratio (x) = 0.01669 0.29229
# Poissons Ratio (y) = 0.01625 0.13802
# Poissons Ratio (z) = 0.73901 0.35845
#
# Static dielectric constant tensor:
#      x y z
#    x 1.682510 -0.013220 -0.003120 
#    y -0.013220 1.705010 -0.004730 
#    z -0.003120 -0.004730 1.662920 
# 
# From -- ./inp_files/319352.got.cif
#   From: 2010.05.17/outbox.ucp.g08.bks.cvg/sg2_160_cif.got.tgz:319352.got - 2010.06.11 11:32:03.
