data_PCOD9072574
_publ_section_title
;
Structure prediction by ZEFSAII (Michael W. Deem and Ramdas Pophale) SiO2 
 PCOD9072574
Probable space group: P -1
;
_chemical_formula_sum "Si O2"
_cell_formula_units_Z 16
_cell_length_a 17.615697
_cell_length_b 20.778118
_cell_length_c 9.376234
_cell_angle_alpha 145.787127
_cell_angle_beta 131.147293
_cell_angle_gamma 22.064640
_cell_volume 622.151255
_symmetry_space_group_name_H-M "P -1"
_symmetry_group_IT_number 2
_symmetry_cell_setting 'triclinic'
loop_
_space_group_symop_operation_xyz
x,y,z
-x,-y,-z
loop_
_atom_site_type_symbol
_atom_site_label
_atom_site_fract_x
_atom_site_fract_y
_atom_site_fract_z
Si Si1 0.233987 0.762431 0.706989
Si Si2 0.380201 0.229081 0.692367
Si Si3 0.021126 0.636214 0.792472
Si Si4 0.285451 0.963182 0.081810
Si Si5 0.007541 0.105743 0.611564
Si Si6 0.971446 0.658474 0.201060
Si Si7 0.366529 0.919229 0.661148
Si Si8 0.718384 0.488866 0.517270
O O1 0.500000 0.500000 0.500000
O O2 0.229417 0.700046 0.737745
O O3 0.113621 0.801440 0.516331
O O4 0.165148 0.965428 0.974376
O O5 0.254496 0.331003 0.572485
O O6 0.569260 0.134522 0.785873
O O7 0.500000 0.000000 0.500000
O O8 0.152238 0.490558 0.986323
O O9 0.909981 0.755291 0.717168
O O10 0.090820 0.693657 0.038656
O O11 0.792535 0.844154 0.990445
O O12 0.487942 0.740744 0.800475
O O13 0.258876 0.901212 0.507204
O O14 0.000000 0.000000 0.500000
O O15 0.072791 0.644807 0.413551
O O16 0.716161 0.945881 0.344413
O O17 0.000000 0.500000 0.000000
O O18 0.625198 0.634635 0.519403
#
# Coordination Sequence:
#
# PCOD9072574 Si02
#       8
#     2   2   2   2   2   2   2   2
#     4  10  14  21  38  64  94 122 145 180 237 292
#     4  10  20  33  46  64  92 126 159 195 227 267
#     4   8  15  26  40  61  90 120 148 181 225 274
#     4   9  16  26  41  64  91 122 150 182 232 283
#     4  10  13  22  39  65  97 123 141 179 240 291
#     4  10  19  32  48  66  91 125 159 193 229 273
#     4   8  16  26  39  62  93 119 146 183 231 274
#     4   9  15  27  41  64  95 118 145 187 235 280
#
# _framework density 25.717219
#
# number of rings (size 3 to 8) (size 9 to 14) (size 15 to 20)
#    0.750    2.000    2.500    2.250    0.000    1.000 
#    0.000    0.000    0.000    0.000    0.000    0.875 
#    0.000    5.250    0.000    0.000    0.000    0.000 
#
# Total GULP energy -89259.976964 kJ/mol
# GULP energy per Si atom -5578.748560 kJ/mol
# Density = 2.565869 g / cm^3
# Si number density = 25.717219 Si / 1000 Ang^3
#
#
#
# Elastic Constant Matrix: (Units=GPa)
#
#
# Indices 1 2 3 4 5 6 
#
# 1 95.9881 43.9355 27.3303 3.2893 15.3867 9.5673
# 2 43.9355 171.2490 34.5991 18.5816 12.1035 32.0695
# 3 27.3303 34.5991 69.4884 -8.1009 25.6659 12.6791
# 4 3.2893 18.5816 -8.1009 35.0197 5.4124 12.1349
# 5 15.3867 12.1035 25.6659 5.4124 52.5818 10.8830
# 6 9.5673 32.0695 12.6791 12.1349 10.8830 54.6462
#
#
#
# Elastic Compliance Matrix: (Units=1/GPa)
#
#
# Indices 1 2 3 4 5 6 
#
# 1 0.012739 -0.002509 -0.003330 -0.000549 -0.001561 0.000448
# 2 -0.002509 0.008084 -0.003609 -0.004148 0.001657 -0.002876
# 3 -0.003330 -0.003609 0.022789 0.010000 -0.009755 -0.002864
# 4 -0.000549 -0.004148 0.010000 0.036372 -0.006134 -0.006645
# 5 -0.001561 0.001657 -0.009755 -0.006134 0.024907 -0.002034
# 6 0.000448 -0.002876 -0.002864 -0.006645 -0.002034 0.022454
#
#
# Mechanical properties :
#
#
# Convention : Reuss Voigt Hill
#
# Bulk Modulus (GPa) = 40.46157 60.93947 50.70052
# Shear Modulus (GPa) = 32.36642 43.84026 38.10334
#
# Velocity S-wave (km/s) = 3.55145 4.13329 3.85337
# Velocity P-wave (km/s) = 5.70829 6.82101 6.28930
#
# Compressibility (1/GPa) = 0.02471481
#
# Stress axis : x y z
#
# Youngs Moduli (GPa) = 78.49815 123.70023 43.88078
#
# Poissons Ratio (x) = 0.31042 0.14613
# Poissons Ratio (y) = 0.19699 0.15837
# Poissons Ratio (z) = 0.26141 0.44644
#
# Static dielectric constant tensor:
#      x y z
#    x 2.228980 0.045640 0.213380 
#    y 0.045640 2.054580 0.001380 
#    z 0.213380 0.001380 2.351630 
# 
# From -- ./inp_files/472900.got.cif
#   From: 2010.05.17/outbox.cif.g08.bks.cpg/sg2_237_cif.got.tgz:472900.got - 2010.06.03 11:33:40.
