data_PCOD9072854
_publ_section_title
;
Structure prediction by ZEFSAII (Michael W. Deem and Ramdas Pophale) SiO2 
 PCOD9072854
Probable space group: P -1
;
_chemical_formula_sum "Si O2"
_cell_formula_units_Z 16
_cell_length_a 14.952002
_cell_length_b 9.305425
_cell_length_c 12.794886
_cell_angle_alpha 135.583125
_cell_angle_beta 59.858178
_cell_angle_gamma 86.047315
_cell_volume 762.541565
_symmetry_space_group_name_H-M "P -1"
_symmetry_group_IT_number 2
_symmetry_cell_setting 'triclinic'
loop_
_space_group_symop_operation_xyz
x,y,z
-x,-y,-z
loop_
_atom_site_type_symbol
_atom_site_label
_atom_site_fract_x
_atom_site_fract_y
_atom_site_fract_z
Si Si1 0.186195 0.006570 0.731423
Si Si2 0.931424 0.657998 0.310788
Si Si3 0.333713 0.862446 0.882646
Si Si4 0.550346 0.172175 0.422801
Si Si5 0.279119 0.301715 0.655834
Si Si6 0.960552 0.144515 0.774151
Si Si7 0.882527 0.773589 0.637092
Si Si8 0.167991 0.786310 0.815362
O O1 0.325827 0.963692 0.632166
O O2 0.241217 0.755981 0.650229
O O3 0.100916 0.999775 0.689539
O O4 0.055940 0.326130 0.024957
O O5 0.792473 0.813713 0.395984
O O6 0.998768 0.789099 0.320034
O O7 0.890955 0.680400 0.465736
O O8 0.447759 0.519590 0.661108
O O9 0.385302 0.923470 0.783948
O O10 0.193390 0.936949 0.958368
O O11 0.273479 0.041590 0.117787
O O12 0.448216 0.119006 0.475992
O O13 0.237748 0.493796 0.676178
O O14 0.177740 0.545795 0.930991
O O15 0.921569 0.961025 0.700129
O O16 0.000000 0.500000 0.500000
O O17 0.000000 0.000000 0.000000
#
# Coordination Sequence:
#
# PCOD9072854 Si02
#       8
#     2   2   2   2   2   2   2   2
#     4  10  19  33  63  87 114 146 201 236 286 339
#     4  11  24  37  58  89 121 154 189 241 294 343
#     4   9  18  32  51  87 119 146 182 243 301 328
#     4   9  17  33  60  90 117 147 190 244 284 343
#     4  10  19  34  61  87 120 151 191 240 296 329
#     4  11  22  40  57  86 122 152 194 242 289 340
#     4  12  23  38  63  87 114 152 199 241 291 345
#     4  10  13  25  53  84 107 135 185 245 269 317
#
# _framework density 20.982462999999999
#
# number of rings (size 3 to 8) (size 9 to 14) (size 15 to 20)
#    0.000    1.750    5.000    4.125    1.750    0.000 
#    0.000    3.125    2.750    0.750    0.000    0.000 
#    0.000    0.000    0.000    0.000    0.000    0.000 
#
# Total GULP energy -89161.576671 kJ/mol
# GULP energy per Si atom -5572.598542 kJ/mol
# Density = 2.093471 g / cm^3
# Si number density = 20.982463 Si / 1000 Ang^3
#
#
#
# Elastic Constant Matrix: (Units=GPa)
#
#
# Indices 1 2 3 4 5 6 
#
# 1 96.9827 -5.3518 32.8800 -9.0374 -25.1243 0.1272
# 2 -5.3518 47.0888 10.1659 -8.1485 3.3566 8.0916
# 3 32.8800 10.1659 74.1639 -18.3608 -6.4616 -4.7155
# 4 -9.0374 -8.1485 -18.3608 26.3594 2.8454 -2.9584
# 5 -25.1243 3.3566 -6.4616 2.8454 35.4511 -5.1955
# 6 0.1272 8.0916 -4.7155 -2.9584 -5.1955 39.4243
#
#
#
# Elastic Compliance Matrix: (Units=1/GPa)
#
#
# Indices 1 2 3 4 5 6 
#
# 1 0.014920 0.002454 -0.005971 0.000722 0.009195 0.000000
# 2 0.002454 0.024343 -0.003613 0.005515 -0.002450 -0.005345
# 3 -0.005971 -0.003613 0.019520 0.010932 -0.000648 0.003831
# 4 0.000722 0.005515 0.010932 0.048054 -0.001347 0.003602
# 5 0.009195 -0.002450 -0.000648 -0.001347 0.035679 0.004996
# 6 0.000000 -0.005345 0.003831 0.003602 0.004996 0.027849
#
#
# Mechanical properties :
#
#
# Convention : Reuss Voigt Hill
#
# Bulk Modulus (GPa) = 22.46010 32.62483 27.54246
# Shear Modulus (GPa) = 25.06689 32.28304 28.67497
#
# Velocity S-wave (km/s) = 3.46013 3.92672 3.70079
# Velocity P-wave (km/s) = 5.16632 6.01176 5.60500
#
# Compressibility (1/GPa) = 0.04452341
#
# Stress axis : x y z
#
# Youngs Moduli (GPa) = 67.02196 41.07978 51.22985
#
# Poissons Ratio (x) = -0.10083 0.30591
# Poissons Ratio (y) = -0.16450 0.18509
# Poissons Ratio (z) = 0.40021 0.14842
#
# Static dielectric constant tensor:
#      x y z
#    x 1.827390 0.025110 -0.023820 
#    y 0.025110 1.877910 -0.058440 
#    z -0.023820 -0.058440 1.768580 
# 
# From -- ./inp_files/531302.got.cif
#   From: 2010.05.17/outbox.cif.g08.bks.cpg/sg2_266_cif.got.tgz:531302.got - 2010.06.03 11:33:40.
