data_PCOD9072189
_publ_section_title
;
Structure prediction by ZEFSAII (Michael W. Deem and Ramdas Pophale) SiO2 
 PCOD9072189
Probable space group: P -1
;
_chemical_formula_sum "Si O2"
_cell_formula_units_Z 16
_cell_length_a 8.210108
_cell_length_b 9.479411
_cell_length_c 14.055471
_cell_angle_alpha 76.781260
_cell_angle_beta 49.309574
_cell_angle_gamma 83.157399
_cell_volume 806.797213
_symmetry_space_group_name_H-M "P -1"
_symmetry_group_IT_number 2
_symmetry_cell_setting 'triclinic'
loop_
_space_group_symop_operation_xyz
x,y,z
-x,-y,-z
loop_
_atom_site_type_symbol
_atom_site_label
_atom_site_fract_x
_atom_site_fract_y
_atom_site_fract_z
Si Si1 0.103601 0.774338 0.777373
Si Si2 0.277854 0.330085 0.676935
Si Si3 0.776656 0.005655 0.796567
Si Si4 0.299725 0.936609 0.966680
Si Si5 0.152405 0.869838 0.438563
Si Si6 0.222795 0.610065 0.570091
Si Si7 0.416129 0.027757 0.633667
Si Si8 0.081519 0.238760 0.955442
O O1 0.203650 0.674888 0.674324
O O2 0.288705 0.881711 0.734712
O O3 0.951814 0.884624 0.762259
O O4 0.971099 0.704678 0.927224
O O5 0.162128 0.441414 0.634753
O O6 0.531577 0.374259 0.563510
O O7 0.200516 0.335749 0.814821
O O8 0.259953 0.162613 0.677152
O O9 0.553363 0.929903 0.856200
O O10 0.837354 0.129539 0.678739
O O11 0.735083 0.069311 0.906034
O O12 0.220764 0.094811 0.939412
O O13 0.143049 0.817455 0.996881
O O14 0.095399 0.715934 0.533279
O O15 0.382010 0.923427 0.386852
O O16 0.000000 0.000000 0.500000
O O17 0.500000 0.000000 0.500000
#
# Coordination Sequence:
#
# PCOD9072189 Si02
#       8
#     2   2   2   2   2   2   2   2
#     4  11  20  35  57  89 110 141 191 234 270 334
#     4  10  20  35  56  81 115 149 178 237 277 329
#     4  10  18  30  52  82 112 142 181 230 282 319
#     4   9  18  32  52  82 113 140 181 237 272 331
#     4  11  19  32  54  83 108 146 180 230 270 331
#     4  10  21  36  54  84 116 145 188 224 283 331
#     4  11  19  34  58  85 108 142 188 233 274 320
#     4  10  19  33  56  82 111 143 188 231 280 319
#
# _framework density 19.831502
#
# number of rings (size 3 to 8) (size 9 to 14) (size 15 to 20)
#    0.000    1.750    3.750    4.500    0.000    0.500 
#    0.000    0.000    0.000    7.500    6.500    0.000 
#    0.000    0.000    0.000    0.000    0.000    0.000 
#
# Total GULP energy -89226.630604 kJ/mol
# GULP energy per Si atom -5576.664413 kJ/mol
# Density = 1.978636 g / cm^3
# Si number density = 19.831502 Si / 1000 Ang^3
#
#
#
# Elastic Constant Matrix: (Units=GPa)
#
#
# Indices 1 2 3 4 5 6 
#
# 1 71.7720 11.8343 18.9591 -1.7658 8.9302 -11.5599
# 2 11.8343 52.8890 34.3944 -9.1713 12.6909 -15.6160
# 3 18.9591 34.3944 147.3598 -2.9703 34.3426 -10.8763
# 4 -1.7658 -9.1713 -2.9703 12.4451 -8.2690 7.0961
# 5 8.9302 12.6909 34.3426 -8.2690 38.3518 -3.5075
# 6 -11.5599 -15.6160 -10.8763 7.0961 -3.5075 21.8395
#
#
#
# Elastic Compliance Matrix: (Units=1/GPa)
#
#
# Indices 1 2 3 4 5 6 
#
# 1 0.015923 -0.000760 -0.000532 -0.005802 -0.003412 0.008957
# 2 -0.000760 0.028653 -0.005107 0.011276 -0.001047 0.013711
# 3 -0.000532 -0.005107 0.010138 -0.008801 -0.008929 0.002541
# 4 -0.005802 0.011276 -0.008801 0.125412 0.029300 -0.035435
# 5 -0.003412 -0.001047 -0.008929 0.029300 0.040614 -0.009999
# 6 0.008957 0.013711 0.002541 -0.035435 -0.009999 0.071507
#
#
# Mechanical properties :
#
#
# Convention : Reuss Voigt Hill
#
# Bulk Modulus (GPa) = 23.85668 44.71070 34.28369
# Shear Modulus (GPa) = 15.67319 28.31615 21.99467
#
# Velocity S-wave (km/s) = 2.81431 3.78277 3.33389
# Velocity P-wave (km/s) = 4.75566 6.45549 5.66964
#
# Compressibility (1/GPa) = 0.04191698
#
# Stress axis : x y z
#
# Youngs Moduli (GPa) = 62.80113 34.90000 98.64161
#
# Poissons Ratio (x) = 0.02651 0.05249
# Poissons Ratio (y) = 0.04770 0.50375
# Poissons Ratio (z) = 0.03342 0.17823
#
# Static dielectric constant tensor:
#      x y z
#    x 1.706920 -0.024180 0.005600 
#    y -0.024180 1.712520 0.005880 
#    z 0.005600 0.005880 1.773030 
# 
# From -- ./inp_files/269587.got.cif
#   From: 2010.05.17/outbox.cif.g08.bks.cpg/sg2_135_cif.got.tgz:269587.got - 2010.06.03 11:33:40.
