data_PCOD9072551
_publ_section_title
;
Structure prediction by ZEFSAII (Michael W. Deem and Ramdas Pophale) SiO2 
 PCOD9072551
Probable space group: P -1
;
_chemical_formula_sum "Si O2"
_cell_formula_units_Z 16
_cell_length_a 15.000000
_cell_length_b 9.000000
_cell_length_c 12.000000
_cell_angle_alpha 90.000000
_cell_angle_beta 30.000000
_cell_angle_gamma 80.000000
_cell_volume 759.581896
_symmetry_space_group_name_H-M "P -1"
_symmetry_group_IT_number 2
_symmetry_cell_setting 'triclinic'
loop_
_space_group_symop_operation_xyz
x,y,z
-x,-y,-z
loop_
_atom_site_type_symbol
_atom_site_label
_atom_site_fract_x
_atom_site_fract_y
_atom_site_fract_z
Si Si1 0.643320 0.100431 0.493207
Si Si2 0.954970 0.344913 0.677526
Si Si3 0.718198 0.793782 0.275246
Si Si4 0.084371 0.707865 0.735675
Si Si5 0.116957 0.283771 0.267955
Si Si6 0.453582 0.898278 0.150602
Si Si7 0.581483 0.334443 0.980772
Si Si8 0.732868 0.660497 0.502832
O O1 0.438482 0.190500 0.653192
O O2 0.779857 0.202562 0.363797
O O3 0.630921 0.038185 0.634739
O O4 0.723548 0.961653 0.315001
O O5 0.942528 0.526876 0.678414
O O6 0.053970 0.251497 0.459228
O O7 0.086943 0.296248 0.644146
O O8 0.744516 0.339271 0.890760
O O9 0.676060 0.723639 0.438610
O O10 0.922917 0.705874 0.998871
O O11 0.208989 0.528442 0.572259
O O12 0.972664 0.776553 0.740281
O O13 0.342314 0.218009 0.028384
O O14 0.352076 0.795725 0.190437
O O15 0.500000 0.000000 0.000000
O O16 0.423529 0.298319 0.228534
O O17 0.500000 0.500000 0.000000
#
# Coordination Sequence:
#
# PCOD9072551 Si02
#       8
#     2   2   2   2   2   2   2   2
#     4  11  25  44  66  87 124 175 209 249 315 375
#     4  10  20  37  63  93 127 160 200 250 311 373
#     4  11  25  46  63  87 128 166 212 265 305 356
#     4  11  23  42  68  92 120 164 215 254 313 367
#     4  10  19  39  62  91 128 160 198 256 313 366
#     4  12  23  40  64  95 132 163 202 259 313 372
#     4  12  21  39  67  94 129 168 201 247 319 381
#     4  11  24  39  65  99 126 158 208 265 305 364
#
# _framework density 21.064219999999999
#
# number of rings (size 3 to 8) (size 9 to 14) (size 15 to 20)
#    0.000    1.000    3.750    4.500    0.000    1.500 
#    2.250    1.250    0.000    0.000    0.000    0.000 
#    0.000    0.000    0.000    0.000    0.000    0.000 
#
# Total GULP energy -89203.512921 kJ/mol
# GULP energy per Si atom -5575.219558 kJ/mol
# Density = 2.101628 g / cm^3
# Si number density = 21.064220 Si / 1000 Ang^3
#
#
#
# Elastic Constant Matrix: (Units=GPa)
#
#
# Indices 1 2 3 4 5 6 
#
# 1 177.6568 30.8485 25.5451 -19.8604 -2.4319 13.3008
# 2 30.8485 34.3707 0.4555 -10.4019 -5.7185 3.1067
# 3 25.5451 0.4555 73.5565 -4.5968 6.7806 4.3307
# 4 -19.8604 -10.4019 -4.5968 24.1630 2.5843 -0.2833
# 5 -2.4319 -5.7185 6.7806 2.5843 42.5308 -12.6959
# 6 13.3008 3.1067 4.3307 -0.2833 -12.6959 39.7070
#
#
#
# Elastic Compliance Matrix: (Units=1/GPa)
#
#
# Indices 1 2 3 4 5 6 
#
# 1 0.007420 -0.005563 -0.002138 0.003359 -0.000798 -0.002048
# 2 -0.005563 0.038295 0.002098 0.011910 0.003749 -0.000078
# 3 -0.002138 0.002098 0.014854 0.002263 -0.002941 -0.001992
# 4 0.003359 0.011910 0.002263 0.049930 -0.002413 -0.002719
# 5 -0.000798 0.003749 -0.002941 -0.002413 0.027272 0.008998
# 6 -0.002048 -0.000078 -0.001992 -0.002719 0.008998 0.028951
#
#
# Mechanical properties :
#
#
# Convention : Reuss Voigt Hill
#
# Bulk Modulus (GPa) = 20.25804 44.36471 32.31137
# Shear Modulus (GPa) = 25.72238 36.52914 31.12576
#
# Velocity S-wave (km/s) = 3.49827 4.16887 3.84820
# Velocity P-wave (km/s) = 5.09464 6.65432 5.92602
#
# Compressibility (1/GPa) = 0.04936313
#
# Stress axis : x y z
#
# Youngs Moduli (GPa) = 134.76904 26.11330 67.32030
#
# Poissons Ratio (x) = 0.14526 0.14396
# Poissons Ratio (y) = 0.74966 -0.14123
# Poissons Ratio (z) = 0.28819 -0.05478
#
# Static dielectric constant tensor:
#      x y z
#    x 1.723930 -0.018440 -0.019530 
#    y -0.018440 1.809330 0.027280 
#    z -0.019530 0.027280 1.815720 
# 
# From -- ./inp_files/307508.got.cif
#   From: 2010.05.17/outbox.ucp.g08.bks.cvg/sg2_154_cif.got.tgz:307508.got - 2010.06.11 11:32:03.
