data_PCOD9072572
_publ_section_title
;
Structure prediction by ZEFSAII (Michael W. Deem and Ramdas Pophale) SiO2 
 PCOD9072572
Probable space group: P -1
;
_chemical_formula_sum "Si O2"
_cell_formula_units_Z 14
_cell_length_a 9.000000
_cell_length_b 21.000000
_cell_length_c 9.000000
_cell_angle_alpha 140.000000
_cell_angle_beta 50.000000
_cell_angle_gamma 140.000000
_cell_volume 696.335505
_symmetry_space_group_name_H-M "P -1"
_symmetry_group_IT_number 2
_symmetry_cell_setting 'triclinic'
loop_
_space_group_symop_operation_xyz
x,y,z
-x,-y,-z
loop_
_atom_site_type_symbol
_atom_site_label
_atom_site_fract_x
_atom_site_fract_y
_atom_site_fract_z
Si Si1 0.201175 0.107281 0.462817
Si Si2 0.329420 0.130240 0.936333
Si Si3 0.444604 0.712993 0.200153
Si Si4 0.795619 0.042106 0.048487
Si Si5 0.572227 0.532880 0.685633
Si Si6 0.962942 0.296228 0.443766
Si Si7 0.255533 0.273578 0.473848
O O1 0.382347 0.206889 0.636990
O O2 0.140996 0.178889 0.512217
O O3 0.000000 0.000000 0.500000
O O4 0.298839 0.046254 0.187592
O O5 0.501759 0.197086 0.810009
O O6 0.323701 0.026110 0.843016
O O7 0.373029 0.225170 0.204317
O O8 0.066730 0.080539 0.957779
O O9 0.186400 0.654587 0.319768
O O10 0.489154 0.615339 0.942540
O O11 0.807523 0.162473 0.241156
O O12 0.500000 0.500000 0.500000
O O13 0.451013 0.409876 0.633434
O O14 0.849691 0.618450 0.646175
O O15 0.079578 0.280746 0.489000
#
# Coordination Sequence:
#
# PCOD9072572 Si02
#       7
#     2   2   2   2   2   2   2
#     4  11  21  36  60  87 119 152 187 235 294 342
#     4   9  16  33  57  80 108 154 193 224 277 339
#     4  12  22  34  61  92 113 146 198 241 277 337
#     4   9  17  35  55  75 119 157 179 228 289 334
#     4  10  19  40  61  81 116 154 189 239 284 332
#     4  10  21  36  62  89 112 148 202 232 275 342
#     4   9  20  39  61  79 115 160 185 231 294 336
#
# _framework density 20.105250999999999
#
# number of rings (size 3 to 8) (size 9 to 14) (size 15 to 20)
#    0.000    2.000    5.714    0.857    0.000    4.000 
#    0.000    0.714    3.143    0.000    0.000    0.000 
#    0.000    0.000    0.000    0.000    0.000    0.000 
#
# Total GULP energy -78037.276070 kJ/mol
# GULP energy per Si atom -5574.091148 kJ/mol
# Density = 2.005949 g / cm^3
# Si number density = 20.105251 Si / 1000 Ang^3
#
#
#
# Elastic Constant Matrix: (Units=GPa)
#
#
# Indices 1 2 3 4 5 6 
#
# 1 27.5326 28.9299 22.9698 -2.3420 7.0211 -2.6648
# 2 28.9299 104.6024 49.3075 19.0002 -18.7172 -19.7196
# 3 22.9698 49.3075 110.2093 3.9106 5.8556 11.9016
# 4 -2.3420 19.0002 3.9106 22.8512 9.8662 5.2388
# 5 7.0211 -18.7172 5.8556 9.8662 18.1407 -11.6212
# 6 -2.6648 -19.7196 11.9016 5.2388 -11.6212 15.4108
#
#
#
# Elastic Compliance Matrix: (Units=1/GPa)
#
#
# Indices 1 2 3 4 5 6 
#
# 1 0.046372 0.001467 -0.013732 -0.004523 0.008854 0.028715
# 2 0.001467 0.000569 0.001684 0.010125 -0.016330 -0.016076
# 3 -0.013732 0.001684 0.010998 -0.008353 0.008285 0.000375
# 4 -0.004523 0.010125 -0.008353 0.021197 0.020662 0.027000
# 5 0.008854 -0.016330 0.008285 0.020662 -0.000129 -0.032884
# 6 0.028715 -0.016076 0.000375 0.027000 -0.032884 0.015019
#
#
# Mechanical properties :
#
#
# Convention : Reuss Voigt Hill
#
# Bulk Modulus (GPa) = 27.19093 49.41765 38.30429
# Shear Modulus (GPa) = 39.23190 20.68967 29.96079
#
# Velocity S-wave (km/s) = 4.42217 3.21139 3.86449
# Velocity P-wave (km/s) = 6.29506 6.19544 6.24545
#
# Compressibility (1/GPa) = 0.03677696
#
# Stress axis : x y z
#
# Youngs Moduli (GPa) = 21.56464 1758.46053 90.92632
#
# Poissons Ratio (x) = -2.57972 1.24861
# Poissons Ratio (y) = -0.03164 -0.15314
# Poissons Ratio (z) = 0.29613 -2.96154
#
# Static dielectric constant tensor:
#      x y z
#    x 1.753370 0.041510 0.016300 
#    y 0.041510 1.766110 0.021460 
#    z 0.016300 0.021460 1.719520 
# 
# From -- ./inp_files/187269.got.cif
#   From: 2010.05.17/outbox.ucp.g08.bks.cvg/sg2_94_cif.got.tgz:187269.got - 2010.06.11 11:32:03.
