data_PCOD9072872
_publ_section_title
;
Structure prediction by ZEFSAII (Michael W. Deem and Ramdas Pophale) SiO2 
 PCOD9072872
Probable space group: P -1
;
_chemical_formula_sum "Si O2"
_cell_formula_units_Z 12
_cell_length_a 9.000000
_cell_length_b 12.000000
_cell_length_c 18.000000
_cell_angle_alpha 20.000000
_cell_angle_beta 60.000000
_cell_angle_gamma 60.000000
_cell_volume 572.817632
_symmetry_space_group_name_H-M "P -1"
_symmetry_group_IT_number 2
_symmetry_cell_setting 'triclinic'
loop_
_space_group_symop_operation_xyz
x,y,z
-x,-y,-z
loop_
_atom_site_type_symbol
_atom_site_label
_atom_site_fract_x
_atom_site_fract_y
_atom_site_fract_z
Si Si1 0.754313 0.266090 0.750340
Si Si2 0.895551 0.545650 0.403860
Si Si3 0.233050 0.718121 0.973614
Si Si4 0.420592 0.636363 0.830084
Si Si5 0.582681 0.324849 0.363806
Si Si6 0.882347 0.548303 0.229192
O O1 0.799443 0.289948 0.636687
O O2 0.563575 0.415805 0.725709
O O3 0.898868 0.479415 0.616473
O O4 0.798093 0.904515 0.998412
O O5 0.872228 0.533460 0.329681
O O6 0.822858 0.902892 0.230000
O O7 0.268212 0.646969 0.922152
O O8 0.418524 0.620147 0.026043
O O9 0.079770 0.526757 0.165412
O O10 0.376965 0.582675 0.789008
O O11 0.497389 0.986203 0.597082
O O12 0.759776 0.300283 0.380192
#
# Coordination Sequence:
#
# PCOD9072872 Si02
#       6
#     2   2   2   2   2   2
#     4  10  20  38  61  89 116 152 189 237 296 343
#     4  10  20  38  64  87 115 152 192 238 290 347
#     4  10  20  41  59  85 111 157 199 228 286 347
#     4  10  22  39  62  76 118 163 192 229 282 355
#     4  11  22  39  57  89 116 151 194 239 289 339
#     4  11  23  37  61  92 117 145 192 251 288 331
#
# _framework density 20.949076000000002
#
# number of rings (size 3 to 8) (size 9 to 14) (size 15 to 20)
#    0.000    1.667    1.667    4.500    0.000    2.000 
#    6.000    0.000    0.000    0.000    0.000    0.000 
#    0.000    0.000    0.000    0.000    0.000    0.000 
#
# Total GULP energy -67072.853818 kJ/mol
# GULP energy per Si atom -5589.404485 kJ/mol
# Density = 2.090139 g / cm^3
# Si number density = 20.949076 Si / 1000 Ang^3
#
#
#
# Elastic Constant Matrix: (Units=GPa)
#
#
# Indices 1 2 3 4 5 6 
#
# 1 77.0909 70.2432 13.8069 16.9352 1.1538 -0.3031
# 2 70.2432 144.2409 29.1045 52.7384 3.0126 12.4895
# 3 13.8069 29.1045 44.4582 23.3678 15.2335 19.1195
# 4 16.9352 52.7384 23.3678 37.2516 3.5069 11.7482
# 5 1.1538 3.0126 15.2335 3.5069 19.8302 0.2551
# 6 -0.3031 12.4895 19.1195 11.7482 0.2551 0.2043
#
#
#
# Elastic Compliance Matrix: (Units=1/GPa)
#
#
# Indices 1 2 3 4 5 6 
#
# 1 0.024707 -0.017218 0.001591 0.016648 -0.002815 -0.013435
# 2 -0.017218 0.026345 0.002792 -0.033110 0.000635 0.005799
# 3 0.001591 0.002792 0.016793 -0.030984 -0.008614 0.052587
# 4 0.016648 -0.033110 -0.030984 0.085857 0.012740 -0.004660
# 5 -0.002815 0.000635 -0.008614 0.012740 0.055356 -0.038580
# 6 -0.013435 0.005799 0.052587 -0.004660 -0.038580 -0.084972
#
#
# Mechanical properties :
#
#
# Convention : Reuss Voigt Hill
#
# Bulk Modulus (GPa) = 23.71112 54.67768 39.19440
# Shear Modulus (GPa) = 30.52223 21.63291 26.07757
#
# Velocity S-wave (km/s) = 3.82117 3.21696 3.53201
# Velocity P-wave (km/s) = 5.55081 6.32103 5.94840
#
# Compressibility (1/GPa) = 0.04217431
#
# Stress axis : x y z
#
# Youngs Moduli (GPa) = 40.47368 37.95826 59.54917
#
# Poissons Ratio (x) = 0.65356 -0.09472
# Poissons Ratio (y) = 0.69687 -0.16626
# Poissons Ratio (z) = -0.06438 -0.10598
#
# Static dielectric constant tensor:
#      x y z
#    x 1.740980 0.013510 0.010460 
#    y 0.013510 1.725880 0.005390 
#    z 0.010460 0.005390 1.809510 
# 
# From -- ./inp_files/146295.got.cif
#   From: 2010.05.17/outbox.ucp.g08.bks.cvg/sg2_74_cif.got.tgz:146295.got - 2010.06.11 11:32:03.
