data_PCOD9072987
_publ_section_title
;
Structure prediction by ZEFSAII (Michael W. Deem and Ramdas Pophale) SiO2 
 PCOD9072987
Probable space group: P -1
;
_chemical_formula_sum "Si O2"
_cell_formula_units_Z 16
_cell_length_a 12.161362
_cell_length_b 10.752943
_cell_length_c 14.980037
_cell_angle_alpha 153.190181
_cell_angle_beta 139.680572
_cell_angle_gamma 47.806158
_cell_volume 571.432916
_symmetry_space_group_name_H-M "P -1"
_symmetry_group_IT_number 2
_symmetry_cell_setting 'triclinic'
loop_
_space_group_symop_operation_xyz
x,y,z
-x,-y,-z
loop_
_atom_site_type_symbol
_atom_site_label
_atom_site_fract_x
_atom_site_fract_y
_atom_site_fract_z
Si Si1 0.970226 0.969866 0.766730
Si Si2 0.803304 0.756969 0.147625
Si Si3 0.306890 0.714861 0.873541
Si Si4 0.839151 0.580959 0.739488
Si Si5 0.100257 0.149521 0.548640
Si Si6 0.291446 0.975735 0.200218
Si Si7 0.537396 0.387782 0.680792
Si Si8 0.557978 0.201551 0.272771
O O1 0.879477 0.870680 0.556892
O O2 0.836135 0.020763 0.794449
O O3 0.117237 0.754555 0.744648
O O4 0.080241 0.260197 0.024255
O O5 0.763287 0.804798 0.258962
O O6 0.694965 0.991464 0.182485
O O7 0.726321 0.466520 0.881303
O O8 0.996591 0.858207 0.318658
O O9 0.300983 0.707570 0.972583
O O10 0.416311 0.996157 0.094599
O O11 0.409188 0.477528 0.737351
O O12 0.789816 0.804914 0.777984
O O13 0.671298 0.392309 0.532366
O O14 0.972931 0.391693 0.651093
O O15 0.475653 0.088491 0.418532
O O16 0.497382 0.596657 0.709728
#
# Coordination Sequence:
#
# PCOD9072987 Si02
#       8
#     2   2   2   2   2   2   2   2
#     4  11  21  34  52  76 104 139 175 207 250 302
#     4   9  18  35  55  80 104 129 170 210 256 312
#     4  10  18  31  52  77 107 131 157 218 263 289
#     4   9  19  34  52  80 106 130 170 211 252 307
#     4  10  20  35  55  75 106 139 164 208 256 304
#     4  10  22  33  50  80 103 132 180 211 246 305
#     4  10  19  34  56  79 103 133 168 212 262 303
#     4   9  17  32  56  83 103 127 168 210 264 315
#
# _framework density 27.999787999999999
#
# number of rings (size 3 to 8) (size 9 to 14) (size 15 to 20)
#    0.000    2.250    0.000    6.000    0.000    8.500 
#    0.000    8.750    0.000    3.750    0.000    0.000 
#    0.000    0.000    0.000    0.000    0.000    0.000 
#
# Total GULP energy -89627.934678 kJ/mol
# GULP energy per Si atom -5601.745917 kJ/mol
# Density = 2.793606 g / cm^3
# Si number density = 27.999788 Si / 1000 Ang^3
#
#
#
# Elastic Constant Matrix: (Units=GPa)
#
#
# Indices 1 2 3 4 5 6 
#
# 1 93.6822 17.2240 16.0061 -12.3513 -22.2746 9.6101
# 2 17.2240 74.5283 21.5685 -10.9702 -4.9563 0.6764
# 3 16.0061 21.5685 174.2015 -33.7540 -5.1509 -1.7217
# 4 -12.3513 -10.9702 -33.7540 41.7701 0.0596 -4.0473
# 5 -22.2746 -4.9563 -5.1509 0.0596 57.6226 -4.5965
# 6 9.6101 0.6764 -1.7217 -4.0473 -4.5965 22.8036
#
#
#
# Elastic Compliance Matrix: (Units=1/GPa)
#
#
# Indices 1 2 3 4 5 6 
#
# 1 0.012951 -0.002184 -0.000325 0.002594 0.004463 -0.004058
# 2 -0.002184 0.014615 -0.001130 0.002366 0.000381 0.000898
# 3 -0.000325 -0.001130 0.006996 0.005431 0.000538 0.001771
# 4 0.002594 0.002366 0.005431 0.030202 0.002061 0.005023
# 5 0.004463 0.000381 0.000538 0.002061 0.019351 0.002415
# 6 -0.004058 0.000898 0.001771 0.005023 0.002415 0.047048
#
#
# Mechanical properties :
#
#
# Convention : Reuss Voigt Hill
#
# Bulk Modulus (GPa) = 36.65186 50.22326 43.43756
# Shear Modulus (GPa) = 33.89030 43.61349 38.75189
#
# Velocity S-wave (km/s) = 3.48282 3.95097 3.72426
# Velocity P-wave (km/s) = 5.41220 6.22812 5.83444
#
# Compressibility (1/GPa) = 0.02728374
#
# Stress axis : x y z
#
# Youngs Moduli (GPa) = 77.21552 68.42337 142.93635
#
# Poissons Ratio (x) = 0.14940 0.04648
# Poissons Ratio (y) = 0.16860 0.16157
# Poissons Ratio (z) = 0.02511 0.07734
#
# Static dielectric constant tensor:
#      x y z
#    x 2.216340 -0.035660 0.031880 
#    y -0.035660 2.250980 0.013820 
#    z 0.031880 0.013820 2.242540 
# 
# From -- ./inp_files/357250.got.cif
#   From: 2010.05.17/outbox.cif.g08.bks.cpg/sg2_179_cif.got.tgz:357250.got - 2010.06.03 11:33:40.
