data_PCOD9072332
_publ_section_title
;
Structure prediction by ZEFSAII (Michael W. Deem and Ramdas Pophale) SiO2 
 PCOD9072332
Probable space group: P -1
;
_chemical_formula_sum "Si O2"
_cell_formula_units_Z 14
_cell_length_a 8.433627
_cell_length_b 9.130964
_cell_length_c 9.188205
_cell_angle_alpha 115.073263
_cell_angle_beta 116.028724
_cell_angle_gamma 67.053887
_cell_volume 557.515050
_symmetry_space_group_name_H-M "P -1"
_symmetry_group_IT_number 2
_symmetry_cell_setting 'triclinic'
loop_
_space_group_symop_operation_xyz
x,y,z
-x,-y,-z
loop_
_atom_site_type_symbol
_atom_site_label
_atom_site_fract_x
_atom_site_fract_y
_atom_site_fract_z
Si Si1 0.548301 0.812871 0.764551
Si Si2 0.938887 0.498684 0.711717
Si Si3 0.504801 0.154522 0.729417
Si Si4 0.300791 0.740385 0.409382
Si Si5 0.763508 0.684464 0.076075
Si Si6 0.850403 0.031332 0.297335
Si Si7 0.864339 0.773264 0.566698
O O1 0.482796 0.706329 0.566851
O O2 0.356137 0.883994 0.806192
O O3 0.578649 0.978476 0.766927
O O4 0.691751 0.719117 0.899337
O O5 0.789890 0.410799 0.676957
O O6 0.865602 0.673825 0.675610
O O7 0.095747 0.485345 0.890044
O O8 0.039824 0.369095 0.571369
O O9 0.647996 0.214203 0.711509
O O10 0.407558 0.282505 0.868683
O O11 0.334731 0.146876 0.549399
O O12 0.174374 0.895359 0.515873
O O13 0.862129 0.836054 0.209182
O O14 0.001474 0.104844 0.311969
#
# Coordination Sequence:
#
# PCOD9072332 Si02
#       7
#     2   2   2   2   2   2   2
#     4   9  19  32  52  78 108 132 164 215 259 307
#     4   9  19  34  52  75 104 138 173 212 244 313
#     4  10  18  30  55  79 102 132 170 219 250 303
#     4   9  19  31  53  77 108 128 172 212 263 290
#     4  10  19  33  56  75 107 132 174 205 262 298
#     4   8  17  30  53  76 103 131 166 217 247 305
#     4   9  18  32  53  79  99 133 183 209 246 293
#
# _framework density 25.111429999999999
#
# number of rings (size 3 to 8) (size 9 to 14) (size 15 to 20)
#    0.857    2.000    0.000    2.143    2.000    2.857 
#    0.000    1.429    6.286    0.857    0.000    0.000 
#    0.000    0.000    0.000    0.000    0.000    0.000 
#
# Total GULP energy -78275.260474 kJ/mol
# GULP energy per Si atom -5591.090034 kJ/mol
# Density = 2.505428 g / cm^3
# Si number density = 25.111430 Si / 1000 Ang^3
#
#
#
# Elastic Constant Matrix: (Units=GPa)
#
#
# Indices 1 2 3 4 5 6 
#
# 1 128.5709 71.3145 51.0830 -26.1581 -15.7980 34.5093
# 2 71.3145 122.4673 63.6774 -41.4084 10.2970 13.3880
# 3 51.0830 63.6774 147.5137 -51.5223 -9.2904 12.7963
# 4 -26.1581 -41.4084 -51.5223 46.5295 -8.4706 -5.5803
# 5 -15.7980 10.2970 -9.2904 -8.4706 35.7878 -10.9105
# 6 34.5093 13.3880 12.7963 -5.5803 -10.9105 49.3967
#
#
#
# Elastic Compliance Matrix: (Units=1/GPa)
#
#
# Indices 1 2 3 4 5 6 
#
# 1 0.015498 -0.008260 -0.000108 0.001822 0.007585 -0.006679
# 2 -0.008260 0.017096 -0.002995 0.005968 -0.007657 0.000896
# 3 -0.000108 -0.002995 0.013191 0.013341 0.007596 0.000655
# 4 0.001822 0.005968 0.013341 0.045340 0.013841 0.001832
# 5 0.007585 -0.007657 0.007596 0.013841 0.040353 0.005285
# 6 -0.006679 0.000896 0.000655 0.001832 0.005285 0.025872
#
#
# Mechanical properties :
#
#
# Convention : Reuss Voigt Hill
#
# Bulk Modulus (GPa) = 43.36650 85.63350 64.50000
# Shear Modulus (GPa) = 26.62956 40.50795 33.56876
#
# Velocity S-wave (km/s) = 3.26000 4.02073 3.66018
# Velocity P-wave (km/s) = 5.61046 7.46529 6.60332
#
# Compressibility (1/GPa) = 0.02305928
#
# Stress axis : x y z
#
# Youngs Moduli (GPa) = 64.52627 58.49151 75.81213
#
# Poissons Ratio (x) = 0.48314 0.00815
# Poissons Ratio (y) = 0.53298 0.22707
# Poissons Ratio (z) = 0.00694 0.17519
#
# Static dielectric constant tensor:
#      x y z
#    x 2.132580 -0.101150 0.029020 
#    y -0.101150 1.971430 -0.023140 
#    z 0.029020 -0.023140 2.014450 
# 
# From -- ./inp_files/378864.got.cif
#   From: 2010.05.17/outbox.cif.g08.bks.cpg/sg2_190_cif.got.tgz:378864.got - 2010.06.03 11:33:40.
