data_PCOD9072014
_publ_section_title
;
Structure prediction by ZEFSAII (Michael W. Deem and Ramdas Pophale) SiO2 
 PCOD9072014
Probable space group: P -1
;
_chemical_formula_sum "Si O2"
_cell_formula_units_Z 14
_cell_length_a 15.000000
_cell_length_b 9.000000
_cell_length_c 15.000000
_cell_angle_alpha 140.000000
_cell_angle_beta 30.000000
_cell_angle_gamma 140.000000
_cell_volume 616.747849
_symmetry_space_group_name_H-M "P -1"
_symmetry_group_IT_number 2
_symmetry_cell_setting 'triclinic'
loop_
_space_group_symop_operation_xyz
x,y,z
-x,-y,-z
loop_
_atom_site_type_symbol
_atom_site_label
_atom_site_fract_x
_atom_site_fract_y
_atom_site_fract_z
Si Si1 0.931320 0.720137 0.822213
Si Si2 0.723241 0.533804 0.220704
Si Si3 0.695379 0.867220 0.849287
Si Si4 0.161383 0.843236 0.960175
Si Si5 0.633003 0.010367 0.476671
Si Si6 0.281067 0.704475 0.068851
Si Si7 0.666289 0.435185 0.771174
O O1 0.869493 0.536220 0.873611
O O2 0.841449 0.536469 0.733002
O O3 0.151554 0.851269 0.677441
O O4 0.836813 0.939600 0.010873
O O5 0.725433 0.354070 0.219872
O O6 0.625445 0.742932 0.396144
O O7 0.656098 0.365844 0.114378
O O8 0.943711 0.681168 0.081568
O O9 0.721213 0.605874 0.713988
O O10 0.783909 0.060347 0.784265
O O11 0.469090 0.798992 0.008147
O O12 0.779984 0.000685 0.928419
O O13 0.602982 0.166157 0.660530
O O14 0.500000 0.000000 0.500000
O O15 0.500000 0.500000 0.000000
#
# Coordination Sequence:
#
# PCOD9072014 Si02
#       7
#     2   2   2   2   2   2   2
#     4  10  21  38  63  95 123 164 214 257 308 375
#     4   9  18  36  57  87 123 159 200 251 320 361
#     4   9  18  33  57  87 118 159 207 250 299 370
#     4   8  17  32  57  87 115 161 202 250 304 372
#     4  11  24  39  61  94 135 164 204 266 317 362
#     4  10  18  33  59  93 118 157 206 255 307 369
#     4  11  21  40  64  91 121 171 217 250 310 385
#
# _framework density 22.699714
#
# number of rings (size 3 to 8) (size 9 to 14) (size 15 to 20)
#    0.000    2.286    1.429    1.286    0.000    2.286 
#    2.571    0.714    0.000    9.429    0.000    0.000 
#    0.000    0.000    0.000    0.000    0.000    0.000 
#
# Total GULP energy -78027.421806 kJ/mol
# GULP energy per Si atom -5573.387272 kJ/mol
# Density = 2.264805 g / cm^3
# Si number density = 22.699714 Si / 1000 Ang^3
#
#
#
# Elastic Constant Matrix: (Units=GPa)
#
#
# Indices 1 2 3 4 5 6 
#
# 1 80.9474 33.7656 49.0309 4.3276 -18.5774 14.2913
# 2 33.7656 115.6944 33.8518 17.7093 -8.2661 -20.3423
# 3 49.0309 33.8518 69.5983 19.5600 -4.7593 -8.3283
# 4 4.3276 17.7093 19.5600 50.6284 0.6998 -9.8112
# 5 -18.5774 -8.2661 -4.7593 0.6998 22.2569 6.6899
# 6 14.2913 -20.3423 -8.3283 -9.8112 6.6899 68.3647
#
#
#
# Elastic Compliance Matrix: (Units=1/GPa)
#
#
# Indices 1 2 3 4 5 6 
#
# 1 0.040594 -0.005234 -0.027368 0.005491 0.030598 -0.015583
# 2 -0.005234 0.011398 -0.000781 -0.002405 -0.001487 0.004191
# 3 -0.027368 -0.000781 0.036639 -0.009278 -0.018131 0.010395
# 4 0.005491 -0.002405 -0.009278 0.023761 0.000859 0.000332
# 5 0.030598 -0.001487 -0.018131 0.000859 0.070778 -0.015850
# 6 -0.015583 0.004191 0.010395 0.000332 -0.015850 0.021997
#
#
# Mechanical properties :
#
#
# Convention : Reuss Voigt Hill
#
# Bulk Modulus (GPa) = 45.73185 55.50406 50.61795
# Shear Modulus (GPa) = 17.90698 38.22279 28.06489
#
# Velocity S-wave (km/s) = 2.81172 4.10792 3.52000
# Velocity P-wave (km/s) = 5.54357 6.85598 6.23441
#
# Compressibility (1/GPa) = 0.02186660
#
# Stress axis : x y z
#
# Youngs Moduli (GPa) = 24.63429 87.73178 27.29301
#
# Poissons Ratio (x) = 0.45920 0.74694
# Poissons Ratio (y) = 0.12894 0.02131
# Poissons Ratio (z) = 0.67418 0.06851
#
# Static dielectric constant tensor:
#      x y z
#    x 1.905790 -0.064840 -0.031230 
#    y -0.064840 1.914330 0.010870 
#    z -0.031230 0.010870 1.882010 
# 
# From -- ./inp_files/329975.got.cif
#   From: 2010.05.17/outbox.ucp.g08.bks.cvg/sg2_165_cif.got.tgz:329975.got - 2010.06.11 11:32:03.
