data_PCOD9072229
_publ_section_title
;
Structure prediction by ZEFSAII (Michael W. Deem and Ramdas Pophale) SiO2 
 PCOD9072229
Probable space group: P -1
;
_chemical_formula_sum "Si O2"
_cell_formula_units_Z 16
_cell_length_a 12.000000
_cell_length_b 15.000000
_cell_length_c 15.000000
_cell_angle_alpha 30.000000
_cell_angle_beta 70.000000
_cell_angle_gamma 50.000000
_cell_volume 856.505752
_symmetry_space_group_name_H-M "P -1"
_symmetry_group_IT_number 2
_symmetry_cell_setting 'triclinic'
loop_
_space_group_symop_operation_xyz
x,y,z
-x,-y,-z
loop_
_atom_site_type_symbol
_atom_site_label
_atom_site_fract_x
_atom_site_fract_y
_atom_site_fract_z
Si Si1 0.114401 0.070294 0.641893
Si Si2 0.723203 0.420256 0.440791
Si Si3 0.457879 0.914727 0.733685
Si Si4 0.586652 0.187106 0.676844
Si Si5 0.536146 0.239506 0.453461
Si Si6 0.619413 0.500802 0.909363
Si Si7 0.299326 0.342550 0.943309
Si Si8 0.070076 0.122485 0.396446
O O1 0.114343 0.090706 0.517033
O O2 0.909162 0.299053 0.527054
O O3 0.262954 0.041884 0.665733
O O4 0.186860 0.791523 0.883522
O O5 0.720730 0.205743 0.633828
O O6 0.554290 0.662207 0.335799
O O7 0.698890 0.524614 0.256669
O O8 0.574930 0.730857 0.774369
O O9 0.464570 0.119771 0.560576
O O10 0.562930 0.746865 0.941113
O O11 0.487257 0.346656 0.473728
O O12 0.661210 0.904562 0.885050
O O13 0.449123 0.439407 0.223349
O O14 0.748499 0.025557 0.573343
O O15 0.500000 0.500000 0.000000
O O16 0.102187 0.567533 0.842290
O O17 0.000000 0.000000 0.500000
#
# Coordination Sequence:
#
# PCOD9072229 Si02
#       8
#     2   2   2   2   2   2   2   2
#     4  10  21  36  57  85 112 154 196 231 291 351
#     4  10  22  43  64  81 119 151 204 255 284 342
#     4  10  21  35  56  89 116 155 184 233 308 344
#     4  10  23  40  63  88 111 159 201 243 301 335
#     4  11  21  36  56  86 122 146 193 244 282 359
#     4  10  19  32  56  82 118 155 182 224 298 354
#     4  10  22  38  64  87 117 156 196 241 294 354
#     4  11  21  34  59  90 120 156 193 237 292 350
#
# _framework density 18.680551999999999
#
# number of rings (size 3 to 8) (size 9 to 14) (size 15 to 20)
#    0.000    1.750    2.500    3.000    5.250    3.000 
#    2.250    3.125    0.000    0.000    0.000    0.000 
#    0.000    0.000    0.000    0.000    0.000    0.000 
#
# Total GULP energy -89140.147411 kJ/mol
# GULP energy per Si atom -5571.259213 kJ/mol
# Density = 1.863803 g / cm^3
# Si number density = 18.680552 Si / 1000 Ang^3
#
#
#
# Elastic Constant Matrix: (Units=GPa)
#
#
# Indices 1 2 3 4 5 6 
#
# 1 133.5867 15.0364 27.0797 -5.4074 11.9812 -7.1704
# 2 15.0364 56.5784 12.9252 12.1615 9.6538 -6.2399
# 3 27.0797 12.9252 61.6810 3.1977 15.0789 -5.6718
# 4 -5.4074 12.1615 3.1977 27.9581 7.6934 -2.2357
# 5 11.9812 9.6538 15.0789 7.6934 35.0425 -1.3279
# 6 -7.1704 -6.2399 -5.6718 -2.2357 -1.3279 26.1454
#
#
#
# Elastic Compliance Matrix: (Units=1/GPa)
#
#
# Indices 1 2 3 4 5 6 
#
# 1 0.008696 -0.001890 -0.003010 0.003480 -0.001865 0.001484
# 2 -0.001890 0.021269 -0.002350 -0.008481 -0.002218 0.003210
# 3 -0.003010 -0.002350 0.019929 0.000256 -0.006856 0.002611
# 4 0.003480 -0.008481 0.000256 0.042539 -0.008219 0.002206
# 5 -0.001865 -0.002218 -0.006856 -0.008219 0.034484 -0.001480
# 6 0.001484 0.003210 0.002611 0.002206 -0.001480 0.040101
#
#
# Mechanical properties :
#
#
# Convention : Reuss Voigt Hill
#
# Bulk Modulus (GPa) = 28.25214 40.21430 34.23322
# Shear Modulus (GPa) = 25.86422 30.94952 28.40687
#
# Velocity S-wave (km/s) = 3.72500 4.07477 3.90380
# Velocity P-wave (km/s) = 5.80150 6.61154 6.21972
#
# Compressibility (1/GPa) = 0.03539554
#
# Stress axis : x y z
#
# Youngs Moduli (GPa) = 114.98923 47.01605 50.17732
#
# Poissons Ratio (x) = 0.08885 0.15103
# Poissons Ratio (y) = 0.21729 0.11792
# Poissons Ratio (z) = 0.34611 0.11049
#
# Static dielectric constant tensor:
#      x y z
#    x 1.656450 0.029670 -0.035520 
#    y 0.029670 1.660730 -0.012720 
#    z -0.035520 -0.012720 1.735050 
# 
# From -- ./inp_files/213580.got.cif
#   From: 2010.05.17/outbox.ucp.g08.bks.cvg/sg2_107_cif.got.tgz:213580.got - 2010.06.11 11:32:03.
