data_PCOD9072503
_publ_section_title
;
Structure prediction by ZEFSAII (Michael W. Deem and Ramdas Pophale) SiO2 
 PCOD9072503
Probable space group: P -1
;
_chemical_formula_sum "Si O2"
_cell_formula_units_Z 16
_cell_length_a 7.095138
_cell_length_b 13.175055
_cell_length_c 8.548109
_cell_angle_alpha 126.598892
_cell_angle_beta 74.173717
_cell_angle_gamma 91.432642
_cell_volume 607.324110
_symmetry_space_group_name_H-M "P -1"
_symmetry_group_IT_number 2
_symmetry_cell_setting 'triclinic'
loop_
_space_group_symop_operation_xyz
x,y,z
-x,-y,-z
loop_
_atom_site_type_symbol
_atom_site_label
_atom_site_fract_x
_atom_site_fract_y
_atom_site_fract_z
Si Si1 0.929677 0.081465 0.284816
Si Si2 0.324653 0.293976 0.626814
Si Si3 0.512113 0.022204 0.200571
Si Si4 0.630635 0.759920 0.080868
Si Si5 0.056671 0.812840 0.942863
Si Si6 0.759476 0.427075 0.173782
Si Si7 0.859304 0.516706 0.699127
Si Si8 0.140004 0.699063 0.282732
O O1 0.729585 0.047245 0.225512
O O2 0.873913 0.155142 0.525035
O O3 0.995226 0.169966 0.213585
O O4 0.086662 0.949411 0.131775
O O5 0.381524 0.158905 0.401034
O O6 0.414012 0.277652 0.766692
O O7 0.360666 0.427117 0.660089
O O8 0.088025 0.308594 0.709542
O O9 0.492135 0.889776 0.172601
O O10 0.500000 0.000000 0.000000
O O11 0.854085 0.794143 0.057554
O O12 0.673355 0.633690 0.843476
O O13 0.234048 0.692746 0.818601
O O14 0.986031 0.451197 0.174779
O O15 0.741157 0.362705 0.950668
O O16 0.795516 0.389157 0.661401
O O17 0.000000 0.500000 0.500000
#
# Coordination Sequence:
#
# PCOD9072503 Si02
#       8
#     2   2   2   2   2   2   2   2
#     4  10  23  40  59  89 128 159 202 250 309 355
#     4  11  21  39  65  91 125 157 201 249 302 367
#     4  11  27  43  61  84 123 169 205 244 304 374
#     4  10  19  40  61  92 119 159 202 249 301 357
#     4   9  19  37  61  87 127 151 201 256 298 348
#     4  10  19  36  59 100 121 151 204 254 302 357
#     4  10  18  30  60  94 124 150 195 253 303 343
#     4  11  19  35  65  96 120 150 201 261 298 353
#
# _framework density 26.345075999999999
#
# number of rings (size 3 to 8) (size 9 to 14) (size 15 to 20)
#    0.000    1.750    3.750    2.625    8.750    0.500 
#    0.000    2.500    0.000    0.000    0.000    0.000 
#    0.000    0.000    0.000    0.000    0.000    0.000 
#
# Total GULP energy -89378.894874 kJ/mol
# GULP energy per Si atom -5586.180930 kJ/mol
# Density = 2.628511 g / cm^3
# Si number density = 26.345076 Si / 1000 Ang^3
#
#
#
# Elastic Constant Matrix: (Units=GPa)
#
#
# Indices 1 2 3 4 5 6 
#
# 1 69.6497 9.4131 15.4237 -4.0231 2.0895 -14.8616
# 2 9.4131 173.3154 66.4839 38.0215 -18.7268 -30.5723
# 3 15.4237 66.4839 183.4727 31.9354 -7.2882 -16.9305
# 4 -4.0231 38.0215 31.9354 43.8097 -3.3398 -9.2194
# 5 2.0895 -18.7268 -7.2882 -3.3398 34.6726 -0.0438
# 6 -14.8616 -30.5723 -16.9305 -9.2194 -0.0438 28.2000
#
#
#
# Elastic Compliance Matrix: (Units=1/GPa)
#
#
# Indices 1 2 3 4 5 6 
#
# 1 0.017009 0.000340 -0.001422 0.004332 -0.000711 0.009894
# 2 0.000340 0.009253 -0.001666 -0.004862 0.004168 0.007627
# 3 -0.001422 -0.001666 0.006842 -0.003570 0.000281 0.000385
# 4 0.004332 -0.004862 -0.003570 0.031053 -0.000640 0.005020
# 5 -0.000711 0.004168 0.000281 -0.000640 0.031138 0.004152
# 6 0.009894 0.007627 0.000385 0.005020 0.004152 0.050823
#
#
# Mechanical properties :
#
#
# Convention : Reuss Voigt Hill
#
# Bulk Modulus (GPa) = 36.22231 67.67548 51.94889
# Shear Modulus (GPa) = 31.09149 43.67762 37.38456
#
# Velocity S-wave (km/s) = 3.43908 4.07615 3.77109
# Velocity P-wave (km/s) = 5.43587 6.92078 6.22278
#
# Compressibility (1/GPa) = 0.02760730
#
# Stress axis : x y z
#
# Youngs Moduli (GPa) = 58.79193 108.07618 146.16370
#
# Poissons Ratio (x) = -0.03674 0.20789
# Poissons Ratio (y) = -0.01999 0.24348
# Poissons Ratio (z) = 0.08362 0.18003
#
# Static dielectric constant tensor:
#      x y z
#    x 2.154400 0.045500 -0.006170 
#    y 0.045500 2.204990 0.072750 
#    z -0.006170 0.072750 2.083860 
# 
# From -- ./inp_files/204195.got.cif
#   From: 2010.05.17/outbox.cif.g08.bks.cpg/sg2_103_cif.got.tgz:204195.got - 2010.06.03 11:33:40.
