data_PCOD9072635
_publ_section_title
;
Structure prediction by ZEFSAII (Michael W. Deem and Ramdas Pophale) SiO2 
 PCOD9072635
Probable space group: P -1
;
_chemical_formula_sum "Si O2"
_cell_formula_units_Z 12
_cell_length_a 9.000000
_cell_length_b 9.000000
_cell_length_c 15.000000
_cell_angle_alpha 110.000000
_cell_angle_beta 30.000000
_cell_angle_gamma 110.000000
_cell_volume 568.141975
_symmetry_space_group_name_H-M "P -1"
_symmetry_group_IT_number 2
_symmetry_cell_setting 'triclinic'
loop_
_space_group_symop_operation_xyz
x,y,z
-x,-y,-z
loop_
_atom_site_type_symbol
_atom_site_label
_atom_site_fract_x
_atom_site_fract_y
_atom_site_fract_z
Si Si1 0.664392 0.236448 0.268153
Si Si2 0.183875 0.110865 0.095922
Si Si3 0.088687 0.283343 0.362793
Si Si4 0.396452 0.894359 0.292325
Si Si5 0.916152 0.768285 0.115566
Si Si6 0.433147 0.506636 0.368644
O O1 0.469300 0.384776 0.405928
O O2 0.911854 0.192966 0.203195
O O3 0.442348 0.080459 0.330166
O O4 0.849363 0.275874 0.088991
O O5 0.211954 0.180762 0.196355
O O6 0.477743 0.128662 0.880010
O O7 0.067943 0.922550 0.120441
O O8 0.340141 0.402685 0.305590
O O9 0.906938 0.185870 0.518868
O O10 0.843256 0.384742 0.463616
O O11 0.653571 0.828000 0.204251
O O12 0.740796 0.622631 0.228315
#
# Coordination Sequence:
#
# PCOD9072635 Si02
#       6
#     2   2   2   2   2   2
#     4   9  17  32  56  80 103 135 178 222 254 300
#     4   9  18  36  60  77  96 139 187 212 246 312
#     4  10  21  36  53  76 110 144 168 208 267 318
#     4   8  17  34  55  76 103 137 175 213 257 308
#     4   8  16  33  55  76 102 138 174 213 260 308
#     4  10  20  33  51  79 113 138 165 216 274 306
#
# _framework density 21.121480999999999
#
# number of rings (size 3 to 8) (size 9 to 14) (size 15 to 20)
#    0.000    3.000    0.000    2.500    0.000    7.333 
#    0.000   16.667    0.000    6.000    0.000    0.000 
#    0.000    0.000    0.000    0.000    0.000    0.000 
#
# Total GULP energy -66844.045921 kJ/mol
# GULP energy per Si atom -5570.337160 kJ/mol
# Density = 2.107341 g / cm^3
# Si number density = 21.121481 Si / 1000 Ang^3
#
#
#
# Elastic Constant Matrix: (Units=GPa)
#
#
# Indices 1 2 3 4 5 6 
#
# 1 46.3244 24.0242 31.0453 13.3317 12.4459 8.6844
# 2 24.0242 118.4751 35.0115 -3.4382 13.1163 -6.4297
# 3 31.0453 35.0115 67.3583 -4.6604 25.0671 7.0417
# 4 13.3317 -3.4382 -4.6604 14.5354 4.3477 7.0789
# 5 12.4459 13.1163 25.0671 4.3477 34.2173 20.8674
# 6 8.6844 -6.4297 7.0417 7.0789 20.8674 38.4857
#
#
#
# Elastic Compliance Matrix: (Units=1/GPa)
#
#
# Indices 1 2 3 4 5 6 
#
# 1 0.078859 -0.007859 -0.047346 -0.093539 0.025065 -0.006831
# 2 -0.007859 0.011196 0.000020 0.009105 -0.005682 0.005046
# 3 -0.047346 0.000020 0.053679 0.067505 -0.035324 0.007603
# 4 -0.093539 0.009105 0.067505 0.192056 -0.041903 -0.002328
# 5 0.025065 -0.005682 -0.035324 -0.041903 0.073020 -0.032027
# 6 -0.006831 0.005046 0.007603 -0.002328 -0.032027 0.044771
#
#
# Mechanical properties :
#
#
# Convention : Reuss Voigt Hill
#
# Bulk Modulus (GPa) = 29.97429 45.81333 37.89381
# Shear Modulus (GPa) = 8.69457 26.91947 17.80702
#
# Velocity S-wave (km/s) = 2.03111 3.57390 2.90673
# Velocity P-wave (km/s) = 4.44103 6.22638 5.40789
#
# Compressibility (1/GPa) = 0.03336192
#
# Stress axis : x y z
#
# Youngs Moduli (GPa) = 12.68087 89.32150 18.62927
#
# Poissons Ratio (x) = 0.70202 0.88203
# Poissons Ratio (y) = 0.09966 -0.00037
# Poissons Ratio (z) = 0.60039 -0.00180
#
# Static dielectric constant tensor:
#      x y z
#    x 1.743440 -0.036210 -0.020400 
#    y -0.036210 1.840770 0.032460 
#    z -0.020400 0.032460 1.789920 
# 
# From -- ./inp_files/144974.got.cif
#   From: 2010.05.17/outbox.ucp.g08.bks.cvg/sg2_73_cif.got.tgz:144974.got - 2010.06.11 11:32:03.
