data_PCOD9072513
_publ_section_title
;
Structure prediction by ZEFSAII (Michael W. Deem and Ramdas Pophale) SiO2 
 PCOD9072513
Probable space group: P -1
;
_chemical_formula_sum "Si O2"
_cell_formula_units_Z 12
_cell_length_a 9.000000
_cell_length_b 9.000000
_cell_length_c 15.000000
_cell_angle_alpha 40.000000
_cell_angle_beta 130.000000
_cell_angle_gamma 120.000000
_cell_volume 598.199517
_symmetry_space_group_name_H-M "P -1"
_symmetry_group_IT_number 2
_symmetry_cell_setting 'triclinic'
loop_
_space_group_symop_operation_xyz
x,y,z
-x,-y,-z
loop_
_atom_site_type_symbol
_atom_site_label
_atom_site_fract_x
_atom_site_fract_y
_atom_site_fract_z
Si Si1 0.486502 0.609842 0.161897
Si Si2 0.951369 0.851057 0.961914
Si Si3 0.505167 0.712725 0.837408
Si Si4 0.793817 0.986614 0.169701
Si Si5 0.338676 0.166531 0.629328
Si Si6 0.292722 0.553860 0.290071
O O1 0.553820 0.404284 0.222730
O O2 0.651529 0.803620 0.149797
O O3 0.413462 0.489706 0.279047
O O4 0.313399 0.764735 0.982398
O O5 0.727528 0.797512 0.887244
O O6 0.026559 0.973266 0.844391
O O7 0.087772 0.633801 0.135816
O O8 0.000000 0.000000 0.000000
O O9 0.366145 0.919571 0.710238
O O10 0.500000 0.500000 0.000000
O O11 0.802252 0.876487 0.321297
O O12 0.273832 0.362353 0.446327
O O13 0.559005 0.243645 0.709852
#
# Coordination Sequence:
#
# PCOD9072513 Si02
#       6
#     2   2   2   2   2   2
#     4   9  18  34  58  84 113 150 191 226 284 335
#     4  11  21  37  61  86 112 147 201 234 273 335
#     4  12  22  35  61  89 113 146 197 240 276 331
#     4   9  18  36  60  81 113 154 190 226 279 347
#     4  10  19  38  61  84 116 151 188 229 291 336
#     4   9  20  37  61  83 115 155 186 229 286 345
#
# _framework density 20.060196999999999
#
# number of rings (size 3 to 8) (size 9 to 14) (size 15 to 20)
#    0.000    2.000    3.333    2.000    0.000    3.333 
#    0.000    1.667    3.667    0.000    0.000    0.000 
#    0.000    0.000    0.000    0.000    0.000    0.000 
#
# Total GULP energy -66822.451159 kJ/mol
# GULP energy per Si atom -5568.537597 kJ/mol
# Density = 2.001454 g / cm^3
# Si number density = 20.060197 Si / 1000 Ang^3
#
#
#
# Elastic Constant Matrix: (Units=GPa)
#
#
# Indices 1 2 3 4 5 6 
#
# 1 109.4416 32.3330 44.8021 -16.9339 -36.2487 8.4980
# 2 32.3330 34.6773 16.0568 -19.1010 -9.3942 -32.8915
# 3 44.8021 16.0568 53.9880 -2.4910 -36.1584 1.0211
# 4 -16.9339 -19.1010 -2.4910 12.7580 7.1539 3.6802
# 5 -36.2487 -9.3942 -36.1584 7.1539 35.3868 -2.1568
# 6 8.4980 -32.8915 1.0211 3.6802 -2.1568 28.0633
#
#
#
# Elastic Compliance Matrix: (Units=1/GPa)
#
#
# Indices 1 2 3 4 5 6 
#
# 1 0.019371 0.005622 -0.021226 0.035402 -0.007738 -0.003742
# 2 0.005622 -0.031841 0.018414 -0.039554 0.022118 -0.032804
# 3 -0.021226 0.018414 0.073420 -0.034023 0.067176 0.034962
# 4 0.035402 -0.039554 -0.034023 0.098777 -0.033319 -0.071356
# 5 -0.007738 0.022118 0.067176 -0.033319 0.103907 0.038177
# 6 -0.003742 -0.032804 0.034962 -0.071356 0.038177 0.009338
#
#
# Mechanical properties :
#
#
# Convention : Reuss Voigt Hill
#
# Bulk Modulus (GPa) = 15.02176 42.72121 28.87148
# Shear Modulus (GPa) = 17.26859 22.23594 19.75226
#
# Velocity S-wave (km/s) = 2.93719 3.33297 3.14132
# Velocity P-wave (km/s) = 4.35974 6.01284 5.25175
#
# Compressibility (1/GPa) = 0.06657009
#
# Stress axis : x y z
#
# Youngs Moduli (GPa) = 51.62410 -31.40642 13.62024
#
# Poissons Ratio (x) = 0.17656 0.28910
# Poissons Ratio (y) = -0.29022 -0.25080
# Poissons Ratio (z) = 1.09575 0.57831
#
# Static dielectric constant tensor:
#      x y z
#    x 1.742990 -0.054140 0.020700 
#    y -0.054140 1.772310 0.004960 
#    z 0.020700 0.004960 1.676810 
# 
# From -- ./inp_files/144356.got.cif
#   From: 2010.05.17/outbox.ucp.g08.bks.cvg/sg2_73_cif.got.tgz:144356.got - 2010.06.11 11:32:03.
