data_PCOD9072805
_publ_section_title
;
Structure prediction by ZEFSAII (Michael W. Deem and Ramdas Pophale) SiO2 
 PCOD9072805
Probable space group: P -1
;
_chemical_formula_sum "Si O2"
_cell_formula_units_Z 16
_cell_length_a 9.000000
_cell_length_b 21.000000
_cell_length_c 15.000000
_cell_angle_alpha 20.000000
_cell_angle_beta 90.000000
_cell_angle_gamma 80.000000
_cell_volume 835.359047
_symmetry_space_group_name_H-M "P -1"
_symmetry_group_IT_number 2
_symmetry_cell_setting 'triclinic'
loop_
_space_group_symop_operation_xyz
x,y,z
-x,-y,-z
loop_
_atom_site_type_symbol
_atom_site_label
_atom_site_fract_x
_atom_site_fract_y
_atom_site_fract_z
Si Si1 0.144102 0.541890 0.899348
Si Si2 0.759853 0.424651 0.832136
Si Si3 0.978357 0.048366 0.213088
Si Si4 0.922079 0.500902 0.247610
Si Si5 0.207235 0.054714 0.798184
Si Si6 0.611057 0.726252 0.596032
Si Si7 0.561195 0.652213 0.350795
Si Si8 0.736598 0.814942 0.993029
O O1 0.155896 0.482685 0.872406
O O2 0.088017 0.794237 0.571058
O O3 0.311833 0.398725 0.147431
O O4 0.000000 0.500000 0.000000
O O5 0.634852 0.550714 0.750254
O O6 0.662806 0.551940 0.574545
O O7 0.933745 0.429306 0.847497
O O8 0.845329 0.176495 0.125735
O O9 0.097428 0.150279 0.051844
O O10 0.866988 0.062107 0.109005
O O11 0.047169 0.242217 0.607329
O O12 0.782176 0.652859 0.121176
O O13 0.271567 0.178100 0.568790
O O14 0.382491 0.874884 0.080626
O O15 0.425428 0.938652 0.333492
O O16 0.500000 0.500000 0.500000
O O17 0.680983 0.707593 0.214057
#
# Coordination Sequence:
#
# PCOD9072805 Si02
#       8
#     2   2   2   2   2   2   2   2
#     4  11  19  39  68  89 120 163 202 240 300 363
#     4  10  20  38  62  90 119 155 212 244 296 362
#     4  10  20  37  61  90 124 153 199 253 296 357
#     4   9  20  38  61  89 124 159 194 249 302 355
#     4   9  18  38  61  86 121 157 204 238 296 362
#     4  10  21  39  64  88 123 160 198 255 291 359
#     4  11  22  40  65  88 118 165 204 249 301 358
#     4  10  24  41  58  92 129 152 199 262 300 347
#
# _framework density 19.153441000000001
#
# number of rings (size 3 to 8) (size 9 to 14) (size 15 to 20)
#    0.000    2.000    5.000    0.000    0.000    8.000 
#    4.500    0.625    0.000    0.000    0.000    0.000 
#    0.000    0.000    0.000    0.000    0.000    0.000 
#
# Total GULP energy -89105.229031 kJ/mol
# GULP energy per Si atom -5569.076814 kJ/mol
# Density = 1.910985 g / cm^3
# Si number density = 19.153441 Si / 1000 Ang^3
#
#
#
# Elastic Constant Matrix: (Units=GPa)
#
#
# Indices 1 2 3 4 5 6 
#
# 1 49.0439 19.1200 17.1828 -6.4504 -1.4937 -5.1779
# 2 19.1200 115.5876 39.2343 -27.4448 19.1070 -2.7260
# 3 17.1828 39.2343 89.2775 -6.2018 15.9342 3.7167
# 4 -6.4504 -27.4448 -6.2018 41.8061 -1.6433 6.1714
# 5 -1.4937 19.1070 15.9342 -1.6433 36.3899 -8.3007
# 6 -5.1779 -2.7260 3.7167 6.1714 -8.3007 27.8046
#
#
#
# Elastic Compliance Matrix: (Units=1/GPa)
#
#
# Indices 1 2 3 4 5 6 
#
# 1 0.024189 -0.003279 -0.004593 0.000166 0.006244 0.006624
# 2 -0.003279 0.013077 -0.003482 0.007673 -0.005643 -0.002251
# 3 -0.004593 -0.003482 0.014871 -0.000300 -0.006006 -0.004911
# 4 0.000166 0.007673 -0.000300 0.029813 -0.004149 -0.007033
# 5 0.006244 -0.005643 -0.006006 -0.004149 0.036135 0.013121
# 6 0.006624 -0.002251 -0.004911 -0.007033 0.013121 0.043113
#
#
# Mechanical properties :
#
#
# Convention : Reuss Voigt Hill
#
# Bulk Modulus (GPa) = 33.98034 44.99816 39.48925
# Shear Modulus (GPa) = 25.81107 33.09158 29.45132
#
# Velocity S-wave (km/s) = 3.67494 4.16108 3.92554
# Velocity P-wave (km/s) = 5.98219 6.82866 6.41939
#
# Compressibility (1/GPa) = 0.02942878
#
# Stress axis : x y z
#
# Youngs Moduli (GPa) = 41.34146 76.46822 67.24563
#
# Poissons Ratio (x) = 0.25071 0.30889
# Poissons Ratio (y) = 0.13554 0.23416
# Poissons Ratio (z) = 0.18990 0.26627
#
# Static dielectric constant tensor:
#      x y z
#    x 1.680310 0.010850 0.011590 
#    y 0.010850 1.678640 -0.040560 
#    z 0.011590 -0.040560 1.710580 
# 
# From -- ./inp_files/297643.got.cif
#   From: 2010.05.17/outbox.ucp.g08.bks.cvg/sg2_149_cif.got.tgz:297643.got - 2010.06.11 11:32:03.
