data_PCOD9072138
_publ_section_title
;
Structure prediction by ZEFSAII (Michael W. Deem and Ramdas Pophale) SiO2 
 PCOD9072138
Probable space group: P -1
;
_chemical_formula_sum "Si O2"
_cell_formula_units_Z 16
_cell_length_a 15.000000
_cell_length_b 9.000000
_cell_length_c 12.000000
_cell_angle_alpha 50.000000
_cell_angle_beta 130.000000
_cell_angle_gamma 140.000000
_cell_volume 759.581896
_symmetry_space_group_name_H-M "P -1"
_symmetry_group_IT_number 2
_symmetry_cell_setting 'triclinic'
loop_
_space_group_symop_operation_xyz
x,y,z
-x,-y,-z
loop_
_atom_site_type_symbol
_atom_site_label
_atom_site_fract_x
_atom_site_fract_y
_atom_site_fract_z
Si Si1 0.639622 0.763456 0.515940
Si Si2 0.898996 0.213668 0.020333
Si Si3 0.495638 0.223641 0.376820
Si Si4 0.979616 0.303179 0.790078
Si Si5 0.435272 0.215794 0.080439
Si Si6 0.958807 0.020058 0.687752
Si Si7 0.287571 0.752358 0.743852
Si Si8 0.810239 0.482299 0.468920
O O1 0.500000 0.500000 0.500000
O O2 0.601345 0.791196 0.596639
O O3 0.794006 0.814103 0.620792
O O4 0.666659 0.977754 0.356514
O O5 0.943575 0.205403 0.932976
O O6 0.954050 0.089451 0.195503
O O7 0.000000 0.500000 0.000000
O O8 0.721415 0.017050 0.978920
O O9 0.426382 0.179379 0.222943
O O10 0.667264 0.454720 0.408680
O O11 0.500000 0.000000 0.500000
O O12 0.965112 0.130788 0.761754
O O13 0.862893 0.355182 0.645078
O O14 0.145443 0.553196 0.796684
O O15 0.566547 0.223571 0.127952
O O16 0.500000 0.500000 0.000000
O O17 0.044099 0.250376 0.563997
O O18 0.238420 0.646213 0.629487
#
# Coordination Sequence:
#
# PCOD9072138 Si02
#       8
#     2   2   2   2   2   2   2   2
#     4  12  24  38  62  99 130 159 204 267 322 364
#     4  12  28  43  61  95 135 170 206 263 321 375
#     4  11  20  38  67  94 120 164 214 258 304 371
#     4  11  20  41  70  93 121 168 214 256 314 375
#     4  11  23  43  68  91 127 171 219 255 309 384
#     4  11  22  43  65  93 124 166 213 253 309 386
#     4  10  20  39  65  96 121 157 210 269 307 367
#     4  10  18  37  70  96 117 152 218 265 296 364
#
# _framework density 21.064219999999999
#
# number of rings (size 3 to 8) (size 9 to 14) (size 15 to 20)
#    0.000    1.000    5.000    4.875    1.750    1.000 
#    4.500    1.875    0.000    0.000    0.000    0.000 
#    0.000    0.000    0.000    0.000    0.000    0.000 
#
# Total GULP energy -89219.755189 kJ/mol
# GULP energy per Si atom -5576.234699 kJ/mol
# Density = 2.101628 g / cm^3
# Si number density = 21.064220 Si / 1000 Ang^3
#
#
#
# Elastic Constant Matrix: (Units=GPa)
#
#
# Indices 1 2 3 4 5 6 
#
# 1 40.0089 11.1826 10.5721 13.9475 15.5477 38.9351
# 2 11.1826 148.2222 32.8646 14.7539 22.3460 39.9912
# 3 10.5721 32.8646 59.4792 -1.1102 18.3738 3.7398
# 4 13.9475 14.7539 -1.1102 24.6219 14.5383 11.8479
# 5 15.5477 22.3460 18.3738 14.5383 26.4668 3.4144
# 6 38.9351 39.9912 3.7398 11.8479 3.4144 39.5383
#
#
#
# Elastic Compliance Matrix: (Units=1/GPa)
#
#
# Indices 1 2 3 4 5 6 
#
# 1 -0.045637 -0.019569 -0.000462 -0.023072 0.047607 0.067580
# 2 -0.019569 0.002998 -0.003359 -0.006838 0.012795 0.017500
# 3 -0.000462 -0.003359 0.027750 0.020952 -0.027319 -0.002692
# 4 -0.023072 -0.006838 0.020952 0.078177 -0.039143 0.007609
# 5 0.047607 0.012795 -0.027319 -0.039143 0.045863 -0.049469
# 6 0.067580 0.017500 -0.002692 0.007609 -0.049469 -0.056710
#
#
# Mechanical properties :
#
#
# Convention : Reuss Voigt Hill
#
# Bulk Modulus (GPa) = -16.21611 39.66100 11.72244
# Shear Modulus (GPa) = 63.56189 30.99813 47.28001
#
# Velocity S-wave (km/s) = 5.49916 3.84031 4.74282
# Velocity P-wave (km/s) = 5.71016 6.20753 5.96403
#
# Compressibility (1/GPa) = -0.06166709
#
# Stress axis : x y z
#
# Youngs Moduli (GPa) = -21.91210 333.56382 36.03603
#
# Poissons Ratio (x) = 6.52735 0.01665
# Poissons Ratio (y) = -0.42879 0.12103
# Poissons Ratio (z) = -0.01012 1.12031
#
# Static dielectric constant tensor:
#      x y z
#    x 1.831040 0.088880 0.034730 
#    y 0.088880 1.917090 0.001780 
#    z 0.034730 0.001780 1.791960 
# 
# From -- ./inp_files/274742.got.cif
#   From: 2010.05.17/outbox.ucp.g08.bks.cvg/sg2_138_cif.got.tgz:274742.got - 2010.06.11 11:32:03.
