data_PCOD9072440
_publ_section_title
;
Structure prediction by ZEFSAII (Michael W. Deem and Ramdas Pophale) SiO2 
 PCOD9072440
Probable space group: P -1
;
_chemical_formula_sum "Si O2"
_cell_formula_units_Z 16
_cell_length_a 9.000000
_cell_length_b 21.000000
_cell_length_c 18.000000
_cell_angle_alpha 160.000000
_cell_angle_beta 40.000000
_cell_angle_gamma 140.000000
_cell_volume 731.217405
_symmetry_space_group_name_H-M "P -1"
_symmetry_group_IT_number 2
_symmetry_cell_setting 'triclinic'
loop_
_space_group_symop_operation_xyz
x,y,z
-x,-y,-z
loop_
_atom_site_type_symbol
_atom_site_label
_atom_site_fract_x
_atom_site_fract_y
_atom_site_fract_z
Si Si1 0.550348 0.089486 0.808291
Si Si2 0.032062 0.781941 0.091064
Si Si3 0.795983 0.225421 0.309296
Si Si4 0.949023 0.639567 0.356532
Si Si5 0.451521 0.446176 0.288772
Si Si6 0.294443 0.948126 0.462704
Si Si7 0.247756 0.849300 0.924882
Si Si8 0.803686 0.611178 0.545761
O O1 0.765777 0.157432 0.857722
O O2 0.629230 0.078613 0.680838
O O3 0.394306 0.909131 0.712531
O O4 0.412392 0.261398 0.051045
O O5 0.963827 0.553240 0.866974
O O6 0.104633 0.874525 0.083053
O O7 0.821424 0.870131 0.297012
O O8 0.710730 0.415936 0.527120
O O9 0.828877 0.133300 0.113944
O O10 0.012954 0.289986 0.353160
O O11 0.710791 0.575904 0.330934
O O12 0.873645 0.698885 0.533933
O O13 0.119340 0.776822 0.385619
O O14 0.433120 0.370798 0.299610
O O15 0.500000 0.000000 0.500000
O O16 0.233420 0.620016 0.689427
O O17 0.500000 0.000000 0.000000
#
# Coordination Sequence:
#
# PCOD9072440 Si02
#       8
#     2   2   2   2   2   2   2   2
#     4  11  24  41  64  92 123 169 222 254 312 378
#     4  10  23  43  65  92 122 166 214 262 313 379
#     4  11  22  40  65  96 136 167 202 267 322 373
#     4  10  23  42  64  90 126 165 212 263 316 376
#     4  10  22  39  66  95 124 164 215 260 317 386
#     4  12  27  42  62  91 124 169 219 264 316 368
#     4  10  19  36  66  96 125 163 207 250 319 386
#     4  10  22  39  63  99 133 166 206 259 329 382
#
# _framework density 21.881316999999999
#
# number of rings (size 3 to 8) (size 9 to 14) (size 15 to 20)
#    0.000    1.500    1.250    3.750    1.750    9.000 
#    0.000    0.000    0.000    0.000    0.000    0.000 
#    0.000    0.000    0.000    0.000    0.000    0.000 
#
# Total GULP energy -89160.107863 kJ/mol
# GULP energy per Si atom -5572.506741 kJ/mol
# Density = 2.183151 g / cm^3
# Si number density = 21.881317 Si / 1000 Ang^3
#
#
#
# Elastic Constant Matrix: (Units=GPa)
#
#
# Indices 1 2 3 4 5 6 
#
# 1 90.3563 58.8831 44.8167 6.4804 16.3537 -16.6012
# 2 58.8831 189.1595 40.0924 20.6363 37.1652 -41.7076
# 3 44.8167 40.0924 84.4841 -21.8276 17.6738 -11.1594
# 4 6.4804 20.6363 -21.8276 45.6806 -1.0121 10.1030
# 5 16.3537 37.1652 17.6738 -1.0121 39.0488 -11.2725
# 6 -16.6012 -41.7076 -11.1594 10.1030 -11.2725 46.0229
#
#
#
# Elastic Compliance Matrix: (Units=1/GPa)
#
#
# Indices 1 2 3 4 5 6 
#
# 1 0.018882 -0.001742 -0.010574 -0.007904 -0.000427 0.004298
# 2 -0.001742 0.010486 -0.004013 -0.008396 -0.005207 0.008469
# 3 -0.010574 -0.004013 0.023386 0.015765 -0.003703 -0.006148
# 4 -0.007904 -0.008396 0.015765 0.037603 0.000905 -0.014670
# 5 -0.000427 -0.005207 -0.003703 0.000905 0.033057 0.002127
# 6 0.004298 0.008469 -0.006148 -0.014670 0.002127 0.033204
#
#
# Mechanical properties :
#
#
# Convention : Reuss Voigt Hill
#
# Bulk Modulus (GPa) = 49.76660 72.39828 61.08244
# Shear Modulus (GPa) = 25.51344 40.83098 33.17221
#
# Velocity S-wave (km/s) = 3.41837 4.32443 3.89782
# Velocity P-wave (km/s) = 6.19464 7.62187 6.94502
#
# Compressibility (1/GPa) = 0.02009380
#
# Stress axis : x y z
#
# Youngs Moduli (GPa) = 52.96139 95.36871 42.76029
#
# Poissons Ratio (x) = 0.16616 0.45217
# Poissons Ratio (y) = 0.09228 0.17160
# Poissons Ratio (z) = 0.56004 0.38272
#
# Static dielectric constant tensor:
#      x y z
#    x 1.853060 0.027860 0.128010 
#    y 0.027860 1.810360 0.007340 
#    z 0.128010 0.007340 1.866850 
# 
# From -- ./inp_files/245892.got.cif
#   From: 2010.05.17/outbox.ucp.g08.bks.cvg/sg2_123_cif.got.tgz:245892.got - 2010.06.11 11:32:03.
