data_PCOD9072703
_publ_section_title
;
Structure prediction by ZEFSAII (Michael W. Deem and Ramdas Pophale) SiO2 
 PCOD9072703
Probable space group: P -1
;
_chemical_formula_sum "Si O2"
_cell_formula_units_Z 16
_cell_length_a 15.000000
_cell_length_b 15.000000
_cell_length_c 15.000000
_cell_angle_alpha 160.000000
_cell_angle_beta 40.000000
_cell_angle_gamma 140.000000
_cell_volume 725.414092
_symmetry_space_group_name_H-M "P -1"
_symmetry_group_IT_number 2
_symmetry_cell_setting 'triclinic'
loop_
_space_group_symop_operation_xyz
x,y,z
-x,-y,-z
loop_
_atom_site_type_symbol
_atom_site_label
_atom_site_fract_x
_atom_site_fract_y
_atom_site_fract_z
Si Si1 0.187935 0.971247 0.437705
Si Si2 0.922622 0.881396 0.691228
Si Si3 0.280148 0.581586 0.871402
Si Si4 0.722411 0.062004 0.319318
Si Si5 0.460111 0.498072 0.304841
Si Si6 0.182602 0.330051 0.250112
Si Si7 0.403924 0.041945 0.486371
Si Si8 0.737935 0.333991 0.245460
O O1 0.058964 0.964660 0.600184
O O2 0.226914 0.265114 0.637976
O O3 0.311624 0.907056 0.347551
O O4 0.180118 0.751609 0.159068
O O5 0.939490 0.781979 0.687914
O O6 0.831892 0.621850 0.468806
O O7 0.833330 0.115007 0.982777
O O8 0.439639 0.648722 0.852787
O O9 0.292685 0.652122 0.823390
O O10 0.690516 0.015685 0.405800
O O11 0.794297 0.365019 0.517629
O O12 0.559634 0.986456 0.334567
O O13 0.810685 0.864910 0.020826
O O14 0.323307 0.331970 0.203984
O O15 0.553803 0.657129 0.302265
O O16 0.395147 0.685470 0.601882
#
# Coordination Sequence:
#
# PCOD9072703 Si02
#       8
#     2   2   2   2   2   2   2   2
#     4  11  24  40  58  83 119 155 190 233 285 338
#     4  11  23  40  59  81 116 158 194 231 279 338
#     4  11  23  38  60  87 115 149 191 242 288 334
#     4  10  20  35  61  86 112 142 188 235 283 341
#     4   9  20  38  60  87 119 147 186 238 295 339
#     4  10  20  37  57  83 112 149 187 230 281 337
#     4   9  20  37  58  86 114 147 183 234 289 337
#     4  11  23  39  61  85 113 153 196 237 280 336
#
# _framework density 22.056367999999999
#
# number of rings (size 3 to 8) (size 9 to 14) (size 15 to 20)
#    0.000    1.750    0.000    4.875    0.000   12.500 
#    0.000    7.500    0.000    0.000    0.000    0.000 
#    0.000    0.000    0.000    0.000    0.000    0.000 
#
# Total GULP energy -89349.833863 kJ/mol
# GULP energy per Si atom -5584.364616 kJ/mol
# Density = 2.200617 g / cm^3
# Si number density = 22.056368 Si / 1000 Ang^3
#
#
#
# Elastic Constant Matrix: (Units=GPa)
#
#
# Indices 1 2 3 4 5 6 
#
# 1 57.6070 19.1046 12.6984 -0.8654 6.7937 -29.7428
# 2 19.1046 109.2989 36.3814 -5.7748 -1.8849 -34.7269
# 3 12.6984 36.3814 143.1660 -13.3157 6.4125 -11.0996
# 4 -0.8654 -5.7748 -13.3157 32.2116 -3.0426 6.9080
# 5 6.7937 -1.8849 6.4125 -3.0426 24.7222 -9.4449
# 6 -29.7428 -34.7269 -11.0996 6.9080 -9.4449 39.0309
#
#
#
# Elastic Compliance Matrix: (Units=1/GPa)
#
#
# Indices 1 2 3 4 5 6 
#
# 1 0.030361 0.003906 -0.002130 -0.005031 0.002384 0.027473
# 2 0.003906 0.015243 -0.003336 -0.001627 0.007515 0.017697
# 3 -0.002130 -0.003336 0.008172 0.003215 -0.002729 -0.003497
# 4 -0.005031 -0.001627 0.003215 0.034213 0.000720 -0.010248
# 5 0.002384 0.007515 -0.002729 0.000720 0.048556 0.019349
# 6 0.027473 0.017697 -0.003497 -0.010248 0.019349 0.067803
#
#
# Mechanical properties :
#
#
# Convention : Reuss Voigt Hill
#
# Bulk Modulus (GPa) = 19.74104 49.60452 34.67278
# Shear Modulus (GPa) = 22.28640 35.31878 28.80259
#
# Velocity S-wave (km/s) = 3.18217 4.00596 3.61759
# Velocity P-wave (km/s) = 4.74039 6.62840 5.76225
#
# Compressibility (1/GPa) = 0.05065588
#
# Stress axis : x y z
#
# Youngs Moduli (GPa) = 32.93717 65.60336 122.37338
#
# Poissons Ratio (x) = -0.25627 0.26070
# Poissons Ratio (y) = -0.12867 0.40823
# Poissons Ratio (z) = 0.07017 0.21885
#
# Static dielectric constant tensor:
#      x y z
#    x 1.837880 0.046630 0.004550 
#    y 0.046630 1.842630 -0.012100 
#    z 0.004550 -0.012100 1.797310 
# 
# From -- ./inp_files/534665.got.cif
#   From: 2010.05.17/outbox.ucp.g08.bks.cvg/sg2_268_cif.got.tgz:534665.got - 2010.06.11 11:32:03.
