data_PCOD9072927
_publ_section_title
;
Structure prediction by ZEFSAII (Michael W. Deem and Ramdas Pophale) SiO2 
 PCOD9072927
Probable space group: P -1
;
_chemical_formula_sum "Si O2"
_cell_formula_units_Z 16
_cell_length_a 20.549616
_cell_length_b 14.340219
_cell_length_c 11.667813
_cell_angle_alpha 150.708072
_cell_angle_beta 42.819676
_cell_angle_gamma 148.653044
_cell_volume 874.265493
_symmetry_space_group_name_H-M "P -1"
_symmetry_group_IT_number 2
_symmetry_cell_setting 'triclinic'
loop_
_space_group_symop_operation_xyz
x,y,z
-x,-y,-z
loop_
_atom_site_type_symbol
_atom_site_label
_atom_site_fract_x
_atom_site_fract_y
_atom_site_fract_z
Si Si1 0.170416 0.531670 0.321584
Si Si2 0.730529 0.657512 0.162755
Si Si3 0.534165 0.105780 0.243467
Si Si4 0.372164 0.865783 0.597479
Si Si5 0.116048 0.907097 0.749839
Si Si6 0.310768 0.208627 0.991129
Si Si7 0.419073 0.592760 0.711269
Si Si8 0.537213 0.643515 0.281595
O O1 0.265773 0.622306 0.400892
O O2 0.153805 0.732977 0.528664
O O3 0.033070 0.275690 0.252890
O O4 0.228703 0.493282 0.099188
O O5 0.709592 0.625332 0.290736
O O6 0.591478 0.538033 0.170113
O O7 0.821814 0.920464 0.258874
O O8 0.605685 0.153163 0.319392
O O9 0.598662 0.325149 0.300165
O O10 0.429604 0.119821 0.442062
O O11 0.486758 0.850760 0.972720
O O12 0.500000 0.000000 0.500000
O O13 0.321460 0.015685 0.825698
O O14 0.175922 0.078768 0.971813
O O15 0.391672 0.284537 0.852308
O O16 0.390989 0.444401 0.223994
O O17 0.500000 0.500000 0.500000
#
# Coordination Sequence:
#
# PCOD9072927 Si02
#       8
#     2   2   2   2   2   2   2   2
#     4  10  21  37  57  88 118 145 185 232 284 339
#     4  11  21  34  59  79 115 153 187 233 283 336
#     4  11  23  35  53  81 116 147 190 226 287 338
#     4  11  19  31  55  86 114 144 177 230 293 344
#     4   9  21  36  55  85 117 150 189 225 277 348
#     4   9  18  29  51  83 121 142 175 224 284 341
#     4  11  24  39  54  78 115 153 192 238 280 334
#     4  10  18  31  51  85 114 147 179 229 280 343
#
# _framework density 18.301076999999999
#
# number of rings (size 3 to 8) (size 9 to 14) (size 15 to 20)
#    0.000    1.750    2.500    2.625    7.000    0.000 
#    0.000    0.000    0.000    0.750    0.000    3.500 
#    0.000    0.000    0.000    0.000    0.000    0.000 
#
# Total GULP energy -89074.576958 kJ/mol
# GULP energy per Si atom -5567.161060 kJ/mol
# Density = 1.825942 g / cm^3
# Si number density = 18.301077 Si / 1000 Ang^3
#
#
#
# Elastic Constant Matrix: (Units=GPa)
#
#
# Indices 1 2 3 4 5 6 
#
# 1 111.2403 60.7636 24.6766 -1.8447 5.1331 -11.2560
# 2 60.7636 81.9024 25.2664 9.5047 17.4815 0.0053
# 3 24.6766 25.2664 98.4867 -0.8549 -3.7321 1.4726
# 4 -1.8447 9.5047 -0.8549 24.3263 -5.4903 3.1626
# 5 5.1331 17.4815 -3.7321 -5.4903 24.6590 2.7810
# 6 -11.2560 0.0053 1.4726 3.1626 2.7810 42.7996
#
#
#
# Elastic Compliance Matrix: (Units=1/GPa)
#
#
# Indices 1 2 3 4 5 6 
#
# 1 0.018164 -0.016771 0.000161 0.009730 0.009914 0.003410
# 2 -0.016771 0.034476 -0.005807 -0.020765 -0.026342 -0.000969
# 3 0.000161 -0.005807 0.011924 0.004430 0.007004 -0.001150
# 4 0.009730 -0.020765 0.004430 0.056512 0.026341 -0.003478
# 5 0.009914 -0.026342 0.007004 0.026341 0.064514 -0.003769
# 6 0.003410 -0.000969 -0.001150 -0.003478 -0.003769 0.024803
#
#
# Mechanical properties :
#
#
# Convention : Reuss Voigt Hill
#
# Bulk Modulus (GPa) = 50.68407 57.00474 53.84440
# Shear Modulus (GPa) = 19.09839 30.41850 24.75845
#
# Velocity S-wave (km/s) = 3.23393 4.08133 3.68209
# Velocity P-wave (km/s) = 6.45749 7.30928 6.89655
#
# Compressibility (1/GPa) = 0.01973007
#
# Stress axis : x y z
#
# Youngs Moduli (GPa) = 55.05515 29.00608 83.86355
#
# Poissons Ratio (x) = 0.48645 -0.01347
# Poissons Ratio (y) = 0.92331 0.48696
# Poissons Ratio (z) = -0.00884 0.16843
#
# Static dielectric constant tensor:
#      x y z
#    x 1.723930 -0.041650 -0.067190 
#    y -0.041650 1.705810 0.101520 
#    z -0.067190 0.101520 1.840400 
# 
# From -- ./inp_files/471620.got.cif
#   From: 2010.05.17/outbox.cif.g08.bks.cpg/sg2_236_cif.got.tgz:471620.got - 2010.06.03 11:33:40.
