data_PCOD9072848
_publ_section_title
;
Structure prediction by ZEFSAII (Michael W. Deem and Ramdas Pophale) SiO2 
 PCOD9072848
Probable space group: P -1
;
_chemical_formula_sum "Si O2"
_cell_formula_units_Z 16
_cell_length_a 7.940279
_cell_length_b 10.107327
_cell_length_c 19.030884
_cell_angle_alpha 56.262272
_cell_angle_beta 30.884569
_cell_angle_gamma 55.315983
_cell_volume 636.496623
_symmetry_space_group_name_H-M "P -1"
_symmetry_group_IT_number 2
_symmetry_cell_setting 'triclinic'
loop_
_space_group_symop_operation_xyz
x,y,z
-x,-y,-z
loop_
_atom_site_type_symbol
_atom_site_label
_atom_site_fract_x
_atom_site_fract_y
_atom_site_fract_z
Si Si1 0.605915 0.996837 0.289571
Si Si2 0.791507 0.956670 0.018318
Si Si3 0.602656 0.697007 0.960349
Si Si4 0.067831 0.498677 0.226935
Si Si5 0.872194 0.656348 0.602862
Si Si6 0.317112 0.562974 0.739344
Si Si7 0.675843 0.115364 0.446962
Si Si8 0.334294 0.837725 0.305130
O O1 0.334790 0.164403 0.352037
O O2 0.547050 0.871960 0.407584
O O3 0.541074 0.892085 0.277963
O O4 0.944844 0.059038 0.134815
O O5 0.502619 0.111609 0.056627
O O6 0.584334 0.819921 0.153737
O O7 0.000000 0.000000 0.000000
O O8 0.670095 0.640830 0.870528
O O9 0.957117 0.614775 0.892537
O O10 0.286524 0.632293 0.120776
O O11 0.972875 0.430651 0.355093
O O12 0.778261 0.550649 0.256342
O O13 0.624017 0.554002 0.685526
O O14 0.128756 0.701189 0.440231
O O15 0.339752 0.719216 0.636730
O O16 0.500000 0.000000 0.500000
O O17 0.048379 0.007292 0.352536
#
# Coordination Sequence:
#
# PCOD9072848 Si02
#       8
#     2   2   2   2   2   2   2   2
#     4  10  20  30  50  84 108 145 176 211 282 335
#     4  10  19  33  55  80 113 145 177 219 280 336
#     4   9  19  36  53  80 112 141 182 232 267 315
#     4   9  19  35  55  81 108 143 187 230 267 307
#     4  11  19  32  58  86 106 141 182 223 276 323
#     4  10  18  32  55  81 109 137 179 232 269 313
#     4  11  17  30  49  77 112 136 174 226 269 318
#     4  10  18  31  51  76 111 139 175 223 269 324
#
# _framework density 25.137604
#
# number of rings (size 3 to 8) (size 9 to 14) (size 15 to 20)
#    0.750    1.250    3.750    4.500    0.000    0.500 
#    0.000    2.500    0.000    6.750    0.000    4.375 
#    0.000    0.000    0.000    0.000    0.000    0.000 
#
# Total GULP energy -89231.812727 kJ/mol
# GULP energy per Si atom -5576.988295 kJ/mol
# Density = 2.508039 g / cm^3
# Si number density = 25.137604 Si / 1000 Ang^3
#
#
#
# Elastic Constant Matrix: (Units=GPa)
#
#
# Indices 1 2 3 4 5 6 
#
# 1 -429.3277 9.9857 -541.8918 -143.6144 -325.7162 -160.6209
# 2 9.9857 51.7895 10.6593 -2.5673 -7.1587 4.3788
# 3 -541.8918 10.6593 -479.7141 -170.9351 -372.3423 -189.7922
# 4 -143.6144 -2.5673 -170.9351 -6.5018 -93.9318 -56.0713
# 5 -325.7162 -7.1587 -372.3423 -93.9318 -169.1511 -116.4600
# 6 -160.6209 4.3788 -189.7922 -56.0713 -116.4600 -34.4392
#
#
#
# Elastic Compliance Matrix: (Units=1/GPa)
#
#
# Indices 1 2 3 4 5 6 
#
# 1 0.013680 -0.001966 -0.003986 -0.005762 -0.006197 -0.011746
# 2 -0.001966 0.020502 -0.000571 0.001591 0.003915 -0.000904
# 3 -0.003986 -0.000571 0.005561 -0.000659 -0.002587 -0.002307
# 4 -0.005762 0.001591 -0.000659 0.026376 -0.004710 0.003692
# 5 -0.006197 0.003915 -0.002587 -0.004710 0.015940 -0.002577
# 6 -0.011746 -0.000904 -0.002307 0.003692 -0.002577 0.041048
#
#
# Mechanical properties :
#
#
# Convention : Reuss Voigt Hill
#
# Bulk Modulus (GPa) = 37.45942 -211.08287 -86.81172
# Shear Modulus (GPa) = 34.47022 -64.41879 -14.97428
#
# Velocity S-wave (km/s) = 3.70707 -5.06775 -2.44333
# Velocity P-wave (km/s) = 5.76691 10.88099 6.52452
#
# Compressibility (1/GPa) = 0.02669555
#
# Stress axis : x y z
#
# Youngs Moduli (GPa) = 73.10082 48.77550 179.82421
#
# Poissons Ratio (x) = 0.09591 0.71680
# Poissons Ratio (y) = 0.14374 0.10271
# Poissons Ratio (z) = 0.29139 0.02786
#
# Static dielectric constant tensor:
#      x y z
#    x 1.983750 -0.056710 -0.040520 
#    y -0.056710 2.037710 -0.067770 
#    z -0.040520 -0.067770 1.849620 
# 
# From -- ./inp_files/589035.got.cif
#   From: 2010.05.17/outbox.cif.g08.bks.cpg/sg2_295_cif.got.tgz:589035.got - 2010.06.03 11:33:40.
