data_PCOD9072394
_publ_section_title
;
Structure prediction by ZEFSAII (Michael W. Deem and Ramdas Pophale) SiO2 
 PCOD9072394
Probable space group: P -1
;
_chemical_formula_sum "Si O2"
_cell_formula_units_Z 16
_cell_length_a 12.000000
_cell_length_b 18.000000
_cell_length_c 24.000000
_cell_angle_alpha 30.000000
_cell_angle_beta 140.000000
_cell_angle_gamma 160.000000
_cell_volume 851.251203
_symmetry_space_group_name_H-M "P -1"
_symmetry_group_IT_number 2
_symmetry_cell_setting 'triclinic'
loop_
_space_group_symop_operation_xyz
x,y,z
-x,-y,-z
loop_
_atom_site_type_symbol
_atom_site_label
_atom_site_fract_x
_atom_site_fract_y
_atom_site_fract_z
Si Si1 0.580002 0.976321 0.914127
Si Si2 0.755037 0.048777 0.053603
Si Si3 0.623506 0.641316 0.326548
Si Si4 0.138124 0.409730 0.067914
Si Si5 0.208901 0.578659 0.353448
Si Si6 0.909373 0.126929 0.445798
Si Si7 0.783609 0.430130 0.507990
Si Si8 0.051074 0.997826 0.671297
O O1 0.223480 0.782562 0.927270
O O2 0.768841 0.240690 0.780264
O O3 0.789356 0.076428 0.982665
O O4 0.448687 0.747577 0.974247
O O5 0.626491 0.793932 0.191910
O O6 0.079785 0.317200 0.042407
O O7 0.500000 0.000000 0.000000
O O8 0.760253 0.591027 0.384561
O O9 0.836595 0.827778 0.343982
O O10 0.241035 0.340917 0.396963
O O11 0.164058 0.295285 0.196028
O O12 0.110505 0.506836 0.427388
O O13 0.592296 0.794430 0.353870
O O14 0.986416 0.318143 0.394086
O O15 0.860883 0.952864 0.581845
O O16 0.594380 0.912240 0.423932
O O17 0.000000 0.500000 0.500000
#
# Coordination Sequence:
#
# PCOD9072394 Si02
#       8
#     2   2   2   2   2   2   2   2
#     4   9  17  28  48  74 111 145 168 216 272 330
#     4   9  17  29  49  83 115 137 174 225 282 327
#     4  10  19  36  58  87 118 141 183 238 275 331
#     4   8  16  26  43  80 115 138 163 218 279 324
#     4  10  20  37  54  82 117 142 186 233 275 334
#     4  11  20  35  61  82 107 150 182 234 291 322
#     4  12  26  38  53  83 116 151 190 228 277 338
#     4   9  16  32  57  84 115 140 179 234 284 327
#
# _framework density 18.795862
#
# number of rings (size 3 to 8) (size 9 to 14) (size 15 to 20)
#    0.000    2.250    2.500    3.375    1.750    4.500 
#    0.000    0.000    0.000    0.750    0.000    7.000 
#    0.000    0.000    0.000    0.000    0.000    0.000 
#
# Total GULP energy -89161.667420 kJ/mol
# GULP energy per Si atom -5572.604214 kJ/mol
# Density = 1.875308 g / cm^3
# Si number density = 18.795862 Si / 1000 Ang^3
#
#
#
# Elastic Constant Matrix: (Units=GPa)
#
#
# Indices 1 2 3 4 5 6 
#
# 1 98.3388 16.6241 46.6051 6.1912 11.5439 -9.0554
# 2 16.6241 25.1044 31.6878 2.3504 4.8747 -16.1483
# 3 46.6051 31.6878 124.6359 17.0895 12.4941 -20.9874
# 4 6.1912 2.3504 17.0895 8.1724 -7.1648 0.4731
# 5 11.5439 4.8747 12.4941 -7.1648 16.4652 1.5050
# 6 -9.0554 -16.1483 -20.9874 0.4731 1.5050 17.5556
#
#
#
# Elastic Compliance Matrix: (Units=1/GPa)
#
#
# Indices 1 2 3 4 5 6 
#
# 1 0.012199 -0.010094 -0.006805 0.014903 0.007195 -0.012147
# 2 -0.010094 0.072709 -0.039493 0.133042 0.072989 0.004619
# 3 -0.006805 -0.039493 -0.000032 0.060339 0.046905 -0.045523
# 4 0.014903 0.133042 0.060339 -0.273098 -0.235462 0.229746
# 5 0.007195 0.072989 0.046905 -0.235462 -0.117072 0.143307
# 6 -0.012147 0.004619 -0.045523 0.229746 0.143307 -0.017955
#
#
# Mechanical properties :
#
#
# Convention : Reuss Voigt Hill
#
# Bulk Modulus (GPa) = -35.83228 48.65703 6.41237
# Shear Modulus (GPa) = -22.75133 18.64944 -2.05094
#
# Velocity S-wave (km/s) = -3.48292 3.15335 -1.04572
# Velocity P-wave (km/s) = 5.93966 6.26111 1.40034
#
# Compressibility (1/GPa) = -0.02790779
#
# Stress axis : x y z
#
# Youngs Moduli (GPa) = 81.97295 13.75343 -31075.85286
#
# Poissons Ratio (x) = 0.13882 -211.48530
# Poissons Ratio (y) = 0.82742 -1227.26900
# Poissons Ratio (z) = 0.55786 0.54316
#
# Static dielectric constant tensor:
#      x y z
#    x 1.670110 -0.027700 0.046800 
#    y -0.027700 1.656070 -0.002900 
#    z 0.046800 -0.002900 1.676830 
# 
# From -- ./inp_files/271734.got.cif
#   From: 2010.05.17/outbox.ucp.g08.bks.cvg/sg2_136_cif.got.tgz:271734.got - 2010.06.11 11:32:03.
