data_PCOD9072297
_publ_section_title
;
Structure prediction by ZEFSAII (Michael W. Deem and Ramdas Pophale) SiO2 
 PCOD9072297
Probable space group: P -1
;
_chemical_formula_sum "Si O2"
_cell_formula_units_Z 16
_cell_length_a 11.470523
_cell_length_b 14.686338
_cell_length_c 22.482959
_cell_angle_alpha 150.773681
_cell_angle_beta 30.735133
_cell_angle_gamma 130.091765
_cell_volume 855.415265
_symmetry_space_group_name_H-M "P -1"
_symmetry_group_IT_number 2
_symmetry_cell_setting 'triclinic'
loop_
_space_group_symop_operation_xyz
x,y,z
-x,-y,-z
loop_
_atom_site_type_symbol
_atom_site_label
_atom_site_fract_x
_atom_site_fract_y
_atom_site_fract_z
Si Si1 0.133782 0.130929 0.593845
Si Si2 0.152609 0.118190 0.368922
Si Si3 0.414000 0.280839 0.854866
Si Si4 0.085855 0.454813 0.504650
Si Si5 0.857992 0.394945 0.754229
Si Si6 0.980737 0.460635 0.055162
Si Si7 0.620189 0.240272 0.107507
Si Si8 0.355085 0.144274 0.055408
O O1 0.147191 0.317334 0.730339
O O2 0.954640 0.233630 0.674666
O O3 0.405400 0.959697 0.357635
O O4 0.002125 0.013905 0.623499
O O5 0.072153 0.248965 0.417861
O O6 0.077771 0.295935 0.553192
O O7 0.445695 0.966739 0.147179
O O8 0.608963 0.387539 0.831056
O O9 0.227343 0.384092 0.051212
O O10 0.249269 0.342023 0.902474
O O11 0.381757 0.397918 0.340311
O O12 0.000000 0.500000 0.500000
O O13 0.892371 0.654106 0.737821
O O14 0.821814 0.329484 0.060288
O O15 0.000000 0.500000 0.000000
O O16 0.510316 0.207631 0.073614
O O17 0.716752 0.023975 0.976563
#
# Coordination Sequence:
#
# PCOD9072297 Si02
#       8
#     2   2   2   2   2   2   2   2
#     4  10  21  36  55  83 116 148 181 227 280 328
#     4  10  18  30  54  84 106 132 180 232 274 321
#     4   9  19  35  53  77 111 151 181 215 275 327
#     4   9  19  32  51  76 102 140 183 227 269 312
#     4   9  19  35  56  83 112 140 188 239 270 318
#     4  11  23  35  52  83 120 151 179 217 273 345
#     4   9  19  35  50  73 108 142 181 223 265 322
#     4   9  18  34  55  73 100 144 186 228 270 306
#
# _framework density 18.704366
#
# number of rings (size 3 to 8) (size 9 to 14) (size 15 to 20)
#    0.000    2.500    0.000    3.000    0.000   11.500 
#    0.000    0.000    0.000   12.000    0.000   24.500 
#    0.000    0.000    0.000    0.000    0.000    0.000 
#
# Total GULP energy -89160.596586 kJ/mol
# GULP energy per Si atom -5572.537287 kJ/mol
# Density = 1.866179 g / cm^3
# Si number density = 18.704366 Si / 1000 Ang^3
#
#
#
# Elastic Constant Matrix: (Units=GPa)
#
#
# Indices 1 2 3 4 5 6 
#
# 1 73.7835 44.2034 32.3289 0.4962 -5.5578 6.1793
# 2 44.2034 95.1810 37.4509 4.8292 -4.2581 4.4990
# 3 32.3289 37.4509 155.6192 0.6037 0.1343 2.2320
# 4 0.4962 4.8292 0.6037 21.4986 -10.0753 2.9092
# 5 -5.5578 -4.2581 0.1343 -10.0753 25.1910 -0.6029
# 6 6.1793 4.4990 2.2320 2.9092 -0.6029 15.6425
#
#
#
# Elastic Compliance Matrix: (Units=1/GPa)
#
#
# Indices 1 2 3 4 5 6 
#
# 1 0.020306 -0.008317 -0.002153 0.004489 0.004738 -0.005975
# 2 -0.008317 0.015287 -0.001934 -0.003452 -0.000626 -0.000218
# 3 -0.002153 -0.001934 0.007335 -0.000198 -0.000912 0.000362
# 4 0.004489 -0.003452 -0.000198 0.059990 0.024139 -0.010979
# 5 0.004738 -0.000626 -0.000912 0.024139 0.050197 -0.004116
# 6 -0.005975 -0.000218 0.000362 -0.010979 -0.004116 0.068183
#
#
# Mechanical properties :
#
#
# Convention : Reuss Voigt Hill
#
# Bulk Modulus (GPa) = 55.18511 61.39446 58.28978
# Shear Modulus (GPa) = 19.82979 26.50646 23.16812
#
# Velocity S-wave (km/s) = 3.25956 3.76856 3.52326
# Velocity P-wave (km/s) = 6.61318 7.19937 6.91249
#
# Compressibility (1/GPa) = 0.01812083
#
# Stress axis : x y z
#
# Youngs Moduli (GPa) = 49.24647 65.41448 136.33252
#
# Poissons Ratio (x) = 0.54403 0.29349
# Poissons Ratio (y) = 0.40957 0.26369
# Poissons Ratio (z) = 0.10602 0.12652
#
# Static dielectric constant tensor:
#      x y z
#    x 1.649910 -0.023580 0.034510 
#    y -0.023580 1.631220 -0.010000 
#    z 0.034510 -0.010000 1.719300 
# 
# From -- ./inp_files/458122.got.cif
#   From: 2010.05.17/outbox.cif.g08.bks.cpg/sg2_230_cif.got.tgz:458122.got - 2010.06.03 11:33:40.
