data_PCOD9072346
_publ_section_title
;
Structure prediction by ZEFSAII (Michael W. Deem and Ramdas Pophale) SiO2 
 PCOD9072346
Probable space group: P -1
;
_chemical_formula_sum "Si O2"
_cell_formula_units_Z 16
_cell_length_a 15.000000
_cell_length_b 15.000000
_cell_length_c 15.000000
_cell_angle_alpha 140.000000
_cell_angle_beta 40.000000
_cell_angle_gamma 160.000000
_cell_volume 725.414092
_symmetry_space_group_name_H-M "P -1"
_symmetry_group_IT_number 2
_symmetry_cell_setting 'triclinic'
loop_
_space_group_symop_operation_xyz
x,y,z
-x,-y,-z
loop_
_atom_site_type_symbol
_atom_site_label
_atom_site_fract_x
_atom_site_fract_y
_atom_site_fract_z
Si Si1 0.296324 0.954435 0.423909
Si Si2 0.603393 0.761432 0.278188
Si Si3 0.830357 0.423949 0.263386
Si Si4 0.168916 0.167409 0.179333
Si Si5 0.157840 0.333757 0.687099
Si Si6 0.721541 0.762239 0.648013
Si Si7 0.570133 0.217960 0.734835
Si Si8 0.033987 0.746582 0.895725
O O1 0.315866 0.839423 0.387529
O O2 0.017480 0.681592 0.380250
O O3 0.365632 0.148918 0.577929
O O4 0.528592 0.155353 0.325349
O O5 0.440137 0.477515 0.180103
O O6 0.450685 0.737020 0.312556
O O7 0.913872 0.015325 0.208183
O O8 0.844319 0.510008 0.223606
O O9 0.941145 0.363050 0.140728
O O10 0.174155 0.194213 0.302363
O O11 0.106114 0.951799 0.046302
O O12 0.405155 0.517631 0.704214
O O13 0.222749 0.298986 0.521148
O O14 0.884682 0.039485 0.708556
O O15 0.754939 0.478391 0.852985
O O16 0.273285 0.946003 0.793266
#
# Coordination Sequence:
#
# PCOD9072346 Si02
#       8
#     2   2   2   2   2   2   2   2
#     4  10  20  36  58  87 117 140 182 238 285 329
#     4  12  23  36  60  85 112 149 188 234 284 333
#     4  10  20  37  61  83 111 152 187 222 278 338
#     4  12  25  39  56  82 117 152 188 228 277 329
#     4  10  19  35  58  82 109 140 180 224 280 338
#     4  10  21  35  54  83 114 139 174 232 281 326
#     4  10  22  39  59  83 111 149 191 234 276 323
#     4  10  23  41  57  79 115 153 190 230 268 325
#
# _framework density 22.056367999999999
#
# number of rings (size 3 to 8) (size 9 to 14) (size 15 to 20)
#    0.000    1.500    0.000    5.625    0.000    5.000 
#    0.000    6.250    0.000    0.000    0.000    0.000 
#    0.000    0.000    0.000    0.000    0.000    0.000 
#
# Total GULP energy -89313.954566 kJ/mol
# GULP energy per Si atom -5582.122160 kJ/mol
# Density = 2.200617 g / cm^3
# Si number density = 22.056368 Si / 1000 Ang^3
#
#
#
# Elastic Constant Matrix: (Units=GPa)
#
#
# Indices 1 2 3 4 5 6 
#
# 1 89.4163 22.9445 -4.7726 12.2938 -8.6917 8.4400
# 2 22.9445 125.0228 11.0419 36.6210 -3.8581 4.8755
# 3 -4.7726 11.0419 27.3629 25.5024 -13.0492 13.7626
# 4 12.2938 36.6210 25.5024 31.9114 -4.9425 3.6114
# 5 -8.6917 -3.8581 -13.0492 -4.9425 14.2817 6.4827
# 6 8.4400 4.8755 13.7626 3.6114 6.4827 20.5877
#
#
#
# Elastic Compliance Matrix: (Units=1/GPa)
#
#
# Indices 1 2 3 4 5 6 
#
# 1 0.008627 -0.003777 -0.013529 0.009762 -0.008029 0.007217
# 2 -0.003777 0.011359 -0.005794 -0.009645 -0.011516 0.008049
# 3 -0.013529 -0.005794 -0.036496 0.027930 -0.053053 0.043121
# 4 0.009762 -0.009645 0.027930 0.030606 0.059668 -0.044546
# 5 -0.008029 -0.011516 -0.053053 0.059668 0.023473 0.023626
# 6 0.007217 0.008049 0.043121 -0.044546 0.023626 0.015257
#
#
# Mechanical properties :
#
#
# Convention : Reuss Voigt Hill
#
# Bulk Modulus (GPa) = -15.94653 33.35883 8.70615
# Shear Modulus (GPa) = 64.00226 27.52872 45.76549
#
# Velocity S-wave (km/s) = 5.39264 3.53669 4.56009
# Velocity P-wave (km/s) = 5.61503 5.64223 5.62864
#
# Compressibility (1/GPa) = -0.06270956
#
# Stress axis : x y z
#
# Youngs Moduli (GPa) = 115.91695 88.03337 -27.39998
#
# Poissons Ratio (x) = 0.33252 -0.37069
# Poissons Ratio (y) = 0.43784 -0.15875
# Poissons Ratio (z) = 1.56820 0.51005
#
# Static dielectric constant tensor:
#      x y z
#    x 1.832310 0.024240 -0.050680 
#    y 0.024240 1.758120 -0.042260 
#    z -0.050680 -0.042260 1.854560 
# 
# From -- ./inp_files/73337.got.cif
#   From: 2010.05.17/outbox.ucp.g08.bks.cvg/sg2_37_cif.got.tgz:73337.got - 2010.06.11 11:32:03.
