data_PCOD9072795
_publ_section_title
;
Structure prediction by ZEFSAII (Michael W. Deem and Ramdas Pophale) SiO2 
 PCOD9072795
Probable space group: P -1
;
_chemical_formula_sum "Si O2"
_cell_formula_units_Z 16
_cell_length_a 21.000000
_cell_length_b 12.000000
_cell_length_c 12.000000
_cell_angle_alpha 150.000000
_cell_angle_beta 40.000000
_cell_angle_gamma 150.000000
_cell_volume 754.441492
_symmetry_space_group_name_H-M "P -1"
_symmetry_group_IT_number 2
_symmetry_cell_setting 'triclinic'
loop_
_space_group_symop_operation_xyz
x,y,z
-x,-y,-z
loop_
_atom_site_type_symbol
_atom_site_label
_atom_site_fract_x
_atom_site_fract_y
_atom_site_fract_z
Si Si1 0.435595 0.330236 0.762002
Si Si2 0.130998 0.164126 0.729239
Si Si3 0.627436 0.751712 0.483722
Si Si4 0.706401 0.289430 0.581856
Si Si5 0.783591 0.409797 0.815144
Si Si6 0.976913 0.521619 0.397726
Si Si7 0.971623 0.311655 0.980284
Si Si8 0.690658 0.718029 0.872024
O O1 0.388711 0.326703 0.696080
O O2 0.580318 0.609703 0.835936
O O3 0.419308 0.037376 0.529923
O O4 0.362531 0.291589 0.941830
O O5 0.256126 0.201819 0.566819
O O6 0.019359 0.836268 0.629037
O O7 0.180946 0.371453 0.947400
O O8 0.068832 0.241414 0.791747
O O9 0.500000 0.500000 0.500000
O O10 0.675063 0.076040 0.703667
O O11 0.733268 0.442650 0.797299
O O12 0.710172 0.478854 0.646603
O O13 0.825996 0.288361 0.414570
O O14 0.919280 0.475584 0.672236
O O15 0.998288 0.483634 0.207489
O O16 0.000000 0.500000 0.000000
O O17 0.825444 0.022541 0.930496
#
# Coordination Sequence:
#
# PCOD9072795 Si02
#       8
#     2   2   2   2   2   2   2   2
#     4  10  23  40  61  91 126 162 206 256 304 367
#     4  10  21  41  61  90 119 160 207 248 315 364
#     4  10  22  42  63  90 125 162 208 259 306 366
#     4  11  19  37  60  91 122 157 203 246 308 363
#     4   9  21  35  60  92 123 156 199 250 307 366
#     4  10  20  37  58  88 124 155 197 254 300 364
#     4  11  24  42  61  91 126 164 208 255 309 370
#     4  11  22  40  63  89 125 167 204 252 311 367
#
# _framework density 21.207740999999999
#
# number of rings (size 3 to 8) (size 9 to 14) (size 15 to 20)
#    0.000    1.750    2.500    1.500    0.000    4.500 
#    2.250    2.500    0.000    0.000    0.000    0.000 
#    0.000    0.000    0.000    0.000    0.000    0.000 
#
# Total GULP energy -89192.666665 kJ/mol
# GULP energy per Si atom -5574.541667 kJ/mol
# Density = 2.115947 g / cm^3
# Si number density = 21.207741 Si / 1000 Ang^3
#
#
#
# Elastic Constant Matrix: (Units=GPa)
#
#
# Indices 1 2 3 4 5 6 
#
# 1 117.1809 50.5520 18.6539 18.7395 0.9007 5.2257
# 2 50.5520 124.5141 15.9999 15.4564 3.2846 11.1430
# 3 18.6539 15.9999 31.6981 21.7863 8.2202 5.1391
# 4 18.7395 15.4564 21.7863 21.6275 2.5437 10.3019
# 5 0.9007 3.2846 8.2202 2.5437 23.8641 9.0146
# 6 5.2257 11.1430 5.1391 10.3019 9.0146 25.8749
#
#
#
# Elastic Compliance Matrix: (Units=1/GPa)
#
#
# Indices 1 2 3 4 5 6 
#
# 1 0.011477 -0.003889 0.003322 -0.012280 -0.001253 0.004023
# 2 -0.003889 0.010210 -0.003257 0.001016 0.001184 -0.003781
# 3 0.003322 -0.003257 0.178704 -0.206317 -0.065800 0.070306
# 4 -0.012280 0.001016 -0.206317 0.305181 0.078892 -0.105971
# 5 -0.001253 0.001184 -0.065800 0.078892 0.072628 -0.043901
# 6 0.004023 -0.003781 0.070306 -0.105971 -0.043901 0.082986
#
#
# Mechanical properties :
#
#
# Convention : Reuss Voigt Hill
#
# Bulk Modulus (GPa) = 5.18827 49.31163 27.24995
# Shear Modulus (GPa) = 6.82052 26.81914 16.81983
#
# Velocity S-wave (km/s) = 1.79528 3.55997 2.81926
# Velocity P-wave (km/s) = 2.59790 6.34035 4.84505
#
# Compressibility (1/GPa) = 0.19274261
#
# Stress axis : x y z
#
# Youngs Moduli (GPa) = 87.13258 97.94620 5.59583
#
# Poissons Ratio (x) = 0.38091 -0.01859
# Poissons Ratio (y) = 0.33885 0.01823
# Poissons Ratio (z) = -0.28946 0.31903
#
# Static dielectric constant tensor:
#      x y z
#    x 1.778880 0.031560 -0.049300 
#    y 0.031560 1.753310 -0.049310 
#    z -0.049300 -0.049310 1.873550 
# 
# From -- ./inp_files/69709.got.cif
#   From: 2010.05.17/outbox.ucp.g08.bks.cvg/sg2_35_cif.got.tgz:69709.got - 2010.06.11 11:32:03.
