data_PCOD9072351
_publ_section_title
;
Structure prediction by ZEFSAII (Michael W. Deem and Ramdas Pophale) SiO2 
 PCOD9072351
Probable space group: P -1
;
_chemical_formula_sum "Si O2"
_cell_formula_units_Z 16
_cell_length_a 12.000000
_cell_length_b 12.000000
_cell_length_c 12.000000
_cell_angle_alpha 120.000000
_cell_angle_beta 80.000000
_cell_angle_gamma 50.000000
_cell_volume 763.164900
_symmetry_space_group_name_H-M "P -1"
_symmetry_group_IT_number 2
_symmetry_cell_setting 'triclinic'
loop_
_space_group_symop_operation_xyz
x,y,z
-x,-y,-z
loop_
_atom_site_type_symbol
_atom_site_label
_atom_site_fract_x
_atom_site_fract_y
_atom_site_fract_z
Si Si1 0.850455 0.082884 0.163880
Si Si2 0.244555 0.962057 0.426113
Si Si3 0.944247 0.401549 0.100352
Si Si4 0.828665 0.141291 0.827351
Si Si5 0.714916 0.713462 0.070497
Si Si6 0.358165 0.148730 0.487393
Si Si7 0.498637 0.487315 0.255696
Si Si8 0.764320 0.415661 0.805031
O O1 0.609973 0.351100 0.288289
O O2 0.934864 0.058631 0.256240
O O3 0.000000 0.000000 0.000000
O O4 0.923434 0.860752 0.046618
O O5 0.273795 0.084560 0.459885
O O6 0.024752 0.171237 0.640083
O O7 0.194886 0.942460 0.306367
O O8 0.424113 0.704956 0.338620
O O9 0.800754 0.554050 0.087371
O O10 0.799298 0.578453 0.322695
O O11 0.096632 0.378462 0.052423
O O12 0.722743 0.365557 0.892939
O O13 0.676006 0.267707 0.023350
O O14 0.521686 0.997584 0.280455
O O15 0.659681 0.655893 0.964014
O O16 0.500000 0.000000 0.500000
O O17 0.298618 0.592211 0.303234
#
# Coordination Sequence:
#
# PCOD9072351 Si02
#       8
#     2   2   2   2   2   2   2   2
#     4  10  22  38  62  86 125 164 195 247 307 369
#     4  11  21  36  59  93 118 153 209 257 301 347
#     4  10  20  38  59  91 121 155 204 249 299 362
#     4  10  19  35  59  83 119 159 201 252 294 361
#     4  10  19  35  63  88 119 157 201 256 302 347
#     4  10  21  33  61  93 117 151 200 261 299 352
#     4  10  21  35  58  88 118 164 199 245 310 364
#     4  11  19  36  59  88 122 155 206 258 298 348
#
# _framework density 20.965325
#
# number of rings (size 3 to 8) (size 9 to 14) (size 15 to 20)
#    0.000    1.750    2.500    4.500    5.250    0.000 
#    0.000    3.125   11.000    3.750    0.000    0.000 
#    0.000    0.000    0.000    0.000    0.000    0.000 
#
# Total GULP energy -89105.686441 kJ/mol
# GULP energy per Si atom -5569.105403 kJ/mol
# Density = 2.091761 g / cm^3
# Si number density = 20.965325 Si / 1000 Ang^3
#
#
#
# Elastic Constant Matrix: (Units=GPa)
#
#
# Indices 1 2 3 4 5 6 
#
# 1 60.2917 7.4727 -4.1533 -8.9422 20.8013 -20.1076
# 2 7.4727 91.6147 -0.4337 7.6246 8.1885 -23.2269
# 3 -4.1533 -0.4337 65.9443 -6.2677 8.4120 -10.9745
# 4 -8.9422 7.6246 -6.2677 21.2405 -5.3514 -2.6364
# 5 20.8013 8.1885 8.4120 -5.3514 30.7970 -1.7201
# 6 -20.1076 -23.2269 -10.9745 -2.6364 -1.7201 21.2612
#
#
#
# Elastic Compliance Matrix: (Units=1/GPa)
#
#
# Indices 1 2 3 4 5 6 
#
# 1 0.094121 0.032232 0.043160 0.041661 -0.068530 0.146125
# 2 0.032232 0.027540 0.018322 0.010498 -0.028418 0.069030
# 3 0.043160 0.018322 0.038262 0.023868 -0.035822 0.080645
# 4 0.041661 0.010498 0.023868 0.071297 -0.021134 0.070321
# 5 -0.068530 -0.028418 -0.035822 -0.021134 0.086283 -0.109988
# 6 0.146125 0.069030 0.080645 0.070321 -0.109988 0.302091
#
#
# Mechanical properties :
#
#
# Convention : Reuss Voigt Hill
#
# Bulk Modulus (GPa) = 2.87894 24.84690 13.86292
# Shear Modulus (GPa) = 9.12491 28.99073 19.05782
#
# Velocity S-wave (km/s) = 2.08850 3.72263 3.01826
# Velocity P-wave (km/s) = 2.68178 5.50949 4.33280
#
# Compressibility (1/GPa) = 0.34735021
#
# Stress axis : x y z
#
# Youngs Moduli (GPa) = 10.62467 36.31056 26.13549
#
# Poissons Ratio (x) = -1.17037 -1.12800
# Poissons Ratio (y) = -0.34246 -0.47885
# Poissons Ratio (z) = -0.45856 -0.66528
#
# Static dielectric constant tensor:
#      x y z
#    x 1.894950 -0.042890 -0.108060 
#    y -0.042890 1.729910 0.023600 
#    z -0.108060 0.023600 1.881560 
# 
# From -- ./inp_files/418940.got.cif
#   From: 2010.05.17/outbox.ucp.g08.bks.cvg/sg2_210_cif.got.tgz:418940.got - 2010.06.11 11:32:03.
