data_PCOD9072433
_publ_section_title
;
Structure prediction by ZEFSAII (Michael W. Deem and Ramdas Pophale) SiO2 
 PCOD9072433
Probable space group: P -1
;
_chemical_formula_sum "Si O2"
_cell_formula_units_Z 16
_cell_length_a 12.000000
_cell_length_b 9.000000
_cell_length_c 9.000000
_cell_angle_alpha 90.000000
_cell_angle_beta 90.000000
_cell_angle_gamma 50.000000
_cell_volume 744.595199
_symmetry_space_group_name_H-M "P -1"
_symmetry_group_IT_number 2
_symmetry_cell_setting 'triclinic'
loop_
_space_group_symop_operation_xyz
x,y,z
-x,-y,-z
loop_
_atom_site_type_symbol
_atom_site_label
_atom_site_fract_x
_atom_site_fract_y
_atom_site_fract_z
Si Si1 0.551766 0.124099 0.963930
Si Si2 0.661183 0.496146 0.853995
Si Si3 0.516793 0.250107 0.430832
Si Si4 0.929891 0.732329 0.615313
Si Si5 0.944033 0.461575 0.854332
Si Si6 0.234298 0.361060 0.587806
Si Si7 0.305865 0.841691 0.290303
Si Si8 0.752814 0.890428 0.222232
O O1 0.605611 0.106057 0.797881
O O2 0.441448 0.350232 0.014522
O O3 0.500000 0.000000 0.000000
O O4 0.691776 0.010651 0.070989
O O5 0.566135 0.603560 0.705656
O O6 0.801770 0.481844 0.863797
O O7 0.705904 0.285911 0.825064
O O8 0.383739 0.274260 0.508418
O O9 0.599340 0.269737 0.560721
O O10 0.645070 0.050159 0.347050
O O11 0.915187 0.623688 0.745183
O O12 0.845821 0.713394 0.486449
O O13 0.103951 0.593967 0.584166
O O14 0.846386 0.954265 0.657497
O O15 0.073288 0.246583 0.790453
O O16 0.000000 0.500000 0.000000
O O17 0.266011 0.272604 0.753338
#
# Coordination Sequence:
#
# PCOD9072433 Si02
#       8
#     2   2   2   2   2   2   2   2
#     4  11  23  41  66  95 124 166 217 262 311 377
#     4  11  25  43  62  92 133 168 209 265 322 378
#     4  11  22  38  65  95 126 170 210 259 320 380
#     4  10  21  37  62  93 126 159 215 258 312 374
#     4  11  22  42  65  91 124 169 217 268 313 379
#     4  10  19  36  63  93 126 160 210 269 304 365
#     4  12  24  41  63  95 133 170 206 260 323 386
#     4  10  21  36  63  95 122 157 213 271 311 364
#
# _framework density 21.488185999999999
#
# number of rings (size 3 to 8) (size 9 to 14) (size 15 to 20)
#    0.000    1.250    2.500    4.125    1.750    1.000 
#    0.000    7.500    0.000    0.000    0.000    0.000 
#    0.000    0.000    0.000    0.000    0.000    0.000 
#
# Total GULP energy -89166.028157 kJ/mol
# GULP energy per Si atom -5572.876760 kJ/mol
# Density = 2.143928 g / cm^3
# Si number density = 21.488186 Si / 1000 Ang^3
#
#
#
# Elastic Constant Matrix: (Units=GPa)
#
#
# Indices 1 2 3 4 5 6 
#
# 1 51.1509 37.9711 16.2339 10.9306 14.6123 -18.7501
# 2 37.9711 136.3207 27.1629 20.0663 6.7746 -26.0427
# 3 16.2339 27.1629 74.1180 6.6302 4.0447 -12.6053
# 4 10.9306 20.0663 6.6302 33.5827 -0.3618 -0.0426
# 5 14.6123 6.7746 4.0447 -0.3618 24.3858 9.0873
# 6 -18.7501 -26.0427 -12.6053 -0.0426 9.0873 37.3712
#
#
#
# Elastic Compliance Matrix: (Units=1/GPa)
#
#
# Indices 1 2 3 4 5 6 
#
# 1 0.047751 -0.003251 -0.000596 -0.013867 -0.039389 0.031054
# 2 -0.003251 0.010565 -0.001540 -0.004976 -0.003020 0.005941
# 3 -0.000596 -0.001540 0.015346 -0.001948 -0.003525 0.004659
# 4 -0.013867 -0.004976 -0.001948 0.037804 0.016153 -0.014967
# 5 -0.039389 -0.003020 -0.003525 0.016153 0.082317 -0.043054
# 6 0.031054 0.005941 0.004659 -0.014967 -0.043054 0.058503
#
#
# Mechanical properties :
#
#
# Convention : Reuss Voigt Hill
#
# Bulk Modulus (GPa) = 15.90099 47.14725 31.52412
# Shear Modulus (GPa) = 17.60425 31.08273 24.34349
#
# Velocity S-wave (km/s) = 2.86536 3.80742 3.36948
# Velocity P-wave (km/s) = 4.28521 6.42785 5.46261
#
# Compressibility (1/GPa) = 0.06288917
#
# Stress axis : x y z
#
# Youngs Moduli (GPa) = 20.94188 94.64876 65.16426
#
# Poissons Ratio (x) = 0.30767 0.03885
# Poissons Ratio (y) = 0.06808 0.10034
# Poissons Ratio (z) = 0.01249 0.14573
#
# Static dielectric constant tensor:
#      x y z
#    x 1.774980 -0.026460 0.050590 
#    y -0.026460 1.867330 -0.072510 
#    z 0.050590 -0.072510 1.978910 
# 
# From -- ./inp_files/184260.got.cif
#   From: 2010.05.17/outbox.ucp.g08.bks.cvg/sg2_93_cif.got.tgz:184260.got - 2010.06.11 11:32:03.
