data_PCOD9072038
_publ_section_title
;
Structure prediction by ZEFSAII (Michael W. Deem and Ramdas Pophale) SiO2 
 PCOD9072038
Probable space group: P -1
;
_chemical_formula_sum "Si O2"
_cell_formula_units_Z 15
_cell_length_a 12.000000
_cell_length_b 9.000000
_cell_length_c 18.000000
_cell_angle_alpha 110.000000
_cell_angle_beta 30.000000
_cell_angle_gamma 90.000000
_cell_volume 709.019793
_symmetry_space_group_name_H-M "P -1"
_symmetry_group_IT_number 2
_symmetry_cell_setting 'triclinic'
loop_
_space_group_symop_operation_xyz
x,y,z
-x,-y,-z
loop_
_atom_site_type_symbol
_atom_site_label
_atom_site_fract_x
_atom_site_fract_y
_atom_site_fract_z
Si Si1 0.500000 0.000000 0.000000
Si Si2 0.484448 0.630685 0.724488
Si Si3 0.047869 0.845704 0.649390
Si Si4 0.611311 0.603036 0.812987
Si Si5 0.979927 0.780863 0.248836
Si Si6 0.092668 0.283613 0.884390
Si Si7 0.417432 0.111412 0.375824
Si Si8 0.897467 0.878974 0.571340
O O1 0.364876 0.244878 0.130366
O O2 0.211046 0.077550 0.133296
O O3 0.691120 0.390046 0.545422
O O4 0.594506 0.651210 0.743002
O O5 0.486481 0.756739 0.679674
O O6 0.172509 0.707419 0.937225
O O7 0.868348 0.909337 0.683708
O O8 0.129628 0.988720 0.640799
O O9 0.868775 0.360839 0.623194
O O10 0.323265 0.644201 0.015915
O O11 0.867971 0.748796 0.232862
O O12 0.867494 0.752619 0.384637
O O13 0.361149 0.090940 0.739523
O O14 0.000000 0.500000 0.000000
O O15 0.367982 0.047365 0.314465
O O16 0.000000 0.000000 0.500000
#
# Coordination Sequence:
#
# PCOD9072038 Si02
#       8
#     1   2   2   2   2   2   2   2
#     4  10  18  34  58  92 122 168 206 246 310 378
#     4  10  22  42  66  90 126 166 216 258 313 379
#     4  10  20  41  64  91 130 169 202 256 325 372
#     4   9  21  39  62  89 132 173 205 252 323 381
#     4  10  22  41  64  90 124 166 210 262 315 373
#     4  11  25  45  67  85 123 174 216 259 318 380
#     4  12  23  39  64 100 124 162 211 269 309 371
#     4  11  22  38  64  96 131 166 211 254 312 392
#
# _framework density 21.155968000000001
#
# number of rings (size 3 to 8) (size 9 to 14) (size 15 to 20)
#    0.000    1.600    1.333    3.200    3.733    2.667 
#    2.400    8.000    0.000    0.000    0.000    0.000 
#    0.000    0.000    0.000    0.000    0.000    0.000 
#
# Total GULP energy -83534.634819 kJ/mol
# GULP energy per Si atom -5568.975655 kJ/mol
# Density = 2.110782 g / cm^3
# Si number density = 21.155968 Si / 1000 Ang^3
#
#
#
# Elastic Constant Matrix: (Units=GPa)
#
#
# Indices 1 2 3 4 5 6 
#
# 1 94.6657 33.3538 1.9808 12.0331 10.9441 6.6855
# 2 33.3538 86.1147 8.9708 -3.9087 9.5194 13.6082
# 3 1.9808 8.9708 55.1899 7.1904 2.7510 3.3086
# 4 12.0331 -3.9087 7.1904 34.6165 6.0664 10.3827
# 5 10.9441 9.5194 2.7510 6.0664 32.2201 7.1498
# 6 6.6855 13.6082 3.3086 10.3827 7.1498 28.7070
#
#
#
# Elastic Compliance Matrix: (Units=1/GPa)
#
#
# Indices 1 2 3 4 5 6 
#
# 1 0.013380 -0.005634 0.001176 -0.005743 -0.002362 0.002084
# 2 -0.005634 0.015886 -0.002720 0.007068 -0.002118 -0.007934
# 3 0.001176 -0.002720 0.019129 -0.004807 -0.000472 0.000667
# 4 -0.005743 0.007068 -0.004807 0.037561 -0.003663 -0.014132
# 5 -0.002362 -0.002118 -0.000472 -0.003663 0.034447 -0.005646
# 6 0.002084 -0.007934 0.000667 -0.014132 -0.005646 0.044551
#
#
# Mechanical properties :
#
#
# Convention : Reuss Voigt Hill
#
# Bulk Modulus (GPa) = 29.37612 36.06456 32.72034
# Shear Modulus (GPa) = 26.22529 31.88639 29.05584
#
# Velocity S-wave (km/s) = 3.52464 3.88649 3.70998
# Velocity P-wave (km/s) = 5.52085 6.10112 5.81822
#
# Compressibility (1/GPa) = 0.03404125
#
# Stress axis : x y z
#
# Youngs Moduli (GPa) = 74.74068 62.94655 52.27693
#
# Poissons Ratio (x) = 0.35462 -0.06150
# Poissons Ratio (y) = 0.42106 0.14218
# Poissons Ratio (z) = -0.08793 0.17120
#
# Static dielectric constant tensor:
#      x y z
#    x 1.756670 0.060010 -0.114420 
#    y 0.060010 1.732890 0.081990 
#    z -0.114420 0.081990 1.579140 
# 
# From -- ./inp_files/258094.got.cif
#   From: 2010.05.17/outbox.ucp.g08.bks.cvg/sg2_130_cif.got.tgz:258094.got - 2010.06.11 11:32:03.
