data_PCOD9072672
_publ_section_title
;
Structure prediction by ZEFSAII (Michael W. Deem and Ramdas Pophale) SiO2 
 PCOD9072672
Probable space group: P -1
;
_chemical_formula_sum "Si O2"
_cell_formula_units_Z 14
_cell_length_a 21.000000
_cell_length_b 6.000000
_cell_length_c 21.000000
_cell_angle_alpha 110.000000
_cell_angle_beta 20.000000
_cell_angle_gamma 110.000000
_cell_volume 848.654876
_symmetry_space_group_name_H-M "P -1"
_symmetry_group_IT_number 2
_symmetry_cell_setting 'triclinic'
loop_
_space_group_symop_operation_xyz
x,y,z
-x,-y,-z
loop_
_atom_site_type_symbol
_atom_site_label
_atom_site_fract_x
_atom_site_fract_y
_atom_site_fract_z
Si Si1 0.163227 0.381130 0.656372
Si Si2 0.541028 0.518693 0.372700
Si Si3 0.269594 0.865964 0.536174
Si Si4 0.151708 0.828170 0.908778
Si Si5 0.251830 0.576222 0.956877
Si Si6 0.312372 0.101457 0.903926
Si Si7 0.248338 0.093025 0.715169
O O1 0.326713 0.436064 0.559132
O O2 0.202699 0.581910 0.581185
O O3 0.164181 0.086634 0.622096
O O4 0.957511 0.442075 0.875119
O O5 0.684050 0.340455 0.248685
O O6 0.610251 0.523754 0.234940
O O7 0.581851 0.748590 0.399065
O O8 0.469643 0.886059 0.316734
O O9 0.288332 0.952329 0.600217
O O10 0.189241 0.020634 0.949504
O O11 0.182912 0.924274 0.818137
O O12 0.932754 0.754276 0.111931
O O13 0.263660 0.381891 0.984627
O O14 0.290215 0.868841 0.950406
#
# Coordination Sequence:
#
# PCOD9072672 Si02
#       7
#     2   2   2   2   2   2   2
#     4  12  24  37  54  60  73  85  99 104 124 128
#     4  11  22  37  46  58  73  78  99 105 120 126
#     4  12  23  37  48  65  70  87  96 111 116 136
#     4  10  20  35  44  58  71  83  91 109 116 130
#     4  11  21  38  50  61  74  87  94 110 118 134
#     4  11  20  40  47  59  77  83  94 112 120 127
#     4  11  23  32  48  55  70  83  95 103 121 127
#
# _framework density 16.496694000000002
#
# number of rings (size 3 to 8) (size 9 to 14) (size 15 to 20)
#    0.000    0.857    5.714    3.857    4.000    2.857 
#    0.000    0.000    0.000    0.000    0.000    0.000 
#    0.000    0.000    0.000    0.000    0.000    0.000 
#
# Total GULP energy -77957.682452 kJ/mol
# GULP energy per Si atom -5568.405889 kJ/mol
# Density = 1.645915 g / cm^3
# Si number density = 16.496694 Si / 1000 Ang^3
#
#
#
# Elastic Constant Matrix: (Units=GPa)
#
#
# Indices 1 2 3 4 5 6 
#
# 1 3.9469 13.6502 4.3142 4.1642 -2.2735 -7.9655
# 2 13.6502 109.4145 9.5012 2.3478 -2.4754 -38.3621
# 3 4.3142 9.5012 85.0605 -2.5624 -16.5246 -2.8010
# 4 4.1642 2.3478 -2.5624 29.7481 -10.6224 -6.1296
# 5 -2.2735 -2.4754 -16.5246 -10.6224 6.1257 3.2038
# 6 -7.9655 -38.3621 -2.8010 -6.1296 3.2038 17.4665
#
#
#
# Elastic Compliance Matrix: (Units=1/GPa)
#
#
# Indices 1 2 3 4 5 6 
#
# 1 -4.244781 -0.604345 -0.153631 -0.606411 -1.609164 -3.205414
# 2 -0.604345 -0.039857 -0.014446 -0.052524 -0.187677 -0.349468
# 3 -0.153631 -0.014446 -0.025784 -0.075236 -0.214216 -0.093034
# 4 -0.606411 -0.052524 -0.075236 -0.134466 -0.493831 -0.360581
# 5 -1.609164 -0.187677 -0.214216 -0.493831 -1.367184 -1.102923
# 6 -3.205414 -0.349468 -0.093034 -0.360581 -1.102923 -2.111247
#
#
# Mechanical properties :
#
#
# Convention : Reuss Voigt Hill
#
# Bulk Modulus (GPa) = -0.17079 28.15035 13.98978
# Shear Modulus (GPa) = -0.60022 22.06515 10.73246
#
# Velocity S-wave (km/s) = -0.60385 3.66122 2.55342
# Velocity P-wave (km/s) = 0.76807 5.91388 4.14633
#
# Compressibility (1/GPa) = -5.85526332
#
# Stress axis : x y z
#
# Youngs Moduli (GPa) = -0.23558 -25.08990 -38.78447
#
# Poissons Ratio (x) = -15.16295 -5.95848
# Poissons Ratio (y) = -0.14237 -0.56026
# Poissons Ratio (z) = -0.03619 -0.36244
#
# Static dielectric constant tensor:
#      x y z
#    x 1.500410 -0.104470 -0.014480 
#    y -0.104470 1.778570 -0.035570 
#    z -0.014480 -0.035570 1.625040 
# 
# From -- ./inp_files/600683.got.cif
#   From: 2010.05.17/outbox.ucp.g08.bks.cvg/sg2_301_cif.got.tgz:600683.got - 2010.06.11 11:32:03.
