data_PCOD9072915
_publ_section_title
;
Structure prediction by ZEFSAII (Michael W. Deem and Ramdas Pophale) SiO2 
 PCOD9072915
Probable space group: P -1
;
_chemical_formula_sum "Si O2"
_cell_formula_units_Z 16
_cell_length_a 18.000000
_cell_length_b 15.000000
_cell_length_c 9.000000
_cell_angle_alpha 140.000000
_cell_angle_beta 140.000000
_cell_angle_gamma 30.000000
_cell_volume 740.097418
_symmetry_space_group_name_H-M "P -1"
_symmetry_group_IT_number 2
_symmetry_cell_setting 'triclinic'
loop_
_space_group_symop_operation_xyz
x,y,z
-x,-y,-z
loop_
_atom_site_type_symbol
_atom_site_label
_atom_site_fract_x
_atom_site_fract_y
_atom_site_fract_z
Si Si1 0.240907 0.911391 0.302690
Si Si2 0.321623 0.120765 0.845929
Si Si3 0.279739 0.593422 0.282670
Si Si4 0.049743 0.024157 0.417392
Si Si5 0.750191 0.080231 0.007081
Si Si6 0.140333 0.220681 0.978863
Si Si7 0.509928 0.489809 0.258536
Si Si8 0.913504 0.516878 0.238218
O O1 0.079383 0.012329 0.270739
O O2 0.368334 0.684770 0.210561
O O3 0.309702 0.970156 0.593369
O O4 0.220988 0.985667 0.202642
O O5 0.230920 0.222793 0.989761
O O6 0.233672 0.272069 0.771709
O O7 0.500000 0.000000 0.000000
O O8 0.196171 0.811299 0.423373
O O9 0.425636 0.476271 0.245470
O O10 0.359372 0.516696 0.469765
O O11 0.156639 0.582908 0.012642
O O12 0.044994 0.174558 0.687699
O O13 0.895659 0.059721 0.248559
O O14 0.599278 0.300606 0.062235
O O15 0.750704 0.952257 0.958547
O O16 0.041015 0.408015 0.162771
O O17 0.000000 0.500000 0.500000
#
# Coordination Sequence:
#
# PCOD9072915 Si02
#       8
#     2   2   2   2   2   2   2   2
#     4  10  23  40  58  94 132 160 206 266 327 377
#     4  11  26  46  66  89 127 185 223 262 309 390
#     4  10  20  39  65  92 124 165 211 258 325 389
#     4  10  20  38  66  94 121 163 204 268 324 380
#     4  12  20  36  63 100 128 153 203 269 336 382
#     4  11  23  42  67  95 125 169 226 262 316 396
#     4  10  21  36  65  96 127 161 206 266 332 386
#     4  12  25  44  67  95 135 173 220 271 322 378
#
# _framework density 21.618776
#
# number of rings (size 3 to 8) (size 9 to 14) (size 15 to 20)
#    0.000    1.250    2.500    3.750    3.500    0.000 
#    4.500    1.250    0.000    0.000    0.000    0.000 
#    0.000    0.000    0.000    0.000    0.000    0.000 
#
# Total GULP energy -89249.344898 kJ/mol
# GULP energy per Si atom -5578.084056 kJ/mol
# Density = 2.156957 g / cm^3
# Si number density = 21.618776 Si / 1000 Ang^3
#
#
#
# Elastic Constant Matrix: (Units=GPa)
#
#
# Indices 1 2 3 4 5 6 
#
# 1 67.1487 10.5609 35.8833 -12.6355 -26.8670 -6.3092
# 2 10.5609 62.5869 0.6988 7.2523 -11.0116 -1.5772
# 3 35.8833 0.6988 70.5701 -11.9097 -19.6415 -9.3849
# 4 -12.6355 7.2523 -11.9097 29.8721 0.7359 -6.6889
# 5 -26.8670 -11.0116 -19.6415 0.7359 37.0701 -1.0925
# 6 -6.3092 -1.5772 -9.3849 -6.6889 -1.0925 34.6021
#
#
#
# Elastic Compliance Matrix: (Units=1/GPa)
#
#
# Indices 1 2 3 4 5 6 
#
# 1 0.027968 -0.002999 -0.007416 0.010444 0.015403 0.005457
# 2 -0.002999 0.017762 0.001597 -0.005079 0.004045 -0.000158
# 3 -0.007416 0.001597 0.021623 0.006279 0.006609 0.006008
# 4 0.010444 -0.005079 0.006279 0.044141 0.008870 0.012189
# 5 0.015403 0.004045 0.006609 0.008870 0.042898 0.007855
# 6 0.005457 -0.000158 0.006008 0.012189 0.007855 0.034121
#
#
# Mechanical properties :
#
#
# Convention : Reuss Voigt Hill
#
# Bulk Modulus (GPa) = 20.11401 32.73240 26.42320
# Shear Modulus (GPa) = 22.44932 30.51971 26.48452
#
# Velocity S-wave (km/s) = 3.22595 3.76137 3.50390
# Velocity P-wave (km/s) = 4.81662 5.83416 5.34964
#
# Compressibility (1/GPa) = 0.04971659
#
# Stress axis : x y z
#
# Youngs Moduli (GPa) = 35.75497 56.29921 46.24615
#
# Poissons Ratio (x) = 0.16885 0.34296
# Poissons Ratio (y) = 0.10723 -0.07383
# Poissons Ratio (z) = 0.26516 -0.08988
#
# Static dielectric constant tensor:
#      x y z
#    x 1.947530 -0.040850 0.003470 
#    y -0.040850 1.829830 0.012460 
#    z 0.003470 0.012460 1.795080 
# 
# From -- ./inp_files/201466.got.cif
#   From: 2010.05.17/outbox.ucp.g08.bks.cvg/sg2_101_cif.got.tgz:201466.got - 2010.06.11 11:32:03.
