data_PCOD9072140
_publ_section_title
;
Structure prediction by ZEFSAII (Michael W. Deem and Ramdas Pophale) SiO2 
 PCOD9072140
Probable space group: P -1
;
_chemical_formula_sum "Si O2"
_cell_formula_units_Z 14
_cell_length_a 26.063442
_cell_length_b 5.633953
_cell_length_c 10.796770
_cell_angle_alpha 77.594471
_cell_angle_beta 34.742778
_cell_angle_gamma 104.964745
_cell_volume 550.976099
_symmetry_space_group_name_H-M "P -1"
_symmetry_group_IT_number 2
_symmetry_cell_setting 'triclinic'
loop_
_space_group_symop_operation_xyz
x,y,z
-x,-y,-z
loop_
_atom_site_type_symbol
_atom_site_label
_atom_site_fract_x
_atom_site_fract_y
_atom_site_fract_z
Si Si1 0.576089 0.887404 0.243187
Si Si2 0.465700 0.381680 0.894717
Si Si3 0.311399 0.370569 0.410692
Si Si4 0.861008 0.545736 0.293440
Si Si5 0.997144 0.588737 0.231979
Si Si6 0.665642 0.216830 0.284253
Si Si7 0.053727 0.192038 0.180980
O O1 0.500000 0.500000 0.500000
O O2 0.452209 0.820519 0.467531
O O3 0.678637 0.201000 0.112550
O O4 0.624257 0.888770 0.015995
O O5 0.363660 0.295887 0.208132
O O6 0.559394 0.370955 0.776543
O O7 0.587541 0.827137 0.552890
O O8 0.272420 0.551387 0.412402
O O9 0.165234 0.985891 0.815217
O O10 0.901128 0.405965 0.317947
O O11 0.874184 0.557160 0.118426
O O12 0.000000 0.000000 0.000000
O O13 0.973744 0.272224 0.372265
O O14 0.972915 0.773214 0.348370
O O15 0.817737 0.591801 0.003304
#
# Coordination Sequence:
#
# PCOD9072140 Si02
#       7
#     2   2   2   2   2   2   2
#     4   9  19  33  49  67  97 136 174 217 250 302
#     4  10  18  32  48  72 110 134 172 198 260 313
#     4   9  17  31  48  76 106 142 162 203 255 312
#     4   8  17  31  49  70 105 135 174 205 250 297
#     4  10  19  34  50  76 106 138 174 211 250 303
#     4  10  19  31  50  72 101 132 175 216 251 303
#     4  10  18  30  52  75 101 130 171 215 255 296
#
# _framework density 25.40945
#
# number of rings (size 3 to 8) (size 9 to 14) (size 15 to 20)
#    0.000    2.857    1.429    2.143    2.000    0.000 
#    5.143    4.286    0.000    0.000    0.000   10.000 
#    0.000    0.000    0.000    0.000    0.000    0.000 
#
# Total GULP energy -78185.177356 kJ/mol
# GULP energy per Si atom -5584.655525 kJ/mol
# Density = 2.535162 g / cm^3
# Si number density = 25.409450 Si / 1000 Ang^3
#
#
#
# Elastic Constant Matrix: (Units=GPa)
#
#
# Indices 1 2 3 4 5 6 
#
# 1 125.0774 40.8412 36.1050 -6.1924 -38.2149 10.8786
# 2 40.8412 101.3010 11.0677 9.5084 -3.7289 10.3396
# 3 36.1050 11.0677 97.0302 12.8988 -11.3879 0.6856
# 4 -6.1924 9.5084 12.8988 14.3531 3.5526 -7.8914
# 5 -38.2149 -3.7289 -11.3879 3.5526 38.1575 -1.4242
# 6 10.8786 10.3396 0.6856 -7.8914 -1.4242 59.8669
#
#
#
# Elastic Compliance Matrix: (Units=1/GPa)
#
#
# Indices 1 2 3 4 5 6 
#
# 1 0.016443 -0.006869 -0.005660 0.013764 0.012840 0.000383
# 2 -0.006869 0.014038 0.002664 -0.015664 -0.003379 -0.003352
# 3 -0.005660 0.002664 0.014681 -0.018684 0.000636 -0.002047
# 4 0.013764 -0.015664 -0.018684 0.111859 -0.003173 0.015087
# 5 0.012840 -0.003379 0.000636 -0.003173 0.039175 -0.001243
# 6 0.000383 -0.003352 -0.002047 0.015087 -0.001243 0.019196
#
#
# Mechanical properties :
#
#
# Convention : Reuss Voigt Hill
#
# Bulk Modulus (GPa) = 39.32154 55.49293 47.40724
# Shear Modulus (GPa) = 20.52543 38.16847 29.34695
#
# Velocity S-wave (km/s) = 2.84524 3.87995 3.40216
# Velocity P-wave (km/s) = 5.12861 6.47757 5.84215
#
# Compressibility (1/GPa) = 0.02543135
#
# Stress axis : x y z
#
# Youngs Moduli (GPa) = 60.81545 71.23533 68.11359
#
# Poissons Ratio (x) = 0.48934 0.38556
# Poissons Ratio (y) = 0.41776 -0.18147
# Poissons Ratio (z) = 0.34425 -0.18979
#
# Static dielectric constant tensor:
#      x y z
#    x 1.584680 -0.005280 0.180750 
#    y -0.005280 2.178950 -0.001260 
#    z 0.180750 -0.001260 1.985090 
# 
# From -- ./inp_files/475901.got.cif
#   From: 2010.05.17/outbox.cif.g08.bks.cpg/sg2_238_cif.got.tgz:475901.got - 2010.06.03 11:33:40.
