data_PCOD9072037
_publ_section_title
;
Structure prediction by ZEFSAII (Michael W. Deem and Ramdas Pophale) SiO2 
 PCOD9072037
Probable space group: P -1
;
_chemical_formula_sum "Si O2"
_cell_formula_units_Z 16
_cell_length_a 10.641303
_cell_length_b 17.058635
_cell_length_c 12.635471
_cell_angle_alpha 34.102870
_cell_angle_beta 145.887302
_cell_angle_gamma 149.315397
_cell_volume 600.080236
_symmetry_space_group_name_H-M "P -1"
_symmetry_group_IT_number 2
_symmetry_cell_setting 'triclinic'
loop_
_space_group_symop_operation_xyz
x,y,z
-x,-y,-z
loop_
_atom_site_type_symbol
_atom_site_label
_atom_site_fract_x
_atom_site_fract_y
_atom_site_fract_z
Si Si1 0.672346 0.279212 0.021423
Si Si2 0.057433 0.332305 0.048561
Si Si3 0.292558 0.982160 0.564418
Si Si4 0.188534 0.033254 0.812679
Si Si5 0.018030 0.402930 0.721355
Si Si6 0.251444 0.944823 0.312405
Si Si7 0.390207 0.222587 0.532256
Si Si8 0.716775 0.722667 0.108621
O O1 0.404248 0.116254 0.963288
O O2 0.556196 0.366036 0.912984
O O3 0.882088 0.359106 0.981853
O O4 0.787150 0.205509 0.266686
O O5 0.279311 0.313714 0.284555
O O6 0.867511 0.141334 0.076519
O O7 0.154865 0.455095 0.876995
O O8 0.612111 0.098419 0.639624
O O9 0.106570 0.002675 0.330092
O O10 0.252617 0.042407 0.580659
O O11 0.303205 0.178845 0.641296
O O12 0.707721 0.313045 0.644117
O O13 0.000000 0.500000 0.500000
O O14 0.190635 0.337527 0.859009
O O15 0.500000 0.000000 0.500000
O O16 0.256696 0.108027 0.101493
O O17 0.954639 0.782240 0.294242
#
# Coordination Sequence:
#
# PCOD9072037 Si02
#       8
#     2   2   2   2   2   2   2   2
#     4  11  19  34  56  90 122 150 186 243 312 371
#     4  11  22  36  64  90 121 161 199 254 308 364
#     4  10  18  30  50  91 127 148 183 236 306 381
#     4  11  19  30  61  96 123 152 189 244 322 373
#     4  12  27  45  61  83 120 174 222 253 285 347
#     4  10  20  33  55  89 131 161 181 236 328 383
#     4  11  20  37  61  89 121 152 209 252 301 364
#     4  10  24  37  57  88 127 157 202 251 301 372
#
# _framework density 26.663101999999999
#
# number of rings (size 3 to 8) (size 9 to 14) (size 15 to 20)
#    0.000    1.250    5.000    2.625    7.000    0.500 
#    0.000    0.625    0.000    0.750    0.000    0.000 
#    0.000    0.000    0.000    0.000    0.000    0.000 
#
# Total GULP energy -89256.835836 kJ/mol
# GULP energy per Si atom -5578.552240 kJ/mol
# Density = 2.660242 g / cm^3
# Si number density = 26.663102 Si / 1000 Ang^3
#
#
#
# Elastic Constant Matrix: (Units=GPa)
#
#
# Indices 1 2 3 4 5 6 
#
# 1 149.5293 24.2261 65.3547 11.6346 25.6557 22.9198
# 2 24.2261 62.7787 32.0745 12.6243 16.7039 26.7321
# 3 65.3547 32.0745 169.2169 16.2611 -7.6141 18.9658
# 4 11.6346 12.6243 16.2611 32.0934 6.9279 11.2565
# 5 25.6557 16.7039 -7.6141 6.9279 54.1393 13.3093
# 6 22.9198 26.7321 18.9658 11.2565 13.3093 37.9152
#
#
#
# Elastic Compliance Matrix: (Units=1/GPa)
#
#
# Indices 1 2 3 4 5 6 
#
# 1 0.009354 0.000557 -0.003630 0.000142 -0.004468 -0.002705
# 2 0.000557 0.025160 -0.003396 -0.002448 -0.004754 -0.013981
# 3 -0.003630 -0.003396 0.008434 -0.002407 0.004373 -0.000451
# 4 0.000142 -0.002448 -0.002407 0.036312 -0.002568 -0.007035
# 5 -0.004468 -0.004754 0.004373 -0.002568 0.023926 -0.003771
# 6 -0.002705 -0.013981 -0.000451 -0.007035 -0.003771 0.041505
#
#
# Mechanical properties :
#
#
# Convention : Reuss Voigt Hill
#
# Bulk Modulus (GPa) = 33.32162 69.42620 51.37391
# Shear Modulus (GPa) = 29.82745 42.15420 35.99082
#
# Velocity S-wave (km/s) = 3.34829 3.98048 3.67800
# Velocity P-wave (km/s) = 5.24142 6.87172 6.11118
#
# Compressibility (1/GPa) = 0.03001054
#
# Stress axis : x y z
#
# Youngs Moduli (GPa) = 106.90432 39.74634 118.57150
#
# Poissons Ratio (x) = -0.02214 0.43040
# Poissons Ratio (y) = -0.05956 0.40263
# Poissons Ratio (z) = 0.38805 0.13497
#
# Static dielectric constant tensor:
#      x y z
#    x 2.504950 -0.040100 -0.071450 
#    y -0.040100 2.141440 0.023690 
#    z -0.071450 0.023690 2.057780 
# 
# From -- ./inp_files/426371.got.cif
#   From: 2010.05.17/outbox.cif.g08.bks.cpg/sg2_214_cif.got.tgz:426371.got - 2010.06.03 11:33:40.
