data_PCOD9072306
_publ_section_title
;
Structure prediction by ZEFSAII (Michael W. Deem and Ramdas Pophale) SiO2 
 PCOD9072306
Probable space group: P -1
;
_chemical_formula_sum "Si O2"
_cell_formula_units_Z 14
_cell_length_a 13.182817
_cell_length_b 8.761190
_cell_length_c 7.424471
_cell_angle_alpha 123.152374
_cell_angle_beta 85.762908
_cell_angle_gamma 125.558611
_cell_volume 545.232574
_symmetry_space_group_name_H-M "P -1"
_symmetry_group_IT_number 2
_symmetry_cell_setting 'triclinic'
loop_
_space_group_symop_operation_xyz
x,y,z
-x,-y,-z
loop_
_atom_site_type_symbol
_atom_site_label
_atom_site_fract_x
_atom_site_fract_y
_atom_site_fract_z
Si Si1 0.206332 0.736810 0.795397
Si Si2 0.826744 0.109814 0.743197
Si Si3 0.545684 0.792967 0.071209
Si Si4 0.938648 0.837869 0.086674
Si Si5 0.649724 0.501869 0.800454
Si Si6 0.371361 0.455454 0.565143
Si Si7 0.045200 0.759743 0.536376
O O1 0.104378 0.756275 0.714599
O O2 0.229512 0.822100 0.053646
O O3 0.112309 0.452332 0.610464
O O4 0.348530 0.928776 0.807242
O O5 0.867629 0.235703 0.626700
O O6 0.964025 0.197070 0.868115
O O7 0.731267 0.823317 0.550780
O O8 0.626428 0.693156 0.970929
O O9 0.424357 0.634389 0.840923
O O10 0.479266 0.731651 0.236035
O O11 0.930062 0.998807 0.324573
O O12 0.788713 0.598945 0.925996
O O13 0.000000 0.000000 0.000000
O O14 0.669486 0.494771 0.581619
O O15 0.500000 0.500000 0.500000
#
# Coordination Sequence:
#
# PCOD9072306 Si02
#       7
#     2   2   2   2   2   2   2
#     4  11  22  40  57  87 122 150 191 239 289 347
#     4  12  22  38  62  90 116 151 194 242 286 343
#     4  10  19  33  56  82 116 145 192 237 284 333
#     4  12  20  40  61  85 122 148 194 243 286 339
#     4  10  19  33  54  86 112 147 188 241 282 330
#     4  10  18  30  54  85 112 140 187 239 279 324
#     4  11  24  37  58  88 118 157 188 234 298 342
#
# _framework density 25.677115000000001
#
# number of rings (size 3 to 8) (size 9 to 14) (size 15 to 20)
#    0.000    1.143    7.143    1.714    4.000    0.000 
#    0.000    0.000    0.000    4.286    0.000    0.000 
#    0.000    0.000    0.000    0.000    0.000    0.000 
#
# Total GULP energy -78361.704720 kJ/mol
# GULP energy per Si atom -5597.264623 kJ/mol
# Density = 2.561867 g / cm^3
# Si number density = 25.677115 Si / 1000 Ang^3
#
#
#
# Elastic Constant Matrix: (Units=GPa)
#
#
# Indices 1 2 3 4 5 6 
#
# 1 45.5276 16.4627 6.5221 8.2709 2.0221 11.3336
# 2 16.4627 118.8349 49.4988 1.4921 -4.6352 43.9666
# 3 6.5221 49.4988 101.7613 19.8314 13.6181 9.9366
# 4 8.2709 1.4921 19.8314 41.6351 12.1198 7.3473
# 5 2.0221 -4.6352 13.6181 12.1198 29.1420 3.7152
# 6 11.3336 43.9666 9.9366 7.3473 3.7152 35.5096
#
#
#
# Elastic Compliance Matrix: (Units=1/GPa)
#
#
# Indices 1 2 3 4 5 6 
#
# 1 0.024512 -0.001726 0.000560 -0.004242 0.000162 -0.004982
# 2 -0.001726 0.024804 -0.011887 0.007300 0.010335 -0.029426
# 3 0.000560 -0.011887 0.016952 -0.007503 -0.008288 0.012215
# 4 -0.004242 0.007300 -0.007503 0.032238 -0.006976 -0.011526
# 5 0.000162 0.010335 -0.008288 -0.006976 0.044473 -0.013739
# 6 -0.004982 -0.029426 0.012215 -0.011526 -0.013739 0.066590
#
#
# Mechanical properties :
#
#
# Convention : Reuss Voigt Hill
#
# Bulk Modulus (GPa) = 24.89915 45.67675 35.28795
# Shear Modulus (GPa) = 20.07536 34.16668 27.12102
#
# Velocity S-wave (km/s) = 2.79917 3.65173 3.25350
# Velocity P-wave (km/s) = 4.49057 5.96722 5.28076
#
# Compressibility (1/GPa) = 0.04016201
#
# Stress axis : x y z
#
# Youngs Moduli (GPa) = 40.79560 40.31617 58.99166
#
# Poissons Ratio (x) = 0.06959 -0.03304
# Poissons Ratio (y) = 0.07042 0.70123
# Poissons Ratio (z) = -0.02285 0.47924
#
# Static dielectric constant tensor:
#      x y z
#    x 2.043740 -0.027520 -0.034570 
#    y -0.027520 2.070050 -0.111020 
#    z -0.034570 -0.111020 2.130880 
# 
# From -- ./inp_files/296160.got.cif
#   From: 2010.05.17/outbox.cif.g08.bks.cpg/sg2_149_cif.got.tgz:296160.got - 2010.06.03 11:33:40.
