data_PCOD9072996
_publ_section_title
;
Structure prediction by ZEFSAII (Michael W. Deem and Ramdas Pophale) SiO2 
 PCOD9072996
Probable space group: P -1
;
_chemical_formula_sum "Si O2"
_cell_formula_units_Z 16
_cell_length_a 15.000000
_cell_length_b 15.000000
_cell_length_c 9.000000
_cell_angle_alpha 100.000000
_cell_angle_beta 80.000000
_cell_angle_gamma 30.000000
_cell_volume 750.794245
_symmetry_space_group_name_H-M "P -1"
_symmetry_group_IT_number 2
_symmetry_cell_setting 'triclinic'
loop_
_space_group_symop_operation_xyz
x,y,z
-x,-y,-z
loop_
_atom_site_type_symbol
_atom_site_label
_atom_site_fract_x
_atom_site_fract_y
_atom_site_fract_z
Si Si1 0.310466 0.095997 0.606218
Si Si2 0.223400 0.733027 0.159739
Si Si3 0.061589 0.626348 0.444423
Si Si4 0.547297 0.804431 0.001174
Si Si5 0.755425 0.579892 0.351189
Si Si6 0.799536 0.762193 0.986116
Si Si7 0.618279 0.580924 0.157134
Si Si8 0.086420 0.032923 0.403324
O O1 0.135703 0.242442 0.560343
O O2 0.209609 0.199149 0.829854
O O3 0.500000 0.000000 0.500000
O O4 0.478665 0.853596 0.501255
O O5 0.112890 0.809421 0.373264
O O6 0.097043 0.949221 0.241935
O O7 0.500000 0.500000 0.000000
O O8 0.219721 0.644305 0.037835
O O9 0.974448 0.806742 0.564987
O O10 0.295699 0.401744 0.213264
O O11 0.145254 0.505636 0.537664
O O12 0.325232 0.049938 0.038664
O O13 0.676009 0.779373 0.003140
O O14 0.550810 0.733040 0.121074
O O15 0.769395 0.474622 0.223798
O O16 0.922405 0.499153 0.201697
O O17 0.354633 0.783957 0.321665
#
# Coordination Sequence:
#
# PCOD9072996 Si02
#       8
#     2   2   2   2   2   2   2   2
#     4  12  26  43  65  93 132 180 228 276 330 381
#     4   9  20  38  68 101 128 165 211 265 335 402
#     4  12  24  43  68  96 134 178 222 277 330 390
#     4  11  23  42  66  92 133 179 226 275 326 385
#     4  12  26  42  65  98 133 179 225 272 327 390
#     4  11  26  42  61  94 133 179 230 275 322 383
#     4  11  21  40  66  98 131 172 218 268 332 393
#     4  10  20  39  69  98 129 166 212 271 334 392
#
# _framework density 21.310765
#
# number of rings (size 3 to 8) (size 9 to 14) (size 15 to 20)
#    0.000    1.000    3.750    3.000    3.500    2.500 
#    0.000    0.625    0.000    6.750    0.000    0.000 
#    0.000    0.000    0.000    0.000    0.000    0.000 
#
# Total GULP energy -89103.098612 kJ/mol
# GULP energy per Si atom -5568.943663 kJ/mol
# Density = 2.126226 g / cm^3
# Si number density = 21.310765 Si / 1000 Ang^3
#
#
#
# Elastic Constant Matrix: (Units=GPa)
#
#
# Indices 1 2 3 4 5 6 
#
# 1 62.4500 13.6886 5.2500 -9.7123 14.0524 -0.0706
# 2 13.6886 81.3404 26.4663 -7.8761 10.4350 -25.1331
# 3 5.2500 26.4663 107.6178 -3.2277 4.8493 -5.7012
# 4 -9.7123 -7.8761 -3.2277 34.5000 0.8799 10.6980
# 5 14.0524 10.4350 4.8493 0.8799 42.0055 7.7776
# 6 -0.0706 -25.1331 -5.7012 10.6980 7.7776 25.1160
#
#
#
# Elastic Compliance Matrix: (Units=1/GPa)
#
#
# Indices 1 2 3 4 5 6 
#
# 1 0.018735 -0.003319 0.000068 0.005985 -0.004776 -0.004323
# 2 -0.003319 0.023169 -0.003826 -0.004103 -0.009093 0.026871
# 3 0.000068 -0.003826 0.010149 0.000661 0.000081 -0.001831
# 4 0.005985 -0.004103 0.000661 0.035888 0.001855 -0.019800
# 5 -0.004776 -0.009093 0.000081 0.001855 0.031236 -0.019557
# 6 -0.004323 0.026871 -0.001831 -0.019800 -0.019557 0.080766
#
#
# Mechanical properties :
#
#
# Convention : Reuss Voigt Hill
#
# Bulk Modulus (GPa) = 26.38511 38.02421 32.20466
# Shear Modulus (GPa) = 22.05268 34.05787 28.05528
#
# Velocity S-wave (km/s) = 3.22034 4.00203 3.63227
# Velocity P-wave (km/s) = 5.12206 6.26390 5.72153
#
# Compressibility (1/GPa) = 0.03790016
#
# Stress axis : x y z
#
# Youngs Moduli (GPa) = 53.37569 43.16054 98.53304
#
# Poissons Ratio (x) = 0.14323 -0.00668
# Poissons Ratio (y) = 0.17713 0.37698
# Poissons Ratio (z) = -0.00362 0.16513
#
# Static dielectric constant tensor:
#      x y z
#    x 1.862290 0.079090 0.009290 
#    y 0.079090 1.816530 0.030500 
#    z 0.009290 0.030500 1.841780 
# 
# From -- ./inp_files/315435.got.cif
#   From: 2010.05.17/outbox.ucp.g08.bks.cvg/sg2_158_cif.got.tgz:315435.got - 2010.06.11 11:32:03.
