data_PCOD9072223
_publ_section_title
;
Structure prediction by ZEFSAII (Michael W. Deem and Ramdas Pophale) SiO2 
 PCOD9072223
Probable space group: P -1
;
_chemical_formula_sum "Si O2"
_cell_formula_units_Z 16
_cell_length_a 27.000000
_cell_length_b 9.000000
_cell_length_c 9.000000
_cell_angle_alpha 100.000000
_cell_angle_beta 130.000000
_cell_angle_gamma 40.000000
_cell_volume 820.799433
_symmetry_space_group_name_H-M "P -1"
_symmetry_group_IT_number 2
_symmetry_cell_setting 'triclinic'
loop_
_space_group_symop_operation_xyz
x,y,z
-x,-y,-z
loop_
_atom_site_type_symbol
_atom_site_label
_atom_site_fract_x
_atom_site_fract_y
_atom_site_fract_z
Si Si1 0.471439 0.925691 0.138216
Si Si2 0.309324 0.776918 0.906533
Si Si3 0.033306 0.107674 0.123716
Si Si4 0.709646 0.253653 0.487482
Si Si5 0.030841 0.257385 0.478865
Si Si6 0.805999 0.736243 0.639426
Si Si7 0.781221 0.714229 0.238042
Si Si8 0.550374 0.092948 0.263991
O O1 0.573145 0.596381 0.337913
O O2 0.522228 0.991208 0.268574
O O3 0.463802 0.909340 0.942102
O O4 0.327068 0.194390 0.966429
O O5 0.309704 0.754471 0.724015
O O6 0.280198 0.012672 0.911959
O O7 0.443599 0.434458 0.159545
O O8 0.184181 0.938999 0.753261
O O9 0.018512 0.208718 0.280665
O O10 0.942422 0.402642 0.904044
O O11 0.182943 0.833374 0.322418
O O12 0.000000 0.000000 0.000000
O O13 0.767789 0.988217 0.631973
O O14 0.921856 0.394862 0.388204
O O15 0.000000 0.500000 0.500000
O O16 0.799657 0.717626 0.447532
O O17 0.694192 0.863609 0.523340
#
# Coordination Sequence:
#
# PCOD9072223 Si02
#       8
#     2   2   2   2   2   2   2   2
#     4   9  16  27  47  75 105 135 173 222 267 307
#     4   8  15  29  49  73 101 137 178 216 256 308
#     4  11  22  36  55  80 112 143 174 219 271 318
#     4   9  17  30  50  75 101 136 182 221 254 308
#     4   9  19  36  57  78 108 146 179 215 262 321
#     4  10  19  32  54  79 104 138 181 223 263 314
#     4   9  17  31  53  78 102 133 178 224 260 307
#     4   9  16  27  46  75 106 134 171 221 269 309
#
# _framework density 19.493190999999999
#
# number of rings (size 3 to 8) (size 9 to 14) (size 15 to 20)
#    0.000    2.750    0.000    2.625    0.000    6.000 
#    0.000    2.500    0.000   11.250    0.000    0.000 
#    0.000    0.000    0.000    0.000    0.000    0.000 
#
# Total GULP energy -89083.125796 kJ/mol
# GULP energy per Si atom -5567.695362 kJ/mol
# Density = 1.944882 g / cm^3
# Si number density = 19.493191 Si / 1000 Ang^3
#
#
#
# Elastic Constant Matrix: (Units=GPa)
#
#
# Indices 1 2 3 4 5 6 
#
# 1 72.4915 13.1742 9.5017 -0.4429 23.1762 -4.6429
# 2 13.1742 30.5707 1.2857 2.4681 -1.5167 -3.8775
# 3 9.5017 1.2857 32.1446 -4.2836 6.7807 -7.9929
# 4 -0.4429 2.4681 -4.2836 27.8785 7.7375 14.4220
# 5 23.1762 -1.5167 6.7807 7.7375 21.8785 -13.1373
# 6 -4.6429 -3.8775 -7.9929 14.4220 -13.1373 28.6987
#
#
#
# Elastic Compliance Matrix: (Units=1/GPa)
#
#
# Indices 1 2 3 4 5 6 
#
# 1 -0.021088 0.032836 -0.006612 -0.081421 0.109689 0.090312
# 2 0.032836 -0.005083 0.004010 0.079876 -0.117610 -0.088236
# 3 -0.006612 0.004010 0.034422 -0.004776 0.007148 0.014731
# 4 -0.081421 0.079876 -0.004776 -0.130437 0.243447 0.173280
# 5 0.109689 -0.117610 0.007148 0.243447 -0.328363 -0.268808
# 6 0.090312 -0.088236 0.014731 0.173280 -0.268808 -0.168494
#
#
# Mechanical properties :
#
#
# Convention : Reuss Voigt Hill
#
# Bulk Modulus (GPa) = 14.55173 20.34778 17.44975
# Shear Modulus (GPa) = -7.61493 23.10749 7.74628
#
# Velocity S-wave (km/s) = -1.97862 3.44672 1.99561
# Velocity P-wave (km/s) = 1.50377 5.12844 3.77904
#
# Compressibility (1/GPa) = 0.06872037
#
# Stress axis : x y z
#
# Youngs Moduli (GPa) = -47.42089 -196.72204 29.05104
#
# Poissons Ratio (x) = 6.45957 0.19207
# Poissons Ratio (y) = 1.55711 -0.11650
# Poissons Ratio (z) = -0.31353 0.78891
#
# Static dielectric constant tensor:
#      x y z
#    x 1.718880 0.001670 0.012060 
#    y 0.001670 1.672230 0.003340 
#    z 0.012060 0.003340 1.672290 
# 
# From -- ./inp_files/269655.got.cif
#   From: 2010.05.17/outbox.ucp.g08.bks.cvg/sg2_135_cif.got.tgz:269655.got - 2010.06.11 11:32:03.
