data_PCOD9072512
_publ_section_title
;
Structure prediction by ZEFSAII (Michael W. Deem and Ramdas Pophale) SiO2 
 PCOD9072512
Probable space group: P -1
;
_chemical_formula_sum "Si O2"
_cell_formula_units_Z 16
_cell_length_a 12.000000
_cell_length_b 15.000000
_cell_length_c 15.000000
_cell_angle_alpha 130.000000
_cell_angle_beta 70.000000
_cell_angle_gamma 150.000000
_cell_volume 856.505752
_symmetry_space_group_name_H-M "P -1"
_symmetry_group_IT_number 2
_symmetry_cell_setting 'triclinic'
loop_
_space_group_symop_operation_xyz
x,y,z
-x,-y,-z
loop_
_atom_site_type_symbol
_atom_site_label
_atom_site_fract_x
_atom_site_fract_y
_atom_site_fract_z
Si Si1 0.051428 0.058092 0.311503
Si Si2 0.866341 0.628811 0.427333
Si Si3 0.502917 0.143008 0.567662
Si Si4 0.622148 0.793425 0.820681
Si Si5 0.469849 0.531898 0.874591
Si Si6 0.187570 0.001301 0.822735
Si Si7 0.139773 0.334008 0.123228
Si Si8 0.120667 0.480030 0.460273
O O1 0.160672 0.256499 0.472234
O O2 0.272155 0.175248 0.277492
O O3 0.912310 0.003530 0.231683
O O4 0.829730 0.781575 0.241170
O O5 0.669046 0.414832 0.264093
O O6 0.792037 0.490725 0.448358
O O7 0.186849 0.895828 0.495768
O O8 0.686609 0.392532 0.741158
O O9 0.637858 0.299371 0.536307
O O10 0.500000 0.000000 0.500000
O O11 0.563237 0.651677 0.826887
O O12 0.874139 0.095566 0.979425
O O13 0.656573 0.593317 0.903580
O O14 0.533409 0.701929 0.026370
O O15 0.986087 0.816611 0.843735
O O16 0.139547 0.830330 0.690043
O O17 0.000000 0.500000 0.500000
#
# Coordination Sequence:
#
# PCOD9072512 Si02
#       8
#     2   2   2   2   2   2   2   2
#     4  11  20  33  57  86 118 154 187 227 278 342
#     4  11  24  38  57  88 118 151 188 236 293 336
#     4  11  22  41  65  85 107 147 204 245 276 337
#     4  11  23  37  54  87 127 150 183 232 290 345
#     4  11  19  34  58  85 116 153 194 227 281 342
#     4   9  18  32  56  85 112 142 193 239 269 335
#     4  10  19  38  60  83 114 156 192 232 280 340
#     4  10  21  38  62  83 108 147 197 241 283 334
#
# _framework density 18.680551999999999
#
# number of rings (size 3 to 8) (size 9 to 14) (size 15 to 20)
#    0.000    1.500    5.000    1.500    0.000    1.500 
#    0.000    0.625    0.000    0.750    0.000    0.000 
#    0.000    0.000    0.000    0.000    0.000    0.000 
#
# Total GULP energy -89083.413352 kJ/mol
# GULP energy per Si atom -5567.713335 kJ/mol
# Density = 1.863803 g / cm^3
# Si number density = 18.680552 Si / 1000 Ang^3
#
#
#
# Elastic Constant Matrix: (Units=GPa)
#
#
# Indices 1 2 3 4 5 6 
#
# 1 55.4126 20.6545 54.0262 16.3708 -11.1713 -9.5279
# 2 20.6545 80.8808 35.2295 27.1890 0.9192 -5.7229
# 3 54.0262 35.2295 128.5968 30.9023 6.6308 -0.4436
# 4 16.3708 27.1890 30.9023 30.8372 -2.4205 -4.9234
# 5 -11.1713 0.9192 6.6308 -2.4205 26.3292 7.3224
# 6 -9.5279 -5.7229 -0.4436 -4.9234 7.3224 26.3155
#
#
#
# Elastic Compliance Matrix: (Units=1/GPa)
#
#
# Indices 1 2 3 4 5 6 
#
# 1 0.042116 -0.002906 -0.018280 0.001542 0.020221 0.008970
# 2 -0.002906 0.018118 -0.000091 -0.014430 -0.003491 0.001158
# 3 -0.018280 -0.000091 0.018640 -0.010632 -0.012045 -0.004962
# 4 0.001542 -0.014430 -0.010632 0.056487 0.007432 0.005741
# 5 0.020221 -0.003491 -0.012045 0.007432 0.052290 -0.006800
# 6 0.008970 0.001158 -0.004962 0.005741 -0.006800 0.044383
#
#
# Mechanical properties :
#
#
# Convention : Reuss Voigt Hill
#
# Bulk Modulus (GPa) = 27.53357 53.85674 40.69516
# Shear Modulus (GPa) = 17.44023 27.02839 22.23431
#
# Velocity S-wave (km/s) = 3.05881 3.80791 3.45373
# Velocity P-wave (km/s) = 5.21979 6.94453 6.14299
#
# Compressibility (1/GPa) = 0.03631930
#
# Stress axis : x y z
#
# Youngs Moduli (GPa) = 23.74420 55.19362 53.64890
#
# Poissons Ratio (x) = 0.16041 0.98068
# Poissons Ratio (y) = 0.06901 0.00488
# Poissons Ratio (z) = 0.43404 0.00502
#
# Static dielectric constant tensor:
#      x y z
#    x 1.636390 0.039450 -0.019130 
#    y 0.039450 1.706680 -0.048320 
#    z -0.019130 -0.048320 1.713890 
# 
# From -- ./inp_files/279214.got.cif
#   From: 2010.05.17/outbox.ucp.g08.bks.cvg/sg2_140_cif.got.tgz:279214.got - 2010.06.11 11:32:03.
