data_PCOD9072396
_publ_section_title
;
Structure prediction by ZEFSAII (Michael W. Deem and Ramdas Pophale) SiO2 
 PCOD9072396
Probable space group: P -1
;
_chemical_formula_sum "Si O2"
_cell_formula_units_Z 14
_cell_length_a 12.000000
_cell_length_b 21.000000
_cell_length_c 21.000000
_cell_angle_alpha 160.000000
_cell_angle_beta 160.000000
_cell_angle_gamma 30.000000
_cell_volume 612.476904
_symmetry_space_group_name_H-M "P -1"
_symmetry_group_IT_number 2
_symmetry_cell_setting 'triclinic'
loop_
_space_group_symop_operation_xyz
x,y,z
-x,-y,-z
loop_
_atom_site_type_symbol
_atom_site_label
_atom_site_fract_x
_atom_site_fract_y
_atom_site_fract_z
Si Si1 0.301490 0.835519 0.325699
Si Si2 0.858365 0.495773 0.717911
Si Si3 0.214397 0.406244 0.699444
Si Si4 0.714858 0.333991 0.261118
Si Si5 0.624210 0.700410 0.495426
Si Si6 0.302477 0.242049 0.763716
Si Si7 0.613105 0.967484 0.261346
O O1 0.597146 0.773481 0.382017
O O2 0.381059 0.748924 0.355404
O O3 0.281887 0.055272 0.532567
O O4 0.979171 0.704466 0.004932
O O5 0.500000 0.500000 0.500000
O O6 0.116845 0.455776 0.763907
O O7 0.959229 0.333685 0.668226
O O8 0.867314 0.380020 0.453575
O O9 0.419729 0.587112 0.946413
O O10 0.542271 0.500380 0.296585
O O11 0.023764 0.300539 0.350239
O O12 0.481839 0.139989 0.955188
O O13 0.596458 0.864810 0.684793
O O14 0.442109 0.172471 0.839490
O O15 0.000000 0.000000 0.500000
#
# Coordination Sequence:
#
# PCOD9072396 Si02
#       7
#     2   2   2   2   2   2   2
#     4   9  19  38  62  82 110 149 192 235 276 329
#     4  11  24  39  57  86 117 146 188 236 285 338
#     4  10  22  37  61  87 109 150 195 230 275 335
#     4  10  19  36  59  83 115 147 187 235 276 326
#     4   9  19  36  60  84 108 149 192 231 278 332
#     4  10  21  41  61  81 112 151 194 233 277 332
#     4  11  23  36  57  88 119 150 184 228 285 342
#
# _framework density 22.858004999999999
#
# number of rings (size 3 to 8) (size 9 to 14) (size 15 to 20)
#    0.000    2.000    0.000    5.571    0.000    9.143 
#    0.000    0.000    0.000    0.000    0.000    0.000 
#    0.000    0.000    0.000    0.000    0.000    0.000 
#
# Total GULP energy -78024.958220 kJ/mol
# GULP energy per Si atom -5573.211301 kJ/mol
# Density = 2.280598 g / cm^3
# Si number density = 22.858005 Si / 1000 Ang^3
#
#
#
# Elastic Constant Matrix: (Units=GPa)
#
#
# Indices 1 2 3 4 5 6 
#
# 1 23.9177 -10.3781 4.6051 3.2422 -9.8711 8.7730
# 2 -10.3781 64.6459 4.0439 17.7920 -14.8058 -14.2857
# 3 4.6051 4.0439 93.6845 2.7184 -37.5758 5.8642
# 4 3.2422 17.7920 2.7184 25.0536 -6.9341 -2.3551
# 5 -9.8711 -14.8058 -37.5758 -6.9341 22.9696 -4.6820
# 6 8.7730 -14.2857 5.8642 -2.3551 -4.6820 0.6566
#
#
#
# Elastic Compliance Matrix: (Units=1/GPa)
#
#
# Indices 1 2 3 4 5 6 
#
# 1 0.251518 0.092410 0.133797 -0.026874 0.352784 -0.125767
# 2 0.092410 0.037780 0.045561 -0.021742 0.112313 -0.096754
# 3 0.133797 0.045561 0.099414 -0.008103 0.225340 -0.106517
# 4 -0.026874 -0.021742 -0.008103 0.054813 -0.020557 0.008413
# 5 0.352784 0.112313 0.225340 -0.020557 0.568918 -0.299488
# 6 -0.125767 -0.096754 -0.106517 0.008413 -0.299488 -0.055749
#
#
# Mechanical properties :
#
#
# Convention : Reuss Voigt Hill
#
# Bulk Modulus (GPa) = 1.07267 19.86556 10.46912
# Shear Modulus (GPa) = 6.90697 22.00111 14.45404
#
# Velocity S-wave (km/s) = 1.74019 3.10580 2.51737
# Velocity P-wave (km/s) = 2.12319 4.64447 3.61103
#
# Compressibility (1/GPa) = 0.93224987
#
# Stress axis : x y z
#
# Youngs Moduli (GPa) = 3.97586 26.46904 10.05891
#
# Poissons Ratio (x) = -2.44601 -1.34585
# Poissons Ratio (y) = -0.36741 -0.45830
# Poissons Ratio (z) = -0.53196 -1.20597
#
# Static dielectric constant tensor:
#      x y z
#    x 2.056590 0.008890 -0.000870 
#    y 0.008890 1.955020 0.026200 
#    z -0.000870 0.026200 1.945860 
# 
# From -- ./inp_files/282475.got.cif
#   From: 2010.05.17/outbox.ucp.g08.bks.cvg/sg2_142_cif.got.tgz:282475.got - 2010.06.11 11:32:03.
