data_PCOD9072980
_publ_section_title
;
Structure prediction by ZEFSAII (Michael W. Deem and Ramdas Pophale) SiO2 
 PCOD9072980
Probable space group: P -1
;
_chemical_formula_sum "Si O2"
_cell_formula_units_Z 16
_cell_length_a 12.000000
_cell_length_b 9.000000
_cell_length_c 27.000000
_cell_angle_alpha 150.000000
_cell_angle_beta 30.000000
_cell_angle_gamma 140.000000
_cell_volume 727.497153
_symmetry_space_group_name_H-M "P -1"
_symmetry_group_IT_number 2
_symmetry_cell_setting 'triclinic'
loop_
_space_group_symop_operation_xyz
x,y,z
-x,-y,-z
loop_
_atom_site_type_symbol
_atom_site_label
_atom_site_fract_x
_atom_site_fract_y
_atom_site_fract_z
Si Si1 0.777641 0.459200 0.541305
Si Si2 0.077847 0.669869 0.729672
Si Si3 0.243723 0.505047 0.032344
Si Si4 0.028576 0.116240 0.276617
Si Si5 0.705180 0.843422 0.989969
Si Si6 0.612926 0.843727 0.214830
Si Si7 0.513146 0.557069 0.761311
Si Si8 0.858113 0.060756 0.620753
O O1 0.581401 0.406269 0.640662
O O2 0.000000 0.500000 0.500000
O O3 0.823164 0.183818 0.410083
O O4 0.785961 0.768012 0.595981
O O5 0.042375 0.747511 0.708663
O O6 0.004670 0.324078 0.668397
O O7 0.309977 0.815728 0.703127
O O8 0.895537 0.857283 0.880440
O O9 0.492045 0.652996 0.993250
O O10 0.089091 0.775531 0.158986
O O11 0.199625 0.308553 0.041712
O O12 0.244588 0.302009 0.924832
O O13 0.257080 0.302036 0.260550
O O14 0.623295 0.167522 0.123577
O O15 0.609139 0.654481 0.212251
O O16 0.367968 0.819782 0.278611
O O17 0.000000 0.000000 0.500000
#
# Coordination Sequence:
#
# PCOD9072980 Si02
#       8
#     2   2   2   2   2   2   2   2
#     4  10  21  39  71  99 125 176 221 264 334 385
#     4  12  25  41  68 102 130 174 221 266 336 392
#     4  10  21  39  68  96 135 171 223 273 328 391
#     4  10  20  40  63  98 129 175 220 264 328 391
#     4  10  21  38  67 100 127 176 221 272 333 387
#     4  12  25  43  68 101 132 175 218 269 331 393
#     4  10  20  39  67  95 135 174 221 269 325 393
#     4  12  23  46  72  94 136 172 216 277 325 391
#
# _framework density 21.993213000000001
#
# number of rings (size 3 to 8) (size 9 to 14) (size 15 to 20)
#    0.000    1.250    3.750    2.250    5.250    5.000 
#    0.000    1.875    0.000    0.000    0.000    0.000 
#    0.000    0.000    0.000    0.000    0.000    0.000 
#
# Total GULP energy -89347.609955 kJ/mol
# GULP energy per Si atom -5584.225622 kJ/mol
# Density = 2.194316 g / cm^3
# Si number density = 21.993213 Si / 1000 Ang^3
#
#
#
# Elastic Constant Matrix: (Units=GPa)
#
#
# Indices 1 2 3 4 5 6 
#
# 1 49.2750 22.1599 24.2878 4.6844 17.8325 -21.4438
# 2 22.1599 15.6299 -8.6058 23.8336 13.7899 18.7432
# 3 24.2878 -8.6058 75.7984 3.7184 29.0711 5.9387
# 4 4.6844 23.8336 3.7184 22.4301 -16.1679 4.6195
# 5 17.8325 13.7899 29.0711 -16.1679 20.5482 3.7315
# 6 -21.4438 18.7432 5.9387 4.6195 3.7315 28.3962
#
#
#
# Elastic Compliance Matrix: (Units=1/GPa)
#
#
# Indices 1 2 3 4 5 6 
#
# 1 -0.038172 0.026422 -0.002591 0.031400 0.054294 -0.057967
# 2 0.026422 -0.013023 -0.010590 0.000195 -0.004748 0.031356
# 3 -0.002591 -0.010590 0.011262 0.011622 0.002483 0.000461
# 4 0.031400 0.000195 0.011622 -0.014616 -0.061054 0.031554
# 5 0.054294 -0.004748 0.002483 -0.061054 -0.057924 0.061160
# 6 -0.057967 0.031356 0.000461 0.031554 0.061160 -0.042522
#
#
# Mechanical properties :
#
#
# Convention : Reuss Voigt Hill
#
# Bulk Modulus (GPa) = -74.34325 24.04299 -25.15013
# Shear Modulus (GPa) = -26.88740 21.13233 -2.87753
#
# Velocity S-wave (km/s) = -3.50026 3.10313 -1.14508
# Velocity P-wave (km/s) = 7.08604 4.87801 3.63435
#
# Compressibility (1/GPa) = -0.01345112
#
# Stress axis : x y z
#
# Youngs Moduli (GPa) = -26.19740 -76.78596 88.79158
#
# Poissons Ratio (x) = 2.02886 0.23008
# Poissons Ratio (y) = 0.69220 0.94033
# Poissons Ratio (z) = -0.06788 -0.81318
#
# Static dielectric constant tensor:
#      x y z
#    x 0.688320 -0.662210 0.215030 
#    y -0.662210 1.399990 0.113780 
#    z 0.215030 0.113780 1.824250 
# 
# From -- ./inp_files/469154.got.cif
#   From: 2010.05.17/outbox.ucp.g08.bks.cvg/sg2_235_cif.got.tgz:469154.got - 2010.06.11 11:32:03.
