data_PCOD9072341
_publ_section_title
;
Structure prediction by ZEFSAII (Michael W. Deem and Ramdas Pophale) SiO2 
 PCOD9072341
Probable space group: P -1
;
_chemical_formula_sum "Si O2"
_cell_formula_units_Z 16
_cell_length_a 23.985585
_cell_length_b 10.463858
_cell_length_c 9.663062
_cell_angle_alpha 105.146003
_cell_angle_beta 125.244893
_cell_angle_gamma 122.441334
_cell_volume 936.764376
_symmetry_space_group_name_H-M "P -1"
_symmetry_group_IT_number 2
_symmetry_cell_setting 'triclinic'
loop_
_space_group_symop_operation_xyz
x,y,z
-x,-y,-z
loop_
_atom_site_type_symbol
_atom_site_label
_atom_site_fract_x
_atom_site_fract_y
_atom_site_fract_z
Si Si1 0.539514 0.256245 0.193084
Si Si2 0.857508 0.856455 0.113348
Si Si3 0.081890 0.254961 0.059009
Si Si4 0.200118 0.325762 0.510388
Si Si5 0.353907 0.849035 0.580754
Si Si6 0.441427 0.545865 0.452866
Si Si7 0.414531 0.990894 0.398983
Si Si8 0.170252 0.419533 0.775233
O O1 0.663831 0.487434 0.325301
O O2 0.577943 0.182602 0.305784
O O3 0.529471 0.349470 0.321815
O O4 0.402877 0.007432 0.833047
O O5 0.828397 0.693220 0.138991
O O6 0.872891 0.799587 0.977429
O O7 0.725329 0.727226 0.882481
O O8 0.007125 0.173824 0.447704
O O9 0.119934 0.291272 0.282697
O O10 0.187918 0.547337 0.247171
O O11 0.916892 0.985290 0.721412
O O12 0.229700 0.452802 0.730085
O O13 0.405591 0.995976 0.552354
O O14 0.500000 0.500000 0.500000
O O15 0.512546 0.767985 0.510213
O O16 0.500000 0.000000 0.500000
O O17 0.263053 0.698148 0.037031
#
# Coordination Sequence:
#
# PCOD9072341 Si02
#       8
#     2   2   2   2   2   2   2   2
#     4  10  19  33  51  83 111 140 182 228 279 324
#     4  10  18  35  52  82 117 141 180 230 277 324
#     4   9  15  29  46  80 115 135 164 227 287 317
#     4   9  17  25  48  80 115 136 167 222 288 319
#     4  10  18  30  55  82 112 129 181 244 270 313
#     4  12  25  40  55  77 118 157 184 223 278 339
#     4  12  19  35  57  86 109 144 191 233 274 323
#     4  10  19  29  58  89 110 136 180 240 280 315
#
# _framework density 17.080067
#
# number of rings (size 3 to 8) (size 9 to 14) (size 15 to 20)
#    0.000    1.750    6.250    0.750    3.500    0.000 
#    0.000    1.250    0.000    0.000    0.000    1.750 
#    0.000    0.000    0.000    0.000    0.000    0.000 
#
# Total GULP energy -89189.810357 kJ/mol
# GULP energy per Si atom -5574.363147 kJ/mol
# Density = 1.704119 g / cm^3
# Si number density = 17.080067 Si / 1000 Ang^3
#
#
#
# Elastic Constant Matrix: (Units=GPa)
#
#
# Indices 1 2 3 4 5 6 
#
# 1 91.2509 48.2057 39.0246 -2.8895 -5.1931 6.9433
# 2 48.2057 73.4512 25.7446 4.0853 2.0722 14.3758
# 3 39.0246 25.7446 98.6690 12.0380 0.3407 -0.4450
# 4 -2.8895 4.0853 12.0380 22.1945 13.6415 -4.1337
# 5 -5.1931 2.0722 0.3407 13.6415 26.0243 -4.1134
# 6 6.9433 14.3758 -0.4450 -4.1337 -4.1134 26.1291
#
#
#
# Elastic Compliance Matrix: (Units=1/GPa)
#
#
# Indices 1 2 3 4 5 6 
#
# 1 0.019822 -0.012022 -0.005597 0.007379 0.001539 0.002661
# 2 -0.012022 0.024563 -0.000989 -0.005795 -0.003161 -0.011751
# 3 -0.005597 -0.000989 0.013896 -0.010648 0.004567 0.001302
# 4 0.007379 -0.005795 -0.010648 0.077075 -0.037160 0.007390
# 5 0.001539 -0.003161 0.004567 -0.037160 0.059169 0.004844
# 6 0.002661 -0.011751 0.001302 0.007390 0.004844 0.045983
#
#
# Mechanical properties :
#
#
# Convention : Reuss Voigt Hill
#
# Bulk Modulus (GPa) = 47.47256 54.36897 50.92077
# Shear Modulus (GPa) = 17.55958 24.89600 21.22779
#
# Velocity S-wave (km/s) = 3.20984 3.82200 3.52922
# Velocity P-wave (km/s) = 6.44918 7.16784 6.81798
#
# Compressibility (1/GPa) = 0.02106480
#
# Stress axis : x y z
#
# Youngs Moduli (GPa) = 50.44893 40.71237 71.96495
#
# Poissons Ratio (x) = 0.48945 0.40276
# Poissons Ratio (y) = 0.60651 0.07117
# Poissons Ratio (z) = 0.28234 0.04026
#
# Static dielectric constant tensor:
#      x y z
#    x 1.561800 0.051980 0.010310 
#    y 0.051980 1.592170 0.037170 
#    z 0.010310 0.037170 1.653450 
# 
# From -- ./inp_files/252389.got.cif
#   From: 2010.05.17/outbox.cif.g08.bks.cpg/sg2_127_cif.got.tgz:252389.got - 2010.06.03 11:33:40.
