data_PCOD9072807
_publ_section_title
;
Structure prediction by ZEFSAII (Michael W. Deem and Ramdas Pophale) SiO2 
 PCOD9072807
Probable space group: P -1
;
_chemical_formula_sum "Si O2"
_cell_formula_units_Z 16
_cell_length_a 11.695089
_cell_length_b 9.906987
_cell_length_c 11.047941
_cell_angle_alpha 83.227376
_cell_angle_beta 64.282817
_cell_angle_gamma 39.180629
_cell_volume 672.802035
_symmetry_space_group_name_H-M "P -1"
_symmetry_group_IT_number 2
_symmetry_cell_setting 'triclinic'
loop_
_space_group_symop_operation_xyz
x,y,z
-x,-y,-z
loop_
_atom_site_type_symbol
_atom_site_label
_atom_site_fract_x
_atom_site_fract_y
_atom_site_fract_z
Si Si1 0.261901 0.765769 0.403446
Si Si2 0.388666 0.976802 0.842247
Si Si3 0.741870 0.195631 0.119313
Si Si4 0.559652 0.111315 0.763870
Si Si5 0.758587 0.561185 0.902765
Si Si6 0.215054 0.683965 0.682333
Si Si7 0.928737 0.691752 0.827768
Si Si8 0.788473 0.239132 0.841428
O O1 0.356990 0.836291 0.360317
O O2 0.311105 0.634105 0.512971
O O3 0.307912 0.669764 0.257948
O O4 0.000000 0.000000 0.500000
O O5 0.319942 0.904569 0.805146
O O6 0.590213 0.756383 0.857233
O O7 0.465530 0.057050 0.750019
O O8 0.190596 0.173817 0.005014
O O9 0.679715 0.352247 0.238609
O O10 0.660284 0.284609 0.008409
O O11 0.000000 0.000000 0.000000
O O12 0.764677 0.888853 0.777888
O O13 0.378259 0.318326 0.922282
O O14 0.939550 0.520510 0.831108
O O15 0.844693 0.340192 0.851242
O O16 0.147496 0.586048 0.732477
O O17 0.991347 0.963706 0.759712
#
# Coordination Sequence:
#
# PCOD9072807 Si02
#       8
#     2   2   2   2   2   2   2   2
#     4  10  18  31  51  74 100 131 170 201 240 296
#     4   9  16  29  50  75 100 128 163 206 250 290
#     4  10  18  31  51  74 100 131 170 201 240 296
#     4   9  16  29  50  75 100 128 163 206 250 290
#     4   9  19  28  52  81 103 114 166 223 253 270
#     4  10  19  33  55  69 103 138 168 190 245 312
#     4   9  14  31  48  75  98 132 155 200 252 295
#     4  10  18  32  51  83  97 123 166 220 243 276
#
# _framework density 23.781139
#
# number of rings (size 3 to 8) (size 9 to 14) (size 15 to 20)
#    0.000    2.500    5.000    2.250    0.000    2.000 
#    0.000    1.875    0.000    3.000    0.000    0.000 
#    0.000    0.000    0.000    0.000    0.000    0.000 
#
# Total GULP energy -89403.793380 kJ/mol
# GULP energy per Si atom -5587.737086 kJ/mol
# Density = 2.372701 g / cm^3
# Si number density = 23.781139 Si / 1000 Ang^3
#
#
#
# Elastic Constant Matrix: (Units=GPa)
#
#
# Indices 1 2 3 4 5 6 
#
# 1 162.5601 58.3821 43.1256 -19.3916 -7.6037 42.2420
# 2 58.3821 87.8085 21.6024 -13.3459 -10.8181 45.5034
# 3 43.1256 21.6024 112.7566 -9.5542 -5.9921 11.0736
# 4 -19.3916 -13.3459 -9.5542 28.1857 5.6928 -8.0086
# 5 -7.6037 -10.8181 -5.9921 5.6928 35.7580 -13.7923
# 6 42.2420 45.5034 11.0736 -8.0086 -13.7923 63.5170
#
#
#
# Elastic Compliance Matrix: (Units=1/GPa)
#
#
# Indices 1 2 3 4 5 6 
#
# 1 0.009168 -0.003678 -0.002308 0.003194 -0.001182 -0.002914
# 2 -0.003678 0.020751 -0.001105 0.003542 0.000221 -0.011733
# 3 -0.002308 -0.001105 0.010037 0.001362 0.001014 0.000968
# 4 0.003194 0.003542 0.001362 0.040549 -0.004796 -0.000828
# 5 -0.001182 0.000221 0.001014 -0.004796 0.031275 0.006638
# 6 -0.002914 -0.011733 0.000968 -0.000828 0.006638 0.027255
#
#
# Mechanical properties :
#
#
# Convention : Reuss Voigt Hill
#
# Bulk Modulus (GPa) = 38.79655 67.70504 53.25080
# Shear Modulus (GPa) = 30.90093 41.49315 36.19704
#
# Velocity S-wave (km/s) = 3.60861 4.18160 3.90563
# Velocity P-wave (km/s) = 5.80622 7.20044 6.54058
#
# Compressibility (1/GPa) = 0.02577549
#
# Stress axis : x y z
#
# Youngs Moduli (GPa) = 109.08065 48.18955 99.63027
#
# Poissons Ratio (x) = 0.17723 0.22991
# Poissons Ratio (y) = 0.40118 0.11007
# Poissons Ratio (z) = 0.25172 0.05324
#
# Static dielectric constant tensor:
#      x y z
#    x 2.197460 -0.164010 -0.124480 
#    y -0.164010 2.010350 0.026490 
#    z -0.124480 0.026490 1.932090 
# 
# From -- ./inp_files/417550.got.cif
#   From: 2010.05.17/outbox.cif.g08.bks.cpg/sg2_209_cif.got.tgz:417550.got - 2010.06.03 11:33:40.
