data_PCOD9072929
_publ_section_title
;
Structure prediction by ZEFSAII (Michael W. Deem and Ramdas Pophale) SiO2 
 PCOD9072929
Probable space group: P -1
;
_chemical_formula_sum "Si O2"
_cell_formula_units_Z 14
_cell_length_a 9.000000
_cell_length_b 30.000000
_cell_length_c 30.000000
_cell_angle_alpha 170.000000
_cell_angle_beta 30.000000
_cell_angle_gamma 150.000000
_cell_volume 695.153643
_symmetry_space_group_name_H-M "P -1"
_symmetry_group_IT_number 2
_symmetry_cell_setting 'triclinic'
loop_
_space_group_symop_operation_xyz
x,y,z
-x,-y,-z
loop_
_atom_site_type_symbol
_atom_site_label
_atom_site_fract_x
_atom_site_fract_y
_atom_site_fract_z
Si Si1 0.719723 0.781035 0.223014
Si Si2 0.318560 0.489437 0.271455
Si Si3 0.295399 0.552333 0.561365
Si Si4 0.323229 0.079794 0.020541
Si Si5 0.322930 0.981329 0.314773
Si Si6 0.252698 0.768314 0.476785
Si Si7 0.986666 0.253355 0.983761
O O1 0.500000 0.000000 0.500000
O O2 0.500000 0.500000 0.000000
O O3 0.979547 0.854848 0.266889
O O4 0.911757 0.787498 0.133673
O O5 0.567090 0.743667 0.469162
O O6 0.152420 0.600687 0.381776
O O7 0.049272 0.426082 0.313701
O O8 0.474890 0.241596 0.971722
O O9 0.500000 0.500000 0.500000
O O10 0.398496 0.821371 0.772425
O O11 0.288016 0.304855 0.287132
O O12 0.621999 0.203230 0.035690
O O13 0.000000 0.000000 0.000000
O O14 0.418479 0.086726 0.444805
O O15 0.163351 0.537494 0.235331
O O16 0.099800 0.015886 0.747518
#
# Coordination Sequence:
#
# PCOD9072929 Si02
#       7
#     2   2   2   2   2   2   2
#     4  12  28  49  72 102 130 174 226 277 350 421
#     4  10  20  38  72  95 138 178 232 261 331 381
#     4  12  25  41  68 101 141 187 244 276 317 410
#     4  12  28  44  63 105 146 186 232 278 349 400
#     4  10  22  43  72  96 135 172 228 269 339 404
#     4  10  21  42  71 103 126 185 223 273 345 391
#     4  12  24  45  71  95 142 175 221 291 339 394
#
# _framework density 20.139433
#
# number of rings (size 3 to 8) (size 9 to 14) (size 15 to 20)
#    0.857    0.000    1.429    6.000    4.000    0.000 
#    0.000    4.286    0.000    0.000    0.000    0.000 
#    0.000    0.000    0.000    0.000    0.000    0.000 
#
# Total GULP energy -77982.393014 kJ/mol
# GULP energy per Si atom -5570.170930 kJ/mol
# Density = 2.009359 g / cm^3
# Si number density = 20.139433 Si / 1000 Ang^3
#
#
#
# Elastic Constant Matrix: (Units=GPa)
#
#
# Indices 1 2 3 4 5 6 
#
# 1 116.7624 42.8492 42.5763 -4.4635 20.3580 29.8982
# 2 42.8492 83.5628 26.1343 2.0556 8.4732 18.2041
# 3 42.5763 26.1343 181.0297 11.0684 18.2878 14.8930
# 4 -4.4635 2.0556 11.0684 38.2699 3.8932 3.2464
# 5 20.3580 8.4732 18.2878 3.8932 43.6138 4.5895
# 6 29.8982 18.2041 14.8930 3.2464 4.5895 37.1408
#
#
#
# Elastic Compliance Matrix: (Units=1/GPa)
#
#
# Indices 1 2 3 4 5 6 
#
# 1 0.013734 -0.004418 -0.001712 0.003449 -0.004303 -0.007973
# 2 -0.004418 0.015288 -0.000817 -0.000789 -0.000124 -0.003524
# 3 -0.001712 -0.000817 0.006341 -0.001802 -0.001495 -0.000421
# 4 0.003449 -0.000789 -0.001802 0.027696 -0.002779 -0.003745
# 5 -0.004303 -0.000124 -0.001495 -0.002779 0.025711 0.001190
# 6 -0.007973 -0.003524 -0.000421 -0.003745 0.001190 0.035420
#
#
# Mechanical properties :
#
#
# Convention : Reuss Voigt Hill
#
# Bulk Modulus (GPa) = 46.58437 67.16384 56.87410
# Shear Modulus (GPa) = 34.42546 41.79124 38.10835
#
# Velocity S-wave (km/s) = 4.13892 4.56026 4.35469
# Velocity P-wave (km/s) = 6.78395 7.81983 7.32024
#
# Compressibility (1/GPa) = 0.02146643
#
# Stress axis : x y z
#
# Youngs Moduli (GPa) = 72.81183 65.41040 157.71486
#
# Poissons Ratio (x) = 0.28901 0.27008
# Poissons Ratio (y) = 0.32172 0.12889
# Poissons Ratio (z) = 0.12468 0.05345
#
# Static dielectric constant tensor:
#      x y z
#    x 1.774950 -0.004750 0.003610 
#    y -0.004750 1.750540 0.009870 
#    z 0.003610 0.009870 1.693360 
# 
# From -- ./inp_files/622778.got.cif
#   From: 2010.05.17/outbox.ucp.g08.bks.cvg/sg2_312_cif.got.tgz:622778.got - 2010.06.11 11:32:03.
