data_PCOD9072006
_publ_section_title
;
Structure prediction by ZEFSAII (Michael W. Deem and Ramdas Pophale) SiO2 
 PCOD9072006
Probable space group: P -1
;
_chemical_formula_sum "Si O2"
_cell_formula_units_Z 16
_cell_length_a 7.184043
_cell_length_b 12.810934
_cell_length_c 11.274352
_cell_angle_alpha 55.722786
_cell_angle_beta 109.004612
_cell_angle_gamma 131.139576
_cell_volume 644.045182
_symmetry_space_group_name_H-M "P -1"
_symmetry_group_IT_number 2
_symmetry_cell_setting 'triclinic'
loop_
_space_group_symop_operation_xyz
x,y,z
-x,-y,-z
loop_
_atom_site_type_symbol
_atom_site_label
_atom_site_fract_x
_atom_site_fract_y
_atom_site_fract_z
Si Si1 0.442360 0.030939 0.598395
Si Si2 0.454534 0.892334 0.173958
Si Si3 0.145271 0.692976 0.813359
Si Si4 0.203081 0.193629 0.916383
Si Si5 0.777027 0.355544 0.883414
Si Si6 0.211634 0.192458 0.422147
Si Si7 0.321602 0.226149 0.172339
Si Si8 0.891673 0.856761 0.317310
O O1 0.189410 0.854008 0.684061
O O2 0.500000 0.000000 0.500000
O O3 0.577297 0.056752 0.736760
O O4 0.442363 0.181558 0.491009
O O5 0.224348 0.719905 0.191192
O O6 0.693696 0.895538 0.239606
O O7 0.500000 0.000000 0.000000
O O8 0.396221 0.710874 0.824982
O O9 0.922618 0.542293 0.794391
O O10 0.112570 0.671838 0.961455
O O11 0.486411 0.259463 0.914165
O O12 0.137028 0.232576 0.752778
O O13 0.221139 0.254871 0.013951
O O14 0.000000 0.000000 0.000000
O O15 0.277923 0.279422 0.253554
O O16 0.175619 0.240442 0.513044
O O17 0.000000 0.000000 0.500000
O O18 0.151043 0.032828 0.269358
#
# Coordination Sequence:
#
# PCOD9072006 Si02
#       8
#     2   2   2   2   2   2   2   2
#     4  11  20  31  51  80 103 131 179 222 252 301
#     4  10  18  32  51  73 100 133 176 216 257 305
#     4  10  18  30  50  77 107 134 168 215 264 308
#     4   8  14  26  46  71  89 121 168 209 236 292
#     4   9  18  31  49  76 103 140 167 208 267 312
#     4   9  17  29  46  72  98 129 169 208 254 298
#     4   9  15  27  45  70  97 127 163 208 247 300
#     4   8  16  26  44  70  93 122 168 209 245 294
#
# _framework density 24.842977000000001
#
# number of rings (size 3 to 8) (size 9 to 14) (size 15 to 20)
#    0.000    2.750    2.500    0.000    0.000    0.000 
#    0.000    0.625    0.000    0.750   19.500   31.500 
#    0.000    0.125    0.000    0.000    0.000    0.000 
#
# Total GULP energy -89152.916540 kJ/mol
# GULP energy per Si atom -5572.057284 kJ/mol
# Density = 2.478643 g / cm^3
# Si number density = 24.842977 Si / 1000 Ang^3
#
#
#
# Elastic Constant Matrix: (Units=GPa)
#
#
# Indices 1 2 3 4 5 6 
#
# 1 72.6406 25.0538 27.7242 7.2810 -12.8960 9.5838
# 2 25.0538 126.5501 49.1160 24.0039 -7.4322 0.1926
# 3 27.7242 49.1160 174.3308 59.6758 -23.8476 -20.1507
# 4 7.2810 24.0039 59.6758 42.8677 -15.0538 -5.9380
# 5 -12.8960 -7.4322 -23.8476 -15.0538 38.5073 12.4213
# 6 9.5838 0.1926 -20.1507 -5.9380 12.4213 24.6147
#
#
#
# Elastic Compliance Matrix: (Units=1/GPa)
#
#
# Indices 1 2 3 4 5 6 
#
# 1 0.019892 -0.002590 -0.005089 0.006744 0.010699 -0.015663
# 2 -0.002590 0.009513 -0.001223 -0.003616 -0.001074 -0.000398
# 3 -0.005089 -0.001223 0.013435 -0.016971 -0.003731 0.010779
# 4 0.006744 -0.003616 -0.016971 0.051461 0.014910 -0.011600
# 5 0.010699 -0.001074 -0.003731 0.014910 0.040645 -0.024126
# 6 -0.015663 -0.000398 0.010779 -0.011600 -0.024126 0.064928
#
#
# Mechanical properties :
#
#
# Convention : Reuss Voigt Hill
#
# Bulk Modulus (GPa) = 39.94394 64.14551 52.04473
# Shear Modulus (GPa) = 22.12159 39.30644 30.71401
#
# Velocity S-wave (km/s) = 2.98729 3.98200 3.51996
# Velocity P-wave (km/s) = 5.29264 6.85698 6.12496
#
# Compressibility (1/GPa) = 0.02503509
#
# Stress axis : x y z
#
# Youngs Moduli (GPa) = 50.27156 105.11945 74.43281
#
# Poissons Ratio (x) = 0.27225 0.37880
# Poissons Ratio (y) = 0.13020 0.09106
# Poissons Ratio (z) = 0.25584 0.12860
#
# Static dielectric constant tensor:
#      x y z
#    x 2.472930 0.233510 0.150500 
#    y 0.233510 2.179710 0.201650 
#    z 0.150500 0.201650 2.101670 
# 
# From -- ./inp_files/255159.got.cif
#   From: 2010.05.17/outbox.cif.g08.bks.cpg/sg2_128_cif.got.tgz:255159.got - 2010.06.03 11:33:40.
