data_PCOD9072209
_publ_section_title
;
Structure prediction by ZEFSAII (Michael W. Deem and Ramdas Pophale) SiO2 
 PCOD9072209
Probable space group: P -1
;
_chemical_formula_sum "Si O2"
_cell_formula_units_Z 14
_cell_length_a 14.191193
_cell_length_b 13.571352
_cell_length_c 12.953589
_cell_angle_alpha 146.831202
_cell_angle_beta 28.410279
_cell_angle_gamma 144.378565
_cell_volume 620.620671
_symmetry_space_group_name_H-M "P -1"
_symmetry_group_IT_number 2
_symmetry_cell_setting 'triclinic'
loop_
_space_group_symop_operation_xyz
x,y,z
-x,-y,-z
loop_
_atom_site_type_symbol
_atom_site_label
_atom_site_fract_x
_atom_site_fract_y
_atom_site_fract_z
Si Si1 0.349692 0.053643 0.042659
Si Si2 0.947290 0.144949 0.566936
Si Si3 0.938953 0.547717 0.839031
Si Si4 0.780618 0.426379 0.587756
Si Si5 0.560433 0.799584 0.687190
Si Si6 0.472223 0.669417 0.064969
Si Si7 0.092903 0.337929 0.807738
O O1 0.445668 0.171722 0.158493
O O2 0.120657 0.075239 0.281230
O O3 0.463510 0.156553 0.922274
O O4 0.358992 0.840652 0.868693
O O5 0.944996 0.340980 0.690030
O O6 0.009132 0.188641 0.665601
O O7 0.730892 0.983837 0.635822
O O8 0.719020 0.496431 0.945877
O O9 0.140271 0.634043 0.649387
O O10 0.937781 0.671268 0.048671
O O11 0.620435 0.287870 0.698948
O O12 0.000000 0.500000 0.500000
O O13 0.666335 0.586986 0.820093
O O14 0.659626 0.635547 0.418576
O O15 0.000000 0.500000 0.000000
#
# Coordination Sequence:
#
# PCOD9072209 Si02
#       7
#     2   2   2   2   2   2   2
#     4  10  18  30  53  74 103 135 179 212 250 298
#     4  10  18  34  52  75 107 143 177 208 249 309
#     4  10  18  33  52  77 109 136 166 219 264 306
#     4   9  19  33  53  79 104 130 176 223 266 303
#     4  10  20  34  51  77 108 142 181 207 246 315
#     4  10  18  32  53  81 101 135 175 222 261 302
#     4   9  19  32  50  75 110 144 172 206 258 311
#
# _framework density 22.558063000000001
#
# number of rings (size 3 to 8) (size 9 to 14) (size 15 to 20)
#    0.000    2.286    2.857    1.714    0.000    0.000 
#    0.000    8.571    0.000    0.857    0.000    9.000 
#    0.000    0.000    0.000    0.000    0.000    0.000 
#
# Total GULP energy -78055.753369 kJ/mol
# GULP energy per Si atom -5575.410955 kJ/mol
# Density = 2.250672 g / cm^3
# Si number density = 22.558063 Si / 1000 Ang^3
#
#
#
# Elastic Constant Matrix: (Units=GPa)
#
#
# Indices 1 2 3 4 5 6 
#
# 1 89.0411 21.8207 50.5262 -6.0291 -12.0601 -16.8863
# 2 21.8207 72.2384 36.8323 -22.8374 10.2260 -16.2080
# 3 50.5262 36.8323 167.8472 -19.1321 -5.4572 -14.0575
# 4 -6.0291 -22.8374 -19.1321 44.8162 -16.7875 6.8430
# 5 -12.0601 10.2260 -5.4572 -16.7875 47.7998 -3.4527
# 6 -16.8863 -16.2080 -14.0575 6.8430 -3.4527 37.8069
#
#
#
# Elastic Compliance Matrix: (Units=1/GPa)
#
#
# Indices 1 2 3 4 5 6 
#
# 1 0.015339 -0.002257 -0.003532 0.000308 0.004413 0.004918
# 2 -0.002257 0.019387 -0.002440 0.006958 -0.002195 0.004936
# 3 -0.003532 -0.002440 0.007839 0.002098 0.001264 0.000027
# 4 0.000308 0.006958 0.002098 0.030458 0.009472 -0.000747
# 5 0.004413 -0.002195 0.001264 0.009472 0.026131 0.002172
# 6 0.004918 0.004936 0.000027 -0.000747 0.002172 0.031107
#
#
# Mechanical properties :
#
#
# Convention : Reuss Voigt Hill
#
# Bulk Modulus (GPa) = 38.30199 60.83166 49.56682
# Shear Modulus (GPa) = 32.17099 40.74773 36.45936
#
# Velocity S-wave (km/s) = 3.78053 4.25473 4.02462
# Velocity P-wave (km/s) = 6.00605 7.15277 6.60435
#
# Compressibility (1/GPa) = 0.02610831
#
# Stress axis : x y z
#
# Youngs Moduli (GPa) = 65.19278 51.58200 127.57058
#
# Poissons Ratio (x) = 0.11640 0.45055
# Poissons Ratio (y) = 0.14711 0.31124
# Poissons Ratio (z) = 0.23025 0.12585
#
# Static dielectric constant tensor:
#      x y z
#    x 1.886130 0.014740 -0.068070 
#    y 0.014740 1.926070 -0.025160 
#    z -0.068070 -0.025160 1.921050 
# 
# From -- ./inp_files/396034.got.cif
#   From: 2010.05.17/outbox.cif.g08.bks.cpg/sg2_199_cif.got.tgz:396034.got - 2010.06.03 11:33:40.
