data_PCOD9072624
_publ_section_title
;
Structure prediction by ZEFSAII (Michael W. Deem and Ramdas Pophale) SiO2 
 PCOD9072624
Probable space group: P -1
;
_chemical_formula_sum "Si O2"
_cell_formula_units_Z 14
_cell_length_a 15.631970
_cell_length_b 27.209289
_cell_length_c 6.517128
_cell_angle_alpha 94.723748
_cell_angle_beta 78.658494
_cell_angle_gamma 166.294270
_cell_volume 569.099546
_symmetry_space_group_name_H-M "P -1"
_symmetry_group_IT_number 2
_symmetry_cell_setting 'triclinic'
loop_
_space_group_symop_operation_xyz
x,y,z
-x,-y,-z
loop_
_atom_site_type_symbol
_atom_site_label
_atom_site_fract_x
_atom_site_fract_y
_atom_site_fract_z
Si Si1 0.244996 0.680152 0.047075
Si Si2 0.182639 0.332270 0.286172
Si Si3 0.502635 0.581704 0.584459
Si Si4 0.417964 0.637102 0.450233
Si Si5 0.492569 0.211619 0.662140
Si Si6 0.664890 0.211346 0.354256
Si Si7 0.219533 0.826618 0.890031
O O1 0.587894 0.843286 0.081595
O O2 0.931117 0.539347 0.280945
O O3 0.394072 0.797831 0.843312
O O4 0.000000 0.500000 0.000000
O O5 0.316500 0.448109 0.429975
O O6 0.184422 0.283700 0.405931
O O7 0.821779 0.152635 0.248072
O O8 0.500000 0.500000 0.000000
O O9 0.618408 0.698612 0.471785
O O10 0.184111 0.413355 0.868823
O O11 0.680880 0.832871 0.356247
O O12 0.137380 0.472871 0.320693
O O13 0.424569 0.120533 0.566412
O O14 0.000000 0.500000 0.500000
O O15 0.604179 0.120823 0.305616
O O16 0.500000 0.000000 0.000000
#
# Coordination Sequence:
#
# PCOD9072624 Si02
#       7
#     2   2   2   2   2   2   2
#     4  10  13  23  39  62  99 131 144 186 248 299
#     4   9  20  37  50  68  98 130 171 215 249 288
#     4  10  19  33  54  72  97 134 167 208 254 289
#     4  10  16  24  44  72  91 127 159 192 251 302
#     4   8  16  22  38  66  96 124 153 188 248 304
#     4  10  16  27  40  64 105 128 153 199 241 294
#     4  11  22  33  50  74 101 138 173 203 242 292
#
# _framework density 24.600265
#
# number of rings (size 3 to 8) (size 9 to 14) (size 15 to 20)
#    0.000    2.571    7.143    0.000    0.000    0.571 
#    0.000    0.000    0.000    0.000    0.000    1.000 
#    0.000   11.429    0.000    0.286    0.000    0.143 
#
# Total GULP energy -77936.063733 kJ/mol
# GULP energy per Si atom -5566.861695 kJ/mol
# Density = 2.454427 g / cm^3
# Si number density = 24.600265 Si / 1000 Ang^3
#
#
#
# Elastic Constant Matrix: (Units=GPa)
#
#
# Indices 1 2 3 4 5 6 
#
# 1 231.7184 45.0581 65.3553 31.1978 29.1434 7.4912
# 2 45.0581 31.3184 24.9515 16.7572 -3.4859 0.9050
# 3 65.3553 24.9515 147.0590 19.9903 21.3076 5.6706
# 4 31.1978 16.7572 19.9903 38.7094 2.4570 -3.9555
# 5 29.1434 -3.4859 21.3076 2.4570 56.2200 10.5782
# 6 7.4912 0.9050 5.6706 -3.9555 10.5782 28.7103
#
#
#
# Elastic Compliance Matrix: (Units=1/GPa)
#
#
# Indices 1 2 3 4 5 6 
#
# 1 0.006962 -0.009272 -0.000839 -0.000931 -0.003810 -0.000083
# 2 -0.009272 0.060242 -0.005346 -0.017172 0.012321 -0.005329
# 3 -0.000839 -0.005346 0.008725 -0.001360 -0.003070 -0.000392
# 4 -0.000931 -0.017172 -0.001360 0.035627 -0.002950 0.007048
# 5 -0.003810 0.012321 -0.003070 -0.002950 0.023281 -0.007772
# 6 -0.000083 -0.005329 -0.000392 0.007048 -0.007772 0.038932
#
#
# Mechanical properties :
#
#
# Convention : Reuss Voigt Hill
#
# Bulk Modulus (GPa) = 22.21492 75.64729 48.93111
# Shear Modulus (GPa) = 22.75939 43.04334 32.90136
#
# Velocity S-wave (km/s) = 3.04496 4.18749 3.66107
# Velocity P-wave (km/s) = 4.62734 7.36189 6.14857
#
# Compressibility (1/GPa) = 0.04501478
#
# Stress axis : x y z
#
# Youngs Moduli (GPa) = 143.62935 16.59967 114.61421
#
# Poissons Ratio (x) = 0.15391 0.09620
# Poissons Ratio (y) = 1.33169 0.61276
# Poissons Ratio (z) = 0.12055 0.08875
#
# Static dielectric constant tensor:
#      x y z
#    x 1.926280 0.037250 0.011240 
#    y 0.037250 2.103960 -0.027680 
#    z 0.011240 -0.027680 1.953030 
# 
# From -- ./inp_files/101433.got.cif
#   From: 2010.05.17/outbox.cif.g08.bks.cpg/sg2_51_cif.got.tgz:101433.got - 2010.06.03 11:33:40.
