data_PCOD9072850
_publ_section_title
;
Structure prediction by ZEFSAII (Michael W. Deem and Ramdas Pophale) SiO2 
 PCOD9072850
Probable space group: P -1
;
_chemical_formula_sum "Si O2"
_cell_formula_units_Z 14
_cell_length_a 13.837671
_cell_length_b 10.770277
_cell_length_c 20.351777
_cell_angle_alpha 158.462703
_cell_angle_beta 151.081413
_cell_angle_gamma 36.009569
_cell_volume 538.206571
_symmetry_space_group_name_H-M "P -1"
_symmetry_group_IT_number 2
_symmetry_cell_setting 'triclinic'
loop_
_space_group_symop_operation_xyz
x,y,z
-x,-y,-z
loop_
_atom_site_type_symbol
_atom_site_label
_atom_site_fract_x
_atom_site_fract_y
_atom_site_fract_z
Si Si1 0.367698 0.782342 0.997597
Si Si2 0.243297 0.840590 0.219979
Si Si3 0.940164 0.712272 0.875652
Si Si4 0.348580 0.806598 0.548992
Si Si5 0.014696 0.529923 0.443952
Si Si6 0.382299 0.758319 0.397153
Si Si7 0.393522 0.916789 0.826913
O O1 0.220549 0.098423 0.080651
O O2 0.531247 0.855052 0.189546
O O3 0.514932 0.824718 0.044171
O O4 0.195814 0.507983 0.738435
O O5 0.235133 0.701970 0.220659
O O6 0.136054 0.197790 0.333703
O O7 0.472878 0.921153 0.377232
O O8 0.128131 0.634480 0.994268
O O9 0.847531 0.366385 0.619057
O O10 0.000000 0.000000 0.000000
O O11 0.500000 0.500000 0.500000
O O12 0.297650 0.814104 0.445638
O O13 0.159338 0.845160 0.664869
O O14 0.000000 0.500000 0.500000
O O15 0.518575 0.433734 0.319775
O O16 0.500000 0.000000 0.000000
#
# Coordination Sequence:
#
# PCOD9072850 Si02
#       7
#     2   2   2   2   2   2   2
#     4  10  20  33  51  83 107 142 189 218 281 321
#     4   9  20  33  55  81 108 145 183 225 287 321
#     4  10  19  31  52  82 112 142 180 230 282 330
#     4  10  18  31  51  76 113 138 183 232 272 325
#     4  10  20  35  54  81 111 144 186 228 275 331
#     4  10  19  36  52  82 113 141 183 232 277 334
#     4  11  20  34  56  81 113 149 185 230 270 332
#
# _framework density 26.012318
#
# number of rings (size 3 to 8) (size 9 to 14) (size 15 to 20)
#    0.000    2.000    4.286    1.714    4.000    0.571 
#    0.000    0.000    0.000    0.857    7.429    2.000 
#    0.000    0.000    0.000    0.000    0.000    0.000 
#
# Total GULP energy -78147.406849 kJ/mol
# GULP energy per Si atom -5581.957632 kJ/mol
# Density = 2.595311 g / cm^3
# Si number density = 26.012318 Si / 1000 Ang^3
#
#
#
# Elastic Constant Matrix: (Units=GPa)
#
#
# Indices 1 2 3 4 5 6 
#
# 1 109.5858 26.0750 57.7094 -4.6031 14.3518 21.2110
# 2 26.0750 62.9850 35.8316 -10.0739 -5.2824 -0.2631
# 3 57.7094 35.8316 230.9920 -22.1779 16.3859 15.9865
# 4 -4.6031 -10.0739 -22.1779 48.5923 0.6029 -20.9593
# 5 14.3518 -5.2824 16.3859 0.6029 37.8627 -2.7164
# 6 21.2110 -0.2631 15.9865 -20.9593 -2.7164 35.7219
#
#
#
# Elastic Compliance Matrix: (Units=1/GPa)
#
#
# Indices 1 2 3 4 5 6 
#
# 1 0.014511 -0.006413 -0.001931 -0.005796 -0.006305 -0.011680
# 2 -0.006413 0.021522 -0.002231 0.006854 0.006973 0.009517
# 3 -0.001931 -0.002231 0.005496 0.001671 -0.002021 -0.000502
# 4 -0.005796 0.006854 0.001671 0.031420 0.003468 0.021443
# 5 -0.006305 0.006973 -0.002021 0.003468 0.031247 0.009110
# 6 -0.011680 0.009517 -0.000502 0.021443 0.009110 0.048498
#
#
# Mechanical properties :
#
#
# Convention : Reuss Voigt Hill
#
# Bulk Modulus (GPa) = 49.07400 71.42164 60.24782
# Shear Modulus (GPa) = 27.67935 43.36517 35.52226
#
# Velocity S-wave (km/s) = 3.26557 4.08744 3.69940
# Velocity P-wave (km/s) = 5.75545 7.05640 6.43887
#
# Compressibility (1/GPa) = 0.02037739
#
# Stress axis : x y z
#
# Youngs Moduli (GPa) = 68.91177 46.46376 181.93660
#
# Poissons Ratio (x) = 0.29799 0.35141
# Poissons Ratio (y) = 0.44195 0.40599
# Poissons Ratio (z) = 0.13310 0.10368
#
# Static dielectric constant tensor:
#      x y z
#    x 2.041790 0.016800 0.015670 
#    y 0.016800 2.090390 0.016000 
#    z 0.015670 0.016000 2.273200 
# 
# From -- ./inp_files/266909.got.cif
#   From: 2010.05.17/outbox.cif.g08.bks.cpg/sg2_134_cif.got.tgz:266909.got - 2010.06.03 11:33:40.
