data_PCOD9072406
_publ_section_title
;
Structure prediction by ZEFSAII (Michael W. Deem and Ramdas Pophale) SiO2 
 PCOD9072406
Probable space group: P -1
;
_chemical_formula_sum "Si O2"
_cell_formula_units_Z 12
_cell_length_a 7.974733
_cell_length_b 9.032072
_cell_length_c 16.819318
_cell_angle_alpha 128.300773
_cell_angle_beta 71.659340
_cell_angle_gamma 63.330933
_cell_volume 453.809804
_symmetry_space_group_name_H-M "P -1"
_symmetry_group_IT_number 2
_symmetry_cell_setting 'triclinic'
loop_
_space_group_symop_operation_xyz
x,y,z
-x,-y,-z
loop_
_atom_site_type_symbol
_atom_site_label
_atom_site_fract_x
_atom_site_fract_y
_atom_site_fract_z
Si Si1 0.661941 0.518780 0.931003
Si Si2 0.494284 0.728494 0.568192
Si Si3 0.040101 0.456121 0.676756
Si Si4 0.414643 0.139017 0.813152
Si Si5 0.332931 0.554936 0.279703
Si Si6 0.344241 0.383258 0.732549
O O1 0.596901 0.537546 0.855282
O O2 0.500000 0.500000 0.000000
O O3 0.489552 0.851379 0.115379
O O4 0.085069 0.143962 0.748258
O O5 0.500000 0.500000 0.500000
O O6 0.773938 0.553157 0.406089
O O7 0.574787 0.787685 0.651619
O O8 0.009731 0.584897 0.810683
O O9 0.737113 0.596696 0.736434
O O10 0.335615 0.017767 0.492942
O O11 0.439184 0.246671 0.765076
O O12 0.000000 0.500000 0.000000
O O13 0.641420 0.407013 0.216129
O O14 0.000000 0.000000 0.500000
#
# Coordination Sequence:
#
# PCOD9072406 Si02
#       6
#     2   2   2   2   2   2
#     4  11  20  34  59  89 113 142 190 242 291 331
#     4  10  21  37  56  81 116 155 190 231 287 350
#     4   9  17  30  51  79 109 143 191 229 279 334
#     4   9  17  31  54  81 112 143 186 233 285 331
#     4  10  18  30  56  86 112 142 191 245 280 329
#     4   9  15  28  49  80 109 135 182 242 275 320
#
# _framework density 26.442795
#
# number of rings (size 3 to 8) (size 9 to 14) (size 15 to 20)
#    0.000    2.333    1.667    5.000    0.000    0.000 
#    0.000    0.833    0.000   10.000    0.000    0.000 
#    0.000    0.000    0.000    0.000    0.000    0.000 
#
# Total GULP energy -66881.319777 kJ/mol
# GULP energy per Si atom -5573.443315 kJ/mol
# Density = 2.638261 g / cm^3
# Si number density = 26.442795 Si / 1000 Ang^3
#
#
#
# Elastic Constant Matrix: (Units=GPa)
#
#
# Indices 1 2 3 4 5 6 
#
# 1 202.7893 81.3054 54.1897 -6.5002 47.3378 61.7583
# 2 81.3054 111.6786 62.9159 -16.8113 13.4353 48.5211
# 3 54.1897 62.9159 118.2646 -17.1584 22.1529 5.0119
# 4 -6.5002 -16.8113 -17.1584 42.5267 -3.3298 3.8941
# 5 47.3378 13.4353 22.1529 -3.3298 60.3860 3.7573
# 6 61.7583 48.5211 5.0119 3.8941 3.7573 59.9446
#
#
#
# Elastic Compliance Matrix: (Units=1/GPa)
#
#
# Indices 1 2 3 4 5 6 
#
# 1 0.010366 -0.001636 -0.002267 0.000329 -0.006365 -0.008788
# 2 -0.001636 0.025371 -0.011180 0.007058 0.001277 -0.018454
# 3 -0.002267 -0.011180 0.015441 0.000373 -0.002014 0.010196
# 4 0.000329 0.007058 0.000373 0.027227 0.000025 -0.007854
# 5 -0.006365 0.001277 -0.002014 0.000025 0.021737 0.004329
# 6 -0.008788 -0.018454 0.010196 -0.007854 0.004329 0.040059
#
#
# Mechanical properties :
#
#
# Convention : Reuss Voigt Hill
#
# Bulk Modulus (GPa) = 47.59365 92.17271 69.88318
# Shear Modulus (GPa) = 28.18961 48.19289 38.19125
#
# Velocity S-wave (km/s) = 3.26860 4.27375 3.80451
# Velocity P-wave (km/s) = 5.68179 7.69976 6.76643
#
# Compressibility (1/GPa) = 0.02101120
#
# Stress axis : x y z
#
# Youngs Moduli (GPa) = 96.47283 39.41575 64.76118
#
# Poissons Ratio (x) = 0.06449 0.14679
# Poissons Ratio (y) = 0.15784 0.72405
# Poissons Ratio (z) = 0.21867 0.44068
#
# Static dielectric constant tensor:
#      x y z
#    x 2.172300 -0.026490 -0.025180 
#    y -0.026490 2.088550 -0.001590 
#    z -0.025180 -0.001590 2.080600 
# 
# From -- ./inp_files/234279.got.cif
#   From: 2010.05.17/outbox.cif.g08.bks.cpg/sg2_118_cif.got.tgz:234279.got - 2010.06.03 11:33:40.
