data_PCOD9072717
_publ_section_title
;
Structure prediction by ZEFSAII (Michael W. Deem and Ramdas Pophale) SiO2 
 PCOD9072717
Probable space group: P -1
;
_chemical_formula_sum "Si O2"
_cell_formula_units_Z 16
_cell_length_a 16.881221
_cell_length_b 8.586937
_cell_length_c 11.588814
_cell_angle_alpha 57.773270
_cell_angle_beta 115.166231
_cell_angle_gamma 152.838616
_cell_volume 643.436878
_symmetry_space_group_name_H-M "P -1"
_symmetry_group_IT_number 2
_symmetry_cell_setting 'triclinic'
loop_
_space_group_symop_operation_xyz
x,y,z
-x,-y,-z
loop_
_atom_site_type_symbol
_atom_site_label
_atom_site_fract_x
_atom_site_fract_y
_atom_site_fract_z
Si Si1 0.360712 0.735794 0.685014
Si Si2 0.150378 0.304940 0.242666
Si Si3 0.636938 0.643799 0.108113
Si Si4 0.482907 0.214439 0.746875
Si Si5 0.056077 0.911510 0.135439
Si Si6 0.184006 0.705352 0.942696
Si Si7 0.242294 0.582388 0.432471
Si Si8 0.343575 0.168886 0.286024
O O1 0.324736 0.497110 0.841148
O O2 0.240672 0.496473 0.592981
O O3 0.356055 0.914243 0.685359
O O4 0.559925 0.093863 0.619419
O O5 0.354481 0.628384 0.215711
O O6 0.130023 0.298543 0.369087
O O7 0.044926 0.955773 0.244947
O O8 0.131981 0.462494 0.101936
O O9 0.522137 0.421614 0.240738
O O10 0.796944 0.065935 0.071373
O O11 0.500000 0.500000 0.000000
O O12 0.582450 0.591889 0.650174
O O13 0.373470 0.011635 0.878398
O O14 0.941786 0.550010 0.143139
O O15 0.245385 0.152330 0.159836
O O16 0.000000 0.000000 0.000000
O O17 0.224574 0.770529 0.368824
#
# Coordination Sequence:
#
# PCOD9072717 Si02
#       8
#     2   2   2   2   2   2   2   2
#     4   9  18  31  50  78 102 129 166 206 248 294
#     4   9  17  32  52  75  99 130 163 204 255 295
#     4  10  19  32  52  78 105 129 160 206 257 298
#     4   9  17  29  50  76 101 126 162 206 251 296
#     4   9  19  33  49  73 102 132 168 205 247 296
#     4  10  18  31  50  74 102 129 164 207 250 296
#     4   9  17  32  52  73 102 131 167 207 244 296
#     4   9  18  32  51  75 100 132 166 204 250 294
#
# _framework density 24.866465000000002
#
# number of rings (size 3 to 8) (size 9 to 14) (size 15 to 20)
#    0.000    2.750    0.000    2.625    0.000    4.500 
#    0.000   10.625    0.000    4.500    0.000    0.000 
#    0.000    0.000    0.000    0.000    0.000    0.000 
#
# Total GULP energy -89142.005585 kJ/mol
# GULP energy per Si atom -5571.375349 kJ/mol
# Density = 2.480987 g / cm^3
# Si number density = 24.866465 Si / 1000 Ang^3
#
#
#
# Elastic Constant Matrix: (Units=GPa)
#
#
# Indices 1 2 3 4 5 6 
#
# 1 90.2684 26.9881 28.5719 11.9149 -7.6547 -3.8370
# 2 26.9881 132.9123 23.9963 46.8260 -10.6795 -30.1895
# 3 28.5719 23.9963 81.9192 28.8491 -7.3981 -10.3607
# 4 11.9149 46.8260 28.8491 30.4266 -7.8746 -15.3738
# 5 -7.6547 -10.6795 -7.3981 -7.8746 23.4242 5.0501
# 6 -3.8370 -30.1895 -10.3607 -15.3738 5.0501 49.1183
#
#
#
# Elastic Compliance Matrix: (Units=1/GPa)
#
#
# Indices 1 2 3 4 5 6 
#
# 1 0.013421 -0.003977 -0.005675 0.006648 0.003196 -0.000841
# 2 -0.003977 0.020225 0.008624 -0.037052 -0.002368 0.002586
# 3 -0.005675 0.008624 0.023402 -0.034056 -0.001834 -0.000677
# 4 0.006648 -0.037052 -0.034056 0.128220 0.015670 0.009084
# 5 0.003196 -0.002368 -0.001834 0.015670 0.047687 -0.001591
# 6 -0.000841 0.002586 -0.000677 0.009084 -0.001591 0.024747
#
#
# Mechanical properties :
#
#
# Convention : Reuss Voigt Hill
#
# Bulk Modulus (GPa) = 18.18403 51.57918 34.88160
# Shear Modulus (GPa) = 17.97988 35.63006 26.80497
#
# Velocity S-wave (km/s) = 2.69189 3.78941 3.28679
# Velocity P-wave (km/s) = 4.12192 6.31931 5.33498
#
# Compressibility (1/GPa) = 0.05499331
#
# Stress axis : x y z
#
# Youngs Moduli (GPa) = 74.50934 49.44393 42.73100
#
# Poissons Ratio (x) = 0.19663 0.24249
# Poissons Ratio (y) = 0.29631 -0.36852
# Poissons Ratio (z) = 0.42283 -0.42641
#
# Static dielectric constant tensor:
#      x y z
#    x 2.036770 -0.007820 -0.017900 
#    y -0.007820 2.048660 -0.019540 
#    z -0.017900 -0.019540 2.004650 
# 
# From -- ./inp_files/227439.got.cif
#   From: 2010.05.17/outbox.cif.g08.bks.cpg/sg2_114_cif.got.tgz:227439.got - 2010.06.03 11:33:40.
