data_PCOD9072617
_publ_section_title
;
Structure prediction by ZEFSAII (Michael W. Deem and Ramdas Pophale) SiO2 
 PCOD9072617
Probable space group: P -1
;
_chemical_formula_sum "Si O2"
_cell_formula_units_Z 16
_cell_length_a 18.000000
_cell_length_b 9.000000
_cell_length_c 27.000000
_cell_angle_alpha 140.000000
_cell_angle_beta 160.000000
_cell_angle_gamma 40.000000
_cell_volume 940.136664
_symmetry_space_group_name_H-M "P -1"
_symmetry_group_IT_number 2
_symmetry_cell_setting 'triclinic'
loop_
_space_group_symop_operation_xyz
x,y,z
-x,-y,-z
loop_
_atom_site_type_symbol
_atom_site_label
_atom_site_fract_x
_atom_site_fract_y
_atom_site_fract_z
Si Si1 0.001173 0.528827 0.131104
Si Si2 0.575463 0.888524 0.692655
Si Si3 0.615872 0.376060 0.793753
Si Si4 0.163806 0.623690 0.525217
Si Si5 0.752900 0.233822 0.735883
Si Si6 0.203700 0.007544 0.565290
Si Si7 0.850397 0.294162 0.632189
Si Si8 0.240376 0.302307 0.401205
O O1 0.190602 0.288865 0.196997
O O2 0.089016 0.665106 0.175919
O O3 0.009478 0.680304 0.225021
O O4 0.766417 0.473892 0.953385
O O5 0.395542 0.752082 0.520693
O O6 0.596364 0.113560 0.731031
O O7 0.447348 0.984194 0.688072
O O8 0.369261 0.528349 0.666337
O O9 0.737720 0.350176 0.810155
O O10 0.137164 0.418212 0.417634
O O11 0.938446 0.742981 0.442536
O O12 0.219780 0.826059 0.574960
O O13 0.503772 0.286099 0.570216
O O14 0.813114 0.951455 0.705678
O O15 0.071949 0.912312 0.412786
O O16 0.828046 0.529620 0.645533
#
# Coordination Sequence:
#
# PCOD9072617 Si02
#       8
#     2   2   2   2   2   2   2   2
#     4  12  21  34  51  76 112 142 165 206 265 317
#     4  10  20  34  52  78 103 141 172 212 251 303
#     4  11  23  33  50  79 112 137 166 210 264 314
#     4   9  17  36  54  80 102 130 176 218 258 293
#     4  10  20  31  49  75 103 135 171 213 258 298
#     4   8  18  34  60  75  97 135 178 221 248 295
#     4   9  19  33  52  77  99 137 173 211 253 298
#     4   9  17  30  54  77  99 127 174 224 247 294
#
# _framework density 17.018802000000001
#
# number of rings (size 3 to 8) (size 9 to 14) (size 15 to 20)
#    0.750    1.500    1.250    2.625    5.250    0.500 
#    0.000    0.625    0.000    0.000    0.000    6.125 
#    0.000    0.000    0.000    0.000    0.000    0.000 
#
# Total GULP energy -89122.061193 kJ/mol
# GULP energy per Si atom -5570.128825 kJ/mol
# Density = 1.698007 g / cm^3
# Si number density = 17.018802 Si / 1000 Ang^3
#
#
#
# Elastic Constant Matrix: (Units=GPa)
#
#
# Indices 1 2 3 4 5 6 
#
# 1 45.1456 -2.3631 2.7592 2.0003 -3.9311 3.7145
# 2 -2.3631 33.8655 4.7852 5.4117 5.3649 -5.0004
# 3 2.7592 4.7852 52.2891 0.0347 -17.6079 4.8301
# 4 2.0003 5.4117 0.0347 13.5772 0.1753 2.7848
# 5 -3.9311 5.3649 -17.6079 0.1753 18.9798 -1.4893
# 6 3.7145 -5.0004 4.8301 2.7848 -1.4893 26.0102
#
#
#
# Elastic Compliance Matrix: (Units=1/GPa)
#
#
# Indices 1 2 3 4 5 6 
#
# 1 0.022943 0.000884 0.000592 -0.003266 0.004879 -0.002587
# 2 0.000884 0.038677 -0.011354 -0.017328 -0.020330 0.010109
# 3 0.000592 -0.011354 0.031540 0.005353 0.032004 -0.006865
# 4 -0.003266 -0.017328 0.005353 0.083468 0.007446 -0.012369
# 5 0.004879 -0.020330 0.032004 0.007446 0.088575 -0.006274
# 6 -0.002587 0.010109 -0.006865 -0.012369 -0.006274 0.042999
#
#
# Mechanical properties :
#
#
# Convention : Reuss Voigt Hill
#
# Bulk Modulus (GPa) = 13.62306 15.74031 14.68169
# Shear Modulus (GPa) = 14.18739 20.12136 17.15438
#
# Velocity S-wave (km/s) = 2.89040 3.44219 3.17829
# Velocity P-wave (km/s) = 4.37736 5.00671 4.70257
#
# Compressibility (1/GPa) = 0.07340493
#
# Stress axis : x y z
#
# Youngs Moduli (GPa) = 43.58613 25.85523 31.70576
#
# Poissons Ratio (x) = -0.02286 -0.01879
# Poissons Ratio (y) = -0.03854 0.36000
# Poissons Ratio (z) = -0.02582 0.29357
#
# Static dielectric constant tensor:
#      x y z
#    x 1.594330 -0.015220 -0.008600 
#    y -0.015220 1.591510 0.008980 
#    z -0.008600 0.008980 1.547330 
# 
# From -- ./inp_files/335020.got.cif
#   From: 2010.05.17/outbox.ucp.g08.bks.cvg/sg2_168_cif.got.tgz:335020.got - 2010.06.11 11:32:03.
