data_PCOD9072110
_publ_section_title
;
Structure prediction by ZEFSAII (Michael W. Deem and Ramdas Pophale) SiO2 
 PCOD9072110
Probable space group: P -1
;
_chemical_formula_sum "Si O2"
_cell_formula_units_Z 14
_cell_length_a 15.000000
_cell_length_b 15.000000
_cell_length_c 24.000000
_cell_angle_alpha 160.000000
_cell_angle_beta 160.000000
_cell_angle_gamma 30.000000
_cell_volume 624.976433
_symmetry_space_group_name_H-M "P -1"
_symmetry_group_IT_number 2
_symmetry_cell_setting 'triclinic'
loop_
_space_group_symop_operation_xyz
x,y,z
-x,-y,-z
loop_
_atom_site_type_symbol
_atom_site_label
_atom_site_fract_x
_atom_site_fract_y
_atom_site_fract_z
Si Si1 0.168012 0.521976 0.997756
Si Si2 0.271337 0.227576 0.393426
Si Si3 0.201067 0.593177 0.833862
Si Si4 0.489952 0.234791 0.089360
Si Si5 0.348286 0.156275 0.579106
Si Si6 0.213009 0.244244 0.746091
Si Si7 0.093384 0.035646 0.877856
O O1 0.187184 0.434593 0.894603
O O2 0.221334 0.297113 0.940172
O O3 0.444896 0.727062 0.279939
O O4 0.905744 0.650421 0.930926
O O5 0.391444 0.505186 0.654489
O O6 0.067140 0.282213 0.257661
O O7 0.073351 0.078105 0.234401
O O8 0.499489 0.042693 0.412447
O O9 0.247961 0.384796 0.690578
O O10 0.164332 0.414187 0.762719
O O11 0.479579 0.793769 0.108438
O O12 0.667291 0.131236 0.083982
O O13 0.500000 0.000000 0.000000
O O14 0.087161 0.019790 0.315284
O O15 0.000000 0.000000 0.500000
#
# Coordination Sequence:
#
# PCOD9072110 Si02
#       7
#     2   2   2   2   2   2   2
#     4  10  21  39  60  89 122 157 202 248 303 366
#     4  11  20  38  63  93 121 154 203 251 309 374
#     4  10  22  41  66  91 121 165 210 257 305 358
#     4  12  24  34  56  96 132 155 191 248 314 378
#     4  10  18  36  66  92 119 155 200 253 308 371
#     4  10  23  43  64  86 122 172 214 252 301 361
#     4  11  19  37  63  89 122 158 195 246 315 371
#
# _framework density 22.400845
#
# number of rings (size 3 to 8) (size 9 to 14) (size 15 to 20)
#    0.000    1.429    4.286    3.000    2.000    0.571 
#    2.571   12.857    0.000   14.571    0.000    0.000 
#    0.000    0.000    0.000    0.000    0.000    0.000 
#
# Total GULP energy -78000.642621 kJ/mol
# GULP energy per Si atom -5571.474473 kJ/mol
# Density = 2.234986 g / cm^3
# Si number density = 22.400845 Si / 1000 Ang^3
#
#
#
# Elastic Constant Matrix: (Units=GPa)
#
#
# Indices 1 2 3 4 5 6 
#
# 1 45.5009 -9.0531 18.1680 4.0038 5.5414 24.4527
# 2 -9.0531 105.2596 21.0255 0.5847 2.5812 20.4224
# 3 18.1680 21.0255 29.1504 5.6271 3.9014 4.8850
# 4 4.0038 0.5847 5.6271 24.9879 5.0664 -1.7795
# 5 5.5414 2.5812 3.9014 5.0664 16.7094 2.2091
# 6 24.4527 20.4224 4.8850 -1.7795 2.2091 37.0300
#
#
#
# Elastic Compliance Matrix: (Units=1/GPa)
#
#
# Indices 1 2 3 4 5 6 
#
# 1 0.114677 0.044604 -0.086504 -0.003824 -0.011878 -0.088390
# 2 0.044604 0.029546 -0.041762 -0.000435 -0.004184 -0.040011
# 3 -0.086504 -0.041762 0.108026 -0.005415 0.002903 0.065471
# 4 -0.003824 -0.000435 -0.005415 0.044703 -0.011792 0.006331
# 5 -0.011878 -0.004184 0.002903 -0.011792 0.066639 0.005226
# 6 -0.088390 -0.040011 0.065471 0.006331 0.005226 0.098795
#
#
# Mechanical properties :
#
#
# Convention : Reuss Voigt Hill
#
# Bulk Modulus (GPa) = 11.77501 26.68796 19.23149
# Shear Modulus (GPa) = 7.59857 25.73015 16.66436
#
# Velocity S-wave (km/s) = 1.84376 3.39281 2.73044
# Velocity P-wave (km/s) = 3.13058 5.22378 4.30630
#
# Compressibility (1/GPa) = 0.08492563
#
# Stress axis : x y z
#
# Youngs Moduli (GPa) = 8.72015 33.84505 9.25707
#
# Poissons Ratio (x) = -1.50962 0.80077
# Poissons Ratio (y) = -0.38895 0.38659
# Poissons Ratio (z) = 0.75433 1.41342
#
# Static dielectric constant tensor:
#      x y z
#    x 2.048010 -0.178390 0.035200 
#    y -0.178390 2.087860 -0.000670 
#    z 0.035200 -0.000670 2.034500 
# 
# From -- ./inp_files/187198.got.cif
#   From: 2010.05.17/outbox.ucp.g08.bks.cvg/sg2_94_cif.got.tgz:187198.got - 2010.06.11 11:32:03.
