data_PCOD9072097
_publ_section_title
;
Structure prediction by ZEFSAII (Michael W. Deem and Ramdas Pophale) SiO2 
 PCOD9072097
Probable space group: P -1
;
_chemical_formula_sum "Si O2"
_cell_formula_units_Z 16
_cell_length_a 11.094468
_cell_length_b 11.480294
_cell_length_c 18.459985
_cell_angle_alpha 135.279649
_cell_angle_beta 28.124200
_cell_angle_gamma 117.391531
_cell_volume 674.376743
_symmetry_space_group_name_H-M "P -1"
_symmetry_group_IT_number 2
_symmetry_cell_setting 'triclinic'
loop_
_space_group_symop_operation_xyz
x,y,z
-x,-y,-z
loop_
_atom_site_type_symbol
_atom_site_label
_atom_site_fract_x
_atom_site_fract_y
_atom_site_fract_z
Si Si1 0.866129 0.811009 0.069303
Si Si2 0.435425 0.009359 0.270671
Si Si3 0.775352 0.215082 0.344473
Si Si4 0.447422 0.384278 0.391450
Si Si5 0.031198 0.942894 0.562046
Si Si6 0.733448 0.809127 0.831791
Si Si7 0.088102 0.574165 0.401570
Si Si8 0.559101 0.156188 0.573796
O O1 0.733446 0.834632 0.069094
O O2 0.691089 0.747656 0.189233
O O3 0.778147 0.029917 0.230570
O O4 0.214236 0.691428 0.841889
O O5 0.184613 0.029003 0.468699
O O6 0.450973 0.203185 0.347782
O O7 0.304890 0.981611 0.251708
O O8 0.668195 0.394613 0.427230
O O9 0.574692 0.275866 0.551037
O O10 0.101282 0.147261 0.172669
O O11 0.199332 0.421706 0.478498
O O12 0.167676 0.713333 0.376502
O O13 0.130419 0.955818 0.596343
O O14 0.658978 0.645428 0.823255
O O15 0.975359 0.682237 0.585340
O O16 0.500000 0.000000 0.000000
O O17 0.500000 0.000000 0.500000
#
# Coordination Sequence:
#
# PCOD9072097 Si02
#       8
#     2   2   2   2   2   2   2   2
#     4  10  20  35  55  79 107 145 189 224 267 327
#     4   9  19  33  56  79 103 147 190 226 268 315
#     4  10  20  34  53  81 114 142 176 226 278 326
#     4  10  20  34  54  83 107 145 185 225 273 319
#     4   9  16  34  57  78 109 146 184 226 271 323
#     4  10  18  30  51  80 111 144 173 213 269 330
#     4   9  18  31  52  78 110 142 175 217 270 321
#     4   9  18  33  55  81 111 144 178 221 279 331
#
# _framework density 23.725608999999999
#
# number of rings (size 3 to 8) (size 9 to 14) (size 15 to 20)
#    0.000    2.500    1.250    1.125    0.000    1.000 
#    0.000    0.000    5.500    1.500    0.000   16.625 
#    0.000    0.000    0.000    0.000    0.000    0.000 
#
# Total GULP energy -89176.425451 kJ/mol
# GULP energy per Si atom -5573.526591 kJ/mol
# Density = 2.367161 g / cm^3
# Si number density = 23.725609 Si / 1000 Ang^3
#
#
#
# Elastic Constant Matrix: (Units=GPa)
#
#
# Indices 1 2 3 4 5 6 
#
# 1 100.0860 19.4975 29.1842 0.1275 -21.9762 3.0175
# 2 19.4975 111.0251 48.9206 -6.1495 -18.7043 -8.1966
# 3 29.1842 48.9206 94.5183 6.4323 -20.7839 -6.0074
# 4 0.1275 -6.1495 6.4323 29.7930 -0.1653 -9.9548
# 5 -21.9762 -18.7043 -20.7839 -0.1653 29.5640 2.5194
# 6 3.0175 -8.1966 -6.0074 -9.9548 2.5194 43.2033
#
#
#
# Elastic Compliance Matrix: (Units=1/GPa)
#
#
# Indices 1 2 3 4 5 6 
#
# 1 0.012399 -0.000021 -0.002202 -0.000090 0.007796 -0.001652
# 2 -0.000021 0.012679 -0.005916 0.004737 0.003664 0.002462
# 3 -0.002202 -0.005916 0.015902 -0.004670 0.005787 -0.000171
# 4 -0.000090 0.004737 -0.004670 0.038623 -0.000922 0.009209
# 5 0.007796 0.003664 0.005787 -0.000922 0.046167 -0.001949
# 6 -0.001652 0.002462 -0.000171 0.009209 -0.001949 0.025941
#
#
# Mechanical properties :
#
#
# Convention : Reuss Voigt Hill
#
# Bulk Modulus (GPa) = 40.48377 55.64821 48.06599
# Shear Modulus (GPa) = 28.37309 34.38053 31.37681
#
# Velocity S-wave (km/s) = 3.46191 3.81082 3.64055
# Velocity P-wave (km/s) = 5.75153 6.54744 6.16235
#
# Compressibility (1/GPa) = 0.02470126
#
# Stress axis : x y z
#
# Youngs Moduli (GPa) = 80.64986 78.87167 62.88661
#
# Poissons Ratio (x) = 0.00163 0.13850
# Poissons Ratio (y) = 0.00166 0.37205
# Poissons Ratio (z) = 0.17762 0.46662
#
# Static dielectric constant tensor:
#      x y z
#    x 1.996270 -0.060410 0.015280 
#    y -0.060410 1.991210 -0.049410 
#    z 0.015280 -0.049410 1.932390 
# 
# From -- ./inp_files/594975.got.cif
#   From: 2010.05.17/outbox.cif.g08.bks.cpg/sg2_298_cif.got.tgz:594975.got - 2010.06.03 11:33:40.
