data_PCOD9072839
_publ_section_title
;
Structure prediction by ZEFSAII (Michael W. Deem and Ramdas Pophale) SiO2 
 PCOD9072839
Probable space group: P -1
;
_chemical_formula_sum "Si O2"
_cell_formula_units_Z 16
_cell_length_a 13.758818
_cell_length_b 8.305982
_cell_length_c 9.126414
_cell_angle_alpha 88.674950
_cell_angle_beta 70.598246
_cell_angle_gamma 125.373660
_cell_volume 770.026698
_symmetry_space_group_name_H-M "P -1"
_symmetry_group_IT_number 2
_symmetry_cell_setting 'triclinic'
loop_
_space_group_symop_operation_xyz
x,y,z
-x,-y,-z
loop_
_atom_site_type_symbol
_atom_site_label
_atom_site_fract_x
_atom_site_fract_y
_atom_site_fract_z
Si Si1 0.133909 0.433360 0.368689
Si Si2 0.216355 0.316005 0.587852
Si Si3 0.784195 0.827091 0.806583
Si Si4 0.640298 0.114431 0.681304
Si Si5 0.501215 0.712980 0.937764
Si Si6 0.148145 0.911410 0.505493
Si Si7 0.291212 0.317629 0.856775
Si Si8 0.476654 0.681531 0.300541
O O1 0.142823 0.384239 0.534524
O O2 0.178896 0.314916 0.263895
O O3 0.240143 0.677752 0.297526
O O4 0.984427 0.318200 0.400128
O O5 0.226428 0.346249 0.754655
O O6 0.362268 0.463836 0.437111
O O7 0.153330 0.080646 0.591991
O O8 0.630532 0.724968 0.863464
O O9 0.854412 0.022104 0.661473
O O10 0.804624 0.851327 0.969798
O O11 0.719900 0.063948 0.543938
O O12 0.557251 0.169683 0.637463
O O13 0.548115 0.926343 0.841174
O O14 0.387454 0.528265 0.897308
O O15 0.468982 0.691125 0.126474
O O16 0.384441 0.268228 0.744081
#
# Coordination Sequence:
#
# PCOD9072839 Si02
#       8
#     2   2   2   2   2   2   2   2
#     4  10  19  36  54  72  96 128 169 216 246 278
#     4  10  20  33  51  76 100 130 167 200 245 297
#     4   9  18  32  53  76  98 127 168 203 244 295
#     4  10  19  31  52  78  97 128 173 200 236 295
#     4  10  18  31  51  76 104 132 159 196 243 297
#     4  10  19  35  54  72  96 129 169 214 246 278
#     4  11  19  32  51  76 107 132 155 199 246 296
#     4  10  19  32  51  76 106 132 159 196 242 298
#
# _framework density 20.778500000000001
#
# number of rings (size 3 to 8) (size 9 to 14) (size 15 to 20)
#    0.000    2.000    0.000    9.375    0.000    0.000 
#    0.000    8.125    0.000    0.000    0.000   15.750 
#    0.000    0.000    0.000    0.000    0.000    0.000 
#
# Total GULP energy -89230.822479 kJ/mol
# GULP energy per Si atom -5576.926405 kJ/mol
# Density = 2.073121 g / cm^3
# Si number density = 20.778500 Si / 1000 Ang^3
#
#
#
# Elastic Constant Matrix: (Units=GPa)
#
#
# Indices 1 2 3 4 5 6 
#
# 1 36.6332 2.1895 13.4717 3.9816 7.5109 -5.5413
# 2 2.1895 74.9757 6.8739 -15.5667 5.1703 -12.1109
# 3 13.4717 6.8739 58.8671 2.5123 15.5717 13.6033
# 4 3.9816 -15.5667 2.5123 15.9595 0.8958 -3.8361
# 5 7.5109 5.1703 15.5717 0.8958 23.7180 1.1942
# 6 -5.5413 -12.1109 13.6033 -3.8361 1.1942 22.4150
#
#
#
# Elastic Compliance Matrix: (Units=1/GPa)
#
#
# Indices 1 2 3 4 5 6 
#
# 1 0.034828 0.003392 -0.011024 0.000885 -0.005449 0.017575
# 2 0.003392 0.025311 -0.010681 0.032035 -0.002128 0.026592
# 3 -0.011024 -0.010681 0.032083 -0.019342 -0.012973 -0.030586
# 4 0.000885 0.032035 -0.019342 0.108291 -0.001064 0.047855
# 5 -0.005449 -0.002128 -0.012973 -0.001064 0.052789 0.002382
# 6 0.017575 0.026592 -0.030586 0.047855 0.002382 0.089950
#
#
# Mechanical properties :
#
#
# Convention : Reuss Voigt Hill
#
# Bulk Modulus (GPa) = 17.98695 23.94957 20.96826
# Shear Modulus (GPa) = 12.54985 22.28124 17.41554
#
# Velocity S-wave (km/s) = 2.46027 3.27819 2.89823
# Velocity P-wave (km/s) = 4.09217 5.08722 4.61658
#
# Compressibility (1/GPa) = 0.05559587
#
# Stress axis : x y z
#
# Youngs Moduli (GPa) = 28.71215 39.50821 31.16954
#
# Poissons Ratio (x) = -0.13401 0.34362
# Poissons Ratio (y) = -0.09739 0.33293
# Poissons Ratio (z) = 0.31653 0.42199
#
# Static dielectric constant tensor:
#      x y z
#    x 1.785970 -0.012110 -0.044270 
#    y -0.012110 1.801980 -0.002310 
#    z -0.044270 -0.002310 1.766980 
# 
# From -- ./inp_files/295507.got.cif
#   From: 2010.05.17/outbox.cif.g08.bks.cpg/sg2_148_cif.got.tgz:295507.got - 2010.06.03 11:33:40.
