data_PCOD9072666
_publ_section_title
;
Structure prediction by ZEFSAII (Michael W. Deem and Ramdas Pophale) SiO2 
 PCOD9072666
Probable space group: P -1
;
_chemical_formula_sum "Si O2"
_cell_formula_units_Z 16
_cell_length_a 14.323778
_cell_length_b 8.307878
_cell_length_c 28.364636
_cell_angle_alpha 51.513198
_cell_angle_beta 13.962540
_cell_angle_gamma 52.010362
_cell_volume 636.307198
_symmetry_space_group_name_H-M "P -1"
_symmetry_group_IT_number 2
_symmetry_cell_setting 'triclinic'
loop_
_space_group_symop_operation_xyz
x,y,z
-x,-y,-z
loop_
_atom_site_type_symbol
_atom_site_label
_atom_site_fract_x
_atom_site_fract_y
_atom_site_fract_z
Si Si1 0.047844 0.804811 0.774682
Si Si2 0.243973 0.610141 0.804045
Si Si3 0.859407 0.907012 0.634700
Si Si4 0.154919 0.787629 0.250815
Si Si5 0.930770 0.222459 0.971959
Si Si6 0.569697 0.298775 0.766549
Si Si7 0.957846 0.398340 0.834226
Si Si8 0.959322 0.545091 0.708662
O O1 0.075420 0.606991 0.763626
O O2 0.310910 0.764590 0.699786
O O3 0.066040 0.002814 0.696968
O O4 0.608460 0.810444 0.009919
O O5 0.563934 0.513448 0.701017
O O6 0.104182 0.405401 0.882731
O O7 0.880530 0.703691 0.995437
O O8 0.533587 0.752646 0.806153
O O9 0.103332 0.760256 0.579092
O O10 0.682989 0.102986 0.714310
O O11 0.000000 0.000000 0.500000
O O12 0.178943 0.727533 0.304518
O O13 0.010995 0.609538 0.321048
O O14 0.072299 0.224921 0.848169
O O15 0.000000 0.000000 0.000000
O O16 0.108533 0.412200 0.705074
O O17 0.487048 0.397408 0.066522
#
# Coordination Sequence:
#
# PCOD9072666 Si02
#       8
#     2   2   2   2   2   2   2   2
#     4   8  14  25  42  71 103 130 164 214 276 318
#     4   9  18  31  50  79 108 138 170 223 277 314
#     4  11  22  34  53  78 110 146 179 219 269 323
#     4   9  16  27  46  70 105 136 171 218 267 312
#     4  10  18  34  53  80 110 139 175 222 266 322
#     4  10  18  31  49  75 106 138 175 217 268 319
#     4   8  15  26  48  72 101 133 169 221 267 299
#     4   9  17  31  46  73 107 137 176 219 264 316
#
# _framework density 25.145088000000001
#
# number of rings (size 3 to 8) (size 9 to 14) (size 15 to 20)
#    0.000    2.750    1.250    3.000    0.000    6.000 
#    0.000    2.500    0.000    0.750    0.000    0.875 
#    0.000    0.000    0.000    0.000    0.000    0.000 
#
# Total GULP energy -89354.902740 kJ/mol
# GULP energy per Si atom -5584.681421 kJ/mol
# Density = 2.508786 g / cm^3
# Si number density = 25.145088 Si / 1000 Ang^3
#
#
#
# Elastic Constant Matrix: (Units=GPa)
#
#
# Indices 1 2 3 4 5 6 
#
# 1 176.5830 72.6546 58.3408 -6.2015 59.2501 -44.8938
# 2 72.6546 141.5078 25.9911 -26.3505 44.9277 -47.8571
# 3 58.3408 25.9911 104.3504 -21.4862 18.2086 -15.5854
# 4 -6.2015 -26.3505 -21.4862 14.7962 -15.3085 19.1206
# 5 59.2501 44.9277 18.2086 -15.3085 47.3640 -9.1218
# 6 -44.8938 -47.8571 -15.5854 19.1206 -9.1218 41.1952
#
#
#
# Elastic Compliance Matrix: (Units=1/GPa)
#
#
# Indices 1 2 3 4 5 6 
#
# 1 -0.002127 -0.002968 0.004685 0.037069 0.012089 -0.018522
# 2 -0.002968 0.014970 0.003013 0.014823 -0.005467 0.007206
# 3 0.004685 0.003013 0.007452 -0.018170 -0.014239 0.016706
# 4 0.037069 0.014823 -0.018170 -0.076282 -0.064250 0.071922
# 5 0.012089 -0.005467 -0.014239 -0.064250 0.001989 0.031697
# 6 -0.018522 0.007206 0.016706 0.071922 0.031697 -0.007581
#
#
# Mechanical properties :
#
#
# Convention : Reuss Voigt Hill
#
# Bulk Modulus (GPa) = 33.60704 81.82380 57.71542
# Shear Modulus (GPa) = -81.80460 38.36805 -21.71828
#
# Velocity S-wave (km/s) = -5.70996 3.91047 -2.94210
# Velocity P-wave (km/s) = 5.48428 7.28014 3.38549
#
# Compressibility (1/GPa) = 0.02975567
#
# Stress axis : x y z
#
# Youngs Moduli (GPa) = -470.15600 66.79939 134.19805
#
# Poissons Ratio (x) = 0.19825 -0.62875
# Poissons Ratio (y) = -1.39532 -0.40433
# Poissons Ratio (z) = 2.20279 -0.20126
#
# Static dielectric constant tensor:
#      x y z
#    x 2.113630 -0.164770 -0.090760 
#    y -0.164770 2.007800 0.037900 
#    z -0.090760 0.037900 2.072570 
# 
# From -- ./inp_files/619136.got.cif
#   From: 2010.05.17/outbox.cif.g08.bks.cpg/sg2_310_cif.got.tgz:619136.got - 2010.06.03 11:33:40.
