data_PCOD9072020
_publ_section_title
;
Structure prediction by ZEFSAII (Michael W. Deem and Ramdas Pophale) SiO2 
 PCOD9072020
Probable space group: P -1
;
_chemical_formula_sum "Si O2"
_cell_formula_units_Z 15
_cell_length_a 19.499876
_cell_length_b 8.324637
_cell_length_c 18.479685
_cell_angle_alpha 146.264332
_cell_angle_beta 20.243761
_cell_angle_gamma 137.398965
_cell_volume 561.027918
_symmetry_space_group_name_H-M "P -1"
_symmetry_group_IT_number 2
_symmetry_cell_setting 'triclinic'
loop_
_space_group_symop_operation_xyz
x,y,z
-x,-y,-z
loop_
_atom_site_type_symbol
_atom_site_label
_atom_site_fract_x
_atom_site_fract_y
_atom_site_fract_z
Si Si1 0.308297 0.452643 0.063213
Si Si2 0.740043 0.046969 0.182122
Si Si3 0.131761 0.070051 0.204012
Si Si4 0.148004 0.267475 0.586864
Si Si5 0.000000 0.000000 0.500000
Si Si6 0.154704 0.120851 0.828339
Si Si7 0.542916 0.915053 0.008885
Si Si8 0.233269 0.520168 0.795057
O O1 0.188168 0.338977 0.205562
O O2 0.503588 0.587313 0.939649
O O3 0.168215 0.741016 0.275585
O O4 0.338741 0.198503 0.877023
O O5 0.679130 0.370941 0.324327
O O6 0.991793 0.960356 0.893135
O O7 0.723974 0.035518 0.280771
O O8 0.229789 0.066864 0.186164
O O9 0.914176 0.993300 0.400976
O O10 0.239531 0.787277 0.943336
O O11 0.002588 0.575044 0.873709
O O12 0.391156 0.164598 0.300765
O O13 0.071804 0.246864 0.573669
O O14 0.298847 0.220867 0.664292
O O15 0.500000 0.000000 0.000000
O O16 0.000000 0.500000 0.000000
#
# Coordination Sequence:
#
# PCOD9072020 Si02
#       8
#     2   2   2   2   1   2   2   2
#     4  10  20  35  56  82 120 148 202 239 295 351
#     4   9  16  29  53  85 110 148 189 240 285 350
#     4  10  20  37  60  84 114 157 192 245 293 345
#     4  10  20  36  58  85 115 147 198 239 290 353
#     4  10  18  30  50  78 112 146 184 240 276 336
#     4   9  16  29  55  82 112 147 190 235 293 345
#     4  11  24  37  57  85 116 160 195 240 294 350
#     4   8  16  29  52  86 111 141 190 233 287 349
#
# _framework density 26.736637999999999
#
# number of rings (size 3 to 8) (size 9 to 14) (size 15 to 20)
#    0.000    2.400    1.333    2.000    1.867    2.133 
#    0.000    2.667    0.000   13.600    0.000    0.000 
#    0.000    0.000    0.000    0.000    0.000    0.000 
#
# Total GULP energy -83537.452425 kJ/mol
# GULP energy per Si atom -5569.163495 kJ/mol
# Density = 2.667578 g / cm^3
# Si number density = 26.736638 Si / 1000 Ang^3
#
#
#
# Elastic Constant Matrix: (Units=GPa)
#
#
# Indices 1 2 3 4 5 6 
#
# 1 120.0751 29.0877 2.7449 11.1445 4.3568 -15.6264
# 2 29.0877 149.6456 37.8288 -0.2676 1.1459 -23.7283
# 3 2.7449 37.8288 102.9033 -6.8490 11.6332 6.2557
# 4 11.1445 -0.2676 -6.8490 41.8131 3.2640 10.8770
# 5 4.3568 1.1459 11.6332 3.2640 11.4579 1.1968
# 6 -15.6264 -23.7283 6.2557 10.8770 1.1968 65.6869
#
#
#
# Elastic Compliance Matrix: (Units=1/GPa)
#
#
# Indices 1 2 3 4 5 6 
#
# 1 0.009346 -0.001551 0.000372 -0.002746 -0.003217 0.002141
# 2 -0.001551 0.008396 -0.003721 -0.001241 0.003552 0.003159
# 3 0.000372 -0.003721 0.013072 0.003849 -0.013836 -0.002886
# 4 -0.002746 -0.001241 0.003849 0.027572 -0.009983 -0.005852
# 5 -0.003217 0.003552 -0.013836 -0.009983 0.104871 0.001578
# 6 0.002141 0.003159 -0.002886 -0.005852 0.001578 0.018089
#
#
# Mechanical properties :
#
#
# Convention : Reuss Voigt Hill
#
# Bulk Modulus (GPa) = 47.59263 56.88297 52.23780
# Shear Modulus (GPa) = 25.23318 43.98907 34.61113
#
# Velocity S-wave (km/s) = 3.07541 4.06060 3.60185
# Velocity P-wave (km/s) = 5.51816 6.58074 6.07273
#
# Compressibility (1/GPa) = 0.02101166
#
# Stress axis : x y z
#
# Youngs Moduli (GPa) = 107.00221 119.10036 76.50056
#
# Poissons Ratio (x) = 0.18478 -0.02845
# Poissons Ratio (y) = 0.16601 0.28470
# Poissons Ratio (z) = -0.03979 0.44323
#
# Static dielectric constant tensor:
#      x y z
#    x 5.185140 -1.994480 3.127490 
#    y -1.994480 3.422860 -2.093190 
#    z 3.127490 -2.093190 5.358170 
# 
# From -- ./inp_files/601220.got.cif
#   From: 2010.05.17/outbox.cif.g08.bks.cpg/sg2_301_cif.got.tgz:601220.got - 2010.06.03 11:33:40.
