data_PCOD9072788
_publ_section_title
;
Structure prediction by ZEFSAII (Michael W. Deem and Ramdas Pophale) SiO2 
 PCOD9072788
Probable space group: P -1
;
_chemical_formula_sum "Si O2"
_cell_formula_units_Z 16
_cell_length_a 14.922814
_cell_length_b 11.848243
_cell_length_c 10.182946
_cell_angle_alpha 144.484188
_cell_angle_beta 40.582344
_cell_angle_gamma 127.052314
_cell_volume 679.833297
_symmetry_space_group_name_H-M "P -1"
_symmetry_group_IT_number 2
_symmetry_cell_setting 'triclinic'
loop_
_space_group_symop_operation_xyz
x,y,z
-x,-y,-z
loop_
_atom_site_type_symbol
_atom_site_label
_atom_site_fract_x
_atom_site_fract_y
_atom_site_fract_z
Si Si1 0.697869 0.666899 0.411329
Si Si2 0.596366 0.203983 0.823859
Si Si3 0.216915 0.130168 0.764957
Si Si4 0.959026 0.009012 0.786379
Si Si5 0.567900 0.617498 0.152311
Si Si6 0.375441 0.761854 0.893320
Si Si7 0.647111 0.050873 0.182924
Si Si8 0.031394 0.276982 0.715087
O O1 0.737669 0.754760 0.309726
O O2 0.538738 0.714238 0.661018
O O3 0.708625 0.433015 0.190981
O O4 0.803165 0.749346 0.477165
O O5 0.702839 0.077895 0.497951
O O6 0.445823 0.136303 0.889624
O O7 0.596955 0.435345 0.045412
O O8 0.641787 0.130716 0.848363
O O9 0.288312 0.274905 0.925993
O O10 0.061933 0.078305 0.851050
O O11 0.968627 0.153251 0.786477
O O12 0.002205 0.804826 0.470071
O O13 0.803738 0.015922 0.020107
O O14 0.452087 0.778549 0.480188
O O15 0.500000 0.500000 0.000000
O O16 0.341049 0.880191 0.915050
O O17 0.000000 0.500000 0.000000
#
# Coordination Sequence:
#
# PCOD9072788 Si02
#       8
#     2   2   2   2   2   2   2   2
#     4  10  18  31  50  81 126 161 202 232 290 356
#     4  11  22  36  64  88 122 157 201 253 313 366
#     4  10  22  39  57  90 123 163 206 248 305 370
#     4  10  23  36  55  86 133 165 203 241 295 372
#     4  11  24  46  68  88 113 157 218 272 312 354
#     4  11  18  31  57  89 129 157 194 245 304 365
#     4  11  23  38  59  96 126 163 202 250 308 371
#     4  10  21  33  50  80 126 182 203 228 286 364
#
# _framework density 23.535181000000001
#
# number of rings (size 3 to 8) (size 9 to 14) (size 15 to 20)
#    0.000    1.500    3.750    2.625    7.000    3.000 
#    0.000    0.625    0.000    1.500    0.000    0.000 
#    0.000    0.000    0.000    0.000    0.000    0.000 
#
# Total GULP energy -89341.036987 kJ/mol
# GULP energy per Si atom -5583.814812 kJ/mol
# Density = 2.348161 g / cm^3
# Si number density = 23.535181 Si / 1000 Ang^3
#
#
#
# Elastic Constant Matrix: (Units=GPa)
#
#
# Indices 1 2 3 4 5 6 
#
# 1 112.0291 42.3304 25.9308 -6.9690 3.7574 44.2042
# 2 42.3304 108.6505 50.6825 11.1254 -12.5102 37.4827
# 3 25.9308 50.6825 94.4624 22.4759 -4.5877 21.1303
# 4 -6.9690 11.1254 22.4759 32.6132 10.5636 -2.9692
# 5 3.7574 -12.5102 -4.5877 10.5636 33.5012 -4.6876
# 6 44.2042 37.4827 21.1303 -2.9692 -4.6876 55.9556
#
#
#
# Elastic Compliance Matrix: (Units=1/GPa)
#
#
# Indices 1 2 3 4 5 6 
#
# 1 0.014862 -0.003067 -0.002505 0.007310 -0.006707 -0.008914
# 2 -0.003067 0.016130 -0.004741 -0.005605 0.006599 -0.006336
# 3 -0.002505 -0.004741 0.017413 -0.012570 0.004621 -0.001701
# 4 0.007310 -0.005605 -0.012570 0.049528 -0.019733 0.003702
# 5 -0.006707 0.006599 0.004621 -0.019733 0.040124 0.001448
# 6 -0.008914 -0.006336 -0.001701 0.003702 0.001448 0.030118
#
#
# Mechanical properties :
#
#
# Convention : Reuss Voigt Hill
#
# Bulk Modulus (GPa) = 35.99843 61.44771 48.72307
# Shear Modulus (GPa) = 25.24473 37.49390 31.36931
#
# Velocity S-wave (km/s) = 3.27867 3.99570 3.65481
# Velocity P-wave (km/s) = 5.44625 6.88861 6.20946
#
# Compressibility (1/GPa) = 0.02777899
#
# Stress axis : x y z
#
# Youngs Moduli (GPa) = 67.28524 61.99659 57.42724
#
# Poissons Ratio (x) = 0.19016 0.14386
# Poissons Ratio (y) = 0.20638 0.27226
# Poissons Ratio (z) = 0.16855 0.29392
#
# Static dielectric constant tensor:
#      x y z
#    x 2.008060 -0.035420 -0.010150 
#    y -0.035420 1.908460 0.030600 
#    z -0.010150 0.030600 1.930540 
# 
# From -- ./inp_files/454330.got.cif
#   From: 2010.05.17/outbox.cif.g08.bks.cpg/sg2_228_cif.got.tgz:454330.got - 2010.06.03 11:33:40.
