data_PCOD9072024
_publ_section_title
;
Structure prediction by ZEFSAII (Michael W. Deem and Ramdas Pophale) SiO2 
 PCOD9072024
Probable space group: P -1
;
_chemical_formula_sum "Si O2"
_cell_formula_units_Z 15
_cell_length_a 7.860510
_cell_length_b 5.476622
_cell_length_c 15.725866
_cell_angle_alpha 90.288586
_cell_angle_beta 127.369477
_cell_angle_gamma 87.945388
_cell_volume 537.559432
_symmetry_space_group_name_H-M "P -1"
_symmetry_group_IT_number 2
_symmetry_cell_setting 'triclinic'
loop_
_space_group_symop_operation_xyz
x,y,z
-x,-y,-z
loop_
_atom_site_type_symbol
_atom_site_label
_atom_site_fract_x
_atom_site_fract_y
_atom_site_fract_z
Si Si1 0.133913 0.742044 0.030972
Si Si2 0.751002 0.237225 0.750950
Si Si3 0.801682 0.946456 0.377368
Si Si4 0.773014 0.742490 0.669154
Si Si5 0.776462 0.798372 0.182760
Si Si6 0.739856 0.292665 0.126395
Si Si7 0.250690 0.552328 0.579711
Si Si8 0.500000 0.500000 0.500000
O O1 0.283667 0.730057 0.159622
O O2 0.216070 0.726142 0.959883
O O3 0.000000 0.500000 0.000000
O O4 0.000000 0.000000 0.000000
O O5 0.687178 0.470062 0.670170
O O6 0.015746 0.226101 0.816592
O O7 0.698907 0.971077 0.702043
O O8 0.702997 0.225241 0.341349
O O9 0.865525 0.840035 0.304055
O O10 0.661951 0.720257 0.366431
O O11 0.000000 0.000000 0.500000
O O12 0.664458 0.738282 0.546107
O O13 0.026105 0.719147 0.755537
O O14 0.650146 0.555031 0.128664
O O15 0.635868 0.044678 0.122313
O O16 0.331985 0.647043 0.514331
O O17 0.000000 0.500000 0.500000
#
# Coordination Sequence:
#
# PCOD9072024 Si02
#       8
#     2   2   2   2   2   2   2   1
#     4  12  16  31  48  85 123 164 199 262 335 384
#     4  10  20  32  55  82 125 159 207 266 316 377
#     4  10  22  36  58  82 117 159 211 261 313 364
#     4  10  22  34  52  82 116 168 205 256 308 372
#     4  10  18  30  50  79 112 157 196 249 312 364
#     4  10  19  30  53  81 122 157 201 262 314 374
#     4  10  25  42  61  89 116 169 213 275 309 369
#     4  12  28  44  68  90 134 174 232 256 328 378
#
# _framework density 27.903888999999999
#
# number of rings (size 3 to 8) (size 9 to 14) (size 15 to 20)
#    0.000    1.600    5.333    0.800   14.933    2.133 
#    0.000    0.000    0.000    0.000    0.000    0.000 
#    0.000   36.267    0.000    0.000    0.000    0.000 
#
# Total GULP energy -83687.438387 kJ/mol
# GULP energy per Si atom -5579.162559 kJ/mol
# Density = 2.784038 g / cm^3
# Si number density = 27.903889 Si / 1000 Ang^3
#
#
#
# Elastic Constant Matrix: (Units=GPa)
#
#
# Indices 1 2 3 4 5 6 
#
# 1 75.6382 19.5463 33.7382 -5.5672 -5.8109 -3.6248
# 2 19.5463 273.8689 51.9059 33.3016 -6.2404 12.8433
# 3 33.7382 51.9059 158.2772 32.8664 -21.9352 -1.4745
# 4 -5.5672 33.3016 32.8664 51.1790 0.8196 -12.2455
# 5 -5.8109 -6.2404 -21.9352 0.8196 53.7406 5.0329
# 6 -3.6248 12.8433 -1.4745 -12.2455 5.0329 32.3606
#
#
#
# Elastic Compliance Matrix: (Units=1/GPa)
#
#
# Indices 1 2 3 4 5 6 
#
# 1 0.016227 -0.001368 -0.004461 0.006683 -0.000777 0.004807
# 2 -0.001368 0.004430 -0.000358 -0.003622 0.000593 -0.003391
# 3 -0.004461 -0.000358 0.009336 -0.007068 0.003692 -0.003181
# 4 0.006683 -0.003622 -0.007068 0.030612 -0.004373 0.014128
# 5 -0.000777 0.000593 0.003692 -0.004373 0.020636 -0.005018
# 6 0.004807 -0.003391 -0.003181 0.014128 -0.005018 0.038768
#
#
# Mechanical properties :
#
#
# Convention : Reuss Voigt Hill
#
# Bulk Modulus (GPa) = 56.76118 79.79609 68.27864
# Shear Modulus (GPa) = 36.16467 54.29564 45.23015
#
# Velocity S-wave (km/s) = 3.60397 4.41592 4.03044
# Velocity P-wave (km/s) = 6.14035 7.39319 6.79571
#
# Compressibility (1/GPa) = 0.01761767
#
# Stress axis : x y z
#
# Youngs Moduli (GPa) = 61.62688 225.73874 107.11105
#
# Poissons Ratio (x) = 0.30891 0.47779
# Poissons Ratio (y) = 0.08433 0.03839
# Poissons Ratio (z) = 0.27490 0.08090
#
# Static dielectric constant tensor:
#      x y z
#    x 2.391100 -0.135970 0.100400 
#    y -0.135970 2.375100 -0.040680 
#    z 0.100400 -0.040680 1.472160 
# 
# From -- ./inp_files/440804.got.cif
#   From: 2010.05.17/outbox.cif.g08.bks.cpg/sg2_221_cif.got.tgz:440804.got - 2010.06.03 11:33:40.
