data_PCOD9072758
_publ_section_title
;
Structure prediction by ZEFSAII (Michael W. Deem and Ramdas Pophale) SiO2 
 PCOD9072758
Probable space group: P -1
;
_chemical_formula_sum "Si O2"
_cell_formula_units_Z 14
_cell_length_a 11.547363
_cell_length_b 13.220723
_cell_length_c 11.502890
_cell_angle_alpha 50.812128
_cell_angle_beta 154.827134
_cell_angle_gamma 130.261780
_cell_volume 564.000456
_symmetry_space_group_name_H-M "P -1"
_symmetry_group_IT_number 2
_symmetry_cell_setting 'triclinic'
loop_
_space_group_symop_operation_xyz
x,y,z
-x,-y,-z
loop_
_atom_site_type_symbol
_atom_site_label
_atom_site_fract_x
_atom_site_fract_y
_atom_site_fract_z
Si Si1 0.540465 0.878329 0.208044
Si Si2 0.782784 0.482234 0.713406
Si Si3 0.065039 0.761028 0.705754
Si Si4 0.167254 0.182350 0.905960
Si Si5 0.021465 0.382386 0.808962
Si Si6 0.384237 0.463138 0.791959
Si Si7 0.338208 0.935723 0.610800
O O1 0.835959 0.842708 0.477078
O O2 0.547288 0.930259 0.308370
O O3 0.288580 0.764926 0.010257
O O4 0.500000 0.000000 0.000000
O O5 0.500000 0.500000 0.500000
O O6 0.818630 0.361227 0.751630
O O7 0.887405 0.612201 0.631568
O O8 0.000000 0.500000 0.000000
O O9 0.225008 0.827622 0.689167
O O10 0.265362 0.303998 0.812392
O O11 0.076138 0.253374 0.885136
O O12 0.921216 0.072595 0.703727
O O13 0.426422 0.115697 0.207972
O O14 0.852393 0.457303 0.511577
O O15 0.325353 0.474501 0.057567
O O16 0.500000 0.500000 0.000000
#
# Coordination Sequence:
#
# PCOD9072758 Si02
#       7
#     2   2   2   2   2   2   2
#     4  10  20  35  56  85 118 151 184 224 282 351
#     4  12  26  42  60  83 108 154 212 247 279 326
#     4  11  21  38  57  81 119 154 184 241 283 319
#     4  11  19  30  50  81 115 146 171 215 281 352
#     4  11  22  36  52  77 113 148 187 238 281 333
#     4  10  18  31  50  77 112 151 181 208 273 358
#     4  11  20  32  55  88 117 146 178 211 278 365
#
# _framework density 24.822673999999999
#
# number of rings (size 3 to 8) (size 9 to 14) (size 15 to 20)
#    0.000    1.143    0.000   12.000    0.000    0.000 
#    0.000    0.000    0.000    0.000    0.000   20.000 
#    0.000    0.000    0.000    0.000    0.000    0.000 
#
# Total GULP energy -78300.571964 kJ/mol
# GULP energy per Si atom -5592.897997 kJ/mol
# Density = 2.476618 g / cm^3
# Si number density = 24.822674 Si / 1000 Ang^3
#
#
#
# Elastic Constant Matrix: (Units=GPa)
#
#
# Indices 1 2 3 4 5 6 
#
# 1 124.7496 23.1093 29.1168 -2.5456 26.5505 -35.6054
# 2 23.1093 73.4064 6.6245 21.7323 14.0434 -13.3714
# 3 29.1168 6.6245 143.3781 11.4186 37.1392 -18.4490
# 4 -2.5456 21.7323 11.4186 36.6842 -10.6666 3.5953
# 5 26.5505 14.0434 37.1392 -10.6666 40.6122 -8.9888
# 6 -35.6054 -13.3714 -18.4490 3.5953 -8.9888 38.2358
#
#
#
# Elastic Compliance Matrix: (Units=1/GPa)
#
#
# Indices 1 2 3 4 5 6 
#
# 1 0.012255 0.000175 0.000974 -0.002723 -0.007361 0.010469
# 2 0.000175 0.025634 0.007055 -0.024036 -0.019483 0.010212
# 3 0.000974 0.007055 0.012783 -0.013658 -0.016833 0.006869
# 4 -0.002723 -0.024036 -0.013658 0.056978 0.034263 -0.014834
# 5 -0.007361 -0.019483 -0.016833 0.034263 0.058050 -0.011365
# 6 0.010469 0.010212 0.006869 -0.014834 -0.011365 0.041511
#
#
# Mechanical properties :
#
#
# Convention : Reuss Voigt Hill
#
# Bulk Modulus (GPa) = 14.90740 51.02614 32.96677
# Shear Modulus (GPa) = 23.45632 41.95200 32.70416
#
# Velocity S-wave (km/s) = 3.07735 4.11550 3.63369
# Velocity P-wave (km/s) = 4.31803 6.57146 5.56010
#
# Compressibility (1/GPa) = 0.06708077
#
# Stress axis : x y z
#
# Youngs Moduli (GPa) = 81.59621 39.01035 78.23164
#
# Poissons Ratio (x) = -0.00685 -0.07619
# Poissons Ratio (y) = -0.01432 -0.55191
# Poissons Ratio (z) = -0.07947 -0.27521
#
# Static dielectric constant tensor:
#      x y z
#    x 2.042740 0.061470 0.003940 
#    y 0.061470 2.080740 0.045720 
#    z 0.003940 0.045720 1.919920 
# 
# From -- ./inp_files/433878.got.cif
#   From: 2010.05.17/outbox.cif.g08.bks.cpg/sg2_217_cif.got.tgz:433878.got - 2010.06.03 11:33:40.
