data_PCOD9072657
_publ_section_title
;
Structure prediction by ZEFSAII (Michael W. Deem and Ramdas Pophale) SiO2 
 PCOD9072657
Probable space group: P -1
;
_chemical_formula_sum "Si O2"
_cell_formula_units_Z 16
_cell_length_a 12.000000
_cell_length_b 12.000000
_cell_length_c 9.000000
_cell_angle_alpha 50.000000
_cell_angle_beta 120.000000
_cell_angle_gamma 110.000000
_cell_volume 859.368815
_symmetry_space_group_name_H-M "P -1"
_symmetry_group_IT_number 2
_symmetry_cell_setting 'triclinic'
loop_
_space_group_symop_operation_xyz
x,y,z
-x,-y,-z
loop_
_atom_site_type_symbol
_atom_site_label
_atom_site_fract_x
_atom_site_fract_y
_atom_site_fract_z
Si Si1 0.477105 0.747577 0.912932
Si Si2 0.047014 0.838423 0.636465
Si Si3 0.310846 0.917461 0.883081
Si Si4 0.238195 0.248525 0.468261
Si Si5 0.619868 0.840788 0.635771
Si Si6 0.651756 0.202155 0.666179
Si Si7 0.398580 0.466468 0.591165
Si Si8 0.761691 0.155254 0.491487
O O1 0.428613 0.860758 0.909664
O O2 0.584329 0.796260 0.819798
O O3 0.343892 0.733423 0.740020
O O4 0.531613 0.613225 0.156984
O O5 0.178600 0.826450 0.829379
O O6 0.104121 0.827008 0.518604
O O7 0.916436 0.744236 0.653375
O O8 0.000000 0.000000 0.500000
O O9 0.281273 0.086383 0.688354
O O10 0.339531 0.879403 0.103324
O O11 0.302865 0.264564 0.333425
O O12 0.293850 0.359740 0.533000
O O13 0.480458 0.850984 0.456963
O O14 0.699504 0.994003 0.556092
O O15 0.650161 0.375805 0.533781
O O16 0.766030 0.168825 0.658415
O O17 0.500000 0.500000 0.500000
#
# Coordination Sequence:
#
# PCOD9072657 Si02
#       8
#     2   2   2   2   2   2   2   2
#     4  10  20  34  57  86 116 149 188 225 303 328
#     4   9  18  40  59  85 113 148 197 239 284 331
#     4  10  20  36  64  83 114 151 194 239 286 340
#     4  11  22  37  61  86 116 150 190 242 283 341
#     4  11  20  33  59  89 117 143 186 244 283 342
#     4  11  23  38  56  89 120 151 190 235 294 337
#     4  12  24  38  55  87 125 151 186 235 287 353
#     4  10  21  36  61  88 118 147 192 243 280 343
#
# _framework density 18.618316
#
# number of rings (size 3 to 8) (size 9 to 14) (size 15 to 20)
#    0.000    1.500    6.250    1.500    3.500    3.000 
#    0.000    5.000    0.000    0.000    0.000    0.000 
#    0.000    0.000    0.000    0.000    0.000    0.000 
#
# Total GULP energy -89199.271731 kJ/mol
# GULP energy per Si atom -5574.954483 kJ/mol
# Density = 1.857594 g / cm^3
# Si number density = 18.618316 Si / 1000 Ang^3
#
#
#
# Elastic Constant Matrix: (Units=GPa)
#
#
# Indices 1 2 3 4 5 6 
#
# 1 128.8333 7.8659 29.6921 11.6949 -18.6164 -11.2237
# 2 7.8659 56.3724 21.7598 -0.7778 -3.0249 -8.0920
# 3 29.6921 21.7598 83.8371 11.1744 -24.6330 -4.1774
# 4 11.6949 -0.7778 11.1744 19.5001 -9.6924 -3.1403
# 5 -18.6164 -3.0249 -24.6330 -9.6924 26.8236 9.7676
# 6 -11.2237 -8.0920 -4.1774 -3.1403 9.7676 34.0585
#
#
#
# Elastic Compliance Matrix: (Units=1/GPa)
#
#
# Indices 1 2 3 4 5 6 
#
# 1 0.009007 -0.000200 -0.001819 -0.002601 0.003041 0.001586
# 2 -0.000200 0.021118 -0.007094 0.003397 -0.005186 0.005882
# 3 -0.001819 -0.007094 0.019401 -0.002903 0.016491 -0.004902
# 4 -0.002601 0.003397 -0.002903 0.064125 0.019070 0.000038
# 5 0.003041 -0.005186 0.016491 0.019070 0.066492 -0.015518
# 6 0.001586 0.005882 -0.004902 0.000038 -0.015518 0.035134
#
#
# Mechanical properties :
#
#
# Convention : Reuss Voigt Hill
#
# Bulk Modulus (GPa) = 31.94768 43.07539 37.51153
# Shear Modulus (GPa) = 20.49714 30.05810 25.27762
#
# Velocity S-wave (km/s) = 3.32160 4.02236 3.68866
# Velocity P-wave (km/s) = 5.64865 6.69020 6.19137
#
# Compressibility (1/GPa) = 0.03130118
#
# Stress axis : x y z
#
# Youngs Moduli (GPa) = 111.02452 47.35234 51.54308
#
# Poissons Ratio (x) = 0.00946 0.09375
# Poissons Ratio (y) = 0.02218 0.36565
# Poissons Ratio (z) = 0.20195 0.33592
#
# Static dielectric constant tensor:
#      x y z
#    x 1.668980 -0.022260 -0.019920 
#    y -0.022260 1.717090 0.012100 
#    z -0.019920 0.012100 1.642980 
# 
# From -- ./inp_files/174963.got.cif
#   From: 2010.05.17/outbox.ucp.g08.bks.cvg/sg2_88_cif.got.tgz:174963.got - 2010.06.11 11:32:03.
