data_PCOD9072813
_publ_section_title
;
Structure prediction by ZEFSAII (Michael W. Deem and Ramdas Pophale) SiO2 
 PCOD9072813
Probable space group: P -1
;
_chemical_formula_sum "Si O2"
_cell_formula_units_Z 16
_cell_length_a 15.000000
_cell_length_b 15.000000
_cell_length_c 12.000000
_cell_angle_alpha 60.000000
_cell_angle_beta 150.000000
_cell_angle_gamma 140.000000
_cell_volume 747.221570
_symmetry_space_group_name_H-M "P -1"
_symmetry_group_IT_number 2
_symmetry_cell_setting 'triclinic'
loop_
_space_group_symop_operation_xyz
x,y,z
-x,-y,-z
loop_
_atom_site_type_symbol
_atom_site_label
_atom_site_fract_x
_atom_site_fract_y
_atom_site_fract_z
Si Si1 0.419338 0.374020 0.287016
Si Si2 0.742702 0.007028 0.118937
Si Si3 0.874563 0.911473 0.705824
Si Si4 0.956989 0.319728 0.748032
Si Si5 0.239863 0.894574 0.542744
Si Si6 0.110381 0.286385 0.516317
Si Si7 0.576744 0.327696 0.057401
Si Si8 0.562597 0.792724 0.764804
O O1 0.364607 0.270309 0.393511
O O2 0.722646 0.560162 0.478339
O O3 0.386284 0.289819 0.193206
O O4 0.177354 0.354074 0.040247
O O5 0.554914 0.001226 0.846184
O O6 0.535771 0.820634 0.040054
O O7 0.994505 0.070511 0.279234
O O8 0.875541 0.123128 0.294051
O O9 0.798831 0.998944 0.561609
O O10 0.138814 0.021607 0.008315
O O11 0.854731 0.195309 0.620072
O O12 0.668066 0.241337 0.527590
O O13 0.135128 0.493799 0.780132
O O14 0.044073 0.751420 0.513223
O O15 0.349449 0.315289 0.799190
O O16 0.555680 0.283877 0.191202
#
# Coordination Sequence:
#
# PCOD9072813 Si02
#       8
#     2   2   2   2   2   2   2   2
#     4  11  25  40  61  92 126 157 204 247 300 362
#     4  11  24  42  63  87 124 161 207 248 299 352
#     4  11  24  42  61  90 124 166 196 249 303 359
#     4  11  22  36  62  95 124 156 194 249 312 360
#     4  12  22  40  66  92 120 157 206 247 307 359
#     4  11  23  42  64  90 120 163 204 252 296 356
#     4  10  20  37  62  93 122 156 192 254 307 353
#     4  11  20  37  61  89 127 157 193 247 305 363
#
# _framework density 21.412658
#
# number of rings (size 3 to 8) (size 9 to 14) (size 15 to 20)
#    0.000    1.000    6.250    2.250    1.750    4.000 
#    0.000    0.625    0.000    0.000    0.000    0.000 
#    0.000    0.000    0.000    0.000    0.000    0.000 
#
# Total GULP energy -89416.026391 kJ/mol
# GULP energy per Si atom -5588.501649 kJ/mol
# Density = 2.136392 g / cm^3
# Si number density = 21.412658 Si / 1000 Ang^3
#
#
#
# Elastic Constant Matrix: (Units=GPa)
#
#
# Indices 1 2 3 4 5 6 
#
# 1 8.8633 8.4382 13.4734 -3.9294 10.6684 -4.2561
# 2 8.4382 100.9797 3.5662 -6.8183 15.2558 11.6806
# 3 13.4734 3.5662 39.0409 1.6814 13.1887 -6.1034
# 4 -3.9294 -6.8183 1.6814 16.4782 -8.8654 0.0131
# 5 10.6684 15.2558 13.1887 -8.8654 26.8821 -0.9490
# 6 -4.2561 11.6806 -6.1034 0.0131 -0.9490 20.4906
#
#
#
# Elastic Compliance Matrix: (Units=1/GPa)
#
#
# Indices 1 2 3 4 5 6 
#
# 1 0.583964 -0.031702 -0.151455 0.082892 -0.108971 0.089154
# 2 -0.031702 0.013509 0.008158 -0.003073 -0.000520 -0.011878
# 3 -0.151455 0.008158 0.074486 -0.036961 0.006264 -0.013609
# 4 0.082892 -0.003073 -0.036961 0.092523 0.017802 0.008725
# 5 -0.108971 -0.000520 0.006264 0.017802 0.082951 -0.016642
# 6 0.089154 -0.011878 -0.013609 0.008725 -0.016642 0.069262
#
#
# Mechanical properties :
#
#
# Convention : Reuss Voigt Hill
#
# Bulk Modulus (GPa) = 3.10597 22.20438 12.65517
# Shear Modulus (GPa) = 3.63897 20.99724 12.31811
#
# Velocity S-wave (km/s) = 1.30504 3.13485 2.40109
# Velocity P-wave (km/s) = 1.92990 4.84720 3.68916
#
# Compressibility (1/GPa) = 0.32196060
#
# Stress axis : x y z
#
# Youngs Moduli (GPa) = 1.71243 74.02448 13.42534
#
# Poissons Ratio (x) = 2.34670 2.03334
# Poissons Ratio (y) = 0.05429 -0.10952
# Poissons Ratio (z) = 0.25936 -0.60388
#
# Static dielectric constant tensor:
#      x y z
#    x 1.782090 0.011240 0.022110 
#    y 0.011240 1.793080 -0.006630 
#    z 0.022110 -0.006630 1.779880 
# 
# From -- ./inp_files/428687.got.cif
#   From: 2010.05.17/outbox.ucp.g08.bks.cvg/sg2_215_cif.got.tgz:428687.got - 2010.06.11 11:32:03.
