data_PCOD9072907
_publ_section_title
;
Structure prediction by ZEFSAII (Michael W. Deem and Ramdas Pophale) SiO2 
 PCOD9072907
Probable space group: P -1
;
_chemical_formula_sum "Si O2"
_cell_formula_units_Z 14
_cell_length_a 12.000000
_cell_length_b 9.000000
_cell_length_c 21.000000
_cell_angle_alpha 150.000000
_cell_angle_beta 140.000000
_cell_angle_gamma 40.000000
_cell_volume 690.757590
_symmetry_space_group_name_H-M "P -1"
_symmetry_group_IT_number 2
_symmetry_cell_setting 'triclinic'
loop_
_space_group_symop_operation_xyz
x,y,z
-x,-y,-z
loop_
_atom_site_type_symbol
_atom_site_label
_atom_site_fract_x
_atom_site_fract_y
_atom_site_fract_z
Si Si1 0.639639 0.227578 0.800928
Si Si2 0.846995 0.815635 0.628660
Si Si3 0.135153 0.349128 0.946624
Si Si4 0.727697 0.319857 0.241877
Si Si5 0.568432 0.701082 0.656125
Si Si6 0.746529 0.226355 0.366146
Si Si7 0.888633 0.174599 0.667199
O O1 0.431956 0.403748 0.755457
O O2 0.755824 0.101330 0.741099
O O3 0.642973 0.951031 0.747028
O O4 0.740229 0.463077 0.958264
O O5 0.752125 0.565250 0.514362
O O6 0.066611 0.673539 0.677766
O O7 0.816250 0.928064 0.583544
O O8 0.003246 0.291574 0.813362
O O9 0.266103 0.017926 0.907373
O O10 0.000000 0.500000 0.000000
O O11 0.700843 0.280236 0.291041
O O12 0.500000 0.500000 0.500000
O O13 0.400943 0.863674 0.690606
O O14 0.726354 0.451694 0.671636
O O15 0.954312 0.998311 0.378087
#
# Coordination Sequence:
#
# PCOD9072907 Si02
#       7
#     2   2   2   2   2   2   2
#     4  12  23  39  62  95 125 160 207 248 311 370
#     4  10  20  38  65  92 119 164 208 260 306 348
#     4  10  20  44  68  92 116 159 214 261 304 349
#     4  10  22  38  68  93 117 157 212 267 298 353
#     4  12  27  39  58  95 133 168 196 246 317 377
#     4  10  22  40  61  91 126 163 209 251 311 360
#     4  10  23  42  64  89 125 161 210 259 300 363
#
# _framework density 20.267602
#
# number of rings (size 3 to 8) (size 9 to 14) (size 15 to 20)
#    0.000    1.714    4.286    3.000    4.000    3.429 
#    0.000    2.857    0.000    0.000    0.000    0.000 
#    0.000    0.000    0.000    0.000    0.000    0.000 
#
# Total GULP energy -78056.996223 kJ/mol
# GULP energy per Si atom -5575.499730 kJ/mol
# Density = 2.022147 g / cm^3
# Si number density = 20.267602 Si / 1000 Ang^3
#
#
#
# Elastic Constant Matrix: (Units=GPa)
#
#
# Indices 1 2 3 4 5 6 
#
# 1 49.0374 112.6614 -19.2069 13.1892 13.5750 0.2747
# 2 112.6614 -34.1594 42.3313 -11.2597 6.7484 -19.7651
# 3 -19.2069 42.3313 31.3616 10.8220 9.0103 9.9457
# 4 13.1892 -11.2597 10.8220 14.8380 1.9480 -0.8156
# 5 13.5750 6.7484 9.0103 1.9480 27.0129 12.1816
# 6 0.2747 -19.7651 9.9457 -0.8156 12.1816 11.2757
#
#
#
# Elastic Compliance Matrix: (Units=1/GPa)
#
#
# Indices 1 2 3 4 5 6 
#
# 1 0.012102 0.005005 -0.005828 0.002431 -0.022980 0.038620
# 2 0.005005 0.000529 0.007363 -0.009180 -0.003075 -0.003031
# 3 -0.005828 0.007363 0.021396 -0.004059 -0.005843 0.000195
# 4 0.002431 -0.009180 -0.004059 0.060107 0.003510 -0.012015
# 5 -0.022980 -0.003075 -0.005843 0.003510 0.099004 -0.106380
# 6 0.038620 -0.003031 0.000195 -0.012015 -0.106380 0.196317
#
#
# Mechanical properties :
#
#
# Convention : Reuss Voigt Hill
#
# Bulk Modulus (GPa) = 21.22817 35.31235 28.27026
# Shear Modulus (GPa) = 12.75260 4.65558 8.70409
#
# Velocity S-wave (km/s) = 2.51113 1.51725 2.07459
# Velocity P-wave (km/s) = 4.34792 4.53103 4.44042
#
# Compressibility (1/GPa) = 0.04710722
#
# Stress axis : x y z
#
# Youngs Moduli (GPa) = 82.62897 1888.99809 46.73859
#
# Poissons Ratio (x) = -9.45447 0.27240
# Poissons Ratio (y) = -0.41356 -0.34414
# Poissons Ratio (z) = 0.48157 -13.90881
#
# Static dielectric constant tensor:
#      x y z
#    x 1.724840 -0.007460 -0.054640 
#    y -0.007460 1.729230 0.033680 
#    z -0.054640 0.033680 1.874500 
# 
# From -- ./inp_files/255517.got.cif
#   From: 2010.05.17/outbox.ucp.g08.bks.cvg/sg2_128_cif.got.tgz:255517.got - 2010.06.11 11:32:03.
