data_PCOD9072534
_publ_section_title
;
Structure prediction by ZEFSAII (Michael W. Deem and Ramdas Pophale) SiO2 
 PCOD9072534
Probable space group: P -1
;
_chemical_formula_sum "Si O2"
_cell_formula_units_Z 16
_cell_length_a 11.001524
_cell_length_b 7.828449
_cell_length_c 14.643561
_cell_angle_alpha 55.041669
_cell_angle_beta 33.386031
_cell_angle_gamma 68.156783
_cell_volume 552.733553
_symmetry_space_group_name_H-M "P -1"
_symmetry_group_IT_number 2
_symmetry_cell_setting 'triclinic'
loop_
_space_group_symop_operation_xyz
x,y,z
-x,-y,-z
loop_
_atom_site_type_symbol
_atom_site_label
_atom_site_fract_x
_atom_site_fract_y
_atom_site_fract_z
Si Si1 0.610718 0.730058 0.933516
Si Si2 0.530281 0.124312 0.540913
Si Si3 0.645181 0.482367 0.248618
Si Si4 0.536194 0.882435 0.139006
Si Si5 0.060283 0.165553 0.831165
Si Si6 0.881954 0.718085 0.423989
Si Si7 0.339530 0.688443 0.895434
Si Si8 0.993161 0.713743 0.554556
O O1 0.464120 0.524012 0.918708
O O2 0.846332 0.760440 0.718470
O O3 0.450312 0.863418 0.942399
O O4 0.607742 0.829276 0.007470
O O5 0.712571 0.341790 0.332119
O O6 0.327426 0.242121 0.649886
O O7 0.500000 0.000000 0.500000
O O8 0.486174 0.929477 0.701496
O O9 0.658679 0.734767 0.169218
O O10 0.379352 0.394014 0.403551
O O11 0.760208 0.419040 0.105423
O O12 0.265920 0.803680 0.357048
O O13 0.037520 0.099912 0.758558
O O14 0.892796 0.315153 0.905852
O O15 0.000000 0.000000 0.000000
O O16 0.913479 0.796091 0.483267
O O17 0.024663 0.538566 0.375252
#
# Coordination Sequence:
#
# PCOD9072534 Si02
#       8
#     2   2   2   2   2   2   2   2
#     4  10  18  31  47  66  96 121 162 191 229 270
#     4   8  14  24  41  60  89 112 139 186 232 266
#     4   8  15  28  42  63  93 114 149 187 231 276
#     4   9  19  31  46  67  92 126 159 197 222 272
#     4   9  15  25  42  64  90 112 149 187 223 271
#     4   9  17  29  42  65  94 123 151 185 235 288
#     4   9  15  25  41  67  90 114 146 188 230 274
#     4  10  18  31  45  64  96 127 153 186 236 283
#
# _framework density 28.947039
#
# number of rings (size 3 to 8) (size 9 to 14) (size 15 to 20)
#    0.000    3.000    1.250    0.375    0.000    0.000 
#    2.250    2.500    0.000    0.000    0.000    7.875 
#    0.000   38.500    0.000    0.000    0.000    0.000 
#
# Total GULP energy -89227.810012 kJ/mol
# GULP energy per Si atom -5576.738126 kJ/mol
# Density = 2.888115 g / cm^3
# Si number density = 28.947039 Si / 1000 Ang^3
#
#
#
# Elastic Constant Matrix: (Units=GPa)
#
#
# Indices 1 2 3 4 5 6 
#
# 1 70.1804 45.7458 58.3179 -7.2139 18.9758 5.5152
# 2 45.7458 208.6369 59.3198 -1.5846 7.8397 -26.8395
# 3 58.3179 59.3198 211.0808 10.1007 31.6583 -2.2097
# 4 -7.2139 -1.5846 10.1007 65.2510 -16.8188 3.7269
# 5 18.9758 7.8397 31.6583 -16.8188 52.9979 -10.0475
# 6 5.5152 -26.8395 -2.2097 3.7269 -10.0475 34.2783
#
#
#
# Elastic Compliance Matrix: (Units=1/GPa)
#
#
# Indices 1 2 3 4 5 6 
#
# 1 0.024017 -0.005057 -0.004457 0.002145 -0.006448 -0.010234
# 2 -0.005057 0.006949 -0.000880 0.000028 0.002638 0.006968
# 3 -0.004457 -0.000880 0.006795 -0.002359 -0.003118 -0.000191
# 4 0.002145 0.000028 -0.002359 0.017531 0.006087 -0.000597
# 5 -0.006448 0.002638 -0.003118 0.006087 0.026477 0.010001
# 6 -0.010234 0.006968 -0.000191 -0.000597 0.010001 0.039260
#
#
# Mechanical properties :
#
#
# Convention : Reuss Voigt Hill
#
# Bulk Modulus (GPa) = 58.91459 90.74058 74.82758
# Shear Modulus (GPa) = 33.90400 52.27309 43.08855
#
# Velocity S-wave (km/s) = 3.42605 4.25410 3.86233
# Velocity P-wave (km/s) = 6.00393 7.45285 6.76728
#
# Compressibility (1/GPa) = 0.01697372
#
# Stress axis : x y z
#
# Youngs Moduli (GPa) = 41.63707 143.89596 147.17446
#
# Poissons Ratio (x) = 0.72764 0.65596
# Poissons Ratio (y) = 0.21055 0.12951
# Poissons Ratio (z) = 0.18558 0.12663
#
# Static dielectric constant tensor:
#      x y z
#    x 2.307930 -0.025050 -0.034980 
#    y -0.025050 2.373100 0.048950 
#    z -0.034980 0.048950 2.421140 
# 
# From -- ./inp_files/201415.got.cif
#   From: 2010.05.17/outbox.cif.g08.bks.cpg/sg2_101_cif.got.tgz:201415.got - 2010.06.03 11:33:40.
