data_PCOD9072695
_publ_section_title
;
Structure prediction by ZEFSAII (Michael W. Deem and Ramdas Pophale) SiO2 
 PCOD9072695
Probable space group: P -1
;
_chemical_formula_sum "Si O2"
_cell_formula_units_Z 13
_cell_length_a 7.208671
_cell_length_b 5.613134
_cell_length_c 21.341487
_cell_angle_alpha 116.124286
_cell_angle_beta 144.594572
_cell_angle_gamma 59.346943
_cell_volume 429.863675
_symmetry_space_group_name_H-M "P -1"
_symmetry_group_IT_number 2
_symmetry_cell_setting 'triclinic'
loop_
_space_group_symop_operation_xyz
x,y,z
-x,-y,-z
loop_
_atom_site_type_symbol
_atom_site_label
_atom_site_fract_x
_atom_site_fract_y
_atom_site_fract_z
Si Si1 0.607983 0.066816 0.179621
Si Si2 0.133383 0.629759 0.358693
Si Si3 0.060870 0.201626 0.209747
Si Si4 0.227877 0.061908 0.514639
Si Si5 0.877034 0.787261 0.035653
Si Si6 0.689138 0.502283 0.333670
Si Si7 0.500000 0.500000 0.000000
O O1 0.825837 0.154773 0.195969
O O2 0.313577 0.002209 0.049726
O O3 0.473734 0.325721 0.220204
O O4 0.857323 0.835861 0.262698
O O5 0.293842 0.356882 0.328861
O O6 0.908018 0.575061 0.346815
O O7 0.361595 0.798362 0.474653
O O8 0.836722 0.424251 0.126235
O O9 0.139767 0.922725 0.156864
O O10 0.457744 0.227332 0.631712
O O11 0.961704 0.283369 0.424815
O O12 0.000000 0.000000 0.500000
O O13 0.651722 0.702241 0.016432
O O14 0.000000 0.500000 0.000000
#
# Coordination Sequence:
#
# PCOD9072695 Si02
#       7
#     2   2   2   2   2   2   1
#     4   9  17  30  48  70  99 138 176 217 266 313
#     4   9  15  25  45  69  99 136 172 214 265 313
#     4  10  18  31  50  71  98 135 173 215 268 316
#     4   8  13  22  37  66 102 131 166 212 257 313
#     4  11  23  36  53  78 105 139 183 223 266 318
#     4   8  14  23  40  66  99 133 168 212 261 311
#     4  10  20  38  56  72 104 138 172 226 272 310
#
# _framework density 30.242145000000001
#
# number of rings (size 3 to 8) (size 9 to 14) (size 15 to 20)
#    0.000    2.769    0.000    3.692    0.000    0.615 
#    0.000    0.000    0.000    0.000    0.000    1.077 
#    0.000  121.846    0.000  115.692    0.000   35.538 
#
# Total GULP energy -72611.831192 kJ/mol
# GULP energy per Si atom -5585.525476 kJ/mol
# Density = 3.017331 g / cm^3
# Si number density = 30.242145 Si / 1000 Ang^3
#
#
#
# Elastic Constant Matrix: (Units=GPa)
#
#
# Indices 1 2 3 4 5 6 
#
# 1 124.1467 49.4473 47.2388 -15.0960 2.9966 18.7002
# 2 49.4473 135.2581 90.2379 4.4197 -32.6276 7.5407
# 3 47.2388 90.2379 303.7401 61.0885 -19.9103 -10.1515
# 4 -15.0960 4.4197 61.0885 117.9866 13.7803 -31.8238
# 5 2.9966 -32.6276 -19.9103 13.7803 29.9831 -1.7862
# 6 18.7002 7.5407 -10.1515 -31.8238 -1.7862 55.4994
#
#
#
# Elastic Compliance Matrix: (Units=1/GPa)
#
#
# Indices 1 2 3 4 5 6 
#
# 1 0.011818 -0.005717 -0.001484 0.003113 -0.009939 -0.002012
# 2 -0.005717 0.015007 -0.002003 -0.002589 0.016677 -0.001427
# 3 -0.001484 -0.002003 0.004874 -0.002917 0.002551 0.000073
# 4 0.003113 -0.002589 -0.002917 0.013395 -0.010858 0.006100
# 5 -0.009939 0.016677 0.002551 -0.010858 0.059012 -0.002777
# 6 -0.002012 -0.001427 0.000073 0.006100 -0.002777 0.022312
#
#
# Mechanical properties :
#
#
# Convention : Reuss Voigt Hill
#
# Bulk Modulus (GPa) = 75.24302 104.11033 89.67668
# Shear Modulus (GPa) = 33.49914 65.77523 49.63718
#
# Velocity S-wave (km/s) = 3.33182 4.66870 4.05572
# Velocity P-wave (km/s) = 6.30361 7.97262 7.18673
#
# Compressibility (1/GPa) = 0.01329027
#
# Stress axis : x y z
#
# Youngs Moduli (GPa) = 84.61313 66.63712 205.15192
#
# Poissons Ratio (x) = 0.38099 0.30451
# Poissons Ratio (y) = 0.48377 0.41089
# Poissons Ratio (z) = 0.12559 0.13347
#
# Static dielectric constant tensor:
#      x y z
#    x -2.151710 6.367160 1.082740 
#    y 6.367160 -7.744420 -1.893100 
#    z 1.082740 -1.893100 1.899950 
# 
# From -- ./inp_files/40866.got.cif
#   From: 2010.05.17/outbox.cif.g08.bks.cpg/sg2_21_cif.got.tgz:40866.got - 2010.06.03 11:33:40.
