data_PCOD9072920
_publ_section_title
;
Structure prediction by ZEFSAII (Michael W. Deem and Ramdas Pophale) SiO2 
 PCOD9072920
Probable space group: P -1
;
_chemical_formula_sum "Si O2"
_cell_formula_units_Z 16
_cell_length_a 12.466334
_cell_length_b 7.565396
_cell_length_c 9.410795
_cell_angle_alpha 132.421192
_cell_angle_beta 69.835767
_cell_angle_gamma 91.738479
_cell_volume 588.277593
_symmetry_space_group_name_H-M "P -1"
_symmetry_group_IT_number 2
_symmetry_cell_setting 'triclinic'
loop_
_space_group_symop_operation_xyz
x,y,z
-x,-y,-z
loop_
_atom_site_type_symbol
_atom_site_label
_atom_site_fract_x
_atom_site_fract_y
_atom_site_fract_z
Si Si1 0.872042 0.472143 0.319795
Si Si2 0.333033 0.171244 0.586470
Si Si3 0.032917 0.763061 0.125175
Si Si4 0.197739 0.907932 0.674710
Si Si5 0.501811 0.222782 0.313047
Si Si6 0.319778 0.033183 0.131839
Si Si7 0.269181 0.607480 0.086971
Si Si8 0.853134 0.668457 0.823332
O O1 0.906016 0.253460 0.064618
O O2 0.812787 0.804807 0.764716
O O3 0.004636 0.475619 0.311150
O O4 0.803785 0.349310 0.396860
O O5 0.307037 0.937525 0.548854
O O6 0.456971 0.115750 0.416803
O O7 0.319863 0.386061 0.828325
O O8 0.222817 0.297372 0.593279
O O9 0.132548 0.745564 0.183855
O O10 0.000000 0.500000 0.000000
O O11 0.919130 0.995811 0.317821
O O12 0.168510 0.129004 0.927601
O O13 0.500000 0.500000 0.500000
O O14 0.626248 0.093693 0.110724
O O15 0.404724 0.196401 0.228454
O O16 0.331379 0.818669 0.129981
O O17 0.244554 0.480699 0.175472
#
# Coordination Sequence:
#
# PCOD9072920 Si02
#       8
#     2   2   2   2   2   2   2   2
#     4  10  17  29  56  94 133 166 203 249 305 375
#     4  10  19  37  59  90 127 165 209 255 308 366
#     4  10  13  26  48  91 131 171 201 237 297 371
#     4  10  17  27  53  92 131 164 210 246 299 376
#     4  11  25  47  70  87 122 168 213 269 322 375
#     4  11  24  43  69  93 120 168 213 259 326 375
#     4  10  17  33  62  92 131 163 208 259 306 370
#     4  10  18  33  60  99 131 161 208 256 306 377
#
# _framework density 27.198041
#
# number of rings (size 3 to 8) (size 9 to 14) (size 15 to 20)
#    0.000    1.750    6.250    3.750    0.000    0.000 
#    0.000    8.125    0.000    5.250    0.000    0.000 
#    0.000    0.000    0.000    0.000    0.000    0.000 
#
# Total GULP energy -89525.438570 kJ/mol
# GULP energy per Si atom -5595.339911 kJ/mol
# Density = 2.713614 g / cm^3
# Si number density = 27.198041 Si / 1000 Ang^3
#
#
#
# Elastic Constant Matrix: (Units=GPa)
#
#
# Indices 1 2 3 4 5 6 
#
# 1 87.1612 24.8396 14.0135 7.8463 -5.7568 3.0805
# 2 24.8396 188.1246 56.3226 -26.3357 -6.6777 29.6989
# 3 14.0135 56.3226 110.9524 -6.5303 -17.2752 10.9567
# 4 7.8463 -26.3357 -6.5303 51.8529 10.0784 1.7794
# 5 -5.7568 -6.6777 -17.2752 10.0784 36.8923 -5.9861
# 6 3.0805 29.6989 10.9567 1.7794 -5.9861 35.1135
#
#
#
# Elastic Compliance Matrix: (Units=1/GPa)
#
#
# Indices 1 2 3 4 5 6 
#
# 1 0.012613 -0.002188 -0.000440 -0.003633 0.002604 0.001509
# 2 -0.002188 0.008218 -0.003415 0.004843 -0.002818 -0.006419
# 3 -0.000440 -0.003415 0.011494 -0.001215 0.005070 0.000267
# 4 -0.003633 0.004843 -0.001215 0.023849 -0.007736 -0.005926
# 5 0.002604 -0.002818 0.005070 -0.007736 0.032547 0.006513
# 6 0.001509 -0.006419 0.000267 -0.005926 0.006513 0.035103
#
#
# Mechanical properties :
#
#
# Convention : Reuss Voigt Hill
#
# Bulk Modulus (GPa) = 49.41064 64.06553 56.73808
# Shear Modulus (GPa) = 35.04922 44.17593 39.61258
#
# Velocity S-wave (km/s) = 3.59370 4.03455 3.82049
# Velocity P-wave (km/s) = 5.95197 6.73125 6.35357
#
# Compressibility (1/GPa) = 0.02023856
#
# Stress axis : x y z
#
# Youngs Moduli (GPa) = 79.28343 121.67812 87.00408
#
# Poissons Ratio (x) = 0.26626 0.03826
# Poissons Ratio (y) = 0.17349 0.29714
# Poissons Ratio (z) = 0.03487 0.41557
#
# Static dielectric constant tensor:
#      x y z
#    x 2.161540 -0.001500 0.047020 
#    y -0.001500 2.195580 -0.045890 
#    z 0.047020 -0.045890 2.236020 
# 
# From -- ./inp_files/343007.got.cif
#   From: 2010.05.17/outbox.cif.g08.bks.cpg/sg2_172_cif.got.tgz:343007.got - 2010.06.03 11:33:40.
