data_PCOD9072770
_publ_section_title
;
Structure prediction by ZEFSAII (Michael W. Deem and Ramdas Pophale) SiO2 
 PCOD9072770
Probable space group: P -1
;
_chemical_formula_sum "Si O2"
_cell_formula_units_Z 16
_cell_length_a 9.020385
_cell_length_b 23.513087
_cell_length_c 6.941096
_cell_angle_alpha 110.515153
_cell_angle_beta 118.082896
_cell_angle_gamma 27.120799
_cell_volume 583.450335
_symmetry_space_group_name_H-M "P -1"
_symmetry_group_IT_number 2
_symmetry_cell_setting 'triclinic'
loop_
_space_group_symop_operation_xyz
x,y,z
-x,-y,-z
loop_
_atom_site_type_symbol
_atom_site_label
_atom_site_fract_x
_atom_site_fract_y
_atom_site_fract_z
Si Si1 0.543506 0.456965 0.752515
Si Si2 0.532103 0.289440 0.250166
Si Si3 0.776387 0.495075 0.746170
Si Si4 0.589976 0.136197 0.967048
Si Si5 0.433221 0.287418 0.625287
Si Si6 0.021284 0.787947 0.055767
Si Si7 0.742921 0.879025 0.386706
Si Si8 0.229587 0.239141 0.286773
O O1 0.779036 0.443152 0.851268
O O2 0.517031 0.437076 0.500635
O O3 0.718231 0.347468 0.853117
O O4 0.153081 0.604194 0.749504
O O5 0.339287 0.401973 0.143622
O O6 0.369665 0.328741 0.412080
O O7 0.889221 0.208689 0.429974
O O8 0.545890 0.223282 0.059794
O O9 0.097280 0.400580 0.686084
O O10 0.368810 0.157211 0.727286
O O11 0.442007 0.168896 0.131675
O O12 0.000000 0.000000 0.000000
O O13 0.751632 0.223966 0.831987
O O14 0.479981 0.200193 0.527337
O O15 0.737222 0.892784 0.169209
O O16 0.870948 0.799675 0.793625
O O17 0.500000 0.000000 0.500000
#
# Coordination Sequence:
#
# PCOD9072770 Si02
#       8
#     2   2   2   2   2   2   2   2
#     4  10  19  33  51  80 109 142 175 208 263 317
#     4  10  18  32  52  76 105 137 172 215 261 304
#     4  10  19  32  53  78 111 142 175 208 260 319
#     4  10  19  30  52  81 100 128 177 222 260 301
#     4   9  18  32  53  76 102 141 176 208 258 305
#     4  10  19  33  55  77 105 141 173 214 263 310
#     4  10  18  31  50  79 103 129 168 224 265 298
#     4   9  20  32  52  76 109 134 173 221 262 305
#
# _framework density 27.423072000000001
#
# number of rings (size 3 to 8) (size 9 to 14) (size 15 to 20)
#    0.000    2.250    3.750    0.750    3.500    0.000 
#    0.000    0.625    0.000    2.250    0.000    4.375 
#    0.000    0.000    0.000    0.000    0.000    0.000 
#
# Total GULP energy -89328.165520 kJ/mol
# GULP energy per Si atom -5583.010345 kJ/mol
# Density = 2.736066 g / cm^3
# Si number density = 27.423072 Si / 1000 Ang^3
#
#
#
# Elastic Constant Matrix: (Units=GPa)
#
#
# Indices 1 2 3 4 5 6 
#
# 1 204.9810 54.0838 78.8052 15.5004 33.7618 -13.0547
# 2 54.0838 89.4560 56.4646 29.7417 12.4742 -26.4185
# 3 78.8052 56.4646 204.7295 39.6103 76.3964 9.6501
# 4 15.5004 29.7417 39.6103 54.0989 4.4469 -3.4339
# 5 33.7618 12.4742 76.3964 4.4469 66.4407 2.1685
# 6 -13.0547 -26.4185 9.6501 -3.4339 2.1685 41.4833
#
#
#
# Elastic Compliance Matrix: (Units=1/GPa)
#
#
# Indices 1 2 3 4 5 6 
#
# 1 0.006351 -0.002913 -0.001447 0.000971 -0.001101 0.000618
# 2 -0.002913 0.022501 -0.006034 -0.006569 0.004175 0.014055
# 3 -0.001447 -0.006034 0.013249 -0.005373 -0.012773 -0.007157
# 4 0.000971 -0.006569 -0.005373 0.025268 0.005253 -0.000811
# 5 -0.001101 0.004175 -0.012773 0.005253 0.029025 0.004201
# 6 0.000618 0.014055 -0.007157 -0.000811 0.004201 0.034629
#
#
# Mechanical properties :
#
#
# Convention : Reuss Voigt Hill
#
# Bulk Modulus (GPa) = 46.92112 97.54156 72.23134
# Shear Modulus (GPa) = 31.46335 53.05876 42.26106
#
# Velocity S-wave (km/s) = 3.39090 4.40343 3.92991
# Velocity P-wave (km/s) = 5.69896 7.84219 6.85486
#
# Compressibility (1/GPa) = 0.02131236
#
# Stress axis : x y z
#
# Youngs Moduli (GPa) = 157.46112 44.44302 75.47811
#
# Poissons Ratio (x) = 0.12945 0.10924
# Poissons Ratio (y) = 0.45865 0.45543
# Poissons Ratio (z) = 0.22789 0.26816
#
# Static dielectric constant tensor:
#      x y z
#    x 2.166120 -0.000800 0.000080 
#    y -0.000800 2.189930 -0.053080 
#    z 0.000080 -0.053080 2.199790 
# 
# From -- ./inp_files/225544.got.cif
#   From: 2010.05.17/outbox.cif.g08.bks.cpg/sg2_113_cif.got.tgz:225544.got - 2010.06.03 11:33:40.
