data_PCOD9072993
_publ_section_title
;
Structure prediction by ZEFSAII (Michael W. Deem and Ramdas Pophale) SiO2 
 PCOD9072993
Probable space group: P -1
;
_chemical_formula_sum "Si O2"
_cell_formula_units_Z 16
_cell_length_a 18.000000
_cell_length_b 21.000000
_cell_length_c 12.000000
_cell_angle_alpha 20.000000
_cell_angle_beta 150.000000
_cell_angle_gamma 150.000000
_cell_volume 738.640068
_symmetry_space_group_name_H-M "P -1"
_symmetry_group_IT_number 2
_symmetry_cell_setting 'triclinic'
loop_
_space_group_symop_operation_xyz
x,y,z
-x,-y,-z
loop_
_atom_site_type_symbol
_atom_site_label
_atom_site_fract_x
_atom_site_fract_y
_atom_site_fract_z
Si Si1 0.963410 0.312585 0.112966
Si Si2 0.802446 0.882655 0.274709
Si Si3 0.824014 0.667601 0.010309
Si Si4 0.946390 0.066215 0.944568
Si Si5 0.143595 0.701325 0.242651
Si Si6 0.261187 0.652475 0.046080
Si Si7 0.419216 0.408925 0.368983
Si Si8 0.637498 0.181614 0.325097
O O1 0.031390 0.143648 0.432002
O O2 0.119477 0.482930 0.078250
O O3 0.875239 0.351503 0.825435
O O4 0.839206 0.266166 0.128725
O O5 0.667361 0.707992 0.441311
O O6 0.837743 0.893842 0.168194
O O7 0.778592 0.078392 0.973585
O O8 0.773571 0.447520 0.354152
O O9 0.907171 0.812843 0.983978
O O10 0.968344 0.666098 0.120053
O O11 0.684363 0.691714 0.709697
O O12 0.818089 0.184402 0.576299
O O13 0.000000 0.000000 0.000000
O O14 0.399272 0.586613 0.394902
O O15 0.353880 0.803528 0.823241
O O16 0.397949 0.623462 0.998855
O O17 0.500000 0.000000 0.500000
#
# Coordination Sequence:
#
# PCOD9072993 Si02
#       8
#     2   2   2   2   2   2   2   2
#     4  11  22  41  69 101 137 173 233 286 343 407
#     4  11  22  39  74  99 134 178 235 281 331 417
#     4  10  21  41  70  98 141 178 232 279 334 419
#     4  11  25  44  72 106 139 181 229 282 348 409
#     4  10  20  39  69 101 128 183 230 279 336 406
#     4  11  25  42  68 100 140 182 224 287 351 406
#     4  12  24  45  68 103 135 183 234 285 341 407
#     4  12  25  45  68 103 142 183 233 287 340 409
#
# _framework density 21.661429999999999
#
# number of rings (size 3 to 8) (size 9 to 14) (size 15 to 20)
#    0.000    1.000    2.500    5.250    3.500    1.000 
#    0.000    1.250    5.500    0.000    0.000    0.000 
#    0.000    0.000    0.000    0.000    0.000    0.000 
#
# Total GULP energy -89215.560271 kJ/mol
# GULP energy per Si atom -5575.972517 kJ/mol
# Density = 2.161213 g / cm^3
# Si number density = 21.661430 Si / 1000 Ang^3
#
#
#
# Elastic Constant Matrix: (Units=GPa)
#
#
# Indices 1 2 3 4 5 6 
#
# 1 144.3196 58.3020 34.1365 -1.3555 -4.9047 -10.0703
# 2 58.3020 104.3001 33.2228 1.1540 -2.8463 0.4734
# 3 34.1365 33.2228 87.8433 -1.6368 -8.9507 12.1340
# 4 -1.3555 1.1540 -1.6368 49.3790 1.6443 -0.6346
# 5 -4.9047 -2.8463 -8.9507 1.6443 38.8303 6.3342
# 6 -10.0703 0.4734 12.1340 -0.6346 6.3342 39.1557
#
#
#
# Elastic Compliance Matrix: (Units=1/GPa)
#
#
# Indices 1 2 3 4 5 6 
#
# 1 0.009601 -0.004606 -0.002469 0.000341 -0.000253 0.003337
# 2 -0.004606 0.013178 -0.003188 -0.000535 -0.000276 -0.000320
# 3 -0.002469 -0.003188 0.014737 0.000295 0.003780 -0.005770
# 4 0.000341 -0.000535 0.000295 0.020318 -0.000865 0.000472
# 5 -0.000253 -0.000276 0.003780 -0.000865 0.027539 -0.005702
# 6 0.003337 -0.000320 -0.005770 0.000472 -0.005702 0.029119
#
#
# Mechanical properties :
#
#
# Convention : Reuss Voigt Hill
#
# Bulk Modulus (GPa) = 58.86052 65.30949 62.08501
# Shear Modulus (GPa) = 35.54107 39.52645 37.53376
#
# Velocity S-wave (km/s) = 4.05502 4.27633 4.16714
# Velocity P-wave (km/s) = 7.01115 7.38906 7.20258
#
# Compressibility (1/GPa) = 0.01698932
#
# Stress axis : x y z
#
# Youngs Moduli (GPa) = 104.15119 75.88531 67.85711
#
# Poissons Ratio (x) = 0.34955 0.16757
# Poissons Ratio (y) = 0.47975 0.21631
# Poissons Ratio (z) = 0.25719 0.24190
#
# Static dielectric constant tensor:
#      x y z
#    x 1.771860 -0.030110 -0.085310 
#    y -0.030110 1.827110 -0.012210 
#    z -0.085310 -0.012210 1.984910 
# 
# From -- ./inp_files/467008.got.cif
#   From: 2010.05.17/outbox.ucp.g08.bks.cvg/sg2_234_cif.got.tgz:467008.got - 2010.06.11 11:32:03.
