data_PCOD9072153
_publ_section_title
;
Structure prediction by ZEFSAII (Michael W. Deem and Ramdas Pophale) SiO2 
 PCOD9072153
Probable space group: P -1
;
_chemical_formula_sum "Si O2"
_cell_formula_units_Z 16
_cell_length_a 15.000000
_cell_length_b 18.000000
_cell_length_c 24.000000
_cell_angle_alpha 160.000000
_cell_angle_beta 160.000000
_cell_angle_gamma 30.000000
_cell_volume 749.971719
_symmetry_space_group_name_H-M "P -1"
_symmetry_group_IT_number 2
_symmetry_cell_setting 'triclinic'
loop_
_space_group_symop_operation_xyz
x,y,z
-x,-y,-z
loop_
_atom_site_type_symbol
_atom_site_label
_atom_site_fract_x
_atom_site_fract_y
_atom_site_fract_z
Si Si1 0.044950 0.166010 0.955790
Si Si2 0.728381 0.332114 0.790377
Si Si3 0.562028 0.358123 0.018898
Si Si4 0.825124 0.666786 0.486432
Si Si5 0.899275 0.418867 0.152405
Si Si6 0.966429 0.806375 0.224410
Si Si7 0.648939 0.214320 0.341490
Si Si8 0.722003 0.077710 0.406954
O O1 0.864559 0.302107 0.908391
O O2 0.348065 0.216244 0.150973
O O3 0.974846 0.904308 0.726237
O O4 0.985358 0.238255 0.034372
O O5 0.417267 0.287487 0.584466
O O6 0.877095 0.177615 0.730001
O O7 0.794595 0.573111 0.972187
O O8 0.698943 0.546605 0.272509
O O9 0.751404 0.326333 0.055974
O O10 0.300224 0.437161 0.894700
O O11 0.484547 0.139497 0.856196
O O12 0.000000 0.500000 0.500000
O O13 0.161225 0.589466 0.437053
O O14 0.202901 0.814537 0.413974
O O15 0.778175 0.993132 0.249994
O O16 0.655538 0.226846 0.422167
O O17 0.000000 0.000000 0.500000
#
# Coordination Sequence:
#
# PCOD9072153 Si02
#       8
#     2   2   2   2   2   2   2   2
#     4  12  26  42  70  96 139 177 220 280 335 399
#     4  11  24  42  65 100 135 172 229 272 336 393
#     4  11  23  41  70  99 132 173 228 272 337 390
#     4  12  26  47  67  94 139 180 218 270 346 407
#     4  11  24  41  68 103 133 169 228 285 324 396
#     4  10  22  40  68  98 130 179 221 278 322 406
#     4  11  23  44  69  97 136 179 228 267 346 393
#     4  10  18  38  68  90 124 177 221 265 328 397
#
# _framework density 21.334137999999999
#
# number of rings (size 3 to 8) (size 9 to 14) (size 15 to 20)
#    0.000    1.000    3.750    4.500    3.500    0.500 
#    6.750    1.250    0.000    0.000    0.000    0.000 
#    0.000    0.000    0.000    0.000    0.000    0.000 
#
# Total GULP energy -89410.446372 kJ/mol
# GULP energy per Si atom -5588.152898 kJ/mol
# Density = 2.128558 g / cm^3
# Si number density = 21.334138 Si / 1000 Ang^3
#
#
#
# Elastic Constant Matrix: (Units=GPa)
#
#
# Indices 1 2 3 4 5 6 
#
# 1 94.6796 11.7552 23.0526 -3.9658 15.8365 -21.4564
# 2 11.7552 57.2003 7.3172 -25.2864 19.8252 -14.7442
# 3 23.0526 7.3172 74.9172 -19.8752 30.7549 -17.9545
# 4 -3.9658 -25.2864 -19.8752 21.1534 -3.4744 4.2313
# 5 15.8365 19.8252 30.7549 -3.4744 23.1970 1.2677
# 6 -21.4564 -14.7442 -17.9545 4.2313 1.2677 25.6956
#
#
#
# Elastic Compliance Matrix: (Units=1/GPa)
#
#
# Indices 1 2 3 4 5 6 
#
# 1 0.013180 -0.005792 -0.005620 -0.010567 0.001524 0.005420
# 2 -0.005792 -0.004516 -0.022735 -0.017388 0.036568 -0.022255
# 3 -0.005620 -0.022735 -0.004184 -0.024273 0.026159 -0.017955
# 4 -0.010567 -0.017388 -0.024273 0.019873 0.059527 -0.041971
# 5 0.001524 0.036568 0.026159 0.059527 -0.016675 0.031554
# 6 0.005420 -0.022255 -0.017955 -0.041971 0.031554 0.023482
#
#
# Mechanical properties :
#
#
# Convention : Reuss Voigt Hill
#
# Bulk Modulus (GPa) = -15.67070 34.56079 9.44505
# Shear Modulus (GPa) = 63.95224 26.32069 45.13646
#
# Velocity S-wave (km/s) = 5.48102 3.51627 4.60466
# Velocity P-wave (km/s) = 5.71788 5.72018 5.71903
#
# Compressibility (1/GPa) = -0.06381337
#
# Stress axis : x y z
#
# Youngs Moduli (GPa) = 75.87122 -221.42156 -239.02566
#
# Poissons Ratio (x) = -1.28246 -1.34328
# Poissons Ratio (y) = 0.43944 -5.43426
# Poissons Ratio (z) = 0.42638 -5.03403
#
# Static dielectric constant tensor:
#      x y z
#    x 1.855130 0.033230 -0.043640 
#    y 0.033230 1.741720 -0.003530 
#    z -0.043640 -0.003530 1.832220 
# 
# From -- ./inp_files/318208.got.cif
#   From: 2010.05.17/outbox.ucp.g08.bks.cvg/sg2_160_cif.got.tgz:318208.got - 2010.06.11 11:32:03.
