data_PCOD9072414
_publ_section_title
;
Structure prediction by ZEFSAII (Michael W. Deem and Ramdas Pophale) SiO2 
 PCOD9072414
Probable space group: P -1
;
_chemical_formula_sum "Si O2"
_cell_formula_units_Z 13
_cell_length_a 12.827387
_cell_length_b 9.309611
_cell_length_c 11.808481
_cell_angle_alpha 126.268806
_cell_angle_beta 43.247910
_cell_angle_gamma 92.984157
_cell_volume 566.931104
_symmetry_space_group_name_H-M "P -1"
_symmetry_group_IT_number 2
_symmetry_cell_setting 'triclinic'
loop_
_space_group_symop_operation_xyz
x,y,z
-x,-y,-z
loop_
_atom_site_type_symbol
_atom_site_label
_atom_site_fract_x
_atom_site_fract_y
_atom_site_fract_z
Si Si1 0.695351 0.548662 0.110722
Si Si2 0.141212 0.302917 0.130620
Si Si3 0.000000 0.500000 0.000000
Si Si4 0.793254 0.828813 0.737052
Si Si5 0.396078 0.748849 0.072164
Si Si6 0.827256 0.216324 0.528439
Si Si7 0.781457 0.986588 0.267953
O O1 0.870156 0.438580 0.015065
O O2 0.465166 0.785415 0.445183
O O3 0.750040 0.630398 0.998347
O O4 0.683884 0.355644 0.986456
O O5 0.263832 0.164889 0.084915
O O6 0.913011 0.562751 0.465488
O O7 0.125645 0.144718 0.987779
O O8 0.830978 0.774296 0.205845
O O9 0.976676 0.830460 0.605772
O O10 0.629813 0.051865 0.886663
O O11 0.255897 0.858119 0.347246
O O12 0.632034 0.508191 0.804711
O O13 0.861601 0.090830 0.323745
#
# Coordination Sequence:
#
# PCOD9072414 Si02
#       7
#     2   2   1   2   2   2   2
#     4  10  20  40  59  87 115 148 199 248 274 339
#     4  10  22  38  56  87 125 150 185 241 299 338
#     4  10  18  30  56  88 112 144 182 230 308 322
#     4  11  22  39  59  83 123 158 184 238 293 354
#     4  10  21  38  64  85 111 155 205 234 281 340
#     4  10  21  38  62  86 112 152 204 241 274 341
#     4  10  22  37  59  88 115 149 196 248 276 337
#
# _framework density 22.930477
#
# number of rings (size 3 to 8) (size 9 to 14) (size 15 to 20)
#    0.000    1.846    1.538    3.231    4.308    0.615 
#    0.000   12.308    0.000    0.000    0.000    0.000 
#    0.000    0.000    0.000    0.000    0.000    0.000 
#
# Total GULP energy -72468.905018 kJ/mol
# GULP energy per Si atom -5574.531155 kJ/mol
# Density = 2.287829 g / cm^3
# Si number density = 22.930477 Si / 1000 Ang^3
#
#
#
# Elastic Constant Matrix: (Units=GPa)
#
#
# Indices 1 2 3 4 5 6 
#
# 1 104.4765 13.4693 44.1826 7.8247 20.3673 -11.2624
# 2 13.4693 98.0837 27.3494 13.2258 0.4811 -8.5716
# 3 44.1826 27.3494 75.2502 12.8658 32.4555 -8.0862
# 4 7.8247 13.2258 12.8658 21.6577 -8.0072 -18.1315
# 5 20.3673 0.4811 32.4555 -8.0072 42.9031 1.1407
# 6 -11.2624 -8.5716 -8.0862 -18.1315 1.1407 27.0259
#
#
#
# Elastic Compliance Matrix: (Units=1/GPa)
#
#
# Indices 1 2 3 4 5 6 
#
# 1 0.013376 0.000392 -0.009423 0.008302 0.002101 0.008360
# 2 0.000392 0.012073 -0.005648 -0.002434 0.003483 0.000523
# 3 -0.009423 -0.005648 0.045596 -0.062063 -0.040688 -0.031996
# 4 0.008302 -0.002434 -0.062063 0.216797 0.080142 0.126184
# 5 0.002101 0.003483 -0.040688 0.080142 0.066926 0.040749
# 6 0.008360 0.000523 -0.031996 0.126184 0.040749 0.114014
#
#
# Mechanical properties :
#
#
# Convention : Reuss Voigt Hill
#
# Bulk Modulus (GPa) = 23.98873 49.75700 36.87287
# Shear Modulus (GPa) = 9.76492 31.17128 20.46810
#
# Velocity S-wave (km/s) = 2.06585 3.69098 2.99091
# Velocity P-wave (km/s) = 4.02176 6.31748 5.29552
#
# Compressibility (1/GPa) = 0.04168623
#
# Stress axis : x y z
#
# Youngs Moduli (GPa) = 74.76166 82.82802 21.93162
#
# Poissons Ratio (x) = -0.03243 0.20667
# Poissons Ratio (y) = -0.02927 0.12387
# Poissons Ratio (z) = 0.70450 0.46780
#
# Static dielectric constant tensor:
#      x y z
#    x 1.906290 0.033620 0.013640 
#    y 0.033620 1.875180 -0.021650 
#    z 0.013640 -0.021650 1.853770 
# 
# From -- ./inp_files/422166.got.cif
#   From: 2010.05.17/outbox.cif.g08.bks.cpg/sg2_212_cif.got.tgz:422166.got - 2010.06.03 11:33:40.
