data_PCOD9072504
_publ_section_title
;
Structure prediction by ZEFSAII (Michael W. Deem and Ramdas Pophale) SiO2 
 PCOD9072504
Probable space group: P -1
;
_chemical_formula_sum "Si O2"
_cell_formula_units_Z 16
_cell_length_a 18.090539
_cell_length_b 8.061070
_cell_length_c 8.190507
_cell_angle_alpha 109.344737
_cell_angle_beta 37.583839
_cell_angle_gamma 108.988481
_cell_volume 683.255297
_symmetry_space_group_name_H-M "P -1"
_symmetry_group_IT_number 2
_symmetry_cell_setting 'triclinic'
loop_
_space_group_symop_operation_xyz
x,y,z
-x,-y,-z
loop_
_atom_site_type_symbol
_atom_site_label
_atom_site_fract_x
_atom_site_fract_y
_atom_site_fract_z
Si Si1 0.141694 0.294706 0.101298
Si Si2 0.102425 0.864655 0.067185
Si Si3 0.389942 0.451322 0.553287
Si Si4 0.234917 0.904742 0.177699
Si Si5 0.550161 0.186766 0.040829
Si Si6 0.929517 0.169889 0.235302
Si Si7 0.830176 0.715493 0.589586
Si Si8 0.631425 0.433737 0.702441
O O1 0.266839 0.380265 0.834704
O O2 0.140474 0.363339 0.310759
O O3 0.033124 0.316532 0.171604
O O4 0.128807 0.079669 0.078558
O O5 0.167154 0.821056 0.108741
O O6 0.959773 0.796901 0.318380
O O7 0.134177 0.787907 0.810138
O O8 0.500000 0.500000 0.500000
O O9 0.374143 0.598724 0.491862
O O10 0.436246 0.288937 0.319302
O O11 0.362376 0.831724 0.964400
O O12 0.156429 0.873504 0.472022
O O13 0.247253 0.116429 0.199864
O O14 0.630797 0.281264 0.786441
O O15 0.500000 0.000000 0.000000
O O16 0.000000 0.000000 0.000000
O O17 0.746502 0.576307 0.584088
O O18 0.500000 0.500000 0.000000
#
# Coordination Sequence:
#
# PCOD9072504 Si02
#       8
#     2   2   2   2   2   2   2   2
#     4  10  18  33  62  97 123 163 229 272 306 386
#     4  10  20  33  59 100 127 175 222 266 325 399
#     4  11  24  44  68  94 129 176 227 270 323 403
#     4  11  20  39  60  99 134 164 219 281 329 384
#     4  11  26  44  67  95 132 175 215 278 343 384
#     4  10  18  30  60  94 127 165 219 267 318 383
#     4  11  18  37  67  94 129 172 223 269 322 400
#     4  10  22  41  63  88 122 177 220 257 328 403
#
# _framework density 23.417310000000001
#
# number of rings (size 3 to 8) (size 9 to 14) (size 15 to 20)
#    0.000    1.500    3.750    4.500    5.250    1.000 
#    2.250    3.750    0.000    1.500    0.000    0.000 
#    0.000    0.000    0.000    0.000    0.000    0.000 
#
# Total GULP energy -89382.802969 kJ/mol
# GULP energy per Si atom -5586.425186 kJ/mol
# Density = 2.336401 g / cm^3
# Si number density = 23.417310 Si / 1000 Ang^3
#
#
#
# Elastic Constant Matrix: (Units=GPa)
#
#
# Indices 1 2 3 4 5 6 
#
# 1 189.3193 25.2889 11.0305 -10.0018 25.4371 13.0973
# 2 25.2889 51.5290 14.4456 -14.1678 -5.3941 3.1638
# 3 11.0305 14.4456 64.6907 -6.2110 19.6525 -1.0027
# 4 -10.0018 -14.1678 -6.2110 32.7151 2.4655 -5.6473
# 5 25.4371 -5.3941 19.6525 2.4655 41.7552 -3.4969
# 6 13.0973 3.1638 -1.0027 -5.6473 -3.4969 24.7673
#
#
#
# Elastic Compliance Matrix: (Units=1/GPa)
#
#
# Indices 1 2 3 4 5 6 
#
# 1 0.006766 -0.003973 0.001429 0.000403 -0.005643 -0.003718
# 2 -0.003973 0.026509 -0.007072 0.008539 0.008805 0.001618
# 3 0.001429 -0.007072 0.020511 0.002110 -0.011577 -0.000175
# 4 0.000403 0.008539 0.002110 0.036085 -0.001699 0.006770
# 5 -0.005643 0.008805 -0.011577 -0.001699 0.034566 0.005883
# 6 -0.003718 0.001618 -0.000175 0.006770 0.005883 0.044502
#
#
# Mechanical properties :
#
#
# Convention : Reuss Voigt Hill
#
# Bulk Modulus (GPa) = 28.94075 45.22989 37.08532
# Shear Modulus (GPa) = 25.03896 36.83243 30.93570
#
# Velocity S-wave (km/s) = 3.27349 3.97025 3.63858
# Velocity P-wave (km/s) = 5.16461 6.35404 5.78995
#
# Compressibility (1/GPa) = 0.03455336
#
# Stress axis : x y z
#
# Youngs Moduli (GPa) = 147.79464 37.72325 48.75534
#
# Poissons Ratio (x) = 0.14987 -0.06966
# Poissons Ratio (y) = 0.58716 0.34480
# Poissons Ratio (z) = -0.21116 0.26678
#
# Static dielectric constant tensor:
#      x y z
#    x 1.977190 -0.049210 0.040180 
#    y -0.049210 1.915620 0.043220 
#    z 0.040180 0.043220 1.788600 
# 
# From -- ./inp_files/329098.got.cif
#   From: 2010.05.17/outbox.cif.g08.bks.cpg/sg2_165_cif.got.tgz:329098.got - 2010.06.03 11:33:40.
