data_PCOD9072012
_publ_section_title
;
Structure prediction by ZEFSAII (Michael W. Deem and Ramdas Pophale) SiO2 
 PCOD9072012
Probable space group: P -1
;
_chemical_formula_sum "Si O2"
_cell_formula_units_Z 16
_cell_length_a 7.837972
_cell_length_b 12.761824
_cell_length_c 10.220073
_cell_angle_alpha 81.077774
_cell_angle_beta 49.895417
_cell_angle_gamma 60.620305
_cell_volume 661.186230
_symmetry_space_group_name_H-M "P -1"
_symmetry_group_IT_number 2
_symmetry_cell_setting 'triclinic'
loop_
_space_group_symop_operation_xyz
x,y,z
-x,-y,-z
loop_
_atom_site_type_symbol
_atom_site_label
_atom_site_fract_x
_atom_site_fract_y
_atom_site_fract_z
Si Si1 0.893678 0.775298 0.639276
Si Si2 0.611921 0.757404 0.440818
Si Si3 0.132717 0.807758 0.025711
Si Si4 0.803831 0.333384 0.736456
Si Si5 0.246411 0.666121 0.735539
Si Si6 0.614589 0.051305 0.268968
Si Si7 0.180271 0.446997 0.795796
Si Si8 0.184475 0.446316 0.293916
O O1 0.138174 0.720111 0.428234
O O2 0.659497 0.907200 0.676369
O O3 0.756237 0.693030 0.710995
O O4 0.020104 0.752780 0.724891
O O5 0.899179 0.714065 0.357100
O O6 0.489916 0.682351 0.583729
O O7 0.436884 0.892404 0.568415
O O8 0.651604 0.700620 0.285435
O O9 0.278987 0.729832 0.099477
O O10 0.830956 0.907016 0.188124
O O11 0.151349 0.717320 0.918270
O O12 0.251642 0.885779 0.891412
O O13 0.654706 0.482826 0.788408
O O14 0.322698 0.525270 0.705853
O O15 0.976017 0.501681 0.768755
O O16 0.000000 0.500000 0.000000
O O17 0.000000 0.500000 0.500000
#
# Coordination Sequence:
#
# PCOD9072012 Si02
#       8
#     2   2   2   2   2   2   2   2
#     4   9  18  32  51  76 108 141 168 210 270 317
#     4   9  18  32  52  75 103 140 175 207 255 317
#     4  10  20  36  57  78 101 137 186 225 250 302
#     4   9  17  33  54  75 100 137 181 216 250 307
#     4  10  19  32  52  78 108 139 170 215 272 314
#     4   9  20  37  56  75 103 143 182 214 259 316
#     4  10  18  30  50  78 106 134 175 220 257 303
#     4   8  15  29  49  72 103 137 165 201 257 314
#
# _framework density 24.198931999999999
#
# number of rings (size 3 to 8) (size 9 to 14) (size 15 to 20)
#    0.000    2.750    0.000    2.625    0.000    2.500 
#    0.000    4.375    0.000    7.500    0.000    2.625 
#    0.000    0.000    0.000    0.000    0.000    0.000 
#
# Total GULP energy -89194.984748 kJ/mol
# GULP energy per Si atom -5574.686547 kJ/mol
# Density = 2.414385 g / cm^3
# Si number density = 24.198932 Si / 1000 Ang^3
#
#
#
# Elastic Constant Matrix: (Units=GPa)
#
#
# Indices 1 2 3 4 5 6 
#
# 1 87.7085 19.9040 21.9932 9.7165 8.1675 -17.4503
# 2 19.9040 89.8637 43.7649 9.1548 11.1502 -12.3052
# 3 21.9932 43.7649 153.8726 9.7516 17.4608 -4.0091
# 4 9.7165 9.1548 9.7516 45.3115 1.1640 -3.9488
# 5 8.1675 11.1502 17.4608 1.1640 31.6470 -4.6226
# 6 -17.4503 -12.3052 -4.0091 -3.9488 -4.6226 29.2723
#
#
#
# Elastic Compliance Matrix: (Units=1/GPa)
#
#
# Indices 1 2 3 4 5 6 
#
# 1 0.013688 -0.001136 -0.001178 -0.001801 -0.001385 0.007059
# 2 -0.001136 0.014013 -0.003383 -0.001437 -0.002108 0.004224
# 3 -0.001178 -0.003383 0.007995 -0.000847 -0.003123 -0.001637
# 4 -0.001801 -0.001437 -0.000847 0.023033 0.000802 0.001440
# 5 -0.001385 -0.002108 -0.003123 0.000802 0.034901 0.003480
# 6 0.007059 0.004224 -0.001637 0.001440 0.003480 0.040665
#
#
# Mechanical properties :
#
#
# Convention : Reuss Voigt Hill
#
# Bulk Modulus (GPa) = 41.14927 55.86322 48.50624
# Shear Modulus (GPa) = 32.51191 37.63168 35.07179
#
# Velocity S-wave (km/s) = 3.66939 3.94775 3.81111
# Velocity P-wave (km/s) = 5.91558 6.62682 6.28127
#
# Compressibility (1/GPa) = 0.02430177
#
# Stress axis : x y z
#
# Youngs Moduli (GPa) = 73.05893 71.35982 125.07987
#
# Poissons Ratio (x) = 0.08106 0.14735
# Poissons Ratio (y) = 0.08299 0.42315
# Poissons Ratio (z) = 0.08607 0.24141
#
# Static dielectric constant tensor:
#      x y z
#    x 1.947130 -0.004170 -0.018270 
#    y -0.004170 2.015170 -0.021010 
#    z -0.018270 -0.021010 1.984380 
# 
# From -- ./inp_files/205826.got.cif
#   From: 2010.05.17/outbox.cif.g08.bks.cpg/sg2_103_cif.got.tgz:205826.got - 2010.06.03 11:33:40.
