data_PCOD9072060
_publ_section_title
;
Structure prediction by ZEFSAII (Michael W. Deem and Ramdas Pophale) SiO2 
 PCOD9072060
Probable space group: P -1
;
_chemical_formula_sum "Si O2"
_cell_formula_units_Z 14
_cell_length_a 18.030092
_cell_length_b 12.865543
_cell_length_c 5.191035
_cell_angle_alpha 82.067705
_cell_angle_beta 53.365335
_cell_angle_gamma 55.293659
_cell_volume 756.298950
_symmetry_space_group_name_H-M "P -1"
_symmetry_group_IT_number 2
_symmetry_cell_setting 'triclinic'
loop_
_space_group_symop_operation_xyz
x,y,z
-x,-y,-z
loop_
_atom_site_type_symbol
_atom_site_label
_atom_site_fract_x
_atom_site_fract_y
_atom_site_fract_z
Si Si1 0.399806 0.901625 0.788833
Si Si2 0.962256 0.118370 0.842593
Si Si3 0.463879 0.146990 0.989604
Si Si4 0.055177 0.406988 0.167495
Si Si5 0.178888 0.947439 0.067852
Si Si6 0.081379 0.198017 0.868447
Si Si7 0.746582 0.790762 0.860662
O O1 0.463813 0.859301 0.398327
O O2 0.493777 0.826429 0.848084
O O3 0.296925 0.887438 0.997147
O O4 0.334719 0.059345 0.911711
O O5 0.973221 0.218536 0.940607
O O6 0.843888 0.154142 0.954255
O O7 0.065043 0.050221 0.442243
O O8 0.000000 0.000000 0.000000
O O9 0.329673 0.232995 0.150326
O O10 0.500000 0.000000 0.000000
O O11 0.192108 0.311104 0.994205
O O12 0.000000 0.500000 0.500000
O O13 0.039009 0.295599 0.165861
O O14 0.000000 0.500000 0.000000
O O15 0.167614 0.044701 0.836791
O O16 0.155521 0.220224 0.515122
#
# Coordination Sequence:
#
# PCOD9072060 Si02
#       7
#     2   2   2   2   2   2   2
#     4  11  20  32  51  76 107 142 177 208 253 314
#     4   9  19  30  48  75 102 147 176 206 266 325
#     4  10  22  30  49  76 102 142 184 203 250 320
#     4  12  25  36  53  76 101 144 190 225 264 310
#     4  10  18  30  51  76 107 144 176 210 260 322
#     4  11  19  35  54  70 109 144 176 219 268 306
#     4  11  21  35  53  71 111 144 178 219 261 301
#
# _framework density 18.511199000000001
#
# number of rings (size 3 to 8) (size 9 to 14) (size 15 to 20)
#    0.000    1.429    4.286    3.429    4.000    0.000 
#    0.000    0.000    0.000    0.000    0.000    0.000 
#    0.000    6.857    0.000    0.000    0.000    0.000 
#
# Total GULP energy -78007.182481 kJ/mol
# GULP energy per Si atom -5571.941606 kJ/mol
# Density = 1.846907 g / cm^3
# Si number density = 18.511199 Si / 1000 Ang^3
#
#
#
# Elastic Constant Matrix: (Units=GPa)
#
#
# Indices 1 2 3 4 5 6 
#
# 1 196.6652 34.9980 26.3611 -6.1692 -11.0911 -1.1481
# 2 34.9980 34.4173 16.2951 0.2398 -2.7865 -8.8523
# 3 26.3611 16.2951 60.4905 -15.8425 7.9196 -0.1649
# 4 -6.1692 0.2398 -15.8425 17.1234 3.7830 10.0197
# 5 -11.0911 -2.7865 7.9196 3.7830 33.3290 -4.3771
# 6 -1.1481 -8.8523 -0.1649 10.0197 -4.3771 32.9678
#
#
#
# Elastic Compliance Matrix: (Units=1/GPa)
#
#
# Indices 1 2 3 4 5 6 
#
# 1 0.006544 -0.007489 0.000185 0.004242 0.000634 -0.002987
# 2 -0.007489 0.064954 -0.033585 -0.062708 0.023178 0.039148
# 3 0.000185 -0.033585 0.046964 0.069242 -0.026137 -0.033291
# 4 0.004242 -0.062708 0.069242 0.182132 -0.051268 -0.078505
# 5 0.000634 0.023178 -0.026137 -0.051268 0.047867 0.028052
# 6 -0.002987 0.039148 -0.033291 -0.078505 0.028052 0.068158
#
#
# Mechanical properties :
#
#
# Convention : Reuss Voigt Hill
#
# Bulk Modulus (GPa) = 27.25918 49.65345 38.45632
# Shear Modulus (GPa) = 9.79198 30.94529 20.36863
#
# Velocity S-wave (km/s) = 2.30244 4.09309 3.32074
# Velocity P-wave (km/s) = 4.67184 7.01566 5.96010
#
# Compressibility (1/GPa) = 0.03668488
#
# Stress axis : x y z
#
# Youngs Moduli (GPa) = 152.81251 15.39563 21.29298
#
# Poissons Ratio (x) = 0.11529 -0.00395
# Poissons Ratio (y) = 1.14436 0.71512
# Poissons Ratio (z) = -0.02832 0.51706
#
# Static dielectric constant tensor:
#      x y z
#    x 1.762930 -0.009070 0.063950 
#    y -0.009070 1.658860 -0.025690 
#    z 0.063950 -0.025690 1.828470 
# 
# From -- ./inp_files/109015.got.cif
#   From: 2010.05.17/outbox.cif.g08.bks.cpg/sg2_55_cif.got.tgz:109015.got - 2010.06.03 11:33:40.
