data_PCOD9072525
_publ_section_title
;
Structure prediction by ZEFSAII (Michael W. Deem and Ramdas Pophale) SiO2 
 PCOD9072525
Probable space group: P -1
;
_chemical_formula_sum "Si O2"
_cell_formula_units_Z 14
_cell_length_a 9.000000
_cell_length_b 24.000000
_cell_length_c 12.000000
_cell_angle_alpha 30.000000
_cell_angle_beta 40.000000
_cell_angle_gamma 30.000000
_cell_volume 646.664136
_symmetry_space_group_name_H-M "P -1"
_symmetry_group_IT_number 2
_symmetry_cell_setting 'triclinic'
loop_
_space_group_symop_operation_xyz
x,y,z
-x,-y,-z
loop_
_atom_site_type_symbol
_atom_site_label
_atom_site_fract_x
_atom_site_fract_y
_atom_site_fract_z
Si Si1 0.134995 0.716352 0.751900
Si Si2 0.750394 0.277755 0.973486
Si Si3 0.142089 0.095450 0.858412
Si Si4 0.802250 0.947001 0.717145
Si Si5 0.749833 0.199045 0.694371
Si Si6 0.697952 0.587280 0.816000
Si Si7 0.843521 0.498685 0.480596
O O1 0.187849 0.763159 0.525298
O O2 0.414084 0.655122 0.780243
O O3 0.852919 0.857270 0.732524
O O4 0.143035 0.580974 0.965205
O O5 0.709867 0.420894 0.727785
O O6 0.875671 0.192217 0.933492
O O7 0.458577 0.325652 0.128521
O O8 0.034510 0.171046 0.074881
O O9 0.996290 0.159378 0.711285
O O10 0.453795 0.068965 0.734613
O O11 0.240189 0.936899 0.086404
O O12 0.000000 0.000000 0.500000
O O13 0.425107 0.338070 0.678513
O O14 0.932476 0.582910 0.611686
O O15 0.000000 0.500000 0.500000
#
# Coordination Sequence:
#
# PCOD9072525 Si02
#       7
#     2   2   2   2   2   2   2
#     4  10  19  38  63  95 130 165 223 276 327 387
#     4  11  24  41  67  99 132 169 228 282 333 388
#     4  11  26  43  63  96 139 183 219 268 338 406
#     4  11  24  40  68  98 132 173 226 281 333 391
#     4  11  23  44  67  94 137 181 221 270 338 402
#     4  10  20  37  64 105 127 161 224 282 330 387
#     4  12  21  39  74  97 130 175 223 281 328 389
#
# _framework density 21.649569
#
# number of rings (size 3 to 8) (size 9 to 14) (size 15 to 20)
#    0.000    1.143    2.857    4.714    4.000    1.143 
#    0.000    2.143    0.000    0.000    0.000    0.000 
#    0.000    0.000    0.000    0.000    0.000    0.000 
#
# Total GULP energy -78240.879151 kJ/mol
# GULP energy per Si atom -5588.634225 kJ/mol
# Density = 2.160029 g / cm^3
# Si number density = 21.649569 Si / 1000 Ang^3
#
#
#
# Elastic Constant Matrix: (Units=GPa)
#
#
# Indices 1 2 3 4 5 6 
#
# 1 35.1165 16.2860 26.7842 -2.0799 7.9125 5.9033
# 2 16.2860 111.8772 41.4586 -0.3025 6.1009 25.6709
# 3 26.7842 41.4586 83.7890 6.5548 19.2965 -0.1548
# 4 -2.0799 -0.3025 6.5548 47.6911 3.2820 7.4006
# 5 7.9125 6.1009 19.2965 3.2820 17.2833 3.6631
# 6 5.9033 25.6709 -0.1548 7.4006 3.6631 27.3124
#
#
#
# Elastic Compliance Matrix: (Units=1/GPa)
#
#
# Indices 1 2 3 4 5 6 
#
# 1 0.041250 0.002275 -0.014281 0.005857 -0.002222 -0.012424
# 2 0.002275 0.016537 -0.011299 0.003998 0.008871 -0.018372
# 3 -0.014281 -0.011299 0.028012 -0.005808 -0.023588 0.018603
# 4 0.005857 0.003998 -0.005808 0.023818 0.000317 -0.011553
# 5 -0.002222 0.008871 -0.023588 0.000317 0.086182 -0.019636
# 6 -0.012424 -0.018372 0.018603 -0.011553 -0.019636 0.062436
#
#
# Mechanical properties :
#
#
# Convention : Reuss Voigt Hill
#
# Bulk Modulus (GPa) = 25.51794 44.42670 34.97232
# Shear Modulus (GPa) = 15.72778 28.20764 21.96771
#
# Velocity S-wave (km/s) = 2.69824 3.61351 3.18888
# Velocity P-wave (km/s) = 4.63893 6.16241 5.45413
#
# Compressibility (1/GPa) = 0.03918812
#
# Stress axis : x y z
#
# Youngs Moduli (GPa) = 24.24216 60.47047 35.69913
#
# Poissons Ratio (x) = -0.13759 0.50983
# Poissons Ratio (y) = -0.05516 0.40338
# Poissons Ratio (z) = 0.34621 0.68328
#
# Static dielectric constant tensor:
#      x y z
#    x 1.781060 0.035900 -0.028530 
#    y 0.035900 1.835940 0.002780 
#    z -0.028530 0.002780 1.789450 
# 
# From -- ./inp_files/285114.got.cif
#   From: 2010.05.17/outbox.ucp.g08.bks.cvg/sg2_143_cif.got.tgz:285114.got - 2010.06.11 11:32:03.
