data_PCOD9072443
_publ_section_title
;
Structure prediction by ZEFSAII (Michael W. Deem and Ramdas Pophale) SiO2 
 PCOD9072443
Probable space group: P -1
;
_chemical_formula_sum "Si O2"
_cell_formula_units_Z 16
_cell_length_a 7.233517
_cell_length_b 5.842273
_cell_length_c 21.796867
_cell_angle_alpha 66.349644
_cell_angle_beta 116.806244
_cell_angle_gamma 124.101560
_cell_volume 666.929651
_symmetry_space_group_name_H-M "P -1"
_symmetry_group_IT_number 2
_symmetry_cell_setting 'triclinic'
loop_
_space_group_symop_operation_xyz
x,y,z
-x,-y,-z
loop_
_atom_site_type_symbol
_atom_site_label
_atom_site_fract_x
_atom_site_fract_y
_atom_site_fract_z
Si Si1 0.946962 0.155898 0.825117
Si Si2 0.939657 0.644201 0.920051
Si Si3 0.296398 0.684522 0.414306
Si Si4 0.176907 0.710639 0.817906
Si Si5 0.191236 0.263799 0.539375
Si Si6 0.572872 0.824867 0.701493
Si Si7 0.588353 0.315086 0.809139
Si Si8 0.907225 0.158396 0.335359
O O1 0.817133 0.330512 0.809343
O O2 0.192335 0.433592 0.823526
O O3 0.957414 0.950505 0.899860
O O4 0.792839 0.981185 0.764177
O O5 0.682726 0.450160 0.874923
O O6 0.109951 0.701113 0.880747
O O7 0.000000 0.500000 0.000000
O O8 0.213647 0.556645 0.484061
O O9 0.550553 0.703365 0.438047
O O10 0.108418 0.438248 0.368459
O O11 0.341563 0.997241 0.367978
O O12 0.055209 0.805903 0.735142
O O13 0.424603 0.988069 0.824125
O O14 0.117725 0.136479 0.610007
O O15 0.000000 0.000000 0.500000
O O16 0.507748 0.498567 0.734843
O O17 0.343583 0.850755 0.685947
#
# Coordination Sequence:
#
# PCOD9072443 Si02
#       8
#     2   2   2   2   2   2   2   2
#     4  10  21  40  61  86 120 154 198 250 297 358
#     4  10  25  44  62  88 122 156 197 247 301 364
#     4   9  16  30  53  84 124 164 199 243 303 346
#     4  11  22  36  62  91 116 158 199 244 304 357
#     4   8  16  28  48  87 122 164 203 240 295 357
#     4  10  19  33  58  86 119 156 201 252 294 354
#     4  10  23  38  61  90 118 156 206 249 298 359
#     4  10  18  30  57  87 121 155 202 252 297 354
#
# _framework density 23.990535999999999
#
# number of rings (size 3 to 8) (size 9 to 14) (size 15 to 20)
#    0.000    2.250    2.500    0.000    1.750    3.500 
#    0.000    1.250    0.000    0.750    0.000   20.125 
#    0.000    0.000    0.000    0.000    0.000    0.000 
#
# Total GULP energy -89169.521770 kJ/mol
# GULP energy per Si atom -5573.095111 kJ/mol
# Density = 2.393593 g / cm^3
# Si number density = 23.990536 Si / 1000 Ang^3
#
#
#
# Elastic Constant Matrix: (Units=GPa)
#
#
# Indices 1 2 3 4 5 6 
#
# 1 72.3558 2.2891 44.8723 -9.1664 -4.0878 9.8187
# 2 2.2891 81.1789 43.4337 -11.2206 15.9840 19.6937
# 3 44.8723 43.4337 180.2182 -42.9695 -2.4755 13.6552
# 4 -9.1664 -11.2206 -42.9695 36.3332 -1.4690 2.1869
# 5 -4.0878 15.9840 -2.4755 -1.4690 29.9609 -5.3074
# 6 9.8187 19.6937 13.6552 2.1869 -5.3074 25.4390
#
#
#
# Elastic Compliance Matrix: (Units=1/GPa)
#
#
# Indices 1 2 3 4 5 6 
#
# 1 0.017705 0.004451 -0.004726 0.000672 -0.001764 -0.008168
# 2 0.004451 0.023250 -0.004478 0.003631 -0.015691 -0.020899
# 3 -0.004726 -0.004478 0.010157 0.009580 0.002989 -0.000361
# 4 0.000672 0.003631 0.009580 0.040817 -0.001172 -0.011966
# 5 -0.001764 -0.015691 0.002989 -0.001172 0.045380 0.020792
# 6 -0.008168 -0.020899 -0.000361 -0.011966 0.020792 0.064202
#
#
# Mechanical properties :
#
#
# Convention : Reuss Voigt Hill
#
# Bulk Modulus (GPa) = 24.03472 57.21592 40.62532
# Shear Modulus (GPa) = 22.23350 34.55714 28.39532
#
# Velocity S-wave (km/s) = 3.04758 3.79944 3.44409
# Velocity P-wave (km/s) = 4.73538 6.56878 5.72593
#
# Compressibility (1/GPa) = 0.04160648
#
# Stress axis : x y z
#
# Youngs Moduli (GPa) = 56.48240 43.01019 98.45030
#
# Poissons Ratio (x) = -0.19144 0.46527
# Poissons Ratio (y) = -0.25141 0.44086
# Poissons Ratio (z) = 0.26694 0.19260
#
# Static dielectric constant tensor:
#      x y z
#    x 1.999780 0.077210 0.031860 
#    y 0.077210 2.171670 -0.026210 
#    z 0.031860 -0.026210 1.912490 
# 
# From -- ./inp_files/115858.got.cif
#   From: 2010.05.17/outbox.cif.g08.bks.cpg/sg2_58_cif.got.tgz:115858.got - 2010.06.03 11:33:40.
