data_PCOD9072036
_publ_section_title
;
Structure prediction by ZEFSAII (Michael W. Deem and Ramdas Pophale) SiO2 
 PCOD9072036
Probable space group: P -1
;
_chemical_formula_sum "Si O2"
_cell_formula_units_Z 16
_cell_length_a 6.580625
_cell_length_b 12.794847
_cell_length_c 7.969314
_cell_angle_alpha 111.067465
_cell_angle_beta 102.054570
_cell_angle_gamma 80.177616
_cell_volume 608.978932
_symmetry_space_group_name_H-M "P -1"
_symmetry_group_IT_number 2
_symmetry_cell_setting 'triclinic'
loop_
_space_group_symop_operation_xyz
x,y,z
-x,-y,-z
loop_
_atom_site_type_symbol
_atom_site_label
_atom_site_fract_x
_atom_site_fract_y
_atom_site_fract_z
Si Si1 0.545958 0.657778 0.186613
Si Si2 0.185594 0.757273 0.952502
Si Si3 0.131667 0.520449 0.726294
Si Si4 0.466753 0.206136 0.382583
Si Si5 0.813084 0.808540 0.141363
Si Si6 0.303028 0.432260 0.374570
Si Si7 0.151859 0.887386 0.445575
Si Si8 0.601658 0.043457 0.799774
O O1 0.314718 0.691525 0.092628
O O2 0.664089 0.534513 0.167350
O O3 0.562502 0.732359 0.403341
O O4 0.682869 0.706128 0.093002
O O5 0.293202 0.871976 0.007016
O O6 0.954130 0.802786 0.998928
O O7 0.165636 0.650688 0.769264
O O8 0.166248 0.440258 0.525140
O O9 0.891098 0.521171 0.753260
O O10 0.397698 0.303928 0.295986
O O11 0.712255 0.163470 0.407206
O O12 0.361147 0.091280 0.268315
O O13 0.644027 0.916913 0.196704
O O14 0.988252 0.803206 0.312777
O O15 0.500000 0.500000 0.500000
O O16 0.310339 0.919580 0.343712
O O17 0.000000 0.000000 0.500000
#
# Coordination Sequence:
#
# PCOD9072036 Si02
#       8
#     2   2   2   2   2   2   2   2
#     4  10  20  33  58  87 121 152 187 238 293 339
#     4  10  21  35  57  89 121 152 182 233 298 352
#     4  10  23  43  59  81 115 150 203 244 280 340
#     4  11  19  36  57  84 123 146 193 238 279 344
#     4  10  18  30  50  89 121 151 180 215 300 353
#     4  10  25  44  62  81 105 157 204 246 283 325
#     4  11  18  28  53  86 122 151 178 230 294 344
#     4  10  20  34  52  92 123 151 178 232 294 353
#
# _framework density 26.273486999999999
#
# number of rings (size 3 to 8) (size 9 to 14) (size 15 to 20)
#    0.000    1.750    5.000    1.500    1.750    2.500 
#    2.250    0.625    0.000    1.500    0.000    0.000 
#    0.000    0.000    0.000    0.000    0.000    0.000 
#
# Total GULP energy -89137.892911 kJ/mol
# GULP energy per Si atom -5571.118307 kJ/mol
# Density = 2.621369 g / cm^3
# Si number density = 26.273487 Si / 1000 Ang^3
#
#
#
# Elastic Constant Matrix: (Units=GPa)
#
#
# Indices 1 2 3 4 5 6 
#
# 1 132.3434 50.5296 28.3725 0.3125 13.7665 -41.7969
# 2 50.5296 128.8347 40.1923 28.9629 3.8692 -29.5223
# 3 28.3725 40.1923 105.5059 15.2015 14.1473 -7.6071
# 4 0.3125 28.9629 15.2015 46.4372 -3.3630 4.2007
# 5 13.7665 3.8692 14.1473 -3.3630 32.0651 3.1583
# 6 -41.7969 -29.5223 -7.6071 4.2007 3.1583 37.7345
#
#
#
# Elastic Compliance Matrix: (Units=1/GPa)
#
#
# Indices 1 2 3 4 5 6 
#
# 1 0.013524 -0.001312 -0.001111 -0.000690 -0.006645 0.014363
# 2 -0.001312 0.013146 -0.002551 -0.008327 -0.001695 0.009387
# 3 -0.001111 -0.002551 0.011726 -0.002558 -0.004638 -0.000190
# 4 -0.000690 -0.008327 -0.002558 0.029098 0.006623 -0.011588
# 5 -0.006645 -0.001695 -0.004638 0.006623 0.038321 -0.013566
# 6 0.014363 0.009387 -0.000190 -0.011588 -0.013566 0.052141
#
#
# Mechanical properties :
#
#
# Convention : Reuss Voigt Hill
#
# Bulk Modulus (GPa) = 35.15278 67.20808 51.18043
# Shear Modulus (GPa) = 28.18695 39.75334 33.97015
#
# Velocity S-wave (km/s) = 3.27896 3.89403 3.59965
# Velocity P-wave (km/s) = 5.26726 6.77153 6.06621
#
# Compressibility (1/GPa) = 0.02844725
#
# Stress axis : x y z
#
# Youngs Moduli (GPa) = 73.94252 76.06784 85.28240
#
# Poissons Ratio (x) = 0.09978 0.09477
# Poissons Ratio (y) = 0.09700 0.21758
# Poissons Ratio (z) = 0.08217 0.19407
#
# Static dielectric constant tensor:
#      x y z
#    x 2.088310 -0.045440 0.042570 
#    y -0.045440 2.112860 -0.056510 
#    z 0.042570 -0.056510 2.266700 
# 
# From -- ./inp_files/93352.got.cif
#   From: 2010.05.17/outbox.cif.g08.bks.cpg/sg2_47_cif.got.tgz:93352.got - 2010.06.03 11:33:40.
