data_PCOD9072918
_publ_section_title
;
Structure prediction by ZEFSAII (Michael W. Deem and Ramdas Pophale) SiO2 
 PCOD9072918
Probable space group: P -1
;
_chemical_formula_sum "Si O2"
_cell_formula_units_Z 16
_cell_length_a 15.000000
_cell_length_b 12.000000
_cell_length_c 9.000000
_cell_angle_alpha 40.000000
_cell_angle_beta 50.000000
_cell_angle_gamma 70.000000
_cell_volume 759.581896
_symmetry_space_group_name_H-M "P -1"
_symmetry_group_IT_number 2
_symmetry_cell_setting 'triclinic'
loop_
_space_group_symop_operation_xyz
x,y,z
-x,-y,-z
loop_
_atom_site_type_symbol
_atom_site_label
_atom_site_fract_x
_atom_site_fract_y
_atom_site_fract_z
Si Si1 0.141329 0.121133 0.710906
Si Si2 0.290863 0.210178 0.177797
Si Si3 0.878233 0.505374 0.542544
Si Si4 0.525657 0.126957 0.991827
Si Si5 0.706949 0.432036 0.312282
Si Si6 0.824261 0.118300 0.551490
Si Si7 0.059236 0.367371 0.983518
Si Si8 0.257187 0.881745 0.032432
O O1 0.181003 0.126449 0.492919
O O2 0.164242 0.332521 0.509647
O O3 0.221805 0.032031 0.820106
O O4 0.000000 0.000000 0.000000
O O5 0.252635 0.086035 0.197207
O O6 0.405334 0.148655 0.171171
O O7 0.325156 0.430338 0.909331
O O8 0.781068 0.305769 0.829930
O O9 0.000000 0.500000 0.500000
O O10 0.923561 0.574209 0.261440
O O11 0.598293 0.325396 0.644734
O O12 0.609010 0.072229 0.082578
O O13 0.500000 0.000000 0.000000
O O14 0.765737 0.266870 0.383115
O O15 0.809212 0.585385 0.134763
O O16 0.821837 0.152403 0.695285
O O17 0.964017 0.170085 0.300564
O O18 0.000000 0.500000 0.000000
#
# Coordination Sequence:
#
# PCOD9072918 Si02
#       8
#     2   2   2   2   2   2   2   2
#     4  12  29  44  67 107 146 189 230 275 360 432
#     4  12  26  43  71 106 137 187 239 284 347 424
#     4  12  24  43  66  95 149 186 215 289 354 420
#     4  11  22  49  75 103 136 182 239 306 348 392
#     4  10  22  39  70 102 135 168 233 299 348 396
#     4  10  22  40  69 105 134 177 232 298 352 398
#     4  10  20  38  67 100 131 174 235 282 354 406
#     4  11  24  46  69  99 142 180 233 288 349 410
#
# _framework density 21.064219999999999
#
# number of rings (size 3 to 8) (size 9 to 14) (size 15 to 20)
#    0.000    1.000    7.500    1.125    7.000    1.000 
#    2.250    0.625    0.000    0.000    0.000    0.000 
#    0.000    0.000    0.000    0.000    0.000    0.000 
#
# Total GULP energy -89144.378675 kJ/mol
# GULP energy per Si atom -5571.523667 kJ/mol
# Density = 2.101628 g / cm^3
# Si number density = 21.064220 Si / 1000 Ang^3
#
#
#
# Elastic Constant Matrix: (Units=GPa)
#
#
# Indices 1 2 3 4 5 6 
#
# 1 74.9988 37.8801 -8.0286 -25.4034 0.7462 -8.6136
# 2 37.8801 97.7462 28.6680 -24.4502 4.8664 -4.0079
# 3 -8.0286 28.6680 1.8981 -16.6847 -16.5032 -41.5732
# 4 -25.4034 -24.4502 -16.6847 41.7954 -6.4571 6.1214
# 5 0.7462 4.8664 -16.5032 -6.4571 29.1497 -13.7818
# 6 -8.6136 -4.0079 -41.5732 6.1214 -13.7818 7.4077
#
#
#
# Elastic Compliance Matrix: (Units=1/GPa)
#
#
# Indices 1 2 3 4 5 6 
#
# 1 0.016839 -0.004113 -0.002349 0.007570 -0.003168 -0.007976
# 2 -0.004113 0.012971 0.000658 0.004751 0.002595 0.006832
# 3 -0.002349 0.000658 0.000042 0.000428 -0.009224 -0.019655
# 4 0.007570 0.004751 0.000428 0.033383 0.000996 -0.011959
# 5 -0.003168 0.002595 -0.009224 0.000996 0.025006 -0.008346
# 6 -0.007976 0.006832 -0.019655 -0.011959 -0.008346 0.013466
#
#
# Mechanical properties :
#
#
# Convention : Reuss Voigt Hill
#
# Bulk Modulus (GPa) = 54.80817 32.40911 43.60864
# Shear Modulus (GPa) = 41.87804 23.41213 32.64508
#
# Velocity S-wave (km/s) = 4.46366 3.33748 3.94101
# Velocity P-wave (km/s) = 7.25546 5.50191 6.43866
#
# Compressibility (1/GPa) = 0.01824546
#
# Stress axis : x y z
#
# Youngs Moduli (GPa) = 59.38640 77.09686 23925.29996
#
# Poissons Ratio (x) = 0.31707 56.19211
# Poissons Ratio (y) = 0.24423 -15.74920
# Poissons Ratio (z) = 0.13948 -0.05075
#
# Static dielectric constant tensor:
#      x y z
#    x 1.644950 -0.072030 -0.048180 
#    y -0.072030 1.725450 0.016030 
#    z -0.048180 0.016030 1.763190 
# 
# From -- ./inp_files/306165.got.cif
#   From: 2010.05.17/outbox.ucp.g08.bks.cvg/sg2_154_cif.got.tgz:306165.got - 2010.06.11 11:32:03.
