data_PCOD9072377
_publ_section_title
;
Structure prediction by ZEFSAII (Michael W. Deem and Ramdas Pophale) SiO2 
 PCOD9072377
Probable space group: P -1
;
_chemical_formula_sum "Si O2"
_cell_formula_units_Z 16
_cell_length_a 14.467147
_cell_length_b 8.600893
_cell_length_c 8.745292
_cell_angle_alpha 97.301803
_cell_angle_beta 36.212266
_cell_angle_gamma 107.597987
_cell_volume 599.452676
_symmetry_space_group_name_H-M "P -1"
_symmetry_group_IT_number 2
_symmetry_cell_setting 'triclinic'
loop_
_space_group_symop_operation_xyz
x,y,z
-x,-y,-z
loop_
_atom_site_type_symbol
_atom_site_label
_atom_site_fract_x
_atom_site_fract_y
_atom_site_fract_z
Si Si1 0.215178 0.615866 0.576363
Si Si2 0.990209 0.754600 0.076100
Si Si3 0.794928 0.217370 0.937859
Si Si4 0.106216 0.238388 0.337928
Si Si5 0.453215 0.111250 0.306033
Si Si6 0.560673 0.344877 0.435523
Si Si7 0.858885 0.977255 0.443569
Si Si8 0.382713 0.560997 0.057718
O O1 0.378018 0.670238 0.476551
O O2 0.267671 0.621872 0.332790
O O3 0.121726 0.422579 0.724721
O O4 0.085715 0.708644 0.803174
O O5 0.135656 0.843016 0.013970
O O6 0.882701 0.873480 0.249940
O O7 0.948231 0.276879 0.626418
O O8 0.630414 0.082364 0.070417
O O9 0.728340 0.358167 0.115157
O O10 0.160986 0.137636 0.390138
O O11 0.260093 0.400307 0.116132
O O12 0.023158 0.126763 0.290566
O O13 0.437002 0.169989 0.509293
O O14 0.306974 0.989750 0.386211
O O15 0.501197 0.288106 0.176119
O O16 0.500000 0.500000 0.500000
O O17 0.500000 0.500000 0.000000
#
# Coordination Sequence:
#
# PCOD9072377 Si02
#       8
#     2   2   2   2   2   2   2   2
#     4  10  18  30  56  78 111 139 178 229 265 315
#     4   9  16  33  53  79 104 140 190 221 258 314
#     4   8  18  32  46  80 107 137 173 224 263 315
#     4  10  20  34  53  79 110 146 184 218 266 321
#     4  10  21  33  53  85 114 136 175 227 283 312
#     4   9  17  30  49  80 109 141 175 222 268 319
#     4  10  18  35  57  79 104 149 188 219 256 328
#     4  12  20  34  54  86 112 137 175 230 277 319
#
# _framework density 26.691016000000001
#
# number of rings (size 3 to 8) (size 9 to 14) (size 15 to 20)
#    0.750    1.500    3.750    1.500    0.000    1.000 
#    0.000    0.000    0.000    0.750    3.250   10.500 
#    0.000    0.000    0.000    0.000    0.000    0.000 
#
# Total GULP energy -89361.655885 kJ/mol
# GULP energy per Si atom -5585.103493 kJ/mol
# Density = 2.663027 g / cm^3
# Si number density = 26.691016 Si / 1000 Ang^3
#
#
#
# Elastic Constant Matrix: (Units=GPa)
#
#
# Indices 1 2 3 4 5 6 
#
# 1 89.9090 15.9180 0.5184 -27.6448 -20.4631 22.3948
# 2 15.9180 112.4212 45.7781 -18.7701 5.3891 31.5830
# 3 0.5184 45.7781 73.4612 0.5165 -14.6644 2.6348
# 4 -27.6448 -18.7701 0.5165 57.0248 2.7180 -7.6326
# 5 -20.4631 5.3891 -14.6644 2.7180 40.2015 -15.2047
# 6 22.3948 31.5830 2.6348 -7.6326 -15.2047 37.7276
#
#
#
# Elastic Compliance Matrix: (Units=1/GPa)
#
#
# Indices 1 2 3 4 5 6 
#
# 1 0.015995 -0.000942 0.001942 0.006460 0.006713 -0.004829
# 2 -0.000942 0.028369 -0.021404 0.006189 -0.023880 -0.030066
# 3 0.001942 -0.021404 0.030986 -0.004396 0.024356 0.023527
# 4 0.006460 0.006189 -0.004396 0.022163 -0.002644 -0.005290
# 5 0.006713 -0.023880 0.024356 -0.002644 0.053994 0.035530
# 6 -0.004829 -0.030066 0.023527 -0.005290 0.035530 0.066147
#
#
# Mechanical properties :
#
#
# Convention : Reuss Voigt Hill
#
# Bulk Modulus (GPa) = 28.95012 44.46894 36.70953
# Shear Modulus (GPa) = 18.52017 41.22925 29.87471
#
# Velocity S-wave (km/s) = 2.63700 3.93451 3.34919
# Velocity P-wave (km/s) = 4.48795 6.11043 5.36092
#
# Compressibility (1/GPa) = 0.03454217
#
# Stress axis : x y z
#
# Youngs Moduli (GPa) = 62.51947 35.24992 32.27272
#
# Poissons Ratio (x) = 0.03322 -0.06268
# Poissons Ratio (y) = 0.05892 0.69076
# Poissons Ratio (z) = -0.12143 0.75448
#
# Static dielectric constant tensor:
#      x y z
#    x 2.143250 0.022500 -0.038190 
#    y 0.022500 2.137030 0.025060 
#    z -0.038190 0.025060 2.120340 
# 
# From -- ./inp_files/463942.got.cif
#   From: 2010.05.17/outbox.cif.g08.bks.cpg/sg2_232_cif.got.tgz:463942.got - 2010.06.03 11:33:40.
