data_PCOD9072324
_publ_section_title
;
Structure prediction by ZEFSAII (Michael W. Deem and Ramdas Pophale) SiO2 
 PCOD9072324
Probable space group: P -1
;
_chemical_formula_sum "Si O2"
_cell_formula_units_Z 16
_cell_length_a 12.768976
_cell_length_b 15.875244
_cell_length_c 12.445846
_cell_angle_alpha 45.084540
_cell_angle_beta 36.427763
_cell_angle_gamma 32.495944
_cell_volume 801.870053
_symmetry_space_group_name_H-M "P -1"
_symmetry_group_IT_number 2
_symmetry_cell_setting 'triclinic'
loop_
_space_group_symop_operation_xyz
x,y,z
-x,-y,-z
loop_
_atom_site_type_symbol
_atom_site_label
_atom_site_fract_x
_atom_site_fract_y
_atom_site_fract_z
Si Si1 0.363604 0.948194 0.421401
Si Si2 0.656075 0.772793 0.753072
Si Si3 0.108472 0.057890 0.927107
Si Si4 0.056695 0.858737 0.775978
Si Si5 0.391338 0.881671 0.214906
Si Si6 0.131485 0.346467 0.103606
Si Si7 0.311766 0.178203 0.542395
Si Si8 0.267023 0.668900 0.575716
O O1 0.437805 0.909661 0.270982
O O2 0.566783 0.822142 0.451653
O O3 0.154524 0.949190 0.607132
O O4 0.291372 0.112623 0.364465
O O5 0.790523 0.643167 0.851703
O O6 0.731926 0.718166 0.616360
O O7 0.373555 0.896862 0.880595
O O8 0.113007 0.176695 0.746799
O O9 0.984447 0.144791 0.062398
O O10 0.000000 0.000000 0.000000
O O11 0.236142 0.700625 0.701186
O O12 0.814597 0.960043 0.819605
O O13 0.294157 0.789763 0.396134
O O14 0.625179 0.785473 0.039187
O O15 0.954684 0.313088 0.290711
O O16 0.000000 0.500000 0.000000
O O17 0.500000 0.000000 0.500000
O O18 0.500000 0.500000 0.500000
#
# Coordination Sequence:
#
# PCOD9072324 Si02
#       8
#     2   2   2   2   2   2   2   2
#     4   9  18  33  56  84 121 147 184 249 302 357
#     4  10  19  35  54  84 120 152 197 243 299 358
#     4  10  18  30  54  92 122 147 192 249 303 359
#     4  11  20  34  59  92 121 153 199 252 303 358
#     4  11  22  38  58  93 116 155 203 250 308 359
#     4  12  24  39  61  82 120 164 206 245 302 361
#     4   8  17  31  49  80 117 152 186 233 306 356
#     4  11  24  40  56  86 125 161 200 244 303 365
#
# _framework density 19.953357
#
# number of rings (size 3 to 8) (size 9 to 14) (size 15 to 20)
#    0.000    2.000    2.500    5.250    3.500    1.000 
#    0.000    0.000    0.000    0.750    0.000    4.375 
#    0.000    0.000    0.000    0.000    0.000    0.000 
#
# Total GULP energy -89215.170053 kJ/mol
# GULP energy per Si atom -5575.948128 kJ/mol
# Density = 1.990794 g / cm^3
# Si number density = 19.953357 Si / 1000 Ang^3
#
#
#
# Elastic Constant Matrix: (Units=GPa)
#
#
# Indices 1 2 3 4 5 6 
#
# 1 141.1234 23.6949 53.5318 2.5685 16.8962 -8.0389
# 2 23.6949 40.6943 22.8146 4.9557 7.2986 -4.0943
# 3 53.5318 22.8146 128.1600 18.5946 13.4535 -1.8308
# 4 2.5685 4.9557 18.5946 23.1606 3.3257 6.8546
# 5 16.8962 7.2986 13.4535 3.3257 49.8299 -3.5914
# 6 -8.0389 -4.0943 -1.8308 6.8546 -3.5914 20.4626
#
#
#
# Elastic Compliance Matrix: (Units=1/GPa)
#
#
# Indices 1 2 3 4 5 6 
#
# 1 0.009166 -0.003238 -0.003355 0.002140 -0.001753 0.001628
# 2 -0.003238 0.029603 -0.002915 -0.005110 -0.001691 0.005805
# 3 -0.003355 -0.002915 0.011023 -0.008258 -0.000736 0.001722
# 4 0.002140 -0.005110 -0.008258 0.057203 -0.003051 -0.020618
# 5 -0.001753 -0.001691 -0.000736 -0.003051 0.021581 0.003717
# 6 0.001628 0.005805 0.001722 -0.020618 0.003717 0.058384
#
#
# Mechanical properties :
#
#
# Convention : Reuss Voigt Hill
#
# Bulk Modulus (GPa) = 32.49458 56.67337 44.58398
# Shear Modulus (GPa) = 23.12280 32.68638 27.90459
#
# Velocity S-wave (km/s) = 3.40787 4.05178 3.74370
# Velocity P-wave (km/s) = 5.63963 7.09605 6.40934
#
# Compressibility (1/GPa) = 0.03077436
#
# Stress axis : x y z
#
# Youngs Moduli (GPa) = 109.09603 33.78019 90.71700
#
# Poissons Ratio (x) = 0.10939 0.30439
# Poissons Ratio (y) = 0.35330 0.26447
# Poissons Ratio (z) = 0.36606 0.09848
#
# Static dielectric constant tensor:
#      x y z
#    x 1.759450 -0.023290 0.044960 
#    y -0.023290 1.728080 -0.043200 
#    z 0.044960 -0.043200 1.800530 
# 
# From -- ./inp_files/417282.got.cif
#   From: 2010.05.17/outbox.cif.g08.bks.cpg/sg2_209_cif.got.tgz:417282.got - 2010.06.03 11:33:40.
