data_PCOD9072232
_publ_section_title
;
Structure prediction by ZEFSAII (Michael W. Deem and Ramdas Pophale) SiO2 
 PCOD9072232
Probable space group: P -1
;
_chemical_formula_sum "Si O2"
_cell_formula_units_Z 16
_cell_length_a 15.000000
_cell_length_b 15.000000
_cell_length_c 15.000000
_cell_angle_alpha 40.000000
_cell_angle_beta 20.000000
_cell_angle_gamma 40.000000
_cell_volume 725.414092
_symmetry_space_group_name_H-M "P -1"
_symmetry_group_IT_number 2
_symmetry_cell_setting 'triclinic'
loop_
_space_group_symop_operation_xyz
x,y,z
-x,-y,-z
loop_
_atom_site_type_symbol
_atom_site_label
_atom_site_fract_x
_atom_site_fract_y
_atom_site_fract_z
Si Si1 0.798371 0.504917 0.359366
Si Si2 0.900915 0.671666 0.461363
Si Si3 0.744668 0.354217 0.160319
Si Si4 0.412735 0.734630 0.359338
Si Si5 0.019116 0.257530 0.472725
Si Si6 0.090344 0.186485 0.097916
Si Si7 0.549948 0.120907 0.978120
Si Si8 0.617047 0.369912 0.061647
O O1 0.549500 0.623872 0.538127
O O2 0.671776 0.407549 0.486595
O O3 0.897778 0.406660 0.427196
O O4 0.081535 0.540638 0.039499
O O5 0.857451 0.722944 0.563220
O O6 0.628843 0.704987 0.638319
O O7 0.000000 0.500000 0.500000
O O8 0.136403 0.722945 0.150922
O O9 0.712980 0.391239 0.056265
O O10 0.942177 0.211461 0.121548
O O11 0.432980 0.827919 0.179535
O O12 0.159219 0.803008 0.607540
O O13 0.704950 0.709386 0.150235
O O14 0.754429 0.196601 0.780700
O O15 0.248666 0.167313 0.262483
O O16 0.306955 0.041223 0.018105
O O17 0.500000 0.500000 0.000000
#
# Coordination Sequence:
#
# PCOD9072232 Si02
#       8
#     2   2   2   2   2   2   2   2
#     4  11  22  38  58  90 123 155 197 245 306 355
#     4  10  19  32  57  88 117 143 182 239 298 352
#     4  12  24  38  60  88 128 161 190 242 305 369
#     4  11  23  40  63  87 116 158 208 255 292 341
#     4  11  21  38  64  93 119 152 198 254 297 341
#     4  12  25  41  60  86 120 164 205 244 295 351
#     4  11  23  41  64  86 118 158 209 252 284 342
#     4  10  19  34  56  84 115 151 189 230 283 356
#
# _framework density 22.056367999999999
#
# number of rings (size 3 to 8) (size 9 to 14) (size 15 to 20)
#    0.000    1.000    0.000   10.500    0.000    3.000 
#    0.000    0.000    0.000    4.500    0.000    0.000 
#    0.000    0.000    0.000    0.000    0.000    0.000 
#
# Total GULP energy -89190.818911 kJ/mol
# GULP energy per Si atom -5574.426182 kJ/mol
# Density = 2.200617 g / cm^3
# Si number density = 22.056368 Si / 1000 Ang^3
#
#
#
# Elastic Constant Matrix: (Units=GPa)
#
#
# Indices 1 2 3 4 5 6 
#
# 1 132.8241 24.1761 25.6460 15.4958 -13.0887 -20.6301
# 2 24.1761 30.1729 7.5999 16.1720 1.2949 -17.3385
# 3 25.6460 7.5999 113.0130 39.6114 -12.0389 -3.1614
# 4 15.4958 16.1720 39.6114 33.3782 -2.1700 -6.8018
# 5 -13.0887 1.2949 -12.0389 -2.1700 44.0751 5.2227
# 6 -20.6301 -17.3385 -3.1614 -6.8018 5.2227 18.5068
#
#
#
# Elastic Compliance Matrix: (Units=1/GPa)
#
#
# Indices 1 2 3 4 5 6 
#
# 1 0.009733 -0.004599 -0.002087 0.001578 0.001792 0.006259
# 2 -0.004599 0.109464 0.011344 -0.047800 -0.013997 0.085746
# 3 -0.002087 0.011344 0.017618 -0.024983 0.002459 0.001436
# 4 0.001578 -0.047800 -0.024983 0.078269 0.001135 -0.018846
# 5 0.001792 -0.013997 0.002459 0.001135 0.026462 -0.017747
# 6 0.006259 0.085746 0.001436 -0.018846 -0.017747 0.139671
#
#
# Mechanical properties :
#
#
# Convention : Reuss Voigt Hill
#
# Bulk Modulus (GPa) = 6.84313 43.42821 25.13567
# Shear Modulus (GPa) = 11.88744 33.76454 22.82599
#
# Velocity S-wave (km/s) = 2.32406 3.91683 3.22047
# Velocity P-wave (km/s) = 3.21107 6.33938 5.02488
#
# Compressibility (1/GPa) = 0.14613203
#
# Stress axis : x y z
#
# Youngs Moduli (GPa) = 102.73905 9.13545 56.75994
#
# Poissons Ratio (x) = 0.04202 0.11843
# Poissons Ratio (y) = 0.47252 -0.64390
# Poissons Ratio (z) = 0.21437 -0.10363
#
# Static dielectric constant tensor:
#      x y z
#    x 1.812380 0.008880 -0.013670 
#    y 0.008880 1.933900 -0.129890 
#    z -0.013670 -0.129890 1.912200 
# 
# From -- ./inp_files/534228.got.cif
#   From: 2010.05.17/outbox.ucp.g08.bks.cvg/sg2_268_cif.got.tgz:534228.got - 2010.06.11 11:32:03.
