data_PCOD9072926
_publ_section_title
;
Structure prediction by ZEFSAII (Michael W. Deem and Ramdas Pophale) SiO2 
 PCOD9072926
Probable space group: P -1
;
_chemical_formula_sum "Si O2"
_cell_formula_units_Z 16
_cell_length_a 13.699582
_cell_length_b 11.327573
_cell_length_c 13.629010
_cell_angle_alpha 149.904937
_cell_angle_beta 42.210792
_cell_angle_gamma 136.540046
_cell_volume 689.464431
_symmetry_space_group_name_H-M "P -1"
_symmetry_group_IT_number 2
_symmetry_cell_setting 'triclinic'
loop_
_space_group_symop_operation_xyz
x,y,z
-x,-y,-z
loop_
_atom_site_type_symbol
_atom_site_label
_atom_site_fract_x
_atom_site_fract_y
_atom_site_fract_z
Si Si1 0.477141 0.437374 0.623695
Si Si2 0.462826 0.903930 0.162732
Si Si3 0.227014 0.012657 0.909975
Si Si4 0.674467 0.487546 0.871234
Si Si5 0.159461 0.308810 0.688312
Si Si6 0.385520 0.759046 0.454638
Si Si7 0.296493 0.068765 0.248268
Si Si8 0.074585 0.788583 0.048183
O O1 0.319362 0.463318 0.720990
O O2 0.510136 0.396844 0.683952
O O3 0.609535 0.657603 0.647447
O O4 0.474730 0.174613 0.390081
O O5 0.337482 0.702264 0.168509
O O6 0.628183 0.881173 0.050303
O O7 0.407995 0.920081 0.105122
O O8 0.277493 0.823928 0.664352
O O9 0.097625 0.895630 0.998618
O O10 0.220099 0.241680 0.011896
O O11 0.707475 0.370072 0.660587
O O12 0.500000 0.500000 0.000000
O O13 0.184507 0.111358 0.449163
O O14 0.071071 0.196855 0.771278
O O15 0.081381 0.505998 0.840334
O O16 0.500000 0.000000 0.500000
O O17 0.207659 0.937550 0.127070
#
# Coordination Sequence:
#
# PCOD9072926 Si02
#       8
#     2   2   2   2   2   2   2   2
#     4  10  19  34  60  87 113 144 186 239 287 324
#     4   9  18  32  53  85 116 141 184 238 285 328
#     4  10  20  33  53  80 114 147 186 232 276 337
#     4  10  18  31  51  85 112 143 179 233 283 326
#     4  10  22  39  57  81 121 152 183 231 285 339
#     4  11  18  33  55  84 111 144 182 233 286 328
#     4  11  21  37  60  87 112 147 189 237 285 329
#     4  11  23  38  56  86 114 156 190 223 281 350
#
# _framework density 23.206420000000001
#
# number of rings (size 3 to 8) (size 9 to 14) (size 15 to 20)
#    0.000    1.750    3.750    4.875    0.000    4.000 
#    0.000    0.000    0.000    3.750    3.250    0.000 
#    0.000    0.000    0.000    0.000    0.000    0.000 
#
# Total GULP energy -89372.005454 kJ/mol
# GULP energy per Si atom -5585.750341 kJ/mol
# Density = 2.315360 g / cm^3
# Si number density = 23.206420 Si / 1000 Ang^3
#
#
#
# Elastic Constant Matrix: (Units=GPa)
#
#
# Indices 1 2 3 4 5 6 
#
# 1 29.6582 -3.3339 8.7790 -3.0085 10.9421 -10.2512
# 2 -3.3339 119.4649 33.2020 -17.5589 -1.6425 -26.4228
# 3 8.7790 33.2020 74.5956 -10.6792 18.9163 -10.5849
# 4 -3.0085 -17.5589 -10.6792 34.3427 -7.6544 0.2082
# 5 10.9421 -1.6425 18.9163 -7.6544 23.2948 -1.0111
# 6 -10.2512 -26.4228 -10.5849 0.2082 -1.0111 30.4947
#
#
#
# Elastic Compliance Matrix: (Units=1/GPa)
#
#
# Indices 1 2 3 4 5 6 
#
# 1 0.049944 0.006192 0.000229 0.002716 -0.021384 0.021507
# 2 0.006192 0.013933 -0.005541 0.007080 0.005436 0.012363
# 3 0.000229 -0.005541 0.020386 -0.000289 -0.017070 0.001788
# 4 0.002716 0.007080 -0.000289 0.035382 0.011392 0.007083
# 5 -0.021384 0.005436 -0.017070 0.011392 0.070694 -0.006137
# 6 0.021507 0.012363 0.001788 0.007083 -0.006137 0.051103
#
#
# Mechanical properties :
#
#
# Convention : Reuss Voigt Hill
#
# Bulk Modulus (GPa) = 11.62469 33.44587 22.53528
# Shear Modulus (GPa) = 18.63189 29.96455 24.29822
#
# Velocity S-wave (km/s) = 2.83658 3.59725 3.23932
# Velocity P-wave (km/s) = 3.96842 5.63003 4.87061
#
# Compressibility (1/GPa) = 0.08602380
#
# Stress axis : x y z
#
# Youngs Moduli (GPa) = 20.02232 71.77131 49.05345
#
# Poissons Ratio (x) = -0.44441 -0.01125
# Poissons Ratio (y) = -0.12398 0.27181
# Poissons Ratio (z) = -0.00459 0.39769
#
# Static dielectric constant tensor:
#      x y z
#    x 1.905380 -0.022750 -0.019260 
#    y -0.022750 1.906900 0.002240 
#    z -0.019260 0.002240 1.949450 
# 
# From -- ./inp_files/538090.got.cif
#   From: 2010.05.17/outbox.cif.g08.bks.cpg/sg2_270_cif.got.tgz:538090.got - 2010.06.03 11:33:40.
