data_PCOD9072771
_publ_section_title
;
Structure prediction by ZEFSAII (Michael W. Deem and Ramdas Pophale) SiO2 
 PCOD9072771
Probable space group: P -1
;
_chemical_formula_sum "Si O2"
_cell_formula_units_Z 16
_cell_length_a 12.000000
_cell_length_b 9.000000
_cell_length_c 18.000000
_cell_angle_alpha 130.000000
_cell_angle_beta 140.000000
_cell_angle_gamma 80.000000
_cell_volume 729.599496
_symmetry_space_group_name_H-M "P -1"
_symmetry_group_IT_number 2
_symmetry_cell_setting 'triclinic'
loop_
_space_group_symop_operation_xyz
x,y,z
-x,-y,-z
loop_
_atom_site_type_symbol
_atom_site_label
_atom_site_fract_x
_atom_site_fract_y
_atom_site_fract_z
Si Si1 0.146412 0.207683 0.787567
Si Si2 0.948407 0.664912 0.071026
Si Si3 0.600780 0.621570 0.794607
Si Si4 0.868042 0.606765 0.453649
Si Si5 0.240562 0.848723 0.005527
Si Si6 0.697125 0.931577 0.731312
Si Si7 0.337512 0.551348 0.865267
Si Si8 0.257350 0.471962 0.314256
O O1 0.037125 0.277257 0.815066
O O2 0.151196 0.296897 0.735723
O O3 0.417147 0.372173 0.990905
O O4 0.029286 0.912496 0.635904
O O5 0.698181 0.568348 0.895095
O O6 0.129047 0.921942 0.199914
O O7 0.000000 0.500000 0.000000
O O8 0.335750 0.482123 0.621791
O O9 0.697591 0.558133 0.756999
O O10 0.714088 0.914081 0.935516
O O11 0.752296 0.489901 0.276853
O O12 0.000000 0.500000 0.500000
O O13 0.285360 0.920523 0.139553
O O14 0.362665 0.767577 0.996361
O O15 0.974144 0.617937 0.799810
O O16 0.444245 0.766578 0.520508
O O17 0.719234 0.724652 0.701003
#
# Coordination Sequence:
#
# PCOD9072771 Si02
#       8
#     2   2   2   2   2   2   2   2
#     4  11  26  48  69  98 146 182 227 291 342 414
#     4  12  23  42  71  96 136 187 226 276 349 410
#     4  11  22  42  66 100 139 171 232 293 338 405
#     4  12  27  46  74 105 135 182 237 288 345 407
#     4  11  21  39  66  97 136 177 221 280 344 402
#     4  10  20  38  61  96 129 171 219 271 340 399
#     4  11  26  46  71  98 139 188 229 280 354 412
#     4  10  20  36  64  92 134 167 212 288 337 386
#
# _framework density 21.929839999999999
#
# number of rings (size 3 to 8) (size 9 to 14) (size 15 to 20)
#    0.000    1.000    3.750    3.375    1.750    5.000 
#    2.250    1.250    0.000    0.000    0.000    0.000 
#    0.000    0.000    0.000    0.000    0.000    0.000 
#
# Total GULP energy -89155.261285 kJ/mol
# GULP energy per Si atom -5572.203830 kJ/mol
# Density = 2.187993 g / cm^3
# Si number density = 21.929840 Si / 1000 Ang^3
#
#
#
# Elastic Constant Matrix: (Units=GPa)
#
#
# Indices 1 2 3 4 5 6 
#
# 1 124.2672 7.3979 1.6304 -2.7021 4.8427 -10.8171
# 2 7.3979 37.3435 7.4934 -4.5740 3.1567 -4.9449
# 3 1.6304 7.4934 35.8403 5.8564 18.0922 -3.2944
# 4 -2.7021 -4.5740 5.8564 14.0186 -2.4208 -7.0667
# 5 4.8427 3.1567 18.0922 -2.4208 23.2683 3.8675
# 6 -10.8171 -4.9449 -3.2944 -7.0667 3.8675 21.6865
#
#
#
# Elastic Compliance Matrix: (Units=1/GPa)
#
#
# Indices 1 2 3 4 5 6 
#
# 1 0.008823 -0.000504 0.001594 0.003406 -0.003699 0.006298
# 2 -0.000504 0.033288 -0.012466 0.022959 0.005691 0.011912
# 3 0.001594 -0.012466 0.063522 -0.036887 -0.052698 0.004980
# 4 0.003406 0.022959 -0.036887 0.117458 0.031427 0.034000
# 5 -0.003699 0.005691 -0.052698 0.031427 0.089595 -0.014290
# 6 0.006298 0.011912 0.004980 0.034000 -0.014290 0.066353
#
#
# Mechanical properties :
#
#
# Convention : Reuss Voigt Hill
#
# Bulk Modulus (GPa) = 12.06552 25.61049 18.83801
# Shear Modulus (GPa) = 11.64366 23.85664 17.75015
#
# Velocity S-wave (km/s) = 2.30674 3.30185 2.84809
# Velocity P-wave (km/s) = 3.55085 5.12250 4.40730
#
# Compressibility (1/GPa) = 0.08288078
#
# Stress axis : x y z
#
# Youngs Moduli (GPa) = 113.34430 30.04072 15.74246
#
# Poissons Ratio (x) = 0.01513 -0.02509
# Poissons Ratio (y) = 0.05710 0.19625
# Poissons Ratio (z) = -0.18064 0.37449
#
# Static dielectric constant tensor:
#      x y z
#    x 1.764620 0.043930 -0.006490 
#    y 0.043930 1.942080 -0.088260 
#    z -0.006490 -0.088260 1.935670 
# 
# From -- ./inp_files/500155.got.cif
#   From: 2010.05.17/outbox.ucp.g08.bks.cvg/sg2_251_cif.got.tgz:500155.got - 2010.06.11 11:32:03.
