data_PCOD9072913
_publ_section_title
;
Structure prediction by ZEFSAII (Michael W. Deem and Ramdas Pophale) SiO2 
 PCOD9072913
Probable space group: P -1
;
_chemical_formula_sum "Si O2"
_cell_formula_units_Z 16
_cell_length_a 7.174578
_cell_length_b 15.883224
_cell_length_c 5.800291
_cell_angle_alpha 109.567970
_cell_angle_beta 96.799511
_cell_angle_gamma 105.198735
_cell_volume 585.357913
_symmetry_space_group_name_H-M "P -1"
_symmetry_group_IT_number 2
_symmetry_cell_setting 'triclinic'
loop_
_space_group_symop_operation_xyz
x,y,z
-x,-y,-z
loop_
_atom_site_type_symbol
_atom_site_label
_atom_site_fract_x
_atom_site_fract_y
_atom_site_fract_z
Si Si1 0.346620 0.935737 0.688954
Si Si2 0.303875 0.270437 0.408378
Si Si3 0.857332 0.248708 0.233599
Si Si4 0.747052 0.948004 0.823355
Si Si5 0.765257 0.439847 0.391250
Si Si6 0.671328 0.693856 0.065432
Si Si7 0.219261 0.490998 0.043101
Si Si8 0.026718 0.872630 0.218927
O O1 0.291620 0.834468 0.718278
O O2 0.562993 0.949600 0.629786
O O3 0.149265 0.915957 0.496478
O O4 0.340016 0.021872 0.928619
O O5 0.250339 0.157422 0.276494
O O6 0.423099 0.305937 0.694662
O O7 0.083716 0.282032 0.394238
O O8 0.398377 0.317601 0.223251
O O9 0.780786 0.335629 0.278034
O O10 0.872340 0.197636 0.949913
O O11 0.933651 0.036887 0.855045
O O12 0.693534 0.464974 0.654381
O O13 0.000000 0.500000 0.500000
O O14 0.686027 0.467626 0.157389
O O15 0.811658 0.803629 0.179904
O O16 0.783701 0.616677 0.039531
O O17 0.000000 0.500000 0.000000
#
# Coordination Sequence:
#
# PCOD9072913 Si02
#       8
#     2   2   2   2   2   2   2   2
#     4  10  21  40  58  76 117 146 200 239 275 334
#     4  11  22  38  57  84 118 150 190 233 285 343
#     4  10  21  35  55  90 114 146 185 241 286 329
#     4  10  24  38  55  83 107 160 195 232 284 333
#     4  10  19  29  54  83 118 140 181 226 283 338
#     4  11  22  36  57  89 121 147 183 240 288 331
#     4  10  18  31  51  82 119 144 177 224 286 339
#     4  10  20  35  58  78 115 147 189 242 278 330
#
# _framework density 27.333703
#
# number of rings (size 3 to 8) (size 9 to 14) (size 15 to 20)
#    0.000    1.750    1.250    5.625    3.500    5.000 
#    0.000    0.000    0.000    0.000    0.000    9.625 
#    0.000    0.000    0.000    0.000    0.000    0.000 
#
# Total GULP energy -89465.021476 kJ/mol
# GULP energy per Si atom -5591.563842 kJ/mol
# Density = 2.727149 g / cm^3
# Si number density = 27.333703 Si / 1000 Ang^3
#
#
#
# Elastic Constant Matrix: (Units=GPa)
#
#
# Indices 1 2 3 4 5 6 
#
# 1 70.9130 33.0298 12.7324 -1.0723 -14.4428 0.8211
# 2 33.0298 198.0213 69.0956 -12.0457 -22.8325 -16.9957
# 3 12.7324 69.0956 214.9308 -18.7701 1.0270 -1.9226
# 4 -1.0723 -12.0457 -18.7701 34.2765 -0.3539 -7.2047
# 5 -14.4428 -22.8325 1.0270 -0.3539 34.9726 -9.1685
# 6 0.8211 -16.9957 -1.9226 -7.2047 -9.1685 35.5547
#
#
#
# Elastic Compliance Matrix: (Units=1/GPa)
#
#
# Indices 1 2 3 4 5 6 
#
# 1 0.016181 -0.001963 -0.000383 -0.000339 0.005406 -0.000007
# 2 -0.001963 0.007321 -0.001987 0.002609 0.005462 0.005375
# 3 -0.000383 -0.001987 0.005504 0.002146 -0.001770 -0.000665
# 4 -0.000339 0.002609 0.002146 0.033234 0.004249 0.009201
# 5 0.005406 0.005462 -0.001770 0.004249 0.037903 0.013026
# 6 -0.000007 0.005375 -0.000665 0.009201 0.013026 0.035882
#
#
# Mechanical properties :
#
#
# Convention : Reuss Voigt Hill
#
# Bulk Modulus (GPa) = 49.16687 79.28674 64.22680
# Shear Modulus (GPa) = 33.00954 45.56123 39.28538
#
# Velocity S-wave (km/s) = 3.47890 4.08714 3.79522
# Velocity P-wave (km/s) = 5.84497 7.16539 6.53860
#
# Compressibility (1/GPa) = 0.02033890
#
# Stress axis : x y z
#
# Youngs Moduli (GPa) = 61.80057 136.59877 181.68227
#
# Poissons Ratio (x) = 0.26818 0.06957
# Poissons Ratio (y) = 0.12133 0.36106
# Poissons Ratio (z) = 0.02367 0.27147
#
# Static dielectric constant tensor:
#      x y z
#    x 2.125000 -0.043900 -0.030880 
#    y -0.043900 1.994440 -0.246570 
#    z -0.030880 -0.246570 2.156260 
# 
# From -- ./inp_files/39977.got.cif
#   From: 2010.05.17/outbox.cif.g08.bks.cpg/sg2_20_cif.got.tgz:39977.got - 2010.06.03 11:33:40.
