data_PCOD9072498
_publ_section_title
;
Structure prediction by ZEFSAII (Michael W. Deem and Ramdas Pophale) SiO2 
 PCOD9072498
Probable space group: P -1
;
_chemical_formula_sum "Si O2"
_cell_formula_units_Z 16
_cell_length_a 6.000000
_cell_length_b 27.000000
_cell_length_c 6.000000
_cell_angle_alpha 50.000000
_cell_angle_beta 80.000000
_cell_angle_gamma 90.000000
_cell_volume 725.212580
_symmetry_space_group_name_H-M "P -1"
_symmetry_group_IT_number 2
_symmetry_cell_setting 'triclinic'
loop_
_space_group_symop_operation_xyz
x,y,z
-x,-y,-z
loop_
_atom_site_type_symbol
_atom_site_label
_atom_site_fract_x
_atom_site_fract_y
_atom_site_fract_z
Si Si1 0.915536 0.070236 0.273729
Si Si2 0.642808 0.829405 0.230898
Si Si3 0.112814 0.486243 0.270200
Si Si4 0.659143 0.070018 0.811458
Si Si5 0.242676 0.291223 0.152403
Si Si6 0.415365 0.719476 0.289435
Si Si7 0.077462 0.654879 0.221169
Si Si8 0.556955 0.391766 0.028570
O O1 0.792468 0.081957 0.507380
O O2 0.787874 0.067723 0.048746
O O3 0.000000 0.000000 0.500000
O O4 0.139636 0.124830 0.045421
O O5 0.500845 0.873917 0.278658
O O6 0.730467 0.770184 0.522532
O O7 0.474765 0.789466 0.193305
O O8 0.000000 0.500000 0.500000
O O9 0.107894 0.407728 0.499792
O O10 0.352650 0.535693 0.108328
O O11 0.000000 0.500000 0.000000
O O12 0.500000 0.000000 0.000000
O O13 0.312101 0.362394 0.053599
O O14 0.400420 0.284751 0.926795
O O15 0.994874 0.295769 0.090600
O O16 0.167484 0.700371 0.278744
O O17 0.422826 0.660308 0.630748
O O18 0.278118 0.622147 0.164732
#
# Coordination Sequence:
#
# PCOD9072498 Si02
#       8
#     2   2   2   2   2   2   2   2
#     4  12  28  49  83 115 150 190 244 301 365 439
#     4  11  28  47  70 106 153 190 250 293 368 441
#     4  10  19  37  68  98 131 180 239 295 364 428
#     4  12  28  50  83 112 152 195 235 303 376 426
#     4  10  24  42  63  99 140 186 239 299 351 439
#     4  10  22  42  64  92 142 183 232 296 354 428
#     4  10  21  40  69  93 136 185 241 293 366 418
#     4   9  20  40  61  92 137 178 234 298 363 423
#
# _framework density 22.062495999999999
#
# number of rings (size 3 to 8) (size 9 to 14) (size 15 to 20)
#    0.000    1.500    2.500    0.750    3.500    6.500 
#    0.000    0.625    0.000    0.000    0.000    0.000 
#    0.000    0.000    0.000    0.000    0.000    0.000 
#
# Total GULP energy -89146.562831 kJ/mol
# GULP energy per Si atom -5571.660177 kJ/mol
# Density = 2.201228 g / cm^3
# Si number density = 22.062496 Si / 1000 Ang^3
#
#
#
# Elastic Constant Matrix: (Units=GPa)
#
#
# Indices 1 2 3 4 5 6 
#
# 1 57.2905 54.3104 35.4484 -7.3399 6.9997 22.1789
# 2 54.3104 169.7066 47.9400 -4.0368 -15.6047 31.2513
# 3 35.4484 47.9400 134.5308 2.3744 -13.0189 18.6557
# 4 -7.3399 -4.0368 2.3744 48.7306 7.1520 -5.8916
# 5 6.9997 -15.6047 -13.0189 7.1520 48.4620 6.6491
# 6 22.1789 31.2513 18.6557 -5.8916 6.6491 41.9478
#
#
#
# Elastic Compliance Matrix: (Units=1/GPa)
#
#
# Indices 1 2 3 4 5 6 
#
# 1 0.033487 -0.008567 -0.005821 0.005145 -0.009015 -0.006583
# 2 -0.008567 0.009806 -0.000197 -0.001668 0.005100 -0.003731
# 3 -0.005821 -0.000197 0.009749 -0.002204 0.004004 -0.002055
# 4 0.005145 -0.001668 -0.002204 0.022531 -0.005687 0.003569
# 5 -0.009015 0.005100 0.004004 -0.005687 0.026287 -0.005779
# 6 -0.006583 -0.003731 -0.002055 0.003569 -0.005779 0.032431
#
#
# Mechanical properties :
#
#
# Convention : Reuss Voigt Hill
#
# Bulk Modulus (GPa) = 41.88972 70.76950 56.32961
# Shear Modulus (GPa) = 29.16868 42.75004 35.95936
#
# Velocity S-wave (km/s) = 3.64000 4.40668 4.04156
# Velocity P-wave (km/s) = 6.05758 7.61829 6.88232
#
# Compressibility (1/GPa) = 0.02387221
#
# Stress axis : x y z
#
# Youngs Moduli (GPa) = 29.86258 101.97831 102.57889
#
# Poissons Ratio (x) = 0.87360 0.59715
# Poissons Ratio (y) = 0.25582 0.02018
# Poissons Ratio (z) = 0.17384 0.02006
#
# Static dielectric constant tensor:
#      x y z
#    x 1.906510 0.025630 -0.005610 
#    y 0.025630 1.826910 0.051760 
#    z -0.005610 0.051760 1.826930 
# 
# From -- ./inp_files/13580.got.cif
#   From: 2010.05.17/outbox.ucp.g08.bks.cvg/sg2_7_cif.got.tgz:13580.got - 2010.06.11 11:32:03.
