data_PCOD9072100
_publ_section_title
;
Structure prediction by ZEFSAII (Michael W. Deem and Ramdas Pophale) SiO2 
 PCOD9072100
Probable space group: P -1
;
_chemical_formula_sum "Si O2"
_cell_formula_units_Z 16
_cell_length_a 9.096836
_cell_length_b 11.064185
_cell_length_c 14.891818
_cell_angle_alpha 116.714723
_cell_angle_beta 148.132976
_cell_angle_gamma 81.037782
_cell_volume 620.388294
_symmetry_space_group_name_H-M "P -1"
_symmetry_group_IT_number 2
_symmetry_cell_setting 'triclinic'
loop_
_space_group_symop_operation_xyz
x,y,z
-x,-y,-z
loop_
_atom_site_type_symbol
_atom_site_label
_atom_site_fract_x
_atom_site_fract_y
_atom_site_fract_z
Si Si1 0.991066 0.983362 0.882167
Si Si2 0.951177 0.305626 0.427710
Si Si3 0.168402 0.647457 0.202916
Si Si4 0.366442 0.036338 0.782555
Si Si5 0.137118 0.388882 0.208317
Si Si6 0.559917 0.104843 0.712762
Si Si7 0.307055 0.229681 0.970994
Si Si8 0.792546 0.496898 0.528100
O O1 0.123643 0.108292 0.913734
O O2 0.628255 0.962567 0.678151
O O3 0.267909 0.931508 0.999106
O O4 0.000000 0.000000 0.000000
O O5 0.968330 0.402003 0.556959
O O6 0.230233 0.406330 0.536986
O O7 0.857528 0.134178 0.349700
O O8 0.661173 0.301918 0.217828
O O9 0.254956 0.566383 0.300588
O O10 0.439819 0.801235 0.345382
O O11 0.880647 0.674597 0.097108
O O12 0.000000 0.500000 0.000000
O O13 0.328661 0.048327 0.659846
O O14 0.303713 0.152589 0.849132
O O15 0.441960 0.370907 0.335235
O O16 0.068330 0.392406 0.278125
O O17 0.856867 0.253907 0.963865
#
# Coordination Sequence:
#
# PCOD9072100 Si02
#       8
#     2   2   2   2   2   2   2   2
#     4   8  14  24  42  70 103 130 150 189 255 308
#     4  10  19  34  51  78 109 136 166 205 266 308
#     4   9  18  34  54  75 105 135 168 219 266 303
#     4  10  18  30  51  81 110 129 162 220 271 305
#     4  10  19  35  53  75  99 134 182 213 247 298
#     4   9  17  31  54  81 103 129 168 219 270 307
#     4  10  18  30  52  80 105 128 166 220 267 307
#     4  10  21  34  54  74 103 142 176 207 237 315
#
# _framework density 25.790298
#
# number of rings (size 3 to 8) (size 9 to 14) (size 15 to 20)
#    0.000    2.500    0.000    5.250    0.000    1.000 
#    0.000   11.875    0.000    4.500    0.000    0.000 
#    0.000    0.000    0.000    0.000    0.000    0.000 
#
# Total GULP energy -89071.230656 kJ/mol
# GULP energy per Si atom -5566.951916 kJ/mol
# Density = 2.573160 g / cm^3
# Si number density = 25.790298 Si / 1000 Ang^3
#
#
#
# Elastic Constant Matrix: (Units=GPa)
#
#
# Indices 1 2 3 4 5 6 
#
# 1 168.7099 48.2377 35.7815 14.0720 -20.5393 -17.6045
# 2 48.2377 120.9397 3.0793 3.0025 2.0024 0.5309
# 3 35.7815 3.0793 52.4920 10.7096 -7.9431 0.4008
# 4 14.0720 3.0025 10.7096 23.7776 2.4241 1.1133
# 5 -20.5393 2.0024 -7.9431 2.4241 23.8490 -4.4202
# 6 -17.6045 0.5309 0.4008 1.1133 -4.4202 45.3738
#
#
#
# Elastic Compliance Matrix: (Units=1/GPa)
#
#
# Indices 1 2 3 4 5 6 
#
# 1 0.009922 -0.003902 -0.004307 -0.004567 0.008811 0.004904
# 2 -0.003902 0.009847 0.001240 0.001039 -0.004265 -0.002081
# 3 -0.004307 0.001240 0.024552 -0.009128 0.005073 -0.001184
# 4 -0.004567 0.001039 -0.009128 0.050256 -0.012947 -0.004198
# 5 0.008811 -0.004265 0.005073 -0.012947 0.054561 0.009057
# 6 0.004904 -0.002081 -0.001184 -0.004198 0.009057 0.024962
#
#
# Mechanical properties :
#
#
# Convention : Reuss Voigt Hill
#
# Bulk Modulus (GPa) = 32.91047 57.37098 45.14072
# Shear Modulus (GPa) = 25.23159 35.60292 30.41726
#
# Velocity S-wave (km/s) = 3.13123 3.71951 3.43798
# Velocity P-wave (km/s) = 5.08540 6.38277 5.77066
#
# Compressibility (1/GPa) = 0.03038547
#
# Stress axis : x y z
#
# Youngs Moduli (GPa) = 100.79025 101.55201 40.72924
#
# Poissons Ratio (x) = 0.39622 0.17540
# Poissons Ratio (y) = 0.39325 -0.05052
# Poissons Ratio (z) = 0.43406 -0.12596
#
# Static dielectric constant tensor:
#      x y z
#    x 2.109520 0.020880 0.052150 
#    y 0.020880 2.132190 -0.016990 
#    z 0.052150 -0.016990 2.090980 
# 
# From -- ./inp_files/282120.got.cif
#   From: 2010.05.17/outbox.cif.g08.bks.cpg/sg2_142_cif.got.tgz:282120.got - 2010.06.03 11:33:40.
