data_PCOD9072078
_publ_section_title
;
Structure prediction by ZEFSAII (Michael W. Deem and Ramdas Pophale) SiO2 
 PCOD9072078
Probable space group: P -1
;
_chemical_formula_sum "Si O2"
_cell_formula_units_Z 16
_cell_length_a 9.000000
_cell_length_b 9.000000
_cell_length_c 15.000000
_cell_angle_alpha 130.000000
_cell_angle_beta 110.000000
_cell_angle_gamma 100.000000
_cell_volume 732.374747
_symmetry_space_group_name_H-M "P -1"
_symmetry_group_IT_number 2
_symmetry_cell_setting 'triclinic'
loop_
_space_group_symop_operation_xyz
x,y,z
-x,-y,-z
loop_
_atom_site_type_symbol
_atom_site_label
_atom_site_fract_x
_atom_site_fract_y
_atom_site_fract_z
Si Si1 0.739789 0.668259 0.631377
Si Si2 0.963241 0.277207 0.731766
Si Si3 0.773590 0.853596 0.893604
Si Si4 0.896574 0.023777 0.282579
Si Si5 0.827523 0.288914 0.520450
Si Si6 0.597628 0.969775 0.647714
Si Si7 0.442718 0.156025 0.992410
Si Si8 0.253103 0.736619 0.033270
O O1 0.716522 0.666562 0.732426
O O2 0.792284 0.480456 0.547393
O O3 0.596960 0.738000 0.588930
O O4 0.936414 0.892582 0.722917
O O5 0.958741 0.354748 0.659738
O O6 0.750448 0.087682 0.646621
O O7 0.087698 0.167250 0.732805
O O8 0.049042 0.504082 0.898357
O O9 0.739789 0.046747 0.925045
O O10 0.647299 0.756871 0.919632
O O11 0.000000 0.000000 0.000000
O O12 0.905517 0.198284 0.425888
O O13 0.720162 0.967155 0.163217
O O14 0.614892 0.102745 0.438560
O O15 0.669014 0.161667 0.814604
O O16 0.622344 0.314852 0.027224
O O17 0.500000 0.000000 0.000000
#
# Coordination Sequence:
#
# PCOD9072078 Si02
#       8
#     2   2   2   2   2   2   2   2
#     4  10  22  39  66  95 121 167 212 259 319 376
#     4  11  25  41  64  92 129 175 215 248 321 381
#     4  10  18  35  63  95 129 151 203 270 318 363
#     4  11  23  43  63  93 132 169 208 264 312 379
#     4  12  23  43  65  93 130 172 212 258 315 382
#     4  10  22  43  65  92 130 163 212 273 313 367
#     4  10  21  38  65  93 130 159 207 266 327 354
#     4  10  21  41  63  92 126 168 210 258 316 378
#
# _framework density 21.846738999999999
#
# number of rings (size 3 to 8) (size 9 to 14) (size 15 to 20)
#    0.000    1.500    2.500    2.625    1.750    0.500 
#    2.250    2.500    0.000    0.000    0.000    0.000 
#    0.000    0.000    0.000    0.000    0.000    0.000 
#
# Total GULP energy -89076.597301 kJ/mol
# GULP energy per Si atom -5567.287331 kJ/mol
# Density = 2.179701 g / cm^3
# Si number density = 21.846739 Si / 1000 Ang^3
#
#
#
# Elastic Constant Matrix: (Units=GPa)
#
#
# Indices 1 2 3 4 5 6 
#
# 1 85.7879 10.8628 13.2707 -19.9734 -15.1891 6.2583
# 2 10.8628 46.2450 23.9410 -13.5765 -0.0573 3.7043
# 3 13.2707 23.9410 84.7180 -22.6475 -16.1862 -16.4783
# 4 -19.9734 -13.5765 -22.6475 25.5760 -13.9800 -2.6231
# 5 -15.1891 -0.0573 -16.1862 -13.9800 30.7810 -16.1798
# 6 6.2583 3.7043 -16.4783 -2.6231 -16.1798 10.8742
#
#
#
# Elastic Compliance Matrix: (Units=1/GPa)
#
#
# Indices 1 2 3 4 5 6 
#
# 1 0.014503 0.002071 -0.004646 0.006012 -0.001141 -0.016339
# 2 0.002071 0.027785 -0.002966 0.016793 0.005995 -0.002181
# 3 -0.004646 -0.002966 0.003304 -0.012909 -0.016025 -0.018266
# 4 0.006012 0.016793 -0.012909 0.025099 -0.019810 -0.052164
# 5 -0.001141 0.005995 -0.016025 -0.019810 -0.006850 -0.040639
# 6 -0.016339 -0.002181 -0.018266 -0.052164 -0.040639 0.001378
#
#
# Mechanical properties :
#
#
# Convention : Reuss Voigt Hill
#
# Bulk Modulus (GPa) = 28.97658 34.76666 31.87162
# Shear Modulus (GPa) = 56.94436 24.69133 40.81785
#
# Velocity S-wave (km/s) = 5.11097 3.36550 4.32716
# Velocity P-wave (km/s) = 6.93698 5.57230 6.29175
#
# Compressibility (1/GPa) = 0.03451063
#
# Stress axis : x y z
#
# Youngs Moduli (GPa) = 68.95191 35.99043 302.62927
#
# Poissons Ratio (x) = -0.07453 1.40596
# Poissons Ratio (y) = -0.14279 0.89757
# Poissons Ratio (z) = 0.32034 0.10674
#
# Static dielectric constant tensor:
#      x y z
#    x 1.843100 0.007740 0.054540 
#    y 0.007740 1.807590 0.023430 
#    z 0.054540 0.023430 1.839320 
# 
# From -- ./inp_files/179005.got.cif
#   From: 2010.05.17/outbox.ucp.g08.bks.cvg/sg2_90_cif.got.tgz:179005.got - 2010.06.11 11:32:03.
