data_PCOD9072998
_publ_section_title
;
Structure prediction by ZEFSAII (Michael W. Deem and Ramdas Pophale) SiO2 
 PCOD9072998
Probable space group: P -1
;
_chemical_formula_sum "Si O2"
_cell_formula_units_Z 14
_cell_length_a 15.000000
_cell_length_b 9.000000
_cell_length_c 9.000000
_cell_angle_alpha 120.000000
_cell_angle_beta 40.000000
_cell_angle_gamma 100.000000
_cell_volume 626.690879
_symmetry_space_group_name_H-M "P -1"
_symmetry_group_IT_number 2
_symmetry_cell_setting 'triclinic'
loop_
_space_group_symop_operation_xyz
x,y,z
-x,-y,-z
loop_
_atom_site_type_symbol
_atom_site_label
_atom_site_fract_x
_atom_site_fract_y
_atom_site_fract_z
Si Si1 0.076187 0.026997 0.157982
Si Si2 0.002607 0.593271 0.384319
Si Si3 0.724239 0.498961 0.669786
Si Si4 0.622732 0.204552 0.216619
Si Si5 0.337410 0.501467 0.895489
Si Si6 0.485372 0.095796 0.908027
Si Si7 0.207437 0.932666 0.635443
O O1 0.041935 0.191416 0.404076
O O2 0.919474 0.014229 0.304063
O O3 0.212024 0.847780 0.952233
O O4 0.139348 0.057056 0.930229
O O5 0.869966 0.543467 0.455774
O O6 0.000000 0.500000 0.500000
O O7 0.170000 0.518953 0.065368
O O8 0.752157 0.286609 0.487611
O O9 0.684503 0.505420 0.901709
O O10 0.591234 0.681705 0.871621
O O11 0.479886 0.329979 0.561990
O O12 0.629105 0.321736 0.120030
O O13 0.606808 0.006827 0.115674
O O14 0.644136 0.047366 0.602244
O O15 0.500000 0.000000 0.000000
#
# Coordination Sequence:
#
# PCOD9072998 Si02
#       7
#     2   2   2   2   2   2   2
#     4  11  23  42  69 100 127 176 221 272 319 387
#     4  10  20  39  70  95 127 168 228 260 323 390
#     4  11  22  44  68  94 133 177 217 269 329 395
#     4  11  25  43  67  97 136 172 224 267 326 395
#     4  10  23  41  67  99 129 173 219 271 323 387
#     4  12  27  41  66  99 136 172 219 275 330 390
#     4  11  25  41  68  98 140 167 220 272 332 382
#
# _framework density 22.339562000000001
#
# number of rings (size 3 to 8) (size 9 to 14) (size 15 to 20)
#    0.000    1.143    4.286    2.143    4.000    5.143 
#    0.000    0.000    0.000    6.857    0.000    0.000 
#    0.000    0.000    0.000    0.000    0.000    0.000 
#
# Total GULP energy -78187.552334 kJ/mol
# GULP energy per Si atom -5584.825167 kJ/mol
# Density = 2.228872 g / cm^3
# Si number density = 22.339562 Si / 1000 Ang^3
#
#
#
# Elastic Constant Matrix: (Units=GPa)
#
#
# Indices 1 2 3 4 5 6 
#
# 1 57.3034 31.0457 8.0859 5.8044 -19.6244 -8.8328
# 2 31.0457 77.6539 21.9030 -6.8490 -13.0092 4.1416
# 3 8.0859 21.9030 85.0948 8.2323 -29.3544 -8.0875
# 4 5.8044 -6.8490 8.2323 34.2487 6.0174 -5.4391
# 5 -19.6244 -13.0092 -29.3544 6.0174 40.3603 0.3432
# 6 -8.8328 4.1416 -8.0875 -5.4391 0.3432 23.6076
#
#
#
# Elastic Compliance Matrix: (Units=1/GPa)
#
#
# Indices 1 2 3 4 5 6 
#
# 1 0.036136 -0.015939 0.011318 -0.013319 0.022508 0.016798
# 2 -0.015939 0.021691 -0.008859 0.008967 -0.008449 -0.010615
# 3 0.011318 -0.008859 0.021952 -0.010834 0.020139 0.010520
# 4 -0.013319 0.008967 -0.010834 0.038705 -0.017227 -0.001100
# 5 0.022508 -0.008449 0.020139 -0.017227 0.050110 0.012105
# 6 0.016798 -0.010615 0.010520 -0.001100 0.012105 0.053681
#
#
# Mechanical properties :
#
#
# Convention : Reuss Voigt Hill
#
# Bulk Modulus (GPa) = 18.93320 38.01348 28.47334
# Shear Modulus (GPa) = 18.73767 30.24447 24.49107
#
# Velocity S-wave (km/s) = 2.89929 3.68347 3.31465
# Velocity P-wave (km/s) = 4.43863 5.92821 5.23666
#
# Compressibility (1/GPa) = 0.05281728
#
# Stress axis : x y z
#
# Youngs Moduli (GPa) = 27.67318 46.10269 45.55445
#
# Poissons Ratio (x) = 0.73485 -0.51560
# Poissons Ratio (y) = 0.44110 0.40359
# Poissons Ratio (z) = -0.31322 0.40845
#
# Static dielectric constant tensor:
#      x y z
#    x 1.982160 0.039850 -0.027280 
#    y 0.039850 1.831990 0.029670 
#    z -0.027280 0.029670 1.797480 
# 
# From -- ./inp_files/299428.got.cif
#   From: 2010.05.17/outbox.ucp.g08.bks.cvg/sg2_150_cif.got.tgz:299428.got - 2010.06.11 11:32:03.
