data_PCOD9072570
_publ_section_title
;
Structure prediction by ZEFSAII (Michael W. Deem and Ramdas Pophale) SiO2 
 PCOD9072570
Probable space group: P -1
;
_chemical_formula_sum "Si O2"
_cell_formula_units_Z 16
_cell_length_a 10.056995
_cell_length_b 16.945837
_cell_length_c 18.155564
_cell_angle_alpha 164.091537
_cell_angle_beta 65.887035
_cell_angle_gamma 111.620098
_cell_volume 770.402775
_symmetry_space_group_name_H-M "P -1"
_symmetry_group_IT_number 2
_symmetry_cell_setting 'triclinic'
loop_
_space_group_symop_operation_xyz
x,y,z
-x,-y,-z
loop_
_atom_site_type_symbol
_atom_site_label
_atom_site_fract_x
_atom_site_fract_y
_atom_site_fract_z
Si Si1 0.530109 0.832219 0.106714
Si Si2 0.438954 0.518673 0.352412
Si Si3 0.464149 0.830690 0.284073
Si Si4 0.658614 0.814974 0.792917
Si Si5 0.134768 0.774740 0.292739
Si Si6 0.074164 0.277064 0.588998
Si Si7 0.203551 0.641379 0.004162
Si Si8 0.263658 0.599505 0.733711
O O1 0.551076 0.868941 0.222603
O O2 0.364250 0.743286 0.061575
O O3 0.556681 0.138232 0.339969
O O4 0.602826 0.591331 0.817812
O O5 0.335555 0.388175 0.319128
O O6 0.605707 0.403646 0.237524
O O7 0.290142 0.897620 0.373438
O O8 0.500000 0.000000 0.500000
O O9 0.500000 0.500000 0.000000
O O10 0.673342 0.609516 0.533968
O O11 0.500000 0.000000 0.000000
O O12 0.764923 0.069677 0.989718
O O13 0.159186 0.564184 0.027932
O O14 0.082833 0.656209 0.276045
O O15 0.000000 0.000000 0.500000
O O16 0.123857 0.460461 0.673914
O O17 0.104968 0.932592 0.260981
O O18 0.182493 0.380393 0.720666
#
# Coordination Sequence:
#
# PCOD9072570 Si02
#       8
#     2   2   2   2   2   2   2   2
#     4  11  19  32  53  75 100 147 195 231 275 342
#     4  11  18  30  48  71 104 144 200 229 275 349
#     4  11  25  43  61  85 125 159 193 247 305 344
#     4  10  20  29  42  67 107 153 185 226 290 356
#     4   9  22  38  61  87 115 155 203 244 286 348
#     4  11  19  30  49  74 107 141 189 229 278 338
#     4  10  18  31  46  74 106 138 182 241 272 321
#     4  11  18  29  44  70 111 147 183 231 298 340
#
# _framework density 20.768357999999999
#
# number of rings (size 3 to 8) (size 9 to 14) (size 15 to 20)
#    0.000    1.500    2.500    5.625    0.000    7.000 
#    0.000    0.000    0.000    0.000    0.000    0.000 
#    0.000   20.000    0.000    0.000    0.000    0.000 
#
# Total GULP energy -89189.505802 kJ/mol
# GULP energy per Si atom -5574.344113 kJ/mol
# Density = 2.072109 g / cm^3
# Si number density = 20.768358 Si / 1000 Ang^3
#
#
#
# Elastic Constant Matrix: (Units=GPa)
#
#
# Indices 1 2 3 4 5 6 
#
# 1 25.6735 8.4315 17.5197 -5.2422 5.3087 -1.2812
# 2 8.4315 137.3908 34.8674 -10.8622 3.4364 17.5296
# 3 17.5197 34.8674 105.5126 -6.2816 17.0299 -8.3078
# 4 -5.2422 -10.8622 -6.2816 47.5684 -5.2713 4.8773
# 5 5.3087 3.4364 17.0299 -5.2713 19.8173 -2.4150
# 6 -1.2812 17.5296 -8.3078 4.8773 -2.4150 19.0815
#
#
#
# Elastic Compliance Matrix: (Units=1/GPa)
#
#
# Indices 1 2 3 4 5 6 
#
# 1 0.045284 -0.000715 -0.006181 0.003424 -0.005858 -0.000611
# 2 -0.000715 0.010086 -0.004186 0.003031 0.001417 -0.011732
# 3 -0.006181 -0.004186 0.013925 -0.001693 -0.008964 0.008792
# 4 0.003424 0.003031 -0.001693 0.023323 0.005168 -0.008599
# 5 -0.005858 0.001417 -0.008964 0.005168 0.060960 0.000797
# 6 -0.000611 -0.011732 0.008792 -0.008599 0.000797 0.069270
#
#
# Mechanical properties :
#
#
# Convention : Reuss Voigt Hill
#
# Bulk Modulus (GPa) = 21.21795 43.35711 32.28753
# Shear Modulus (GPa) = 19.17749 31.14400 25.16075
#
# Velocity S-wave (km/s) = 3.04205 3.87665 3.48443
# Velocity P-wave (km/s) = 4.75157 6.39998 5.63636
#
# Compressibility (1/GPa) = 0.04712990
#
# Stress axis : x y z
#
# Youngs Moduli (GPa) = 22.08293 99.14940 71.81079
#
# Poissons Ratio (x) = 0.07090 0.44389
# Poissons Ratio (y) = 0.01579 0.30060
# Poissons Ratio (z) = 0.13650 0.41505
#
# Static dielectric constant tensor:
#      x y z
#    x 1.747980 0.024430 0.009300 
#    y 0.024430 1.882100 -0.022460 
#    z 0.009300 -0.022460 1.759540 
# 
# From -- ./inp_files/522037.got.cif
#   From: 2010.05.17/outbox.cif.g08.bks.cpg/sg2_262_cif.got.tgz:522037.got - 2010.06.03 11:33:40.
