data_PCOD9072873
_publ_section_title
;
Structure prediction by ZEFSAII (Michael W. Deem and Ramdas Pophale) SiO2 
 PCOD9072873
Probable space group: P -1
;
_chemical_formula_sum "Si O2"
_cell_formula_units_Z 14
_cell_length_a 9.000000
_cell_length_b 9.000000
_cell_length_c 12.000000
_cell_angle_alpha 100.000000
_cell_angle_beta 40.000000
_cell_angle_gamma 100.000000
_cell_volume 614.029152
_symmetry_space_group_name_H-M "P -1"
_symmetry_group_IT_number 2
_symmetry_cell_setting 'triclinic'
loop_
_space_group_symop_operation_xyz
x,y,z
-x,-y,-z
loop_
_atom_site_type_symbol
_atom_site_label
_atom_site_fract_x
_atom_site_fract_y
_atom_site_fract_z
Si Si1 0.454061 0.142688 0.678700
Si Si2 0.814614 0.441279 0.929729
Si Si3 0.638747 0.770653 0.810163
Si Si4 0.005675 0.272838 0.008471
Si Si5 0.591304 0.105089 0.828676
Si Si6 0.050634 0.286686 0.580614
Si Si7 0.476940 0.793046 0.592533
O O1 0.568986 0.188876 0.735397
O O2 0.530949 0.241060 0.539941
O O3 0.525887 0.973589 0.594605
O O4 0.178316 0.143879 0.861221
O O5 0.851689 0.609807 0.976705
O O6 0.916461 0.416777 0.742864
O O7 0.552379 0.370003 0.089032
O O8 0.956628 0.347835 0.926691
O O9 0.864271 0.724894 0.601544
O O10 0.559012 0.923036 0.813229
O O11 0.602373 0.838748 0.966485
O O12 0.761571 0.241935 0.208128
O O13 0.864289 0.147038 0.703995
O O14 0.301712 0.282075 0.493754
#
# Coordination Sequence:
#
# PCOD9072873 Si02
#       7
#     2   2   2   2   2   2   2
#     4  11  23  40  58  93 126 152 193 252 301 357
#     4  10  22  37  61  89 117 160 203 240 291 353
#     4  10  20  38  61  89 117 155 200 245 290 349
#     4  11  22  39  59  88 123 160 196 243 297 355
#     4  10  22  37  63  92 120 154 199 242 307 348
#     4  11  20  38  61  92 119 151 200 247 288 361
#     4  11  23  37  63  93 122 152 194 249 309 343
#
# _framework density 22.800219999999999
#
# number of rings (size 3 to 8) (size 9 to 14) (size 15 to 20)
#    0.000    1.429    4.286    0.857    0.000    2.857 
#    5.143    2.857    0.000    5.143    0.000    0.000 
#    0.000    0.000    0.000    0.000    0.000    0.000 
#
# Total GULP energy -77993.307942 kJ/mol
# GULP energy per Si atom -5570.950567 kJ/mol
# Density = 2.274833 g / cm^3
# Si number density = 22.800220 Si / 1000 Ang^3
#
#
#
# Elastic Constant Matrix: (Units=GPa)
#
#
# Indices 1 2 3 4 5 6 
#
# 1 43.5768 -0.8192 18.9388 -3.0214 19.6461 -4.8767
# 2 -0.8192 12.0039 -8.7747 -4.3024 -0.0216 15.3684
# 3 18.9388 -8.7747 178.0656 -0.1961 25.3486 3.8518
# 4 -3.0214 -4.3024 -0.1961 25.9761 7.3412 -1.6180
# 5 19.6461 -0.0216 25.3486 7.3412 47.8524 1.4070
# 6 -4.8767 15.3684 3.8518 -1.6180 1.4070 20.9763
#
#
#
# Elastic Compliance Matrix: (Units=1/GPa)
#
#
# Indices 1 2 3 4 5 6 
#
# 1 0.019089 0.130014 0.008167 0.021847 -0.012817 -0.089772
# 2 0.130014 -1.384144 -0.103927 -0.147294 -0.007301 1.052537
# 3 0.008167 -0.103927 -0.001609 -0.010524 -0.003219 0.077741
# 4 0.021847 -0.147294 -0.010524 0.027025 -0.011070 0.117754
# 5 -0.012817 -0.007301 -0.003219 -0.011070 0.029556 0.000124
# 6 -0.089772 1.052537 0.077741 0.117754 0.000124 -0.749545
#
#
# Mechanical properties :
#
#
# Convention : Reuss Voigt Hill
#
# Bulk Modulus (GPa) = -0.77032 28.03734 13.63351
# Shear Modulus (GPa) = -1.95247 33.91440 15.98096
#
# Velocity S-wave (km/s) = -0.92639 3.86094 2.65035
# Velocity P-wave (km/s) = 1.21773 5.67446 3.91897
#
# Compressibility (1/GPa) = -1.29815393
#
# Stress axis : x y z
#
# Youngs Moduli (GPa) = 52.38511 -0.72247 -621.50367
#
# Poissons Ratio (x) = 0.09393 5.07583
# Poissons Ratio (y) = -6.81080 -64.59072
# Poissons Ratio (z) = -0.42783 -0.07508
#
# Static dielectric constant tensor:
#      x y z
#    x 1.953700 0.006750 0.056230 
#    y 0.006750 1.861560 0.022560 
#    z 0.056230 0.022560 1.827810 
# 
# From -- ./inp_files/269725.got.cif
#   From: 2010.05.17/outbox.ucp.g08.bks.cvg/sg2_135_cif.got.tgz:269725.got - 2010.06.11 11:32:03.
