data_PCOD9072890
_publ_section_title
;
Structure prediction by ZEFSAII (Michael W. Deem and Ramdas Pophale) SiO2 
 PCOD9072890
Probable space group: P -1
;
_chemical_formula_sum "Si O2"
_cell_formula_units_Z 14
_cell_length_a 15.000000
_cell_length_b 21.000000
_cell_length_c 12.000000
_cell_angle_alpha 150.000000
_cell_angle_beta 30.000000
_cell_angle_gamma 160.000000
_cell_volume 615.533390
_symmetry_space_group_name_H-M "P -1"
_symmetry_group_IT_number 2
_symmetry_cell_setting 'triclinic'
loop_
_space_group_symop_operation_xyz
x,y,z
-x,-y,-z
loop_
_atom_site_type_symbol
_atom_site_label
_atom_site_fract_x
_atom_site_fract_y
_atom_site_fract_z
Si Si1 0.638363 0.044616 0.034370
Si Si2 0.181106 0.670828 0.307077
Si Si3 0.753743 0.583880 0.146513
Si Si4 0.189442 0.125424 0.375757
Si Si5 0.201839 0.166788 0.840103
Si Si6 0.439984 0.053964 0.487989
Si Si7 0.318404 0.472994 0.287355
O O1 0.525555 0.070131 0.293817
O O2 0.961287 0.245669 0.971489
O O3 0.500000 0.000000 0.000000
O O4 0.591306 0.869147 0.845241
O O5 0.309207 0.764687 0.432748
O O6 0.858982 0.522694 0.445507
O O7 0.308558 0.852816 0.371289
O O8 0.254526 0.566932 0.034682
O O9 0.741108 0.687893 0.411206
O O10 0.514463 0.495305 0.187455
O O11 0.000000 0.000000 0.500000
O O12 0.014633 0.995379 0.261161
O O13 0.240924 0.068042 0.728276
O O14 0.489256 0.353657 0.748674
O O15 0.126217 0.261072 0.118539
#
# Coordination Sequence:
#
# PCOD9072890 Si02
#       7
#     2   2   2   2   2   2   2
#     4  11  23  41  73  96 131 176 222 278 328 388
#     4  11  26  43  64  96 143 177 214 270 334 403
#     4  11  23  43  66 102 130 167 225 278 328 389
#     4  10  20  38  62  97 131 162 213 273 332 384
#     4  11  21  40  66  99 129 169 224 279 324 380
#     4  11  24  44  64  98 135 180 220 264 338 402
#     4  11  23  40  69 100 129 166 225 283 327 380
#
# _framework density 22.744501
#
# number of rings (size 3 to 8) (size 9 to 14) (size 15 to 20)
#    0.000    1.143    4.286    3.429    4.000    1.714 
#    2.571    3.571    0.000    0.000    0.000    0.000 
#    0.000    0.000    0.000    0.000    0.000    0.000 
#
# Total GULP energy -78285.856582 kJ/mol
# GULP energy per Si atom -5591.846899 kJ/mol
# Density = 2.269273 g / cm^3
# Si number density = 22.744501 Si / 1000 Ang^3
#
#
#
# Elastic Constant Matrix: (Units=GPa)
#
#
# Indices 1 2 3 4 5 6 
#
# 1 97.1186 19.2640 46.4317 14.5651 -14.5281 13.4174
# 2 19.2640 31.6136 25.1528 25.0954 -6.8088 3.3213
# 3 46.4317 25.1528 138.7464 46.2040 -25.6761 2.0669
# 4 14.5651 25.0954 46.2040 43.8574 -4.7530 -8.6640
# 5 -14.5281 -6.8088 -25.6761 -4.7530 47.5133 11.6368
# 6 13.4174 3.3213 2.0669 -8.6640 11.6368 19.8530
#
#
#
# Elastic Compliance Matrix: (Units=1/GPa)
#
#
# Indices 1 2 3 4 5 6 
#
# 1 0.015483 0.000593 -0.001298 -0.006820 0.007845 -0.018003
# 2 0.000593 0.109602 0.020902 -0.097778 0.038502 -0.086151
# 3 -0.001298 0.020902 0.019526 -0.036272 0.016975 -0.030432
# 4 -0.006820 -0.097778 -0.036272 0.136231 -0.049848 0.113414
# 5 0.007845 0.038502 0.016975 -0.049848 0.048791 -0.063863
# 6 -0.018003 -0.086151 -0.030432 0.113414 -0.063863 0.167045
#
#
# Mechanical properties :
#
#
# Convention : Reuss Voigt Hill
#
# Bulk Modulus (GPa) = 5.40527 49.90841 27.65684
# Shear Modulus (GPa) = 9.65338 34.02008 21.83673
#
# Velocity S-wave (km/s) = 2.06240 3.87169 3.10189
# Velocity P-wave (km/s) = 2.83778 6.47899 5.00152
#
# Compressibility (1/GPa) = 0.18500464
#
# Stress axis : x y z
#
# Youngs Moduli (GPa) = 64.58660 9.12394 51.21292
#
# Poissons Ratio (x) = -0.00541 0.06647
# Poissons Ratio (y) = -0.03827 -1.07045
# Poissons Ratio (z) = 0.08382 -0.19071
#
# Static dielectric constant tensor:
#      x y z
#    x 1.828700 0.004290 0.000540 
#    y 0.004290 1.841740 0.031140 
#    z 0.000540 0.031140 1.854670 
# 
# From -- ./inp_files/256576.got.cif
#   From: 2010.05.17/outbox.ucp.g08.bks.cvg/sg2_129_cif.got.tgz:256576.got - 2010.06.11 11:32:03.
