data_PCOD9072577
_publ_section_title
;
Structure prediction by ZEFSAII (Michael W. Deem and Ramdas Pophale) SiO2 
 PCOD9072577
Probable space group: P -1
;
_chemical_formula_sum "Si O2"
_cell_formula_units_Z 14
_cell_length_a 9.000000
_cell_length_b 12.000000
_cell_length_c 24.000000
_cell_angle_alpha 150.000000
_cell_angle_beta 40.000000
_cell_angle_gamma 150.000000
_cell_volume 646.664136
_symmetry_space_group_name_H-M "P -1"
_symmetry_group_IT_number 2
_symmetry_cell_setting 'triclinic'
loop_
_space_group_symop_operation_xyz
x,y,z
-x,-y,-z
loop_
_atom_site_type_symbol
_atom_site_label
_atom_site_fract_x
_atom_site_fract_y
_atom_site_fract_z
Si Si1 0.341486 0.802628 0.066749
Si Si2 0.956220 0.229146 0.125452
Si Si3 0.308421 0.210379 0.663321
Si Si4 0.137570 0.707167 0.205079
Si Si5 0.075101 0.582142 0.449967
Si Si6 0.180355 0.238818 0.839822
Si Si7 0.255950 0.861476 0.733819
O O1 0.159577 0.648440 0.109276
O O2 0.149181 0.849594 0.104152
O O3 0.639609 0.092761 0.128693
O O4 0.386978 0.584491 0.934893
O O5 0.962667 0.273239 0.208388
O O6 0.162972 0.511378 0.152761
O O7 0.000000 0.000000 0.000000
O O8 0.658760 0.423153 0.645221
O O9 0.232948 0.175897 0.735709
O O10 0.144444 0.304606 0.717600
O O11 0.185640 0.897709 0.543607
O O12 0.433512 0.011412 0.271178
O O13 0.000000 0.500000 0.500000
O O14 0.808331 0.357286 0.389309
O O15 0.227458 0.082110 0.805506
#
# Coordination Sequence:
#
# PCOD9072577 Si02
#       7
#     2   2   2   2   2   2   2
#     4   9  21  38  59  93 127 163 202 253 303 365
#     4  11  23  38  61  91 131 169 202 242 309 374
#     4  10  24  42  66  90 122 161 211 257 309 363
#     4  10  23  42  60  93 130 163 200 253 306 373
#     4  11  24  43  66  93 119 159 212 265 307 356
#     4  10  19  40  63  90 127 158 208 258 301 365
#     4  11  24  38  65  91 124 162 204 256 310 358
#
# _framework density 21.649569
#
# number of rings (size 3 to 8) (size 9 to 14) (size 15 to 20)
#    0.000    1.714    1.429    1.714    6.000    4.000 
#    0.000    4.286    0.000    0.000    0.000    0.000 
#    0.000    0.000    0.000    0.000    0.000    0.000 
#
# Total GULP energy -78053.646867 kJ/mol
# GULP energy per Si atom -5575.260490 kJ/mol
# Density = 2.160029 g / cm^3
# Si number density = 21.649569 Si / 1000 Ang^3
#
#
#
# Elastic Constant Matrix: (Units=GPa)
#
#
# Indices 1 2 3 4 5 6 
#
# 1 100.8889 9.7970 22.0774 7.5327 3.0925 5.9534
# 2 9.7970 13.9690 0.9050 3.7006 -5.7157 7.9479
# 3 22.0774 0.9050 69.0604 5.4275 8.6638 9.5015
# 4 7.5327 3.7006 5.4275 16.3727 3.0206 -0.7771
# 5 3.0925 -5.7157 8.6638 3.0206 35.9581 8.5500
# 6 5.9534 7.9479 9.5015 -0.7771 8.5500 21.6745
#
#
#
# Elastic Compliance Matrix: (Units=1/GPa)
#
#
# Indices 1 2 3 4 5 6 
#
# 1 0.011699 -0.010393 -0.003630 -0.001237 -0.002416 0.003098
# 2 -0.010393 0.151551 0.009728 -0.044516 0.044480 -0.076126
# 3 -0.003630 0.009728 0.017444 -0.006972 0.000806 -0.010785
# 4 -0.001237 -0.044516 -0.006972 0.078966 -0.019075 0.030076
# 5 -0.002416 0.044480 0.000806 -0.019075 0.044652 -0.034298
# 6 0.003098 -0.076126 -0.010785 0.030076 -0.034298 0.092537
#
#
# Mechanical properties :
#
#
# Convention : Reuss Voigt Hill
#
# Bulk Modulus (GPa) = 5.81039 27.71969 16.76504
# Shear Modulus (GPa) = 10.80367 24.87698 17.84033
#
# Velocity S-wave (km/s) = 2.23631 3.39348 2.87374
# Velocity P-wave (km/s) = 3.05905 5.30904 4.33265
#
# Compressibility (1/GPa) = 0.17210560
#
# Stress axis : x y z
#
# Youngs Moduli (GPa) = 85.47700 6.59842 57.32768
#
# Poissons Ratio (x) = 0.06858 0.20808
# Poissons Ratio (y) = 0.88837 -0.55771
# Poissons Ratio (z) = 0.31025 -0.06419
#
# Static dielectric constant tensor:
#      x y z
#    x 1.659560 -0.101980 -0.034180 
#    y -0.101980 1.657630 -0.039430 
#    z -0.034180 -0.039430 1.775160 
# 
# From -- ./inp_files/27728.got.cif
#   From: 2010.05.17/outbox.ucp.g08.bks.cvg/sg2_14_cif.got.tgz:27728.got - 2010.06.11 11:32:03.
