data_PCOD9072370
_publ_section_title
;
Structure prediction by ZEFSAII (Michael W. Deem and Ramdas Pophale) SiO2 
 PCOD9072370
Probable space group: P -1
;
_chemical_formula_sum "Si O2"
_cell_formula_units_Z 14
_cell_length_a 9.000000
_cell_length_b 30.000000
_cell_length_c 30.000000
_cell_angle_alpha 170.000000
_cell_angle_beta 150.000000
_cell_angle_gamma 30.000000
_cell_volume 695.153643
_symmetry_space_group_name_H-M "P -1"
_symmetry_group_IT_number 2
_symmetry_cell_setting 'triclinic'
loop_
_space_group_symop_operation_xyz
x,y,z
-x,-y,-z
loop_
_atom_site_type_symbol
_atom_site_label
_atom_site_fract_x
_atom_site_fract_y
_atom_site_fract_z
Si Si1 0.805327 0.280004 0.219998
Si Si2 0.463273 0.730690 0.769341
Si Si3 0.201488 0.375841 0.124194
Si Si4 0.824392 0.469926 0.030063
Si Si5 0.144623 0.812209 0.687758
Si Si6 0.903964 0.891640 0.608391
Si Si7 0.200925 0.996244 0.503765
O O1 0.571716 0.290721 0.209311
O O2 0.566248 0.331238 0.168748
O O3 0.000000 0.500000 0.500000
O O4 0.000000 0.000000 0.000000
O O5 0.137386 0.785940 0.714081
O O6 0.654631 0.460730 0.539570
O O7 0.654564 0.960510 0.039339
O O8 0.061001 0.418915 0.081103
O O9 0.071792 0.631792 0.371777
O O10 0.071753 0.128290 0.868269
O O11 0.856764 0.730353 0.267892
O O12 0.500000 0.500000 0.000000
O O13 0.856773 0.232082 0.769626
O O14 0.916139 0.862725 0.637265
O O15 0.555888 0.943986 0.556005
O O16 0.000000 0.000000 0.500000
#
# Coordination Sequence:
#
# PCOD9072370 Si02
#       7
#     2   2   2   2   2   2   2
#     4  12  24  41  60  88 132 168 210 272 326 374
#     4  10  20  37  58  85 114 161 200 259 315 366
#     4  12  24  40  70  94 124 172 231 266 319 403
#     4  12  23  46  72 102 132 178 233 274 330 421
#     4  10  19  35  62  84 115 152 213 259 298 368
#     4  12  20  40  67  95 124 169 220 271 324 400
#     4  12  26  44  69 101 143 172 213 291 348 392
#
# _framework density 20.139433
#
# number of rings (size 3 to 8) (size 9 to 14) (size 15 to 20)
#    0.000    0.571    5.714    3.429    0.000    0.000 
#    5.143    0.000    0.000    0.000    0.000    0.000 
#    0.000    0.000    0.000    0.000    0.000    0.000 
#
# Total GULP energy -77981.004306 kJ/mol
# GULP energy per Si atom -5570.071736 kJ/mol
# Density = 2.009359 g / cm^3
# Si number density = 20.139433 Si / 1000 Ang^3
#
#
#
# Elastic Constant Matrix: (Units=GPa)
#
#
# Indices 1 2 3 4 5 6 
#
# 1 60.9168 22.5868 39.6884 3.1234 -1.0172 5.7806
# 2 22.5868 190.7122 62.7018 -14.0986 -0.3582 19.0060
# 3 39.6884 62.7018 188.3844 13.6813 -2.3284 -3.7397
# 4 3.1234 -14.0986 13.6813 30.4921 8.6682 -2.5598
# 5 -1.0172 -0.3582 -2.3284 8.6682 30.0052 -2.0317
# 6 5.7806 19.0060 -3.7397 -2.5598 -2.0317 41.1367
#
#
#
# Elastic Compliance Matrix: (Units=1/GPa)
#
#
# Indices 1 2 3 4 5 6 
#
# 1 0.019534 -0.000871 -0.003796 -0.001066 0.000480 -0.002730
# 2 -0.000871 0.006806 -0.002495 0.004574 -0.001670 -0.003047
# 3 -0.003796 -0.002495 0.007323 -0.004387 0.001824 0.002169
# 4 -0.001066 0.004574 -0.004387 0.040366 -0.012013 -0.000444
# 5 0.000480 -0.001670 0.001824 -0.012013 0.037068 0.001953
# 6 -0.002730 -0.003047 0.002169 -0.000444 0.001953 0.026366
#
#
# Mechanical properties :
#
#
# Convention : Reuss Voigt Hill
#
# Bulk Modulus (GPa) = 51.71311 76.66306 64.18808
# Shear Modulus (GPa) = 31.59896 41.32921 36.46408
#
# Velocity S-wave (km/s) = 3.96537 4.53498 4.25971
# Velocity P-wave (km/s) = 6.83365 8.09754 7.49230
#
# Compressibility (1/GPa) = 0.01933746
#
# Stress axis : x y z
#
# Youngs Moduli (GPa) = 51.19294 146.93778 136.56212
#
# Poissons Ratio (x) = 0.12801 0.51842
# Poissons Ratio (y) = 0.04460 0.34072
# Poissons Ratio (z) = 0.19434 0.36660
#
# Static dielectric constant tensor:
#      x y z
#    x 1.755230 0.077910 -0.013810 
#    y 0.077910 1.966500 -0.049460 
#    z -0.013810 -0.049460 1.696200 
# 
# From -- ./inp_files/622786.got.cif
#   From: 2010.05.17/outbox.ucp.g08.bks.cvg/sg2_312_cif.got.tgz:622786.got - 2010.06.11 11:32:03.
