data_PCOD9072330
_publ_section_title
;
Structure prediction by ZEFSAII (Michael W. Deem and Ramdas Pophale) SiO2 
 PCOD9072330
Probable space group: P -1
;
_chemical_formula_sum "Si O2"
_cell_formula_units_Z 16
_cell_length_a 10.224487
_cell_length_b 16.472836
_cell_length_c 12.394604
_cell_angle_alpha 57.870563
_cell_angle_beta 104.233737
_cell_angle_gamma 143.636951
_cell_volume 976.559739
_symmetry_space_group_name_H-M "P -1"
_symmetry_group_IT_number 2
_symmetry_cell_setting 'triclinic'
loop_
_space_group_symop_operation_xyz
x,y,z
-x,-y,-z
loop_
_atom_site_type_symbol
_atom_site_label
_atom_site_fract_x
_atom_site_fract_y
_atom_site_fract_z
Si Si1 0.827808 0.998906 0.342619
Si Si2 0.943075 0.071041 0.073735
Si Si3 0.343764 0.222604 0.349015
Si Si4 0.824783 0.485157 0.948709
Si Si5 0.341739 0.025910 0.351099
Si Si6 0.697332 0.553042 0.066156
Si Si7 0.822978 0.187297 0.340238
Si Si8 0.703453 0.898990 0.923759
O O1 0.807730 0.980460 0.223653
O O2 0.775482 0.073561 0.326114
O O3 0.101673 0.136853 0.331825
O O4 0.678369 0.833766 0.496168
O O5 0.124488 0.088319 0.083166
O O6 0.101044 0.258459 0.984671
O O7 0.776540 0.974819 0.003832
O O8 0.354155 0.136853 0.332519
O O9 0.562484 0.418187 0.228882
O O10 0.944901 0.620457 0.785127
O O11 0.797193 0.535185 0.013448
O O12 0.566465 0.295130 0.999924
O O13 0.000000 0.500000 0.000000
O O14 0.600122 0.128682 0.333931
O O15 0.266707 0.001569 0.230876
O O16 0.174537 0.862133 0.507384
O O17 0.500000 0.500000 0.000000
#
# Coordination Sequence:
#
# PCOD9072330 Si02
#       8
#     2   2   2   2   2   2   2   2
#     4  10  18  32  51  81 103 138 183 225 266 309
#     4  11  22  36  55  81 115 149 178 221 277 329
#     4  10  18  30  55  76 106 136 183 232 258 307
#     4  12  20  34  57  85 109 137 187 230 263 313
#     4  10  18  36  51  80 111 143 173 219 280 318
#     4  12  18  34  55  80 106 139 193 222 257 322
#     4  10  20  30  57  82 107 135 183 230 261 314
#     4  11  22  37  54  80 119 147 173 224 285 324
#
# _framework density 16.384046000000001
#
# number of rings (size 3 to 8) (size 9 to 14) (size 15 to 20)
#    0.000    1.250    7.500    0.000    0.000    0.000 
#    0.000    3.750    0.000    3.000    0.000    7.000 
#    0.000    0.000    0.000    0.000    0.000    0.000 
#
# Total GULP energy -89280.749232 kJ/mol
# GULP energy per Si atom -5580.046827 kJ/mol
# Density = 1.634675 g / cm^3
# Si number density = 16.384046 Si / 1000 Ang^3
#
#
#
# Elastic Constant Matrix: (Units=GPa)
#
#
# Indices 1 2 3 4 5 6 
#
# 1 52.4655 8.7003 8.3622 -2.0317 -6.3537 -1.4287
# 2 8.7003 80.5280 58.0320 10.7626 -0.4617 -6.4821
# 3 8.3622 58.0320 172.9834 4.3288 -4.9031 -3.7259
# 4 -2.0317 10.7626 4.3288 24.6790 -1.8428 0.2222
# 5 -6.3537 -0.4617 -4.9031 -1.8428 24.0638 1.3753
# 6 -1.4287 -6.4821 -3.7259 0.2222 1.3753 15.1206
#
#
#
# Elastic Compliance Matrix: (Units=1/GPa)
#
#
# Indices 1 2 3 4 5 6 
#
# 1 0.020288 -0.002529 -0.000050 0.003192 0.005527 0.000271
# 2 -0.002529 0.018364 -0.005780 -0.007444 -0.002437 0.006540
# 3 -0.000050 -0.005780 0.007719 0.001288 0.001590 -0.000744
# 4 0.003192 -0.007444 0.001288 0.044176 0.004553 -0.003636
# 5 0.005527 -0.002437 0.001590 0.004553 0.043881 -0.004189
# 6 0.000271 0.006540 -0.000744 -0.003636 -0.004189 0.069216
#
#
# Mechanical properties :
#
#
# Convention : Reuss Voigt Hill
#
# Bulk Modulus (GPa) = 33.72369 50.68508 42.20438
# Shear Modulus (GPa) = 21.71579 28.16484 24.94032
#
# Velocity S-wave (km/s) = 3.64459 4.15063 3.90581
# Velocity P-wave (km/s) = 6.19182 7.34664 6.79381
#
# Compressibility (1/GPa) = 0.02965275
#
# Stress axis : x y z
#
# Youngs Moduli (GPa) = 49.29062 54.45321 129.54502
#
# Poissons Ratio (x) = 0.13773 0.00642
# Poissons Ratio (y) = 0.12467 0.74883
# Poissons Ratio (z) = 0.00244 0.31477
#
# Static dielectric constant tensor:
#      x y z
#    x 1.555010 -0.003820 -0.001880 
#    y -0.003820 1.499890 -0.004150 
#    z -0.001880 -0.004150 1.589880 
# 
# From -- ./inp_files/238541.got.cif
#   From: 2010.05.17/outbox.cif.g08.bks.cpg/sg2_120_cif.got.tgz:238541.got - 2010.06.03 11:33:40.
