data_PCOD9072238
_publ_section_title
;
Structure prediction by ZEFSAII (Michael W. Deem and Ramdas Pophale) SiO2 
 PCOD9072238
Probable space group: P -1
;
_chemical_formula_sum "Si O2"
_cell_formula_units_Z 16
_cell_length_a 12.106341
_cell_length_b 12.520676
_cell_length_c 10.280012
_cell_angle_alpha 58.165649
_cell_angle_beta 119.697067
_cell_angle_gamma 142.991490
_cell_volume 788.431604
_symmetry_space_group_name_H-M "P -1"
_symmetry_group_IT_number 2
_symmetry_cell_setting 'triclinic'
loop_
_space_group_symop_operation_xyz
x,y,z
-x,-y,-z
loop_
_atom_site_type_symbol
_atom_site_label
_atom_site_fract_x
_atom_site_fract_y
_atom_site_fract_z
Si Si1 0.556766 0.354784 0.107033
Si Si2 0.195874 0.679801 0.837726
Si Si3 0.154291 0.741474 0.034605
Si Si4 0.556005 0.528511 0.238884
Si Si5 0.239901 0.198739 0.442119
Si Si6 0.081769 0.856775 0.681212
Si Si7 0.960631 0.912958 0.235203
Si Si8 0.161185 0.952431 0.104115
O O1 0.678886 0.321359 0.171263
O O2 0.602585 0.460446 0.197723
O O3 0.345467 0.158566 0.119029
O O4 0.563331 0.453532 0.923205
O O5 0.152354 0.786762 0.687499
O O6 0.000189 0.468798 0.878015
O O7 0.277064 0.761311 0.980798
O O8 0.215850 0.864119 0.117432
O O9 0.067616 0.785839 0.861290
O O10 0.432090 0.381376 0.375912
O O11 0.750159 0.727406 0.268866
O O12 0.118309 0.226980 0.407596
O O13 0.231948 0.076289 0.615708
O O14 0.108867 0.048263 0.346597
O O15 0.946060 0.029891 0.066484
O O16 0.036785 0.857406 0.221265
#
# Coordination Sequence:
#
# PCOD9072238 Si02
#       8
#     2   2   2   2   2   2   2   2
#     4  10  19  32  53  84 110 134 178 226 269 320
#     4   9  18  33  55  78 105 143 178 219 270 311
#     4   9  17  32  53  76 104 139 175 218 268 302
#     4  10  21  32  55  87 105 138 179 223 271 311
#     4  11  19  37  58  76 112 143 182 212 269 321
#     4   9  20  34  56  77 106 149 177 217 262 322
#     4  10  19  32  54  82 111 134 175 229 265 316
#     4  10  18  30  53  82 109 134 176 226 272 311
#
# _framework density 20.293453
#
# number of rings (size 3 to 8) (size 9 to 14) (size 15 to 20)
#    0.750    1.500    2.500    1.500    1.750    0.500 
#    0.000    3.125    5.500    1.500    0.000    0.000 
#    0.000    0.000    0.000    0.000    0.000    0.000 
#
# Total GULP energy -89069.299556 kJ/mol
# GULP energy per Si atom -5566.831222 kJ/mol
# Density = 2.024726 g / cm^3
# Si number density = 20.293453 Si / 1000 Ang^3
#
#
#
# Elastic Constant Matrix: (Units=GPa)
#
#
# Indices 1 2 3 4 5 6 
#
# 1 108.8508 13.8583 22.4047 -9.0992 10.1367 -24.7697
# 2 13.8583 51.5324 13.0190 -1.6006 -6.1852 -11.5044
# 3 22.4047 13.0190 44.6962 -23.6489 5.5076 0.5437
# 4 -9.0992 -1.6006 -23.6489 33.6132 -4.0034 -11.6500
# 5 10.1367 -6.1852 5.5076 -4.0034 18.0512 -7.8771
# 6 -24.7697 -11.5044 0.5437 -11.6500 -7.8771 29.9390
#
#
#
# Elastic Compliance Matrix: (Units=1/GPa)
#
#
# Indices 1 2 3 4 5 6 
#
# 1 0.013573 0.001069 -0.004421 0.005813 0.001676 0.014423
# 2 0.001069 0.028524 -0.009493 0.004205 0.021420 0.019289
# 3 -0.004421 -0.009493 0.043146 0.028175 -0.007266 0.000963
# 4 0.005813 0.004205 0.028175 0.066745 0.020670 0.037324
# 5 0.001676 0.021420 -0.007266 0.020670 0.086266 0.040490
# 6 0.014423 0.019289 0.000963 0.037324 0.040490 0.077906
#
#
# Mechanical properties :
#
#
# Convention : Reuss Voigt Hill
#
# Bulk Modulus (GPa) = 16.79230 33.73818 25.26524
# Shear Modulus (GPa) = 13.82357 26.70718 20.26537
#
# Velocity S-wave (km/s) = 2.61278 3.63167 3.16352
# Velocity P-wave (km/s) = 4.17072 5.85206 5.08141
#
# Compressibility (1/GPa) = 0.05955109
#
# Stress axis : x y z
#
# Youngs Moduli (GPa) = 73.67684 35.05816 23.17724
#
# Poissons Ratio (x) = -0.03746 0.10247
# Poissons Ratio (y) = -0.07873 0.22003
# Poissons Ratio (z) = 0.32573 0.33282
#
# Static dielectric constant tensor:
#      x y z
#    x 1.785960 -0.039340 -0.041270 
#    y -0.039340 1.733050 0.017230 
#    z -0.041270 0.017230 1.760230 
# 
# From -- ./inp_files/395871.got.cif
#   From: 2010.05.17/outbox.cif.g08.bks.cpg/sg2_198_cif.got.tgz:395871.got - 2010.06.03 11:33:40.
