data_PCOD9072083
_publ_section_title
;
Structure prediction by ZEFSAII (Michael W. Deem and Ramdas Pophale) SiO2 
 PCOD9072083
Probable space group: P -1
;
_chemical_formula_sum "Si O2"
_cell_formula_units_Z 16
_cell_length_a 15.000000
_cell_length_b 12.000000
_cell_length_c 9.000000
_cell_angle_alpha 110.000000
_cell_angle_beta 110.000000
_cell_angle_gamma 30.000000
_cell_volume 757.522634
_symmetry_space_group_name_H-M "P -1"
_symmetry_group_IT_number 2
_symmetry_cell_setting 'triclinic'
loop_
_space_group_symop_operation_xyz
x,y,z
-x,-y,-z
loop_
_atom_site_type_symbol
_atom_site_label
_atom_site_fract_x
_atom_site_fract_y
_atom_site_fract_z
Si Si1 0.480593 0.682529 0.174141
Si Si2 0.024018 0.921447 0.228728
Si Si3 0.579128 0.459714 0.679971
Si Si4 0.286129 0.921097 0.873040
Si Si5 0.765592 0.757067 0.918277
Si Si6 0.109631 0.473573 0.824402
Si Si7 0.451302 0.108972 0.676179
Si Si8 0.880012 0.267104 0.129277
O O1 0.435001 0.635538 0.253855
O O2 0.518488 0.780815 0.279802
O O3 0.671565 0.450422 0.102552
O O4 0.329828 0.842452 0.034112
O O5 0.218190 0.715789 0.315072
O O6 0.052102 0.851217 0.043104
O O7 0.875723 0.989279 0.236800
O O8 0.958704 0.125150 0.258362
O O9 0.500000 0.500000 0.500000
O O10 0.462145 0.693229 0.781839
O O11 0.244255 0.105221 0.938410
O O12 0.927057 0.598606 0.817854
O O13 0.586213 0.930747 0.803608
O O14 0.799491 0.623343 0.003217
O O15 0.256662 0.274060 0.699391
O O16 0.079448 0.637161 0.819566
O O17 0.500000 0.000000 0.500000
#
# Coordination Sequence:
#
# PCOD9072083 Si02
#       8
#     2   2   2   2   2   2   2   2
#     4  10  20  40  62  88 119 161 211 248 290 361
#     4  11  21  35  66  88 116 154 205 249 301 348
#     4  12  26  40  56  92 131 158 193 252 317 367
#     4  11  21  40  66  91 118 159 212 248 294 360
#     4  10  22  39  66  92 123 158 206 262 302 354
#     4  10  21  39  62  94 119 153 213 254 305 349
#     4  10  23  40  62  88 127 167 203 248 308 369
#     4  10  18  35  66  92 110 155 206 258 281 354
#
# _framework density 21.121480999999999
#
# number of rings (size 3 to 8) (size 9 to 14) (size 15 to 20)
#    0.000    1.500    3.750    2.250    1.750    2.000 
#    2.250    0.000    5.500    0.000    0.000    0.000 
#    0.000    0.000    0.000    0.000    0.000    0.000 
#
# Total GULP energy -89267.045028 kJ/mol
# GULP energy per Si atom -5579.190314 kJ/mol
# Density = 2.107341 g / cm^3
# Si number density = 21.121481 Si / 1000 Ang^3
#
#
#
# Elastic Constant Matrix: (Units=GPa)
#
#
# Indices 1 2 3 4 5 6 
#
# 1 49.5130 20.5666 16.4051 3.4216 5.6723 -21.4814
# 2 20.5666 84.1136 20.8125 -0.3862 11.1232 -21.3839
# 3 16.4051 20.8125 46.6903 10.2317 -0.4244 0.6591
# 4 3.4216 -0.3862 10.2317 13.1454 -3.2765 6.2224
# 5 5.6723 11.1232 -0.4244 -3.2765 14.0223 0.1664
# 6 -21.4814 -21.3839 0.6591 6.2224 0.1664 18.9965
#
#
#
# Elastic Compliance Matrix: (Units=1/GPa)
#
#
# Indices 1 2 3 4 5 6 
#
# 1 -0.284625 -0.158078 0.100729 0.372751 0.338136 -0.628354
# 2 -0.158078 -0.061480 0.046759 0.192112 0.162745 -0.313937
# 3 0.100729 0.046759 -0.005508 -0.152597 -0.116245 0.217733
# 4 0.372751 0.192112 -0.152597 -0.357901 -0.400489 0.763800
# 5 0.338136 0.162745 -0.116245 -0.400489 -0.300010 0.703408
# 6 -0.628354 -0.313937 0.217733 0.763800 0.703408 -1.275201
#
#
# Mechanical properties :
#
#
# Convention : Reuss Voigt Hill
#
# Bulk Modulus (GPa) = -2.68246 32.87614 15.09684
# Shear Modulus (GPa) = -2.09397 17.40168 7.65386
#
# Velocity S-wave (km/s) = -0.99677 2.87345 1.90568
# Velocity P-wave (km/s) = 1.61168 5.15830 3.46486
#
# Compressibility (1/GPa) = -0.37279262
#
# Stress axis : x y z
#
# Youngs Moduli (GPa) = -3.51339 -16.26553 -181.57035
#
# Poissons Ratio (x) = -2.57122 18.28938
# Poissons Ratio (y) = -0.55539 8.49000
# Poissons Ratio (z) = 0.35390 0.76056
#
# Static dielectric constant tensor:
#      x y z
#    x 1.764720 0.022910 0.017570 
#    y 0.022910 1.912610 0.034450 
#    z 0.017570 0.034450 1.716870 
# 
# From -- ./inp_files/308100.got.cif
#   From: 2010.05.17/outbox.ucp.g08.bks.cvg/sg2_155_cif.got.tgz:308100.got - 2010.06.11 11:32:03.
