data_PCOD9072655
_publ_section_title
;
Structure prediction by ZEFSAII (Michael W. Deem and Ramdas Pophale) SiO2 
 PCOD9072655
Probable space group: P -1
;
_chemical_formula_sum "Si O2"
_cell_formula_units_Z 14
_cell_length_a 9.231841
_cell_length_b 14.642349
_cell_length_c 7.834630
_cell_angle_alpha 45.712642
_cell_angle_beta 103.600843
_cell_angle_gamma 124.787173
_cell_volume 598.149705
_symmetry_space_group_name_H-M "P -1"
_symmetry_group_IT_number 2
_symmetry_cell_setting 'triclinic'
loop_
_space_group_symop_operation_xyz
x,y,z
-x,-y,-z
loop_
_atom_site_type_symbol
_atom_site_label
_atom_site_fract_x
_atom_site_fract_y
_atom_site_fract_z
Si Si1 0.720518 0.967355 0.522957
Si Si2 0.622269 0.654897 0.949934
Si Si3 0.595753 0.027275 0.738439
Si Si4 0.764103 0.467493 0.899348
Si Si5 0.039311 0.683822 0.962468
Si Si6 0.693379 0.537718 0.437834
Si Si7 0.275297 0.735669 0.253456
O O1 0.531653 0.932595 0.443851
O O2 0.708492 0.994721 0.684524
O O3 0.878777 0.135193 0.271143
O O4 0.731400 0.823864 0.670370
O O5 0.453972 0.646814 0.003552
O O6 0.739057 0.648871 0.142214
O O7 0.500000 0.500000 0.000000
O O8 0.726994 0.177158 0.696841
O O9 0.447222 0.874100 0.007981
O O10 0.806179 0.568004 0.605490
O O11 0.850270 0.574987 0.950928
O O12 0.837477 0.360246 0.047483
O O13 0.085613 0.660471 0.196210
O O14 0.500000 0.500000 0.500000
O O15 0.679561 0.389521 0.546582
#
# Coordination Sequence:
#
# PCOD9072655 Si02
#       7
#     2   2   2   2   2   2   2
#     4  10  18  31  49  74 100 128 164 205 253 289
#     4  11  21  33  52  75 101 132 168 205 239 294
#     4   9  16  27  48  73  99 124 162 215 248 284
#     4   9  18  35  54  74  99 132 167 201 251 298
#     4   9  18  33  55  76 100 128 161 210 256 295
#     4   9  17  30  48  69  98 135 168 195 234 298
#     4   9  16  28  48  76  98 125 167 207 251 290
#
# _framework density 23.405512000000002
#
# number of rings (size 3 to 8) (size 9 to 14) (size 15 to 20)
#    0.000    2.571    0.000    5.143    0.000    0.000 
#    0.000    2.857    0.000    6.000    0.000    0.000 
#    0.000    0.000    0.000    0.000    0.000    0.000 
#
# Total GULP energy -78131.211237 kJ/mol
# GULP energy per Si atom -5580.800803 kJ/mol
# Density = 2.335224 g / cm^3
# Si number density = 23.405512 Si / 1000 Ang^3
#
#
#
# Elastic Constant Matrix: (Units=GPa)
#
#
# Indices 1 2 3 4 5 6 
#
# 1 55.1419 7.0668 14.2307 -3.6467 14.7501 11.1397
# 2 7.0668 127.4833 30.1925 -6.8017 7.9846 -2.8063
# 3 14.2307 30.1925 134.7810 -24.6539 18.5803 3.8651
# 4 -3.6467 -6.8017 -24.6539 30.6578 -10.3934 6.4270
# 5 14.7501 7.9846 18.5803 -10.3934 23.9617 7.3415
# 6 11.1397 -2.8063 3.8651 6.4270 7.3415 27.6479
#
#
#
# Elastic Compliance Matrix: (Units=1/GPa)
#
#
# Indices 1 2 3 4 5 6 
#
# 1 0.022646 -0.000537 -0.000604 -0.000706 -0.011825 -0.005790
# 2 -0.000537 0.008420 -0.001734 -0.000714 -0.002061 0.002027
# 3 -0.000604 -0.001734 0.009553 0.006651 -0.002951 -0.002031
# 4 -0.000706 -0.000714 0.006651 0.049083 0.022338 -0.018059
# 5 -0.011825 -0.002061 -0.002951 0.022338 0.067214 -0.018072
# 6 -0.005790 0.002027 -0.002031 -0.018059 -0.018072 0.047989
#
#
# Mechanical properties :
#
#
# Convention : Reuss Voigt Hill
#
# Bulk Modulus (GPa) = 28.67777 46.70960 37.69368
# Shear Modulus (GPa) = 22.49437 34.18120 28.33779
#
# Velocity S-wave (km/s) = 3.10348 3.82565 3.48333
# Velocity P-wave (km/s) = 5.01211 6.28603 5.68487
#
# Compressibility (1/GPa) = 0.03487021
#
# Stress axis : x y z
#
# Youngs Moduli (GPa) = 44.15816 118.76132 104.67543
#
# Poissons Ratio (x) = 0.06376 0.06319
# Poissons Ratio (y) = 0.02371 0.18152
# Poissons Ratio (z) = 0.02666 0.20594
#
# Static dielectric constant tensor:
#      x y z
#    x 1.975480 -0.018990 -0.033550 
#    y -0.018990 1.909180 0.032720 
#    z -0.033550 0.032720 1.935850 
# 
# From -- ./inp_files/189970.got.cif
#   From: 2010.05.17/outbox.cif.g08.bks.cpg/sg2_95_cif.got.tgz:189970.got - 2010.06.03 11:33:40.
