data_PCOD9072017
_publ_section_title
;
Structure prediction by ZEFSAII (Michael W. Deem and Ramdas Pophale) SiO2 
 PCOD9072017
Probable space group: P -1
;
_chemical_formula_sum "Si O2"
_cell_formula_units_Z 14
_cell_length_a 11.608085
_cell_length_b 8.433611
_cell_length_c 8.017722
_cell_angle_alpha 95.461273
_cell_angle_beta 62.556302
_cell_angle_gamma 66.381036
_cell_volume 599.251408
_symmetry_space_group_name_H-M "P -1"
_symmetry_group_IT_number 2
_symmetry_cell_setting 'triclinic'
loop_
_space_group_symop_operation_xyz
x,y,z
-x,-y,-z
loop_
_atom_site_type_symbol
_atom_site_label
_atom_site_fract_x
_atom_site_fract_y
_atom_site_fract_z
Si Si1 0.348890 0.865243 0.109135
Si Si2 0.190452 0.658312 0.100447
Si Si3 0.134319 0.006554 0.572159
Si Si4 0.020872 0.458414 0.179811
Si Si5 0.080319 0.801853 0.835654
Si Si6 0.285523 0.211958 0.596007
Si Si7 0.429255 0.078561 0.822797
O O1 0.325854 0.692817 0.063230
O O2 0.216240 0.981407 0.341480
O O3 0.500944 0.826850 0.097640
O O4 0.345427 0.992096 0.971923
O O5 0.148352 0.501307 0.162128
O O6 0.180987 0.671682 0.905704
O O7 0.040672 0.840521 0.291466
O O8 0.160222 0.820549 0.620568
O O9 0.213515 0.081789 0.650578
O O10 0.031993 0.263341 0.162476
O O11 0.852910 0.605537 0.372077
O O12 0.000000 0.500000 0.000000
O O13 0.000000 0.000000 0.000000
O O14 0.340832 0.216858 0.744822
O O15 0.429870 0.102210 0.373104
#
# Coordination Sequence:
#
# PCOD9072017 Si02
#       7
#     2   2   2   2   2   2   2
#     4  10  18  30  50  78 111 144 180 214 256 314
#     4   9  17  30  50  78 110 136 168 220 272 312
#     4   9  17  29  51  81 107 137 173 218 268 314
#     4   9  18  32  55  84 106 130 170 229 278 306
#     4   9  17  31  53  80 105 130 169 213 268 327
#     4   9  17  34  56  79 107 138 182 221 256 309
#     4   9  19  32  53  80 107 150 186 211 249 309
#
# _framework density 23.362482
#
# number of rings (size 3 to 8) (size 9 to 14) (size 15 to 20)
#    0.000    2.857    0.000    2.143    0.000    2.286 
#    0.000    0.714    0.000   37.714    0.000    3.000 
#    0.000    0.000    0.000    0.000    0.000    0.000 
#
# Total GULP energy -78016.535173 kJ/mol
# GULP energy per Si atom -5572.609655 kJ/mol
# Density = 2.330931 g / cm^3
# Si number density = 23.362482 Si / 1000 Ang^3
#
#
#
# Elastic Constant Matrix: (Units=GPa)
#
#
# Indices 1 2 3 4 5 6 
#
# 1 132.7197 65.5698 28.8200 1.2793 -1.7214 29.4981
# 2 65.5698 94.3625 34.9689 -6.9532 -7.9323 43.3448
# 3 28.8200 34.9689 91.2436 -15.2006 -19.7432 -1.9820
# 4 1.2793 -6.9532 -15.2006 25.8694 2.8374 -5.6696
# 5 -1.7214 -7.9323 -19.7432 2.8374 26.9191 4.2388
# 6 29.4981 43.3448 -1.9820 -5.6696 4.2388 42.9490
#
#
#
# Elastic Compliance Matrix: (Units=1/GPa)
#
#
# Indices 1 2 3 4 5 6 
#
# 1 0.011940 -0.007661 -0.002004 -0.003738 -0.002441 -0.000814
# 2 -0.007661 0.034618 -0.010665 -0.004276 0.007292 -0.031452
# 3 -0.002004 -0.010665 0.019444 0.010818 0.007691 0.013706
# 4 -0.003738 -0.004276 0.010818 0.047119 -0.000684 0.013669
# 5 -0.002441 0.007292 0.007691 -0.000684 0.046429 -0.010000
# 6 -0.000814 -0.031452 0.013706 0.013669 -0.010000 0.059008
#
#
# Mechanical properties :
#
#
# Convention : Reuss Voigt Hill
#
# Bulk Modulus (GPa) = 39.45974 64.11589 51.78782
# Shear Modulus (GPa) = 18.67999 31.74533 25.21266
#
# Velocity S-wave (km/s) = 2.83074 3.69021 3.28867
# Velocity P-wave (km/s) = 5.25462 6.75725 6.05274
#
# Compressibility (1/GPa) = 0.02534228
#
# Stress axis : x y z
#
# Youngs Moduli (GPa) = 83.75274 28.88644 51.42888
#
# Poissons Ratio (x) = 0.22129 0.10306
# Poissons Ratio (y) = 0.64161 0.54851
# Poissons Ratio (z) = 0.16784 0.30809
#
# Static dielectric constant tensor:
#      x y z
#    x 1.958560 -0.011400 0.006870 
#    y -0.011400 1.988400 0.049620 
#    z 0.006870 0.049620 1.916230 
# 
# From -- ./inp_files/175296.got.cif
#   From: 2010.05.17/outbox.cif.g08.bks.cpg/sg2_88_cif.got.tgz:175296.got - 2010.06.03 11:33:40.
