data_PCOD9072699
_publ_section_title
;
Structure prediction by ZEFSAII (Michael W. Deem and Ramdas Pophale) SiO2 
 PCOD9072699
Probable space group: P -1
;
_chemical_formula_sum "Si O2"
_cell_formula_units_Z 14
_cell_length_a 10.804712
_cell_length_b 8.943005
_cell_length_c 9.810059
_cell_angle_alpha 64.593716
_cell_angle_beta 87.260369
_cell_angle_gamma 51.367271
_cell_volume 635.503062
_symmetry_space_group_name_H-M "P -1"
_symmetry_group_IT_number 2
_symmetry_cell_setting 'triclinic'
loop_
_space_group_symop_operation_xyz
x,y,z
-x,-y,-z
loop_
_atom_site_type_symbol
_atom_site_label
_atom_site_fract_x
_atom_site_fract_y
_atom_site_fract_z
Si Si1 0.430887 0.786780 0.266719
Si Si2 0.254081 0.269508 0.122612
Si Si3 0.310400 0.557034 0.297620
Si Si4 0.729679 0.137105 0.022147
Si Si5 0.576408 0.140899 0.280611
Si Si6 0.765095 0.639863 0.432345
Si Si7 0.936743 0.626683 0.175663
O O1 0.362858 0.664249 0.347668
O O2 0.416001 0.799903 0.096926
O O3 0.609224 0.689170 0.344991
O O4 0.297450 0.037679 0.230031
O O5 0.424423 0.209940 0.169237
O O6 0.115055 0.449392 0.166131
O O7 0.185344 0.345830 0.943587
O O8 0.238913 0.712393 0.105690
O O9 0.481176 0.308811 0.345572
O O10 0.192029 0.533334 0.388056
O O11 0.673776 0.183357 0.163203
O O12 0.872772 0.872385 0.100142
O O13 0.691659 0.877678 0.404288
O O14 0.902434 0.562750 0.343721
#
# Coordination Sequence:
#
# PCOD9072699 Si02
#       7
#     2   2   2   2   2   2   2
#     4   8  17  30  50  70  94 118 152 194 230 269
#     4   9  17  32  53  68  89 123 163 192 221 270
#     4  10  19  30  47  72 102 118 146 196 238 270
#     4   8  17  30  50  70  94 118 152 194 230 269
#     4  10  18  31  50  72  91 124 157 188 228 278
#     4  10  18  31  50  72  91 124 157 188 228 278
#     4   9  17  32  53  68  89 123 163 192 221 270
#
# _framework density 22.029790999999999
#
# number of rings (size 3 to 8) (size 9 to 14) (size 15 to 20)
#    0.857    2.000    0.000    2.143    0.000    3.429 
#    0.000    2.143    0.000    0.000    0.000    0.000 
#    0.000    0.000    0.000    0.000    0.000    0.000 
#
# Total GULP energy -78088.181605 kJ/mol
# GULP energy per Si atom -5577.727257 kJ/mol
# Density = 2.197965 g / cm^3
# Si number density = 22.029791 Si / 1000 Ang^3
#
#
#
# Elastic Constant Matrix: (Units=GPa)
#
#
# Indices 1 2 3 4 5 6 
#
# 1 52.1445 15.5894 32.5866 -3.5250 -13.9480 2.5090
# 2 15.5894 87.5444 46.8273 9.7510 -29.1096 4.5289
# 3 32.5866 46.8273 133.2598 -7.5437 -42.0003 -2.0035
# 4 -3.5250 9.7510 -7.5437 19.3926 2.1877 -4.1568
# 5 -13.9480 -29.1096 -42.0003 2.1877 43.2017 2.5664
# 6 2.5090 4.5289 -2.0035 -4.1568 2.5664 25.3415
#
#
#
# Elastic Compliance Matrix: (Units=1/GPa)
#
#
# Indices 1 2 3 4 5 6 
#
# 1 0.023189 -0.001065 -0.004416 0.002250 0.002501 -0.002339
# 2 -0.001065 0.018939 -0.004357 -0.013928 0.009294 -0.006850
# 3 -0.004416 -0.004357 0.012944 0.006072 0.007770 0.002448
# 4 0.002250 -0.013928 0.006072 0.065147 -0.006894 0.014131
# 5 0.002501 0.009294 0.007770 -0.006894 0.038496 -0.006324
# 6 -0.002339 -0.006850 0.002448 0.014131 -0.006324 0.044069
#
#
# Mechanical properties :
#
#
# Convention : Reuss Voigt Hill
#
# Bulk Modulus (GPa) = 28.25129 51.43947 39.84538
# Shear Modulus (GPa) = 21.34395 29.45019 25.39707
#
# Velocity S-wave (km/s) = 3.11604 3.66024 3.39905
# Velocity P-wave (km/s) = 5.07920 6.42369 5.79060
#
# Compressibility (1/GPa) = 0.03539661
#
# Stress axis : x y z
#
# Youngs Moduli (GPa) = 43.12372 52.80118 77.25336
#
# Poissons Ratio (x) = 0.05625 0.34113
# Poissons Ratio (y) = 0.04594 0.33658
# Poissons Ratio (z) = 0.19042 0.23005
#
# Static dielectric constant tensor:
#      x y z
#    x 1.807110 0.017900 0.041690 
#    y 0.017900 1.771220 -0.016800 
#    z 0.041690 -0.016800 1.880920 
# 
# From -- ./inp_files/238911.got.cif
#   From: 2010.05.17/outbox.cif.g08.bks.cpg/sg2_120_cif.got.tgz:238911.got - 2010.06.03 11:33:40.
