data_PCOD9072948
_publ_section_title
;
Structure prediction by ZEFSAII (Michael W. Deem and Ramdas Pophale) SiO2 
 PCOD9072948
Probable space group: P -1
;
_chemical_formula_sum "Si O2"
_cell_formula_units_Z 15
_cell_length_a 19.967968
_cell_length_b 31.445884
_cell_length_c 28.497877
_cell_angle_alpha 8.152769
_cell_angle_beta 13.712745
_cell_angle_gamma 15.462947
_cell_volume 600.349879
_symmetry_space_group_name_H-M "P -1"
_symmetry_group_IT_number 2
_symmetry_cell_setting 'triclinic'
loop_
_space_group_symop_operation_xyz
x,y,z
-x,-y,-z
loop_
_atom_site_type_symbol
_atom_site_label
_atom_site_fract_x
_atom_site_fract_y
_atom_site_fract_z
Si Si1 0.200792 0.754688 0.103245
Si Si2 0.812843 0.176094 0.066177
Si Si3 0.225774 0.616508 0.622778
Si Si4 0.056319 0.458982 0.290116
Si Si5 0.476628 0.298884 0.479871
Si Si6 0.875543 0.696737 0.058877
Si Si7 0.500000 0.500000 0.000000
Si Si8 0.418107 0.382738 0.844827
O O1 0.444964 0.579330 0.159062
O O2 0.000000 0.500000 0.500000
O O3 0.289787 0.873161 0.863112
O O4 0.000000 0.000000 0.000000
O O5 0.772242 0.845115 0.476448
O O6 0.652832 0.461657 0.886313
O O7 0.144289 0.230159 0.786059
O O8 0.552437 0.645444 0.351752
O O9 0.093035 0.415743 0.892698
O O10 0.231797 0.488014 0.811674
O O11 0.087845 0.951131 0.348981
O O12 0.059726 0.526978 0.158971
O O13 0.737631 0.426340 0.560338
O O14 0.213766 0.686922 0.966649
O O15 0.600691 0.413103 0.319275
O O16 0.611680 0.965552 0.741259
#
# Coordination Sequence:
#
# PCOD9072948 Si02
#       8
#     2   2   2   2   2   2   1   2
#     4  10  20  34  54  75 102 137 181 221 264 312
#     4  10  22  34  51  72 106 145 184 217 260 300
#     4   9  17  29  46  72  96 129 161 213 258 321
#     4  10  21  33  48  69 103 146 180 213 248 311
#     4  10  18  32  51  76 101 136 170 213 260 320
#     4   9  18  29  47  67  98 132 172 202 259 305
#     4  12  22  36  50  72 106 150 192 218 244 304
#     4  10  18  31  52  75 105 131 170 209 272 313
#
# _framework density 24.985430999999998
#
# number of rings (size 3 to 8) (size 9 to 14) (size 15 to 20)
#    0.000    2.133    1.333    3.600    3.733    3.200 
#    0.000    0.000    0.000    0.000    0.000    0.000 
#    0.000    6.400    0.000    0.400    0.000    0.000 
#
# Total GULP energy -83638.372987 kJ/mol
# GULP energy per Si atom -5575.891532 kJ/mol
# Density = 2.492856 g / cm^3
# Si number density = 24.985431 Si / 1000 Ang^3
#
#
#
# Elastic Constant Matrix: (Units=GPa)
#
#
# Indices 1 2 3 4 5 6 
#
# 1 166.7247 -6.7020 30.7211 0.0607 33.2493 -4.8310
# 2 -6.7020 25.4885 14.2004 19.0262 31.5018 1.8721
# 3 30.7211 14.2004 86.2799 -11.8062 6.7853 -3.7451
# 4 0.0607 19.0262 -11.8062 25.6084 -15.5702 -9.7153
# 5 33.2493 31.5018 6.7853 -15.5702 20.5209 -21.7366
# 6 -4.8310 1.8721 -3.7451 -9.7153 -21.7366 40.2083
#
#
#
# Elastic Compliance Matrix: (Units=1/GPa)
#
#
# Indices 1 2 3 4 5 6 
#
# 1 0.005783 -0.003223 -0.001006 0.003976 0.001733 0.002649
# 2 -0.003223 0.005627 0.000950 0.011911 0.018162 0.012135
# 3 -0.001006 0.000950 0.012202 0.000099 -0.006396 -0.002462
# 4 0.003976 0.011911 0.000099 0.016663 -0.018540 -0.006064
# 5 0.001733 0.018162 -0.006396 -0.018540 0.000091 -0.005664
# 6 0.002649 0.012135 -0.002462 -0.006064 -0.005664 0.019867
#
#
# Mechanical properties :
#
#
# Convention : Reuss Voigt Hill
#
# Bulk Modulus (GPa) = 58.63916 39.43690 49.03803
# Shear Modulus (GPa) = 68.98649 33.28576 51.13613
#
# Velocity S-wave (km/s) = 5.26029 3.65390 4.52889
# Velocity P-wave (km/s) = 7.77267 5.79824 6.85689
#
# Compressibility (1/GPa) = 0.01705345
#
# Stress axis : x y z
#
# Youngs Moduli (GPa) = 172.90948 177.70022 81.95602
#
# Poissons Ratio (x) = 0.57281 0.08244
# Poissons Ratio (y) = 0.55737 -0.07785
# Poissons Ratio (z) = 0.17394 -0.16879
#
# Static dielectric constant tensor:
#      x y z
#    x 1.914170 0.046700 0.196620 
#    y 0.046700 1.989770 -0.031790 
#    z 0.196620 -0.031790 1.467530 
# 
# From -- ./inp_files/85234.got.cif
#   From: 2010.05.17/outbox.cif.g08.bks.cpg/sg2_43_cif.got.tgz:85234.got - 2010.06.03 11:33:40.
