data_PCOD9072277
_publ_section_title
;
Structure prediction by ZEFSAII (Michael W. Deem and Ramdas Pophale) SiO2 
 PCOD9072277
Probable space group: P -1
;
_chemical_formula_sum "Si O2"
_cell_formula_units_Z 12
_cell_length_a 21.000000
_cell_length_b 12.000000
_cell_length_c 9.000000
_cell_angle_alpha 40.000000
_cell_angle_beta 30.000000
_cell_angle_gamma 30.000000
_cell_volume 565.831119
_symmetry_space_group_name_H-M "P -1"
_symmetry_group_IT_number 2
_symmetry_cell_setting 'triclinic'
loop_
_space_group_symop_operation_xyz
x,y,z
-x,-y,-z
loop_
_atom_site_type_symbol
_atom_site_label
_atom_site_fract_x
_atom_site_fract_y
_atom_site_fract_z
Si Si1 0.406694 0.222389 0.259375
Si Si2 0.785894 0.296282 0.754275
Si Si3 0.618137 0.250099 0.585754
Si Si4 0.790267 0.372984 0.327664
Si Si5 0.079552 0.048116 0.917147
Si Si6 0.462660 0.804185 0.651776
O O1 0.256334 0.484954 0.307018
O O2 0.505996 0.182617 0.251396
O O3 0.369449 0.050877 0.522186
O O4 0.512594 0.190733 0.936981
O O5 0.834873 0.289725 0.492934
O O6 0.628353 0.301904 0.064932
O O7 0.904787 0.088441 0.831525
O O8 0.500000 0.500000 0.500000
O O9 0.717089 0.268540 0.495925
O O10 0.742391 0.070098 0.393667
O O11 0.637746 0.635461 0.387912
O O12 0.945504 0.300978 0.988608
O O13 0.000000 0.000000 0.000000
#
# Coordination Sequence:
#
# PCOD9072277 Si02
#       6
#     2   2   2   2   2   2
#     4  10  19  33  61  88 109 141 187 237 271 314
#     4  11  18  38  61  81 108 149 193 229 265 330
#     4  11  18  35  57  83 114 147 183 225 280 330
#     4  10  19  35  56  84 112 148 186 225 275 330
#     4  10  22  33  58  82 112 151 183 225 290 330
#     4  10  19  34  62  87 108 139 197 229 267 324
#
# _framework density 21.207740999999999
#
# number of rings (size 3 to 8) (size 9 to 14) (size 15 to 20)
#    0.000    1.667    5.000    1.500    0.000    0.000 
#    0.000    4.167    7.333    4.000    0.000    0.000 
#    0.000    0.000    0.000    0.000    0.000    0.000 
#
# Total GULP energy -66915.355021 kJ/mol
# GULP energy per Si atom -5576.279585 kJ/mol
# Density = 2.115947 g / cm^3
# Si number density = 21.207741 Si / 1000 Ang^3
#
#
#
# Elastic Constant Matrix: (Units=GPa)
#
#
# Indices 1 2 3 4 5 6 
#
# 1 61.0349 6.4926 -4.1487 14.9928 8.4554 5.7794
# 2 6.4926 88.1323 44.1329 19.1832 14.6860 20.3575
# 3 -4.1487 44.1329 74.9094 26.1516 28.4481 22.3211
# 4 14.9928 19.1832 26.1516 42.4870 14.2693 7.6019
# 5 8.4554 14.6860 28.4481 14.2693 19.1310 9.6724
# 6 5.7794 20.3575 22.3211 7.6019 9.6724 27.0282
#
#
#
# Elastic Compliance Matrix: (Units=1/GPa)
#
#
# Indices 1 2 3 4 5 6 
#
# 1 0.023804 -0.003065 0.016956 -0.008258 -0.024309 -0.005763
# 2 -0.003065 0.017645 -0.011957 -0.001801 0.009855 -0.005780
# 3 0.016956 -0.011957 0.052052 -0.009444 -0.062269 -0.012667
# 4 -0.008258 -0.001801 -0.009444 0.035531 -0.009638 0.004378
# 5 -0.024309 0.009855 -0.062269 -0.009638 0.157481 -0.004446
# 6 -0.005763 -0.005780 -0.012667 0.004378 -0.004446 0.053405
#
#
# Mechanical properties :
#
#
# Convention : Reuss Voigt Hill
#
# Bulk Modulus (GPa) = 10.27020 35.22557 22.74789
# Shear Modulus (GPa) = 13.56826 29.56923 21.56874
#
# Velocity S-wave (km/s) = 2.53213 3.73804 3.19254
# Velocity P-wave (km/s) = 3.66088 5.93939 4.93348
#
# Compressibility (1/GPa) = 0.09736912
#
# Stress axis : x y z
#
# Youngs Moduli (GPa) = 42.00917 56.67389 19.21149
#
# Poissons Ratio (x) = 0.17372 -0.32575
# Poissons Ratio (y) = 0.12877 0.22971
# Poissons Ratio (z) = -0.71230 0.67763
#
# Static dielectric constant tensor:
#      x y z
#    x 1.789410 -0.046250 -0.013190 
#    y -0.046250 1.818760 0.066150 
#    z -0.013190 0.066150 1.750860 
# 
# From -- ./inp_files/149364.got.cif
#   From: 2010.05.17/outbox.ucp.g08.bks.cvg/sg2_75_cif.got.tgz:149364.got - 2010.06.11 11:32:03.
