data_PCOD9072886
_publ_section_title
;
Structure prediction by ZEFSAII (Michael W. Deem and Ramdas Pophale) SiO2 
 PCOD9072886
Probable space group: P -1
;
_chemical_formula_sum "Si O2"
_cell_formula_units_Z 16
_cell_length_a 14.480311
_cell_length_b 7.275682
_cell_length_c 17.998558
_cell_angle_alpha 142.127001
_cell_angle_beta 139.547708
_cell_angle_gamma 38.150186
_cell_volume 668.166096
_symmetry_space_group_name_H-M "P -1"
_symmetry_group_IT_number 2
_symmetry_cell_setting 'triclinic'
loop_
_space_group_symop_operation_xyz
x,y,z
-x,-y,-z
loop_
_atom_site_type_symbol
_atom_site_label
_atom_site_fract_x
_atom_site_fract_y
_atom_site_fract_z
Si Si1 0.035840 0.480289 0.203972
Si Si2 0.582574 0.321468 0.162410
Si Si3 0.265617 0.427105 0.045111
Si Si4 0.404398 0.317227 0.846943
Si Si5 0.083349 0.828334 0.858806
Si Si6 0.181902 0.910652 0.632400
Si Si7 0.260767 0.278647 0.149557
Si Si8 0.985643 0.555359 0.420816
O O1 0.045122 0.173603 0.162231
O O2 0.960543 0.812692 0.314413
O O3 0.188682 0.419959 0.230447
O O4 0.896959 0.511813 0.072996
O O5 0.389577 0.538834 0.120949
O O6 0.647459 0.528633 0.218247
O O7 0.661666 0.219869 0.259952
O O8 0.629248 0.983445 0.033960
O O9 0.229363 0.525381 0.139973
O O10 0.248072 0.459579 0.849547
O O11 0.546633 0.942990 0.804079
O O12 0.500000 0.500000 0.000000
O O13 0.021525 0.769168 0.723235
O O14 0.160105 0.076808 0.997869
O O15 0.158580 0.102845 0.599412
O O16 0.138203 0.602602 0.501719
O O17 0.000000 0.500000 0.500000
#
# Coordination Sequence:
#
# PCOD9072886 Si02
#       8
#     2   2   2   2   2   2   2   2
#     4  10  21  35  52  78 123 148 169 222 283 335
#     4  10  18  32  52  77 113 143 180 236 271 314
#     4  10  19  29  50  76 112 150 177 211 276 332
#     4  10  18  31  51  79 111 145 187 223 262 331
#     4  10  20  34  54  83 107 141 185 226 274 324
#     4   9  21  37  56  85 110 142 189 236 281 325
#     4  11  21  32  52  85 118 145 178 215 275 351
#     4  10  20  35  59  83 106 141 190 244 279 314
#
# _framework density 23.946141999999998
#
# number of rings (size 3 to 8) (size 9 to 14) (size 15 to 20)
#    0.000    2.000    2.500    3.000    7.000    0.000 
#    0.000    0.000    0.000    0.750    0.000   12.250 
#    0.000    0.000    0.000    0.000    0.000    0.000 
#
# Total GULP energy -89167.833750 kJ/mol
# GULP energy per Si atom -5572.989609 kJ/mol
# Density = 2.389164 g / cm^3
# Si number density = 23.946142 Si / 1000 Ang^3
#
#
#
# Elastic Constant Matrix: (Units=GPa)
#
#
# Indices 1 2 3 4 5 6 
#
# 1 141.6187 30.7142 9.3559 -12.6420 -19.8530 -4.7731
# 2 30.7142 57.0618 9.4131 -9.9204 -11.4840 1.7485
# 3 9.3559 9.4131 66.5976 -6.7855 -14.3089 -5.2866
# 4 -12.6420 -9.9204 -6.7855 26.3285 14.1403 -7.1749
# 5 -19.8530 -11.4840 -14.3089 14.1403 36.2477 -6.3744
# 6 -4.7731 1.7485 -5.2866 -7.1749 -6.3744 40.1282
#
#
#
# Elastic Compliance Matrix: (Units=1/GPa)
#
#
# Indices 1 2 3 4 5 6 
#
# 1 0.008534 -0.003773 0.000380 0.001503 0.003401 0.002039
# 2 -0.003773 0.021034 -0.001558 0.004423 0.002181 -0.000433
# 3 0.000380 -0.001558 0.017020 0.001489 0.006495 0.003653
# 4 0.001503 0.004423 0.001489 0.051176 -0.015956 0.006798
# 5 0.003401 0.002181 0.006495 -0.015956 0.039743 0.004626
# 6 0.002039 -0.000433 0.003653 0.006798 0.004626 0.027613
#
#
# Mechanical properties :
#
#
# Convention : Reuss Voigt Hill
#
# Bulk Modulus (GPa) = 27.25883 40.47161 33.86522
# Shear Modulus (GPa) = 26.70233 34.92722 30.81477
#
# Velocity S-wave (km/s) = 3.34293 3.82327 3.59114
# Velocity P-wave (km/s) = 5.12917 6.03553 5.60072
#
# Compressibility (1/GPa) = 0.03668537
#
# Stress axis : x y z
#
# Youngs Moduli (GPa) = 117.17790 47.54250 58.75607
#
# Poissons Ratio (x) = 0.17937 -0.02233
# Poissons Ratio (y) = 0.44210 0.09155
# Poissons Ratio (z) = -0.04454 0.07408
#
# Static dielectric constant tensor:
#      x y z
#    x 2.023770 0.035580 0.045430 
#    y 0.035580 2.074520 -0.000530 
#    z 0.045430 -0.000530 2.000300 
# 
# From -- ./inp_files/311640.got.cif
#   From: 2010.05.17/outbox.cif.g08.bks.cpg/sg2_156_cif.got.tgz:311640.got - 2010.06.03 11:33:40.
