data_PCOD9072739
_publ_section_title
;
Structure prediction by ZEFSAII (Michael W. Deem and Ramdas Pophale) SiO2 
 PCOD9072739
Probable space group: P -1
;
_chemical_formula_sum "Si O2"
_cell_formula_units_Z 14
_cell_length_a 9.376878
_cell_length_b 22.497241
_cell_length_c 19.722055
_cell_angle_alpha 18.018503
_cell_angle_beta 136.988868
_cell_angle_gamma 128.232672
_cell_volume 818.131021
_symmetry_space_group_name_H-M "P -1"
_symmetry_group_IT_number 2
_symmetry_cell_setting 'triclinic'
loop_
_space_group_symop_operation_xyz
x,y,z
-x,-y,-z
loop_
_atom_site_type_symbol
_atom_site_label
_atom_site_fract_x
_atom_site_fract_y
_atom_site_fract_z
Si Si1 0.665408 0.755137 0.524265
Si Si2 0.314594 0.099027 0.772183
Si Si3 0.900326 0.515512 0.205944
Si Si4 0.776809 0.091384 0.277441
Si Si5 0.969883 0.096487 0.196003
Si Si6 0.483832 0.474260 0.844022
Si Si7 0.174408 0.618507 0.815256
O O1 0.590628 0.854117 0.317244
O O2 0.507143 0.643336 0.617824
O O3 0.930556 0.615610 0.756752
O O4 0.683164 0.918532 0.407986
O O5 0.131025 0.316727 0.497190
O O6 0.187163 0.947156 0.868699
O O7 0.500000 0.000000 0.000000
O O8 0.755197 0.497019 0.239305
O O9 0.771982 0.498095 0.110862
O O10 0.934109 0.733146 0.979286
O O11 0.841264 0.171911 0.141088
O O12 0.594434 0.261320 0.073623
O O13 0.000000 0.000000 0.500000
O O14 0.135182 0.861110 0.526187
O O15 0.647115 0.469399 0.969050
#
# Coordination Sequence:
#
# PCOD9072739 Si02
#       7
#     2   2   2   2   2   2   2
#     4   9  20  33  55  78 103 140 186 214 249 313
#     4   9  20  42  62  74  94 134 185 229 269 309
#     4  10  22  33  51  81 109 139 175 220 260 315
#     4  10  18  31  50  76 104 145 175 207 245 304
#     4   9  19  36  53  79 108 133 186 207 255 320
#     4  12  20  31  51  80 116 144 171 209 262 304
#     4   9  19  33  49  76 110 153 178 203 243 309
#
# _framework density 17.112172999999999
#
# number of rings (size 3 to 8) (size 9 to 14) (size 15 to 20)
#    0.000    2.857    2.857    2.571    2.000    3.429 
#    0.000    0.714    0.000    4.286    0.000    0.000 
#    0.000    0.000    0.000    0.000    0.000    0.000 
#
# Total GULP energy -78006.799929 kJ/mol
# GULP energy per Si atom -5571.914281 kJ/mol
# Density = 1.707322 g / cm^3
# Si number density = 17.112173 Si / 1000 Ang^3
#
#
#
# Elastic Constant Matrix: (Units=GPa)
#
#
# Indices 1 2 3 4 5 6 
#
# 1 108.9549 40.6146 39.2236 -28.8589 -17.0095 0.9166
# 2 40.6146 77.8828 47.0136 -1.6868 -8.0876 -11.7783
# 3 39.2236 47.0136 52.5649 -2.3370 -8.2792 -0.6628
# 4 -28.8589 -1.6868 -2.3370 33.4781 -0.8364 -2.3431
# 5 -17.0095 -8.0876 -8.2792 -0.8364 5.6653 -4.3041
# 6 0.9166 -11.7783 -0.6628 -2.3431 -4.3041 15.8099
#
#
#
# Elastic Compliance Matrix: (Units=1/GPa)
#
#
# Indices 1 2 3 4 5 6 
#
# 1 0.162261 0.069604 -0.057110 0.176190 0.730435 0.265020
# 2 0.069604 0.073520 -0.053930 0.080427 0.369251 0.160921
# 3 -0.057110 -0.053930 0.067889 -0.060820 -0.240701 -0.108563
# 4 0.176190 0.080427 -0.060820 0.223196 0.818028 0.302934
# 5 0.730435 0.369251 -0.240701 0.818028 3.690237 1.348525
# 6 0.265020 0.160921 -0.108563 0.302934 1.348525 0.575242
#
#
# Mechanical properties :
#
#
# Convention : Reuss Voigt Hill
#
# Bulk Modulus (GPa) = 4.52902 54.78957 29.65930
# Shear Modulus (GPa) = 1.01034 18.49402 9.75218
#
# Velocity S-wave (km/s) = 0.76922 3.29105 2.38984
# Velocity P-wave (km/s) = 1.85509 6.82120 4.99850
#
# Compressibility (1/GPa) = 0.22079825
#
# Stress axis : x y z
#
# Youngs Moduli (GPa) = 6.16289 13.60182 14.72989
#
# Poissons Ratio (x) = -0.94673 0.84122
# Poissons Ratio (y) = -0.42896 0.79438
# Poissons Ratio (z) = 0.35196 0.73354
#
# Static dielectric constant tensor:
#      x y z
#    x 1.598240 -0.000930 -0.004110 
#    y -0.000930 1.571220 -0.021480 
#    z -0.004110 -0.021480 1.604070 
# 
# From -- ./inp_files/447738.got.cif
#   From: 2010.05.17/outbox.cif.g08.bks.cpg/sg2_224_cif.got.tgz:447738.got - 2010.06.03 11:33:40.
