data_PCOD9072547
_publ_section_title
;
Structure prediction by ZEFSAII (Michael W. Deem and Ramdas Pophale) SiO2 
 PCOD9072547
Probable space group: P -1
;
_chemical_formula_sum "Si O2"
_cell_formula_units_Z 14
_cell_length_a 12.000000
_cell_length_b 12.000000
_cell_length_c 9.000000
_cell_angle_alpha 130.000000
_cell_angle_beta 60.000000
_cell_angle_gamma 140.000000
_cell_volume 638.079485
_symmetry_space_group_name_H-M "P -1"
_symmetry_group_IT_number 2
_symmetry_cell_setting 'triclinic'
loop_
_space_group_symop_operation_xyz
x,y,z
-x,-y,-z
loop_
_atom_site_type_symbol
_atom_site_label
_atom_site_fract_x
_atom_site_fract_y
_atom_site_fract_z
Si Si1 0.670552 0.318446 0.151449
Si Si2 0.825560 0.365692 0.402495
Si Si3 0.037653 0.069717 0.274505
Si Si4 0.786897 0.996979 0.137897
Si Si5 0.514931 0.843276 0.404525
Si Si6 0.096888 0.252362 0.701752
Si Si7 0.313067 0.989005 0.252483
O O1 0.798324 0.400539 0.281725
O O2 0.764750 0.516522 0.167813
O O3 0.470370 0.186412 0.225245
O O4 0.667510 0.166728 0.931609
O O5 0.780100 0.160319 0.237269
O O6 0.678357 0.340106 0.571751
O O7 0.000000 0.500000 0.500000
O O8 0.893827 0.858904 0.269524
O O9 0.938902 0.096943 0.246335
O O10 0.125160 0.211343 0.480699
O O11 0.164746 0.068436 0.087813
O O12 0.607096 0.827801 0.197019
O O13 0.637940 0.939197 0.549069
O O14 0.500000 0.000000 0.500000
O O15 0.890460 0.134502 0.743617
#
# Coordination Sequence:
#
# PCOD9072547 Si02
#       7
#     2   2   2   2   2   2   2
#     4  10  22  37  64  98 123 157 203 265 325 365
#     4  10  20  35  64  96 121 153 203 268 318 366
#     4  10  22  36  63  86 123 175 210 242 295 376
#     4  10  19  39  60  85 123 166 205 248 306 371
#     4   9  19  35  60  89 118 159 194 256 323 353
#     4  11  21  40  63  90 122 170 208 251 310 365
#     4  10  20  38  62  93 127 153 203 268 317 372
#
# _framework density 21.940840000000001
#
# number of rings (size 3 to 8) (size 9 to 14) (size 15 to 20)
#    0.000    2.000    1.429    2.143    2.000    1.143 
#    0.000    2.857    6.286    3.429    0.000    0.000 
#    0.000    0.000    0.000    0.000    0.000    0.000 
#
# Total GULP energy -78137.852319 kJ/mol
# GULP energy per Si atom -5581.275166 kJ/mol
# Density = 2.189090 g / cm^3
# Si number density = 21.940840 Si / 1000 Ang^3
#
#
#
# Elastic Constant Matrix: (Units=GPa)
#
#
# Indices 1 2 3 4 5 6 
#
# 1 42.8213 18.5566 12.0276 -7.2634 -5.6251 -4.5287
# 2 18.5566 90.9117 34.6877 8.3817 -8.1429 3.5272
# 3 12.0276 34.6877 92.0078 -32.3469 -14.7204 13.8163
# 4 -7.2634 8.3817 -32.3469 36.4345 6.4722 -1.3668
# 5 -5.6251 -8.1429 -14.7204 6.4722 28.5815 -2.3340
# 6 -4.5287 3.5272 13.8163 -1.3668 -2.3340 37.9765
#
#
#
# Elastic Compliance Matrix: (Units=1/GPa)
#
#
# Indices 1 2 3 4 5 6 
#
# 1 0.028157 -0.007175 0.001941 0.008623 0.002855 0.003804
# 2 -0.007175 0.018541 -0.011716 -0.016343 0.001635 0.001197
# 3 0.001941 -0.011716 0.025338 0.024619 0.003966 -0.006769
# 4 0.008623 -0.016343 0.024619 0.055169 -0.003149 -0.004619
# 5 0.002855 0.001635 0.003966 -0.003149 0.038855 0.001020
# 6 0.003804 0.001197 -0.006769 -0.004619 0.001020 0.029034
#
#
# Mechanical properties :
#
#
# Convention : Reuss Voigt Hill
#
# Bulk Modulus (GPa) = 26.22113 39.58716 32.90414
# Shear Modulus (GPa) = 20.68640 31.29644 25.99142
#
# Velocity S-wave (km/s) = 3.07388 3.78087 3.44556
# Velocity P-wave (km/s) = 4.95733 6.09441 5.55504
#
# Compressibility (1/GPa) = 0.03813719
#
# Stress axis : x y z
#
# Youngs Moduli (GPa) = 35.51546 53.93378 39.46588
#
# Poissons Ratio (x) = 0.38697 -0.07662
# Poissons Ratio (y) = 0.25482 0.46239
# Poissons Ratio (z) = -0.06895 0.63190
#
# Static dielectric constant tensor:
#      x y z
#    x 1.847970 -0.004470 -0.027300 
#    y -0.004470 1.829470 -0.032430 
#    z -0.027300 -0.032430 1.789630 
# 
# From -- ./inp_files/178034.got.cif
#   From: 2010.05.17/outbox.ucp.g08.bks.cvg/sg2_90_cif.got.tgz:178034.got - 2010.06.11 11:32:03.
