data_PCOD9072148
_publ_section_title
;
Structure prediction by ZEFSAII (Michael W. Deem and Ramdas Pophale) SiO2 
 PCOD9072148
Probable space group: P -1
;
_chemical_formula_sum "Si O2"
_cell_formula_units_Z 16
_cell_length_a 19.103243
_cell_length_b 13.142357
_cell_length_c 11.635827
_cell_angle_alpha 110.656130
_cell_angle_beta 143.927004
_cell_angle_gamma 42.487888
_cell_volume 919.112338
_symmetry_space_group_name_H-M "P -1"
_symmetry_group_IT_number 2
_symmetry_cell_setting 'triclinic'
loop_
_space_group_symop_operation_xyz
x,y,z
-x,-y,-z
loop_
_atom_site_type_symbol
_atom_site_label
_atom_site_fract_x
_atom_site_fract_y
_atom_site_fract_z
Si Si1 0.219213 0.645662 0.232831
Si Si2 0.408713 0.804854 0.478135
Si Si3 0.771114 0.220809 0.929593
Si Si4 0.427188 0.448782 0.751569
Si Si5 0.212720 0.870946 0.460999
Si Si6 0.080848 0.583466 0.203924
Si Si7 0.248880 0.805209 0.736789
Si Si8 0.660376 0.807953 0.709088
O O1 0.427950 0.417605 0.403374
O O2 0.188833 0.722285 0.096995
O O3 0.236604 0.734389 0.378239
O O4 0.074593 0.665110 0.113331
O O5 0.242504 0.886926 0.195732
O O6 0.315591 0.874325 0.508194
O O7 0.521270 0.831710 0.610017
O O8 0.570097 0.383041 0.808468
O O9 0.967193 0.076038 0.215456
O O10 0.238361 0.522052 0.476939
O O11 0.313719 0.630421 0.741388
O O12 0.597668 0.264786 0.988695
O O13 0.297630 0.815084 0.678968
O O14 0.200827 0.380398 0.256748
O O15 0.842205 0.741234 0.985065
O O16 0.000000 0.000000 0.500000
O O17 0.500000 0.000000 0.500000
#
# Coordination Sequence:
#
# PCOD9072148 Si02
#       8
#     2   2   2   2   2   2   2   2
#     4  10  18  30  52  76 113 141 170 214 278 336
#     4  10  19  33  50  78 109 143 175 221 277 327
#     4  11  19  30  52  84 109 145 171 213 284 336
#     4  11  21  36  55  75 118 145 179 221 267 323
#     4  11  20  31  52  79 112 141 180 219 272 331
#     4  10  21  36  53  80 111 148 179 217 271 325
#     4  11  22  35  52  82 110 147 184 218 265 324
#     4  10  22  34  54  80 111 142 186 219 267 322
#
# _framework density 17.408100000000001
#
# number of rings (size 3 to 8) (size 9 to 14) (size 15 to 20)
#    0.000    1.500    5.000    3.750    3.500    1.000 
#    0.000    0.000    0.000    0.750    0.000    1.750 
#    0.000    0.000    0.000    0.000    0.000    0.000 
#
# Total GULP energy -89078.586929 kJ/mol
# GULP energy per Si atom -5567.411683 kJ/mol
# Density = 1.736848 g / cm^3
# Si number density = 17.408100 Si / 1000 Ang^3
#
#
#
# Elastic Constant Matrix: (Units=GPa)
#
#
# Indices 1 2 3 4 5 6 
#
# 1 76.4412 24.6772 51.1332 -6.4545 3.3422 6.5580
# 2 24.6772 44.2467 29.7196 -8.7818 5.7272 6.2884
# 3 51.1332 29.7196 131.4091 -6.4592 -1.6926 12.3051
# 4 -6.4545 -8.7818 -6.4592 18.8285 -1.2425 -0.6047
# 5 3.3422 5.7272 -1.6926 -1.2425 32.3840 2.8753
# 6 6.5580 6.2884 12.3051 -0.6047 2.8753 21.7115
#
#
#
# Elastic Compliance Matrix: (Units=1/GPa)
#
#
# Indices 1 2 3 4 5 6 
#
# 1 0.019331 -0.006227 -0.006010 0.001574 -0.001109 -0.000439
# 2 -0.006227 0.032104 -0.003951 0.011053 -0.004437 -0.004283
# 3 -0.006010 -0.003951 0.011215 -0.000027 0.002232 -0.003693
# 4 0.001574 0.011053 -0.000027 0.058751 0.000319 -0.002068
# 5 -0.001109 -0.004437 0.002232 0.000319 0.032254 -0.003908
# 6 -0.000439 -0.004283 -0.003693 -0.002068 -0.003908 0.049985
#
#
# Mechanical properties :
#
#
# Convention : Reuss Voigt Hill
#
# Bulk Modulus (GPa) = 33.02918 51.46187 42.24553
# Shear Modulus (GPa) = 20.31651 24.35592 22.33622
#
# Velocity S-wave (km/s) = 3.41995 3.74453 3.58592
# Velocity P-wave (km/s) = 5.88297 6.95137 6.43937
#
# Compressibility (1/GPa) = 0.03027625
#
# Stress axis : x y z
#
# Youngs Moduli (GPa) = 51.73037 31.14924 89.16676
#
# Poissons Ratio (x) = 0.19395 0.53586
# Poissons Ratio (y) = 0.32210 0.35225
# Poissons Ratio (z) = 0.31088 0.12306
#
# Static dielectric constant tensor:
#      x y z
#    x 1.625840 0.003560 0.001980 
#    y 0.003560 1.603330 -0.019800 
#    z 0.001980 -0.019800 1.683590 
# 
# From -- ./inp_files/463752.got.cif
#   From: 2010.05.17/outbox.cif.g08.bks.cpg/sg2_232_cif.got.tgz:463752.got - 2010.06.03 11:33:40.
