data_PCOD9072436
_publ_section_title
;
Structure prediction by ZEFSAII (Michael W. Deem and Ramdas Pophale) SiO2 
 PCOD9072436
Probable space group: P -1
;
_chemical_formula_sum "Si O2"
_cell_formula_units_Z 12
_cell_length_a 9.000000
_cell_length_b 21.000000
_cell_length_c 24.000000
_cell_angle_alpha 170.000000
_cell_angle_beta 140.000000
_cell_angle_gamma 40.000000
_cell_volume 503.543740
_symmetry_space_group_name_H-M "P -1"
_symmetry_group_IT_number 2
_symmetry_cell_setting 'triclinic'
loop_
_space_group_symop_operation_xyz
x,y,z
-x,-y,-z
loop_
_atom_site_type_symbol
_atom_site_label
_atom_site_fract_x
_atom_site_fract_y
_atom_site_fract_z
Si Si1 0.641306 0.766530 0.516595
Si Si2 0.816164 0.848162 0.228796
Si Si3 0.117445 0.672529 0.628102
Si Si4 0.589923 0.037436 0.950058
Si Si5 0.876662 0.689210 0.985704
Si Si6 0.385463 0.913310 0.333531
O O1 0.634397 0.380212 0.215997
O O2 0.904810 0.845675 0.677286
O O3 0.430465 0.056077 0.728503
O O4 0.594661 0.805374 0.470188
O O5 0.919627 0.247857 0.606791
O O6 0.761633 0.753870 0.068945
O O7 0.000000 0.500000 0.000000
O O8 0.283954 0.939048 0.934363
O O9 0.000000 0.500000 0.500000
O O10 0.288376 0.339062 0.364478
O O11 0.310595 0.103317 0.931161
O O12 0.112737 0.869425 0.216924
O O13 0.500000 0.000000 0.500000
O O14 0.500000 0.500000 0.000000
#
# Coordination Sequence:
#
# PCOD9072436 Si02
#       6
#     2   2   2   2   2   2
#     4  10  23  42  67  95 127 171 216 264 321 384
#     4  11  23  41  66  93 124 173 226 269 316 377
#     4  10  19  36  64  97 124 156 209 272 322 374
#     4  10  21  38  65  96 123 159 212 270 322 379
#     4  11  23  42  63  92 132 170 210 271 326 379
#     4  12  28  45  62  91 134 177 217 264 321 385
#
# _framework density 23.831098000000001
#
# number of rings (size 3 to 8) (size 9 to 14) (size 15 to 20)
#    0.000    1.333    0.000    7.500    0.000   12.000 
#    0.000    1.667    0.000    0.000    0.000    1.167 
#    0.000    0.000    0.000    0.000    0.000    0.000 
#
# Total GULP energy -67048.558207 kJ/mol
# GULP energy per Si atom -5587.379851 kJ/mol
# Density = 2.377686 g / cm^3
# Si number density = 23.831098 Si / 1000 Ang^3
#
#
#
# Elastic Constant Matrix: (Units=GPa)
#
#
# Indices 1 2 3 4 5 6 
#
# 1 51.2467 18.1114 18.1664 -0.6650 -3.8914 -11.8115
# 2 18.1114 145.6215 4.1324 -13.7385 2.1234 -12.4675
# 3 18.1664 4.1324 95.1285 -5.9533 -34.0652 -4.3953
# 4 -0.6650 -13.7385 -5.9533 44.6170 -3.3726 -6.6951
# 5 -3.8914 2.1234 -34.0652 -3.3726 37.7794 -0.1636
# 6 -11.8115 -12.4675 -4.3953 -6.6951 -0.1636 53.7366
#
#
#
# Elastic Compliance Matrix: (Units=1/GPa)
#
#
# Indices 1 2 3 4 5 6 
#
# 1 0.022820 -0.002388 -0.004767 -0.000571 -0.001847 0.003995
# 2 -0.002388 0.007532 0.000302 0.002546 -0.000163 0.001564
# 3 -0.004767 0.000302 0.017149 0.003603 0.015281 0.000921
# 4 -0.000571 0.002546 0.003603 0.024644 0.005264 0.003846
# 5 -0.001847 -0.000163 0.015281 0.005264 0.040544 0.001585
# 6 0.003995 0.001564 0.000921 0.003846 0.001585 0.020410
#
#
# Mechanical properties :
#
#
# Convention : Reuss Voigt Hill
#
# Bulk Modulus (GPa) = 29.58856 41.42411 35.50634
# Shear Modulus (GPa) = 31.63144 43.99903 37.81523
#
# Velocity S-wave (km/s) = 3.64719 4.30150 3.98779
# Velocity P-wave (km/s) = 5.49353 6.48773 6.01122
#
# Compressibility (1/GPa) = 0.03379684
#
# Stress axis : x y z
#
# Youngs Moduli (GPa) = 43.82061 132.76588 58.31092
#
# Poissons Ratio (x) = 0.31703 0.27796
# Poissons Ratio (y) = 0.10464 -0.01762
# Poissons Ratio (z) = 0.20888 -0.04012
#
# Static dielectric constant tensor:
#      x y z
#    x 2.120600 -0.138160 0.141310 
#    y -0.138160 2.025860 -0.136670 
#    z 0.141310 -0.136670 2.036170 
# 
# From -- ./inp_files/608684.got.cif
#   From: 2010.05.17/outbox.ucp.g08.bks.cvg/sg2_305_cif.got.tgz:608684.got - 2010.06.11 11:32:03.
