data_PCOD9072973
_publ_section_title
;
Structure prediction by ZEFSAII (Michael W. Deem and Ramdas Pophale) SiO2 
 PCOD9072973
Probable space group: P -1
;
_chemical_formula_sum "Si O2"
_cell_formula_units_Z 14
_cell_length_a 15.000000
_cell_length_b 6.000000
_cell_length_c 15.000000
_cell_angle_alpha 110.000000
_cell_angle_beta 150.000000
_cell_angle_gamma 70.000000
_cell_volume 631.268861
_symmetry_space_group_name_H-M "P -1"
_symmetry_group_IT_number 2
_symmetry_cell_setting 'triclinic'
loop_
_space_group_symop_operation_xyz
x,y,z
-x,-y,-z
loop_
_atom_site_type_symbol
_atom_site_label
_atom_site_fract_x
_atom_site_fract_y
_atom_site_fract_z
Si Si1 0.702377 0.221348 0.456296
Si Si2 0.084306 0.456496 0.416900
Si Si3 0.311438 0.399386 0.132913
Si Si4 0.684109 0.584844 0.063532
Si Si5 0.365295 0.254581 0.766622
Si Si6 0.727802 0.943603 0.601473
Si Si7 0.295908 0.968606 0.204321
O O1 0.855222 0.296155 0.533614
O O2 0.524747 0.402027 0.335449
O O3 0.774809 0.164585 0.610500
O O4 0.627741 0.992940 0.313306
O O5 0.185934 0.393316 0.588372
O O6 0.874272 0.449033 0.236236
O O7 0.168609 0.277376 0.389432
O O8 0.244676 0.689841 0.111765
O O9 0.254346 0.189251 0.124753
O O10 0.292730 0.316625 0.002505
O O11 0.639530 0.761654 0.132711
O O12 0.529009 0.406001 0.902967
O O13 0.773075 0.952812 0.745751
O O14 0.513217 0.947591 0.400920
#
# Coordination Sequence:
#
# PCOD9072973 Si02
#       7
#     2   2   2   2   2   2   2
#     4  10  20  39  66  90 137 163 222 272 333 381
#     4  11  21  42  64  98 127 171 218 280 321 402
#     4  11  21  41  61  99 128 179 219 275 322 401
#     4  11  23  42  68  91 132 174 223 263 346 382
#     4  10  23  45  62  96 129 175 215 279 322 410
#     4   9  20  36  62  96 125 175 214 270 328 394
#     4  10  21  37  69  92 134 175 225 266 332 392
#
# _framework density 22.177555000000002
#
# number of rings (size 3 to 8) (size 9 to 14) (size 15 to 20)
#    0.000    1.714    2.857    2.143    2.000    2.857 
#   12.857    1.429    0.000    0.000    0.000    0.000 
#    0.000    0.000    0.000    0.000    0.000    0.000 
#
# Total GULP energy -78063.773916 kJ/mol
# GULP energy per Si atom -5575.983851 kJ/mol
# Density = 2.212708 g / cm^3
# Si number density = 22.177555 Si / 1000 Ang^3
#
#
#
# Elastic Constant Matrix: (Units=GPa)
#
#
# Indices 1 2 3 4 5 6 
#
# 1 106.8197 42.1941 24.5314 -2.6221 -62.3240 -4.8531
# 2 42.1941 83.1556 21.6982 -2.1009 -20.4121 18.0134
# 3 24.5314 21.6982 85.7804 -18.6342 -14.0672 3.0123
# 4 -2.6221 -2.1009 -18.6342 11.3941 -5.6124 -8.0461
# 5 -62.3240 -20.4121 -14.0672 -5.6124 40.7944 -16.7822
# 6 -4.8531 18.0134 3.0123 -8.0461 -16.7822 27.6684
#
#
#
# Elastic Compliance Matrix: (Units=1/GPa)
#
#
# Indices 1 2 3 4 5 6 
#
# 1 0.001040 0.001986 -0.010431 -0.036883 -0.013979 -0.019179
# 2 0.001986 0.013845 0.000194 0.010675 0.012259 0.001854
# 3 -0.010431 0.000194 0.015695 0.012676 -0.011557 -0.006989
# 4 -0.036883 0.010675 0.012676 0.056006 -0.051059 -0.029482
# 5 -0.013979 0.012259 -0.011557 -0.051059 -0.015460 -0.033400
# 6 -0.019179 0.001854 -0.006989 -0.029482 -0.033400 0.003500
#
#
# Mechanical properties :
#
#
# Convention : Reuss Voigt Hill
#
# Bulk Modulus (GPa) = 71.03086 50.28922 60.66004
# Shear Modulus (GPa) = 52.18112 28.46016 40.32064
#
# Velocity S-wave (km/s) = 4.85591 3.58619 4.26852
# Velocity P-wave (km/s) = 7.97105 6.31447 7.19063
#
# Compressibility (1/GPa) = 0.01407839
#
# Stress axis : x y z
#
# Youngs Moduli (GPa) = 961.76123 72.22902 63.71383
#
# Poissons Ratio (x) = -0.14341 0.66458
# Poissons Ratio (y) = -1.90961 -0.01239
# Poissons Ratio (z) = 10.03185 -0.01405
#
# Static dielectric constant tensor:
#      x y z
#    x 1.854560 0.032240 0.001170 
#    y 0.032240 1.915810 -0.025400 
#    z 0.001170 -0.025400 1.806420 
# 
# From -- ./inp_files/106973.got.cif
#   From: 2010.05.17/outbox.ucp.g08.bks.cvg/sg2_54_cif.got.tgz:106973.got - 2010.06.11 11:32:03.
