data_PCOD9072612
_publ_section_title
;
Structure prediction by ZEFSAII (Michael W. Deem and Ramdas Pophale) SiO2 
 PCOD9072612
Probable space group: P -1
;
_chemical_formula_sum "Si O2"
_cell_formula_units_Z 16
_cell_length_a 9.000000
_cell_length_b 9.000000
_cell_length_c 21.000000
_cell_angle_alpha 60.000000
_cell_angle_beta 60.000000
_cell_angle_gamma 30.000000
_cell_volume 727.687525
_symmetry_space_group_name_H-M "P -1"
_symmetry_group_IT_number 2
_symmetry_cell_setting 'triclinic'
loop_
_space_group_symop_operation_xyz
x,y,z
-x,-y,-z
loop_
_atom_site_type_symbol
_atom_site_label
_atom_site_fract_x
_atom_site_fract_y
_atom_site_fract_z
Si Si1 0.419951 0.366264 0.695912
Si Si2 0.200647 0.386615 0.860220
Si Si3 0.842174 0.020208 0.207427
Si Si4 0.535379 0.975037 0.656898
Si Si5 0.026965 0.397629 0.585450
Si Si6 0.485695 0.593333 0.116980
Si Si7 0.947245 0.030555 0.321287
Si Si8 0.559719 0.831545 0.961460
O O1 0.193762 0.458413 0.774029
O O2 0.531635 0.152968 0.660439
O O3 0.726151 0.154757 0.712649
O O4 0.258092 0.682806 0.650167
O O5 0.376632 0.384528 0.865550
O O6 0.896510 0.591989 0.918253
O O7 0.371733 0.065591 0.894210
O O8 0.710427 0.252209 0.132776
O O9 0.662182 0.993681 0.264096
O O10 0.193711 0.738386 0.176955
O O11 0.803078 0.146271 0.257368
O O12 0.357211 0.162931 0.590623
O O13 0.820803 0.640907 0.636160
O O14 0.003661 0.210583 0.622814
O O15 0.000000 0.500000 0.500000
O O16 0.467672 0.720554 0.029646
O O17 0.500000 0.000000 0.000000
#
# Coordination Sequence:
#
# PCOD9072612 Si02
#       8
#     2   2   2   2   2   2   2   2
#     4  12  23  39  63  93 130 158 203 260 307 359
#     4  11  19  33  52  82 122 159 195 254 324 347
#     4  11  19  35  58  85 117 156 208 256 298 350
#     4  11  25  42  64  97 127 160 202 250 310 364
#     4  11  24  47  70  93 127 164 199 242 298 369
#     4  11  18  31  55  83 115 154 213 259 300 348
#     4  11  21  39  64  94 119 162 208 247 297 362
#     4  10  20  30  47  82 121 155 201 261 309 360
#
# _framework density 21.987459999999999
#
# number of rings (size 3 to 8) (size 9 to 14) (size 15 to 20)
#    0.000    1.000    2.500    8.625    0.000    0.000 
#    0.000    3.750    0.000    4.500    0.000    0.000 
#    0.000    0.000    0.000    0.000    0.000    0.000 
#
# Total GULP energy -89165.736736 kJ/mol
# GULP energy per Si atom -5572.858546 kJ/mol
# Density = 2.193742 g / cm^3
# Si number density = 21.987460 Si / 1000 Ang^3
#
#
#
# Elastic Constant Matrix: (Units=GPa)
#
#
# Indices 1 2 3 4 5 6 
#
# 1 39.9843 24.5729 2.5593 2.7024 -11.7702 22.8884
# 2 24.5729 103.0250 15.2349 -1.5151 -16.5597 10.0896
# 3 2.5593 15.2349 78.7703 -17.1352 -12.8587 17.3379
# 4 2.7024 -1.5151 -17.1352 35.3907 -0.0193 -4.0528
# 5 -11.7702 -16.5597 -12.8587 -0.0193 9.2319 -1.2255
# 6 22.8884 10.0896 17.3379 -4.0528 -1.2255 26.8486
#
#
#
# Elastic Compliance Matrix: (Units=1/GPa)
#
#
# Indices 1 2 3 4 5 6 
#
# 1 -0.145738 -0.020284 -0.082032 -0.010282 -0.314047 0.168951
# 2 -0.020284 0.011994 -0.007306 0.000467 -0.012263 0.017014
# 3 -0.082032 -0.007306 -0.023014 0.004102 -0.138877 0.081819
# 4 -0.010282 0.000467 0.004102 0.032256 -0.005086 0.010578
# 5 -0.314047 -0.012263 -0.138877 -0.005086 -0.462366 0.340144
# 6 0.168951 0.017014 0.081819 0.010578 0.340144 -0.148893
#
#
# Mechanical properties :
#
#
# Convention : Reuss Voigt Hill
#
# Bulk Modulus (GPa) = -2.65956 34.05707 15.69876
# Shear Modulus (GPa) = -7.78998 26.25506 9.23254
#
# Velocity S-wave (km/s) = -1.88431 3.45931 2.05137
# Velocity P-wave (km/s) = 2.43851 5.61059 3.57298
#
# Compressibility (1/GPa) = -0.37600211
#
# Stress axis : x y z
#
# Youngs Moduli (GPa) = -6.86162 83.37231 -43.45190
#
# Poissons Ratio (x) = 1.69116 -3.56443
# Poissons Ratio (y) = -0.13918 -0.31746
# Poissons Ratio (z) = -0.56287 0.60912
#
# Static dielectric constant tensor:
#      x y z
#    x 1.922160 0.036500 -0.023450 
#    y 0.036500 1.902420 -0.080000 
#    z -0.023450 -0.080000 1.783210 
# 
# From -- ./inp_files/217596.got.cif
#   From: 2010.05.17/outbox.ucp.g08.bks.cvg/sg2_109_cif.got.tgz:217596.got - 2010.06.11 11:32:03.
