data_PCOD9072023
_publ_section_title
;
Structure prediction by ZEFSAII (Michael W. Deem and Ramdas Pophale) SiO2 
 PCOD9072023
Probable space group: P -1
;
_chemical_formula_sum "Si O2"
_cell_formula_units_Z 16
_cell_length_a 12.182827
_cell_length_b 11.803370
_cell_length_c 25.189849
_cell_angle_alpha 148.882565
_cell_angle_beta 31.793518
_cell_angle_gamma 147.443083
_cell_volume 893.627760
_symmetry_space_group_name_H-M "P -1"
_symmetry_group_IT_number 2
_symmetry_cell_setting 'triclinic'
loop_
_space_group_symop_operation_xyz
x,y,z
-x,-y,-z
loop_
_atom_site_type_symbol
_atom_site_label
_atom_site_fract_x
_atom_site_fract_y
_atom_site_fract_z
Si Si1 0.151249 0.217453 0.065395
Si Si2 0.733370 0.912306 0.175311
Si Si3 0.700189 0.715168 0.447746
Si Si4 0.549566 0.842909 0.664392
Si Si5 0.684127 0.418326 0.945393
Si Si6 0.550744 0.024616 0.401389
Si Si7 0.874071 0.217219 0.446695
Si Si8 0.870159 0.051871 0.713285
O O1 0.201834 0.464300 0.111463
O O2 0.410666 0.256318 0.986620
O O3 0.986397 0.131281 0.149687
O O4 0.000000 0.000000 0.000000
O O5 0.566949 0.980136 0.232446
O O6 0.640463 0.912296 0.272260
O O7 0.722255 0.652962 0.059138
O O8 0.722268 0.851635 0.549382
O O9 0.634235 0.435330 0.373049
O O10 0.495981 0.756493 0.517705
O O11 0.917842 0.820595 0.362859
O O12 0.661786 0.898718 0.698242
O O13 0.806218 0.252409 0.847524
O O14 0.728836 0.104750 0.408434
O O15 0.307019 0.848199 0.456408
O O16 0.000000 0.500000 0.500000
O O17 0.053328 0.105350 0.341966
#
# Coordination Sequence:
#
# PCOD9072023 Si02
#       8
#     2   2   2   2   2   2   2   2
#     4   9  17  31  49  73 109 144 170 199 241 300
#     4  10  20  34  54  77 108 142 170 207 251 306
#     4   9  19  32  50  76 106 132 163 210 256 305
#     4  10  18  30  50  79 106 132 165 203 256 312
#     4  10  20  32  48  78 110 140 175 203 246 310
#     4   9  20  38  56  78 101 132 178 215 257 311
#     4  10  21  38  58  76  98 132 174 222 268 304
#     4  11  20  32  52  75 103 134 168 212 258 304
#
# _framework density 17.904547000000001
#
# number of rings (size 3 to 8) (size 9 to 14) (size 15 to 20)
#    0.000    2.250    0.000    4.125    0.000    2.000 
#    0.000    4.375    0.000    1.500    0.000    0.000 
#    0.000    0.000    0.000    0.000    0.000    0.000 
#
# Total GULP energy -89181.730194 kJ/mol
# GULP energy per Si atom -5573.858137 kJ/mol
# Density = 1.786380 g / cm^3
# Si number density = 17.904547 Si / 1000 Ang^3
#
#
#
# Elastic Constant Matrix: (Units=GPa)
#
#
# Indices 1 2 3 4 5 6 
#
# 1 64.9956 32.5946 39.3922 5.4238 -5.0893 -6.9917
# 2 32.5946 84.3840 51.0327 1.0127 -8.9284 -1.2207
# 3 39.3922 51.0327 121.5056 16.9365 -5.5894 -4.4243
# 4 5.4238 1.0127 16.9365 20.9593 -8.2761 -5.8933
# 5 -5.0893 -8.9284 -5.5894 -8.2761 28.1830 -1.5419
# 6 -6.9917 -1.2207 -4.4243 -5.8933 -1.5419 19.5902
#
#
#
# Elastic Compliance Matrix: (Units=1/GPa)
#
#
# Indices 1 2 3 4 5 6 
#
# 1 0.021622 -0.005263 -0.004611 0.001107 0.002022 0.006839
# 2 -0.005263 0.018731 -0.007081 0.008879 0.006233 0.000851
# 3 -0.004611 -0.007081 0.014120 -0.012291 -0.004044 -0.002914
# 4 0.001107 0.008879 -0.012291 0.072069 0.022924 0.021657
# 5 0.002022 0.006233 -0.004044 0.022924 0.044331 0.010582
# 6 0.006839 0.000851 -0.002914 0.021657 0.010582 0.060230
#
#
# Mechanical properties :
#
#
# Convention : Reuss Voigt Hill
#
# Bulk Modulus (GPa) = 48.63334 57.43602 53.03468
# Shear Modulus (GPa) = 18.39132 23.60422 20.99777
#
# Velocity S-wave (km/s) = 3.20845 3.63483 3.42828
# Velocity P-wave (km/s) = 6.39899 7.05441 6.73468
#
# Compressibility (1/GPa) = 0.02056203
#
# Stress axis : x y z
#
# Youngs Moduli (GPa) = 46.24991 53.38726 70.82125
#
# Poissons Ratio (x) = 0.28099 0.32659
# Poissons Ratio (y) = 0.24343 0.50146
# Poissons Ratio (z) = 0.21328 0.37802
#
# Static dielectric constant tensor:
#      x y z
#    x 1.612940 0.004060 0.004140 
#    y 0.004060 1.625460 -0.019560 
#    z 0.004140 -0.019560 1.641250 
# 
# From -- ./inp_files/69033.got.cif
#   From: 2010.05.17/outbox.cif.g08.bks.cpg/sg2_35_cif.got.tgz:69033.got - 2010.06.03 11:33:40.
