data_PCOD9072761
_publ_section_title
;
Structure prediction by ZEFSAII (Michael W. Deem and Ramdas Pophale) SiO2 
 PCOD9072761
Probable space group: P -1
;
_chemical_formula_sum "Si O2"
_cell_formula_units_Z 16
_cell_length_a 9.784157
_cell_length_b 15.768329
_cell_length_c 11.446607
_cell_angle_alpha 44.366081
_cell_angle_beta 36.682068
_cell_angle_gamma 40.669211
_cell_volume 661.220627
_symmetry_space_group_name_H-M "P -1"
_symmetry_group_IT_number 2
_symmetry_cell_setting 'triclinic'
loop_
_space_group_symop_operation_xyz
x,y,z
-x,-y,-z
loop_
_atom_site_type_symbol
_atom_site_label
_atom_site_fract_x
_atom_site_fract_y
_atom_site_fract_z
Si Si1 0.594849 0.733898 0.992752
Si Si2 0.482169 0.333116 0.550801
Si Si3 0.796077 0.793802 0.010997
Si Si4 0.186038 0.489563 0.112491
Si Si5 0.757734 0.359786 0.534706
Si Si6 0.432541 0.394936 0.257782
Si Si7 0.099068 0.862328 0.907351
Si Si8 0.026433 0.852390 0.218248
O O1 0.710068 0.810253 0.920489
O O2 0.502180 0.644582 0.229223
O O3 0.321850 0.831834 0.029700
O O4 0.789826 0.633086 0.865177
O O5 0.434499 0.210422 0.753541
O O6 0.737697 0.321508 0.451770
O O7 0.282116 0.488099 0.571740
O O8 0.445154 0.337855 0.433935
O O9 0.006898 0.638024 0.040682
O O10 0.914132 0.882496 0.903724
O O11 0.184968 0.462787 0.278424
O O12 0.463267 0.492566 0.907479
O O13 0.963432 0.253604 0.586295
O O14 0.638009 0.266773 0.172223
O O15 0.973315 0.833187 0.139392
O O16 0.131070 0.996545 0.777377
#
# Coordination Sequence:
#
# PCOD9072761 Si02
#       8
#     2   2   2   2   2   2   2   2
#     4   9  16  34  52  75 102 134 163 216 254 303
#     4  10  18  33  51  78 108 138 158 213 263 318
#     4  10  22  30  51  83 109 125 169 215 268 300
#     4  10  18  31  50  78 104 134 170 215 257 302
#     4   8  17  32  54  73  99 145 173 188 261 319
#     4  10  18  31  53  73 106 136 176 208 250 306
#     4  10  20  35  55  83  94 136 183 219 241 297
#     4   9  18  36  60  70 100 141 183 207 244 309
#
# _framework density 24.197673000000002
#
# number of rings (size 3 to 8) (size 9 to 14) (size 15 to 20)
#    0.750    1.750    2.500    0.375    3.500    1.000 
#    0.000    0.625    0.000    4.500    0.000    0.000 
#    0.000    0.000    0.000    0.000    0.000    0.000 
#
# Total GULP energy -89202.164856 kJ/mol
# GULP energy per Si atom -5575.135303 kJ/mol
# Density = 2.414260 g / cm^3
# Si number density = 24.197673 Si / 1000 Ang^3
#
#
#
# Elastic Constant Matrix: (Units=GPa)
#
#
# Indices 1 2 3 4 5 6 
#
# 1 109.7989 1.3287 -2.1347 4.7659 11.1528 17.0522
# 2 1.3287 67.7115 1.1843 -1.4991 5.4530 8.4874
# 3 -2.1347 1.1843 29.3213 -5.7872 11.9946 2.3857
# 4 4.7659 -1.4991 -5.7872 18.2956 -0.2832 9.3324
# 5 11.1528 5.4530 11.9946 -0.2832 32.2668 3.5431
# 6 17.0522 8.4874 2.3857 9.3324 3.5431 24.5889
#
#
#
# Elastic Compliance Matrix: (Units=1/GPa)
#
#
# Indices 1 2 3 4 5 6 
#
# 1 0.010853 0.001240 0.003825 0.002902 -0.004391 -0.008794
# 2 0.001240 0.016164 0.002639 0.006165 -0.003145 -0.008582
# 3 0.003825 0.002639 0.046528 0.020471 -0.017420 -0.013337
# 4 0.002902 0.006165 0.020471 0.078813 -0.005086 -0.035306
# 5 -0.004391 -0.003145 -0.017420 -0.005086 0.039242 0.002097
# 6 -0.008794 -0.008582 -0.013337 -0.035306 0.002097 0.064122
#
#
# Mechanical properties :
#
#
# Convention : Reuss Voigt Hill
#
# Bulk Modulus (GPa) = 11.24193 23.06537 17.15365
# Shear Modulus (GPa) = 18.52106 28.79382 23.65744
#
# Velocity S-wave (km/s) = 2.76960 3.45330 3.13017
# Velocity P-wave (km/s) = 3.85792 5.04511 4.49091
#
# Compressibility (1/GPa) = 0.08895270
#
# Stress axis : x y z
#
# Youngs Moduli (GPa) = 92.14225 61.86765 21.49237
#
# Poissons Ratio (x) = -0.07674 -0.08220
# Poissons Ratio (y) = -0.11429 -0.05672
# Poissons Ratio (z) = -0.35243 -0.16326
#
# Static dielectric constant tensor:
#      x y z
#    x 2.088080 -0.051350 -0.054410 
#    y -0.051350 1.911900 0.098500 
#    z -0.054410 0.098500 2.032380 
# 
# From -- ./inp_files/270826.got.cif
#   From: 2010.05.17/outbox.cif.g08.bks.cpg/sg2_136_cif.got.tgz:270826.got - 2010.06.03 11:33:40.
