data_PCOD9072742
_publ_section_title
;
Structure prediction by ZEFSAII (Michael W. Deem and Ramdas Pophale) SiO2 
 PCOD9072742
Probable space group: P -1
;
_chemical_formula_sum "Si O2"
_cell_formula_units_Z 14
_cell_length_a 15.000000
_cell_length_b 27.000000
_cell_length_c 15.000000
_cell_angle_alpha 160.000000
_cell_angle_beta 160.000000
_cell_angle_gamma 20.000000
_cell_volume 621.679612
_symmetry_space_group_name_H-M "P -1"
_symmetry_group_IT_number 2
_symmetry_cell_setting 'triclinic'
loop_
_space_group_symop_operation_xyz
x,y,z
-x,-y,-z
loop_
_atom_site_type_symbol
_atom_site_label
_atom_site_fract_x
_atom_site_fract_y
_atom_site_fract_z
Si Si1 0.789621 0.525530 0.732471
Si Si2 0.332919 0.244562 0.841215
Si Si3 0.895340 0.355958 0.052194
Si Si4 0.366258 0.068094 0.288489
Si Si5 0.415925 0.273470 0.528838
Si Si6 0.679105 0.425287 0.766952
Si Si7 0.304105 0.799555 0.061326
O O1 0.505749 0.613580 0.547795
O O2 0.013545 0.327118 0.628276
O O3 0.672510 0.605675 0.854636
O O4 0.044193 0.566888 0.005670
O O5 0.605951 0.170575 0.902682
O O6 0.396213 0.109356 0.748021
O O7 0.749843 0.550060 0.274525
O O8 0.231533 0.288432 0.289988
O O9 0.734397 0.263986 0.795086
O O10 0.818133 0.345032 0.857575
O O11 0.409966 0.125214 0.328380
O O12 0.449609 0.184328 0.622231
O O13 0.033236 0.099349 0.049429
O O14 0.404462 0.607244 0.838613
#
# Coordination Sequence:
#
# PCOD9072742 Si02
#       7
#     2   2   2   2   2   2   2
#     4  10  24  40  63  86 114 165 211 239 287 344
#     4  10  24  43  60  86 123 163 205 247 285 355
#     4  10  20  36  60  86 123 149 193 244 297 358
#     4  12  23  38  60  90 128 155 193 244 308 358
#     4  10  21  34  58  91 118 156 188 237 307 362
#     4  11  21  39  63  88 120 154 203 250 288 353
#     4  11  23  36  59  92 121 159 191 244 304 362
#
# _framework density 22.519638
#
# number of rings (size 3 to 8) (size 9 to 14) (size 15 to 20)
#    0.000    1.429    1.429    4.286    4.000    9.714 
#    0.000    0.000    0.000    5.143    0.000    0.000 
#    0.000    0.000    0.000    0.000    0.000    0.000 
#
# Total GULP energy -78016.908880 kJ/mol
# GULP energy per Si atom -5572.636349 kJ/mol
# Density = 2.246838 g / cm^3
# Si number density = 22.519638 Si / 1000 Ang^3
#
#
#
# Elastic Constant Matrix: (Units=GPa)
#
#
# Indices 1 2 3 4 5 6 
#
# 1 89.5575 26.0847 17.7679 -10.4016 -1.8341 36.9014
# 2 26.0847 25.0565 -2.8352 -23.1572 15.9661 20.8004
# 3 17.7679 -2.8352 69.2763 -45.3784 -0.7510 16.0668
# 4 -10.4016 -23.1572 -45.3784 39.2742 10.0672 -0.5712
# 5 -1.8341 15.9661 -0.7510 10.0672 38.6223 -4.8495
# 6 36.9014 20.8004 16.0668 -0.5712 -4.8495 32.9200
#
#
#
# Elastic Compliance Matrix: (Units=1/GPa)
#
#
# Indices 1 2 3 4 5 6 
#
# 1 0.021149 -0.006071 -0.000782 0.000603 0.000913 -0.019344
# 2 -0.006071 -0.000231 -0.019691 -0.026420 0.008490 0.017354
# 3 -0.000782 -0.019691 0.007750 -0.005544 0.011089 0.011073
# 4 0.000603 -0.026420 -0.005544 0.000529 0.013303 0.020692
# 5 0.000913 0.008490 0.011089 0.013303 0.018055 -0.008909
# 6 -0.019344 0.017354 0.011073 0.020692 -0.008909 0.034737
#
#
# Mechanical properties :
#
#
# Convention : Reuss Voigt Hill
#
# Bulk Modulus (GPa) = -40.94916 29.54722 -5.70097
# Shear Modulus (GPa) = 39.38971 31.68815 35.53893
#
# Velocity S-wave (km/s) = 4.18679 3.75525 3.97688
# Velocity P-wave (km/s) = 2.26916 5.65258 4.30701
#
# Compressibility (1/GPa) = -0.02442052
#
# Stress axis : x y z
#
# Youngs Moduli (GPa) = 47.28437 -4323.06540 129.02869
#
# Poissons Ratio (x) = -26.24707 0.10084
# Poissons Ratio (y) = 0.28708 2.54071
# Poissons Ratio (z) = 0.03696 -85.12580
#
# Static dielectric constant tensor:
#      x y z
#    x 1.916140 0.020630 -0.045020 
#    y 0.020630 1.868920 0.077930 
#    z -0.045020 0.077930 1.986860 
# 
# From -- ./inp_files/535735.got.cif
#   From: 2010.05.17/outbox.ucp.g08.bks.cvg/sg2_268_cif.got.tgz:535735.got - 2010.06.11 11:32:03.
