data_PCOD9072237
_publ_section_title
;
Structure prediction by ZEFSAII (Michael W. Deem and Ramdas Pophale) SiO2 
 PCOD9072237
Probable space group: P -1
;
_chemical_formula_sum "Si O2"
_cell_formula_units_Z 16
_cell_length_a 11.812222
_cell_length_b 7.705065
_cell_length_c 18.165284
_cell_angle_alpha 64.163950
_cell_angle_beta 27.001059
_cell_angle_gamma 64.945612
_cell_volume 673.071009
_symmetry_space_group_name_H-M "P -1"
_symmetry_group_IT_number 2
_symmetry_cell_setting 'triclinic'
loop_
_space_group_symop_operation_xyz
x,y,z
-x,-y,-z
loop_
_atom_site_type_symbol
_atom_site_label
_atom_site_fract_x
_atom_site_fract_y
_atom_site_fract_z
Si Si1 0.824896 0.235066 0.471268
Si Si2 0.907895 0.685493 0.919968
Si Si3 0.739712 0.004392 0.308347
Si Si4 0.442861 0.774167 0.083054
Si Si5 0.689529 0.635389 0.204777
Si Si6 0.399734 0.290098 0.375523
Si Si7 0.024123 0.811156 0.437532
Si Si8 0.993814 0.355642 0.730016
O O1 0.523801 0.268859 0.635721
O O2 0.887346 0.210947 0.526375
O O3 0.951553 0.421030 0.332830
O O4 0.934964 0.026482 0.419051
O O5 0.076590 0.484531 0.870350
O O6 0.704520 0.670114 0.977766
O O7 0.785111 0.750509 0.058675
O O8 0.088863 0.854605 0.772604
O O9 0.893101 0.798244 0.246842
O O10 0.500000 0.000000 0.500000
O O11 0.614506 0.114568 0.289886
O O12 0.257533 0.748796 0.263281
O O13 0.286543 0.690915 0.121544
O O14 0.500000 0.000000 0.000000
O O15 0.545194 0.472387 0.276476
O O16 0.229597 0.296534 0.401140
O O17 0.180759 0.293427 0.564058
#
# Coordination Sequence:
#
# PCOD9072237 Si02
#       8
#     2   2   2   2   2   2   2   2
#     4  10  20  36  54  76 108 143 173 215 263 317
#     4  10  18  30  53  82 107 130 175 221 264 297
#     4   9  16  31  49  75 105 134 170 215 263 301
#     4  11  20  33  56  82 107 137 175 221 257 311
#     4   9  18  32  55  80 103 136 176 225 255 305
#     4   8  17  30  52  76 102 131 178 218 251 305
#     4  10  21  35  54  78 107 141 175 213 268 313
#     4   9  18  30  52  78 100 138 176 214 255 305
#
# _framework density 23.771636000000001
#
# number of rings (size 3 to 8) (size 9 to 14) (size 15 to 20)
#    0.000    2.500    2.500    0.750    1.750    1.500 
#    0.000    1.250    0.000    8.250    0.000    0.000 
#    0.000    0.000    0.000    0.000    0.000    0.000 
#
# Total GULP energy -89285.538417 kJ/mol
# GULP energy per Si atom -5580.346151 kJ/mol
# Density = 2.371753 g / cm^3
# Si number density = 23.771636 Si / 1000 Ang^3
#
#
#
# Elastic Constant Matrix: (Units=GPa)
#
#
# Indices 1 2 3 4 5 6 
#
# 1 43.5847 17.9281 40.2505 16.4325 -25.3154 -10.8977
# 2 17.9281 115.1240 37.8640 6.2811 -13.6823 -15.2551
# 3 40.2505 37.8640 113.7059 1.9926 -36.3188 -9.1711
# 4 16.4325 6.2811 1.9926 33.1705 -7.3789 -10.8168
# 5 -25.3154 -13.6823 -36.3188 -7.3789 38.4300 6.0718
# 6 -10.8977 -15.2551 -9.1711 -10.8168 6.0718 29.5888
#
#
#
# Elastic Compliance Matrix: (Units=1/GPa)
#
#
# Indices 1 2 3 4 5 6 
#
# 1 0.054643 -0.000439 -0.012177 -0.020362 0.019688 0.004641
# 2 -0.000439 0.010280 -0.002973 -0.000224 -0.000139 0.004164
# 3 -0.012177 -0.002973 0.016510 0.007427 0.007919 0.000190
# 4 -0.020362 -0.000224 0.007427 0.043287 0.000183 0.010474
# 5 0.019688 -0.000139 0.007919 0.000183 0.046433 0.000172
# 6 0.004641 0.004164 0.000190 0.010474 0.000172 0.041505
#
#
# Mechanical properties :
#
#
# Convention : Reuss Voigt Hill
#
# Bulk Modulus (GPa) = 19.89836 51.61110 35.75473
# Shear Modulus (GPa) = 19.18759 31.99598 25.59179
#
# Velocity S-wave (km/s) = 2.84414 3.67273 3.28467
# Velocity P-wave (km/s) = 4.37885 6.30425 5.42761
#
# Compressibility (1/GPa) = 0.05025539
#
# Stress axis : x y z
#
# Youngs Moduli (GPa) = 18.30069 97.27935 60.57111
#
# Poissons Ratio (x) = 0.04267 0.73758
# Poissons Ratio (y) = 0.00803 0.18005
# Poissons Ratio (z) = 0.22285 0.28917
#
# Static dielectric constant tensor:
#      x y z
#    x 1.954230 -0.021340 0.008360 
#    y -0.021340 1.978110 -0.002780 
#    z 0.008360 -0.002780 1.926860 
# 
# From -- ./inp_files/248349.got.cif
#   From: 2010.05.17/outbox.cif.g08.bks.cpg/sg2_125_cif.got.tgz:248349.got - 2010.06.03 11:33:40.
