data_PCOD9072029
_publ_section_title
;
Structure prediction by ZEFSAII (Michael W. Deem and Ramdas Pophale) SiO2 
 PCOD9072029
Probable space group: P -1
;
_chemical_formula_sum "Si O2"
_cell_formula_units_Z 16
_cell_length_a 9.000000
_cell_length_b 12.000000
_cell_length_c 12.000000
_cell_angle_alpha 110.000000
_cell_angle_beta 110.000000
_cell_angle_gamma 120.000000
_cell_volume 818.705536
_symmetry_space_group_name_H-M "P -1"
_symmetry_group_IT_number 2
_symmetry_cell_setting 'triclinic'
loop_
_space_group_symop_operation_xyz
x,y,z
-x,-y,-z
loop_
_atom_site_type_symbol
_atom_site_label
_atom_site_fract_x
_atom_site_fract_y
_atom_site_fract_z
Si Si1 0.310662 0.589511 0.670594
Si Si2 0.932307 0.043258 0.804298
Si Si3 0.410490 0.196759 0.986344
Si Si4 0.255565 0.836642 0.342955
Si Si5 0.694831 0.680637 0.668393
Si Si6 0.833981 0.260956 0.465012
Si Si7 0.154511 0.876766 0.957388
Si Si8 0.442329 0.865452 0.179429
O O1 0.545025 0.658481 0.718778
O O2 0.258911 0.672131 0.601664
O O3 0.093173 0.391696 0.540391
O O4 0.373381 0.660016 0.836339
O O5 0.859707 0.105677 0.718426
O O6 0.196019 0.168227 0.919295
O O7 0.803802 0.850024 0.687298
O O8 0.870276 0.050228 0.916530
O O9 0.471180 0.208422 0.877700
O O10 0.306325 0.022647 0.955784
O O11 0.157378 0.729429 0.394062
O O12 0.301266 0.780286 0.226759
O O13 0.500000 0.000000 0.500000
O O14 0.500000 0.500000 0.500000
O O15 0.912474 0.728795 0.790136
O O16 0.656334 0.064170 0.322604
O O17 0.284638 0.837245 0.033233
#
# Coordination Sequence:
#
# PCOD9072029 Si02
#       8
#     2   2   2   2   2   2   2   2
#     4  11  21  36  57  89 121 142 185 248 302 330
#     4  10  19  37  61  82 116 159 191 229 284 349
#     4  11  19  33  57  91 117 141 195 241 288 333
#     4   9  19  40  61  79 113 157 201 225 278 353
#     4  11  21  32  55  88 120 149 185 239 293 336
#     4  10  22  37  60  84 116 153 186 242 292 338
#     4  10  18  34  56  82 119 151 192 228 283 346
#     4  10  20  34  61  86 107 153 200 233 274 344
#
# _framework density 19.543046
#
# number of rings (size 3 to 8) (size 9 to 14) (size 15 to 20)
#    0.000    1.750    3.750    2.625    3.500    1.000 
#    0.000    3.750    2.750    0.000    0.000    0.000 
#    0.000    0.000    0.000    0.000    0.000    0.000 
#
# Total GULP energy -89091.404714 kJ/mol
# GULP energy per Si atom -5568.212795 kJ/mol
# Density = 1.949857 g / cm^3
# Si number density = 19.543046 Si / 1000 Ang^3
#
#
#
# Elastic Constant Matrix: (Units=GPa)
#
#
# Indices 1 2 3 4 5 6 
#
# 1 66.6255 12.6639 26.5859 -9.3274 9.3107 10.2260
# 2 12.6639 46.2085 28.9400 -9.8971 5.8674 5.6096
# 3 26.5859 28.9400 120.8815 -1.1097 20.5759 -2.2620
# 4 -9.3274 -9.8971 -1.1097 37.8043 6.2363 2.7261
# 5 9.3107 5.8674 20.5759 6.2363 35.3053 7.6500
# 6 10.2260 5.6096 -2.2620 2.7261 7.6500 8.9893
#
#
#
# Elastic Compliance Matrix: (Units=1/GPa)
#
#
# Indices 1 2 3 4 5 6 
#
# 1 0.023602 0.004101 -0.007472 0.008710 0.004000 -0.037334
# 2 0.004101 0.032952 -0.010232 0.011051 0.005154 -0.035541
# 3 -0.007472 -0.010232 0.014607 -0.004467 -0.010260 0.028647
# 4 0.008710 0.011051 -0.004467 0.033564 -0.001678 -0.026678
# 5 0.004000 0.005154 -0.010260 -0.001678 0.042693 -0.046172
# 6 -0.037334 -0.035541 0.028647 -0.026678 -0.046172 0.230482
#
#
# Mechanical properties :
#
#
# Convention : Reuss Voigt Hill
#
# Bulk Modulus (GPa) = 22.75029 41.12169 31.93599
# Shear Modulus (GPa) = 11.91162 27.45485 19.68323
#
# Velocity S-wave (km/s) = 2.47150 3.75219 3.17704
# Velocity P-wave (km/s) = 4.45093 6.31341 5.46214
#
# Compressibility (1/GPa) = 0.04395548
#
# Stress axis : x y z
#
# Youngs Moduli (GPa) = 42.36938 30.34685 68.46004
#
# Poissons Ratio (x) = -0.12446 0.51155
# Poissons Ratio (y) = -0.17377 0.70048
# Poissons Ratio (z) = 0.31659 0.31051
#
# Static dielectric constant tensor:
#      x y z
#    x 1.810430 0.002860 -0.091170 
#    y 0.002860 1.660960 -0.000720 
#    z -0.091170 -0.000720 1.728620 
# 
# From -- ./inp_files/186678.got.cif
#   From: 2010.05.17/outbox.ucp.g08.bks.cvg/sg2_94_cif.got.tgz:186678.got - 2010.06.11 11:32:03.
