data_PCOD9072094
_publ_section_title
;
Structure prediction by ZEFSAII (Michael W. Deem and Ramdas Pophale) SiO2 
 PCOD9072094
Probable space group: P -1
;
_chemical_formula_sum "Si O2"
_cell_formula_units_Z 14
_cell_length_a 9.000000
_cell_length_b 12.000000
_cell_length_c 12.000000
_cell_angle_alpha 140.000000
_cell_angle_beta 110.000000
_cell_angle_gamma 90.000000
_cell_volume 705.336177
_symmetry_space_group_name_H-M "P -1"
_symmetry_group_IT_number 2
_symmetry_cell_setting 'triclinic'
loop_
_space_group_symop_operation_xyz
x,y,z
-x,-y,-z
loop_
_atom_site_type_symbol
_atom_site_label
_atom_site_fract_x
_atom_site_fract_y
_atom_site_fract_z
Si Si1 0.639044 0.720844 0.723388
Si Si2 0.515334 0.006664 0.192976
Si Si3 0.337199 0.583227 0.886894
Si Si4 0.800769 0.768195 0.564323
Si Si5 0.524972 0.170726 0.554113
Si Si6 0.285129 0.421881 0.981264
Si Si7 0.824676 0.894092 0.123642
O O1 0.500000 0.500000 0.500000
O O2 0.763764 0.773852 0.689043
O O3 0.547367 0.867545 0.806515
O O4 0.749348 0.755722 0.891087
O O5 0.673627 0.964143 0.159518
O O6 0.577219 0.128151 0.414531
O O7 0.361958 0.798034 0.031838
O O8 0.254185 0.449123 0.656759
O O9 0.533815 0.605863 0.984464
O O10 0.234988 0.460959 0.874875
O O11 0.661283 0.821755 0.503629
O O12 0.995580 0.920707 0.706918
O O13 0.663419 0.376510 0.789785
O O14 0.500000 0.000000 0.500000
O O15 0.154458 0.234655 0.869792
#
# Coordination Sequence:
#
# PCOD9072094 Si02
#       7
#     2   2   2   2   2   2   2
#     4  11  22  42  64  82 111 157 200 234 285 359
#     4  10  20  36  62  86 111 150 201 239 278 351
#     4   9  17  35  56  85 112 152 195 228 282 344
#     4  10  23  37  58  86 119 153 187 248 296 329
#     4  10  18  36  59  84 113 158 199 225 277 350
#     4   9  18  33  59  82 116 154 190 233 279 350
#     4  11  22  38  57  90 119 149 192 245 296 330
#
# _framework density 19.848690999999999
#
# number of rings (size 3 to 8) (size 9 to 14) (size 15 to 20)
#    0.000    2.000    1.429    4.286    2.000    0.571 
#    0.000    9.286    0.000    0.000    0.000    0.000 
#    0.000    0.000    0.000    0.000    0.000    0.000 
#
# Total GULP energy -78084.125638 kJ/mol
# GULP energy per Si atom -5577.437546 kJ/mol
# Density = 1.980351 g / cm^3
# Si number density = 19.848691 Si / 1000 Ang^3
#
#
#
# Elastic Constant Matrix: (Units=GPa)
#
#
# Indices 1 2 3 4 5 6 
#
# 1 29.0333 37.1924 20.8793 -1.3647 -3.1326 17.8850
# 2 37.1924 59.7553 -1.5454 36.5419 -2.1048 -3.2041
# 3 20.8793 -1.5454 34.2973 8.9162 -13.5067 -12.9551
# 4 -1.3647 36.5419 8.9162 31.2531 -0.3713 1.1470
# 5 -3.1326 -2.1048 -13.5067 -0.3713 19.8013 11.9145
# 6 17.8850 -3.2041 -12.9551 1.1470 11.9145 8.3009
#
#
#
# Elastic Compliance Matrix: (Units=1/GPa)
#
#
# Indices 1 2 3 4 5 6 
#
# 1 0.002053 0.007113 0.008271 -0.011635 -0.008945 0.025677
# 2 0.007113 0.027453 -0.003874 -0.028051 0.036856 -0.059798
# 3 0.008271 -0.003874 0.027728 -0.001421 0.038501 -0.031107
# 4 -0.011635 -0.028051 -0.001421 0.061354 -0.049683 0.074858
# 5 -0.008945 0.036856 0.038501 -0.049683 0.131211 -0.087878
# 6 0.025677 -0.059798 -0.031107 0.074858 -0.087878 0.109304
#
#
# Mechanical properties :
#
#
# Convention : Reuss Voigt Hill
#
# Bulk Modulus (GPa) = 12.46024 26.23762 19.34893
# Shear Modulus (GPa) = 13.78034 16.30838 15.04436
#
# Velocity S-wave (km/s) = 2.63776 2.86953 2.75608
# Velocity P-wave (km/s) = 3.94566 4.92204 4.46064
#
# Compressibility (1/GPa) = 0.08025526
#
# Stress axis : x y z
#
# Youngs Moduli (GPa) = 486.98698 36.42555 36.06417
#
# Poissons Ratio (x) = -0.25908 -0.29830
# Poissons Ratio (y) = -3.46379 0.13972
# Poissons Ratio (z) = -4.02811 0.14112
#
# Static dielectric constant tensor:
#      x y z
#    x 1.730100 0.037440 -0.046800 
#    y 0.037440 1.731640 -0.009520 
#    z -0.046800 -0.009520 1.700850 
# 
# From -- ./inp_files/198055.got.cif
#   From: 2010.05.17/outbox.ucp.g08.bks.cvg/sg2_100_cif.got.tgz:198055.got - 2010.06.11 11:32:03.
