data_PCOD9072176
_publ_section_title
;
Structure prediction by ZEFSAII (Michael W. Deem and Ramdas Pophale) SiO2 
 PCOD9072176
Probable space group: P -1
;
_chemical_formula_sum "Si O2"
_cell_formula_units_Z 14
_cell_length_a 12.000000
_cell_length_b 15.000000
_cell_length_c 9.000000
_cell_angle_alpha 60.000000
_cell_angle_beta 150.000000
_cell_angle_gamma 130.000000
_cell_volume 613.666794
_symmetry_space_group_name_H-M "P -1"
_symmetry_group_IT_number 2
_symmetry_cell_setting 'triclinic'
loop_
_space_group_symop_operation_xyz
x,y,z
-x,-y,-z
loop_
_atom_site_type_symbol
_atom_site_label
_atom_site_fract_x
_atom_site_fract_y
_atom_site_fract_z
Si Si1 0.355665 0.133438 0.733898
Si Si2 0.867977 0.179145 0.805138
Si Si3 0.239360 0.713999 0.146301
Si Si4 0.421352 0.386683 0.279507
Si Si5 0.841202 0.732352 0.202234
Si Si6 0.836063 0.964266 0.104560
Si Si7 0.727586 0.645268 0.463189
O O1 0.611022 0.188258 0.887810
O O2 0.343368 0.070170 0.928137
O O3 0.318196 0.245992 0.638283
O O4 0.119185 0.041761 0.437001
O O5 0.709675 0.217614 0.695457
O O6 0.899316 0.216056 0.638970
O O7 0.160276 0.269221 0.119517
O O8 0.799727 0.047361 0.875444
O O9 0.355374 0.628173 0.375938
O O10 0.947017 0.647540 0.817348
O O11 0.477624 0.517138 0.277292
O O12 0.387269 0.364629 0.081500
O O13 0.805172 0.845698 0.095318
O O14 0.841820 0.673798 0.405496
#
# Coordination Sequence:
#
# PCOD9072176 Si02
#       7
#     2   2   2   2   2   2   2
#     4  10  22  38  65  93 122 161 203 258 308 351
#     4  10  22  40  63  90 128 159 202 249 313 358
#     4  12  22  40  62  99 121 161 208 249 311 362
#     4  10  23  41  64  91 126 163 203 252 309 362
#     4   9  22  43  66  86 124 168 202 251 310 359
#     4  10  18  43  64  86 125 163 205 251 302 371
#     4  11  22  43  66  91 123 161 211 254 299 364
#
# _framework density 22.813683000000001
#
# number of rings (size 3 to 8) (size 9 to 14) (size 15 to 20)
#    0.857    0.857    2.857    1.286    0.000    4.000 
#    5.143    2.143    0.000    0.000    0.000    0.000 
#    0.000    0.000    0.000    0.000    0.000    0.000 
#
# Total GULP energy -78118.765378 kJ/mol
# GULP energy per Si atom -5579.911813 kJ/mol
# Density = 2.276176 g / cm^3
# Si number density = 22.813683 Si / 1000 Ang^3
#
#
#
# Elastic Constant Matrix: (Units=GPa)
#
#
# Indices 1 2 3 4 5 6 
#
# 1 106.9354 1.6039 -7.2989 1.2977 -18.6033 10.7846
# 2 1.6039 88.4958 12.5573 10.8878 -3.5417 -12.7744
# 3 -7.2989 12.5573 43.5091 7.4740 -16.6796 -11.4055
# 4 1.2977 10.8878 7.4740 24.1164 -0.6915 -13.0350
# 5 -18.6033 -3.5417 -16.6796 -0.6915 23.5458 -0.5724
# 6 10.7846 -12.7744 -11.4055 -13.0350 -0.5724 22.2053
#
#
#
# Elastic Compliance Matrix: (Units=1/GPa)
#
#
# Indices 1 2 3 4 5 6 
#
# 1 0.013266 -0.000891 0.007941 -0.005360 0.015679 -0.005620
# 2 -0.000891 0.012642 -0.002116 -0.002104 -0.000233 0.005378
# 3 0.007941 -0.002116 0.044311 -0.002989 0.037669 0.016902
# 4 -0.005360 -0.002104 -0.002989 0.063551 -0.003901 0.037063
# 5 0.015679 -0.000233 0.037669 -0.003901 0.081670 0.011414
# 6 -0.005620 0.005378 0.016902 0.037063 0.011414 0.081591
#
#
# Mechanical properties :
#
#
# Convention : Reuss Voigt Hill
#
# Bulk Modulus (GPa) = 12.48656 28.07386 20.28021
# Shear Modulus (GPa) = 15.93063 29.44534 22.68799
#
# Velocity S-wave (km/s) = 2.64539 3.59651 3.15698
# Velocity P-wave (km/s) = 3.84915 5.43865 4.71142
#
# Compressibility (1/GPa) = 0.08008612
#
# Stress axis : x y z
#
# Youngs Moduli (GPa) = 75.37948 79.09988 22.56751
#
# Poissons Ratio (x) = 0.07051 -0.17921
# Poissons Ratio (y) = 0.06720 0.04776
# Poissons Ratio (z) = -0.59859 0.16741
#
# Static dielectric constant tensor:
#      x y z
#    x 1.949740 -0.002220 -0.018600 
#    y -0.002220 1.788670 0.014650 
#    z -0.018600 0.014650 1.838040 
# 
# From -- ./inp_files/272288.got.cif
#   From: 2010.05.17/outbox.ucp.g08.bks.cvg/sg2_137_cif.got.tgz:272288.got - 2010.06.11 11:32:03.
