data_PCOD9072231
_publ_section_title
;
Structure prediction by ZEFSAII (Michael W. Deem and Ramdas Pophale) SiO2 
 PCOD9072231
Probable space group: P -1
;
_chemical_formula_sum "Si O2"
_cell_formula_units_Z 16
_cell_length_a 20.933788
_cell_length_b 17.296127
_cell_length_c 8.269282
_cell_angle_alpha 136.172212
_cell_angle_beta 63.547117
_cell_angle_gamma 151.122348
_cell_volume 831.658079
_symmetry_space_group_name_H-M "P -1"
_symmetry_group_IT_number 2
_symmetry_cell_setting 'triclinic'
loop_
_space_group_symop_operation_xyz
x,y,z
-x,-y,-z
loop_
_atom_site_type_symbol
_atom_site_label
_atom_site_fract_x
_atom_site_fract_y
_atom_site_fract_z
Si Si1 0.409947 0.569684 0.949548
Si Si2 0.924163 0.330612 0.635470
Si Si3 0.368228 0.744613 0.164013
Si Si4 0.262162 0.942448 0.886744
Si Si5 0.405424 0.173473 0.555883
Si Si6 0.048734 0.392261 0.868679
Si Si7 0.548618 0.949039 0.947755
Si Si8 0.756770 0.885936 0.581487
O O1 0.573379 0.809790 0.025167
O O2 0.303690 0.321656 0.625785
O O3 0.329037 0.578023 0.054797
O O4 0.462516 0.617681 0.144932
O O5 0.034595 0.392253 0.691611
O O6 0.756296 0.087296 0.558294
O O7 0.002502 0.559651 0.928349
O O8 0.875645 0.257950 0.394203
O O9 0.500000 0.000000 0.500000
O O10 0.219077 0.610583 0.083702
O O11 0.426913 0.779700 0.978664
O O12 0.293557 0.877211 0.868121
O O13 0.237325 0.019533 0.134446
O O14 0.458336 0.149517 0.338418
O O15 0.364053 0.223116 0.571203
O O16 0.927218 0.128863 0.667811
O O17 0.500000 0.000000 0.000000
#
# Coordination Sequence:
#
# PCOD9072231 Si02
#       8
#     2   2   2   2   2   2   2   2
#     4  10  19  34  56  77 107 140 172 216 261 311
#     4   9  18  35  55  75 106 140 170 219 266 305
#     4  11  22  37  56  77 104 138 173 215 268 318
#     4   9  19  34  54  80 105 137 179 217 262 307
#     4   9  18  33  54  80 103 135 178 216 259 306
#     4  10  20  34  52  76 107 140 174 210 265 317
#     4  10  18  30  53  81 106 130 170 222 262 306
#     4  10  20  33  53  80 107 139 176 217 257 310
#
# _framework density 19.238674
#
# number of rings (size 3 to 8) (size 9 to 14) (size 15 to 20)
#    0.000    2.250    0.000    4.500    0.000    2.000 
#    0.000    5.000    0.000    1.500    0.000    0.000 
#    0.000    0.000    0.000    0.000    0.000    0.000 
#
# Total GULP energy -89091.842583 kJ/mol
# GULP energy per Si atom -5568.240161 kJ/mol
# Density = 1.919489 g / cm^3
# Si number density = 19.238674 Si / 1000 Ang^3
#
#
#
# Elastic Constant Matrix: (Units=GPa)
#
#
# Indices 1 2 3 4 5 6 
#
# 1 116.5144 18.4103 66.2186 3.8273 12.2936 1.9665
# 2 18.4103 30.5861 11.9210 -7.3795 6.5655 -2.9676
# 3 66.2186 11.9210 90.6581 -5.4415 12.6830 -10.9165
# 4 3.8273 -7.3795 -5.4415 27.2786 -5.7250 2.7405
# 5 12.2936 6.5655 12.6830 -5.7250 38.1073 -0.1169
# 6 1.9665 -2.9676 -10.9165 2.7405 -0.1169 24.4214
#
#
#
# Elastic Compliance Matrix: (Units=1/GPa)
#
#
# Indices 1 2 3 4 5 6 
#
# 1 0.017651 -0.007636 -0.013033 -0.006617 -0.001058 -0.007438
# 2 -0.007636 0.040440 0.002041 0.011166 -0.003490 0.005171
# 3 -0.013033 0.002041 0.022259 0.005174 -0.002745 0.010654
# 4 -0.006617 0.011166 0.005174 0.042727 0.004906 -0.000568
# 5 -0.001058 -0.003490 -0.002745 0.004906 0.028829 -0.001979
# 6 -0.007438 0.005171 0.010654 -0.000568 -0.001979 0.046991
#
#
# Mechanical properties :
#
#
# Convention : Reuss Voigt Hill
#
# Bulk Modulus (GPa) = 23.20499 47.87316 35.53907
# Shear Modulus (GPa) = 19.95863 27.37538 23.66700
#
# Velocity S-wave (km/s) = 3.22440 3.77627 3.51120
# Velocity P-wave (km/s) = 5.09413 6.62959 5.91192
#
# Compressibility (1/GPa) = 0.04309418
#
# Stress axis : x y z
#
# Youngs Moduli (GPa) = 56.65482 24.72790 44.92493
#
# Poissons Ratio (x) = 0.18881 0.58552
# Poissons Ratio (y) = 0.43259 -0.09168
# Poissons Ratio (z) = 0.73839 -0.05046
#
# Static dielectric constant tensor:
#      x y z
#    x 1.759300 -0.034280 0.030710 
#    y -0.034280 1.774610 -0.015440 
#    z 0.030710 -0.015440 1.652290 
# 
# From -- ./inp_files/260206.got.cif
#   From: 2010.05.17/outbox.cif.g08.bks.cpg/sg2_131_cif.got.tgz:260206.got - 2010.06.03 11:33:40.
