data_PCOD9072692
_publ_section_title
;
Structure prediction by ZEFSAII (Michael W. Deem and Ramdas Pophale) SiO2 
 PCOD9072692
Probable space group: P -1
;
_chemical_formula_sum "Si O2"
_cell_formula_units_Z 16
_cell_length_a 15.000000
_cell_length_b 6.000000
_cell_length_c 15.000000
_cell_angle_alpha 140.000000
_cell_angle_beta 80.000000
_cell_angle_gamma 90.000000
_cell_volume 835.498653
_symmetry_space_group_name_H-M "P -1"
_symmetry_group_IT_number 2
_symmetry_cell_setting 'triclinic'
loop_
_space_group_symop_operation_xyz
x,y,z
-x,-y,-z
loop_
_atom_site_type_symbol
_atom_site_label
_atom_site_fract_x
_atom_site_fract_y
_atom_site_fract_z
Si Si1 0.065939 0.757952 0.537099
Si Si2 0.116229 0.777486 0.343539
Si Si3 0.419988 0.924377 0.056062
Si Si4 0.783690 0.550236 0.459090
Si Si5 0.281387 0.351165 0.088422
Si Si6 0.425773 0.202171 0.741150
Si Si7 0.385891 0.997364 0.278378
Si Si8 0.337534 0.711917 0.743378
O O1 0.115871 0.614768 0.392251
O O2 0.142324 0.757984 0.599370
O O3 0.000000 0.500000 0.500000
O O4 0.990797 0.110963 0.633986
O O5 0.176621 0.536844 0.185110
O O6 0.164174 0.118311 0.454295
O O7 0.435941 0.035455 0.187663
O O8 0.323184 0.155556 0.111463
O O9 0.414787 0.521821 0.913282
O O10 0.500000 0.000000 0.000000
O O11 0.742257 0.442050 0.340831
O O12 0.696371 0.686176 0.581121
O O13 0.339836 0.659424 0.163271
O O14 0.299645 0.055476 0.917881
O O15 0.537197 0.068291 0.677525
O O16 0.387452 0.403598 0.714459
O O17 0.386791 0.886210 0.703457
#
# Coordination Sequence:
#
# PCOD9072692 Si02
#       8
#     2   2   2   2   2   2   2   2
#     4   9  18  38  63  89 115 144 190 247 307 353
#     4   9  19  37  65  90 112 147 197 249 293 362
#     4  11  19  33  57  86 114 157 205 261 294 329
#     4  10  23  37  59  86 120 157 192 243 308 359
#     4  10  20  35  58  87 116 153 207 246 294 347
#     4  11  23  38  59  82 124 165 209 243 297 342
#     4  11  20  36  58  85 112 157 214 253 282 345
#     4  11  25  41  56  87 128 168 192 247 302 356
#
# _framework density 19.15024
#
# number of rings (size 3 to 8) (size 9 to 14) (size 15 to 20)
#    0.000    1.750    2.500    2.625    1.750    1.000 
#    0.000    0.625    0.000    6.750    0.000    0.000 
#    0.000    0.000    0.000    0.000    0.000    0.000 
#
# Total GULP energy -89083.232464 kJ/mol
# GULP energy per Si atom -5567.702029 kJ/mol
# Density = 1.910665 g / cm^3
# Si number density = 19.150240 Si / 1000 Ang^3
#
#
#
# Elastic Constant Matrix: (Units=GPa)
#
#
# Indices 1 2 3 4 5 6 
#
# 1 110.2255 39.7330 43.8334 -11.4203 -3.7783 -28.7133
# 2 39.7330 93.9685 19.7098 -17.5983 -1.0200 -8.2640
# 3 43.8334 19.7098 48.9948 -6.7723 2.6706 -12.4141
# 4 -11.4203 -17.5983 -6.7723 23.1869 -1.3539 3.6443
# 5 -3.7783 -1.0200 2.6706 -1.3539 27.8857 -7.1581
# 6 -28.7133 -8.2640 -12.4141 3.6443 -7.1581 39.7173
#
#
#
# Elastic Compliance Matrix: (Units=1/GPa)
#
#
# Indices 1 2 3 4 5 6 
#
# 1 0.018276 -0.003984 -0.012519 0.001188 0.006012 0.009445
# 2 -0.003984 0.014091 -0.001204 0.008562 0.000233 -0.001068
# 3 -0.012519 -0.001204 0.032616 0.002193 -0.004802 -0.000173
# 4 0.001188 0.008562 0.002193 0.051143 0.002513 -0.000914
# 5 0.006012 0.000233 -0.004802 0.002513 0.039790 0.009834
# 6 0.009445 -0.001068 -0.000173 -0.000914 0.009834 0.033586
#
#
# Mechanical properties :
#
#
# Convention : Reuss Voigt Hill
#
# Bulk Modulus (GPa) = 33.81833 51.08235 42.45034
# Shear Modulus (GPa) = 21.29732 28.15215 24.72473
#
# Velocity S-wave (km/s) = 3.33846 3.83831 3.59708
# Velocity P-wave (km/s) = 5.70598 6.80998 6.28228
#
# Compressibility (1/GPa) = 0.02956976
#
# Stress axis : x y z
#
# Youngs Moduli (GPa) = 54.71605 70.96718 30.66011
#
# Poissons Ratio (x) = 0.28270 0.38382
# Poissons Ratio (y) = 0.21797 0.03693
# Poissons Ratio (z) = 0.68496 0.08548
#
# Static dielectric constant tensor:
#      x y z
#    x 1.710970 -0.010110 -0.040450 
#    y -0.010110 1.769690 0.025990 
#    z -0.040450 0.025990 1.657850 
# 
# From -- ./inp_files/46297.got.cif
#   From: 2010.05.17/outbox.ucp.g08.bks.cvg/sg2_24_cif.got.tgz:46297.got - 2010.06.11 11:32:03.
