data_PCOD9072828
_publ_section_title
;
Structure prediction by ZEFSAII (Michael W. Deem and Ramdas Pophale) SiO2 
 PCOD9072828
Probable space group: P -1
;
_chemical_formula_sum "Si O2"
_cell_formula_units_Z 16
_cell_length_a 27.000000
_cell_length_b 15.000000
_cell_length_c 9.000000
_cell_angle_alpha 130.000000
_cell_angle_beta 140.000000
_cell_angle_gamma 20.000000
_cell_volume 750.501489
_symmetry_space_group_name_H-M "P -1"
_symmetry_group_IT_number 2
_symmetry_cell_setting 'triclinic'
loop_
_space_group_symop_operation_xyz
x,y,z
-x,-y,-z
loop_
_atom_site_type_symbol
_atom_site_label
_atom_site_fract_x
_atom_site_fract_y
_atom_site_fract_z
Si Si1 0.897540 0.528956 0.731121
Si Si2 0.365956 0.578016 0.725234
Si Si3 0.805144 0.253975 0.180263
Si Si4 0.024803 0.325478 0.367008
Si Si5 0.029903 0.154666 0.444996
Si Si6 0.013224 0.241340 0.944075
Si Si7 0.456545 0.693201 0.649216
Si Si8 0.368561 0.920661 0.390218
O O1 0.041312 0.259374 0.675068
O O2 0.866279 0.478806 0.736084
O O3 0.727077 0.822006 0.568529
O O4 0.000000 0.500000 0.000000
O O5 0.241019 0.701873 0.705324
O O6 0.489756 0.304746 0.654317
O O7 0.500000 0.500000 0.000000
O O8 0.227743 0.820694 0.543425
O O9 0.899352 0.241286 0.321074
O O10 0.933505 0.965357 0.130458
O O11 0.608055 0.516008 0.928280
O O12 0.000000 0.500000 0.500000
O O13 0.947105 0.327292 0.293324
O O14 0.244665 0.000509 0.539281
O O15 0.951662 0.389119 0.108047
O O16 0.207937 0.041063 0.141968
O O17 0.500000 0.500000 0.500000
O O18 0.468232 0.759181 0.601838
#
# Coordination Sequence:
#
# PCOD9072828 Si02
#       8
#     2   2   2   2   2   2   2   2
#     4  10  20  40  63  88 125 169 206 257 317 378
#     4  12  21  39  66  97 120 165 221 258 308 386
#     4  12  24  40  63  98 134 162 209 272 327 366
#     4  11  23  41  66  97 122 168 227 256 307 392
#     4  12  25  40  64  98 130 164 210 271 322 372
#     4  10  20  38  63  91 128 164 207 264 316 366
#     4  11  20  41  65  89 128 170 215 258 313 383
#     4  10  20  37  64  93 116 163 223 259 298 375
#
# _framework density 21.319078000000001
#
# number of rings (size 3 to 8) (size 9 to 14) (size 15 to 20)
#    0.000    1.000    5.000    4.875    0.000    1.500 
#    0.000    3.125    0.000    0.000    0.000    0.000 
#    0.000    0.000    0.000    0.000    0.000    0.000 
#
# Total GULP energy -89147.015850 kJ/mol
# GULP energy per Si atom -5571.688491 kJ/mol
# Density = 2.127056 g / cm^3
# Si number density = 21.319078 Si / 1000 Ang^3
#
#
#
# Elastic Constant Matrix: (Units=GPa)
#
#
# Indices 1 2 3 4 5 6 
#
# 1 90.3509 59.1354 3.6269 3.2462 -7.9398 22.3676
# 2 59.1354 71.0979 5.3744 7.1103 -3.8534 43.1383
# 3 3.6269 5.3744 24.9169 -6.0468 -8.7735 9.4070
# 4 3.2462 7.1103 -6.0468 26.8169 7.9711 -7.5816
# 5 -7.9398 -3.8534 -8.7735 7.9711 37.9572 -6.5693
# 6 22.3676 43.1383 9.4070 -7.5816 -6.5693 39.4657
#
#
#
# Elastic Compliance Matrix: (Units=1/GPa)
#
#
# Indices 1 2 3 4 5 6 
#
# 1 0.082654 -0.172329 -0.014289 0.075408 0.008490 0.160826
# 2 -0.172329 0.429271 0.038036 -0.199100 -0.014783 -0.421324
# 3 -0.014289 0.038036 0.051265 -0.012170 0.007171 -0.046841
# 4 0.075408 -0.199100 -0.012170 0.135991 -0.000534 0.203827
# 5 0.008490 -0.014783 0.007171 -0.000534 0.030932 0.014684
# 6 0.160826 -0.421324 -0.046841 0.203827 0.014684 0.447486
#
#
# Mechanical properties :
#
#
# Convention : Reuss Voigt Hill
#
# Bulk Modulus (GPa) = 3.75903 35.84880 19.80392
# Shear Modulus (GPa) = 3.19808 28.72990 15.96399
#
# Velocity S-wave (km/s) = 1.22612 3.67497 2.73941
# Velocity P-wave (km/s) = 1.94204 5.90416 4.39492
#
# Compressibility (1/GPa) = 0.26602594
#
# Stress axis : x y z
#
# Youngs Moduli (GPa) = 12.09861 2.32953 19.50651
#
# Poissons Ratio (x) = 0.40145 0.27874
# Poissons Ratio (y) = 2.08494 -0.74196
# Poissons Ratio (z) = 0.17288 -0.08861
#
# Static dielectric constant tensor:
#      x y z
#    x 1.941080 0.067830 -0.096160 
#    y 0.067830 1.557260 -0.052950 
#    z -0.096160 -0.052950 1.823610 
# 
# From -- ./inp_files/299394.got.cif
#   From: 2010.05.17/outbox.ucp.g08.bks.cvg/sg2_150_cif.got.tgz:299394.got - 2010.06.11 11:32:03.
