data_PCOD9072450
_publ_section_title
;
Structure prediction by ZEFSAII (Michael W. Deem and Ramdas Pophale) SiO2 
 PCOD9072450
Probable space group: P -1
;
_chemical_formula_sum "Si O2"
_cell_formula_units_Z 16
_cell_length_a 12.997814
_cell_length_b 14.484510
_cell_length_c 11.258053
_cell_angle_alpha 151.699060
_cell_angle_beta 43.620098
_cell_angle_gamma 132.603891
_cell_volume 688.151919
_symmetry_space_group_name_H-M "P -1"
_symmetry_group_IT_number 2
_symmetry_cell_setting 'triclinic'
loop_
_space_group_symop_operation_xyz
x,y,z
-x,-y,-z
loop_
_atom_site_type_symbol
_atom_site_label
_atom_site_fract_x
_atom_site_fract_y
_atom_site_fract_z
Si Si1 0.675296 0.483792 0.840934
Si Si2 0.791715 0.662282 0.558682
Si Si3 0.244163 0.770332 0.292005
Si Si4 0.197281 0.369824 0.756483
Si Si5 0.542508 0.909624 0.055859
Si Si6 0.895719 0.839394 0.167745
Si Si7 0.889903 0.424047 0.400502
Si Si8 0.466271 0.701137 0.630944
O O1 0.718360 0.327518 0.725356
O O2 0.731097 0.423968 0.597455
O O3 0.500000 0.500000 0.000000
O O4 0.767674 0.689967 0.038952
O O5 0.842952 0.693966 0.416273
O O6 0.697272 0.831221 0.876020
O O7 0.908177 0.588596 0.469136
O O8 0.667248 0.470642 0.441560
O O9 0.137893 0.941894 0.580938
O O10 0.175713 0.591321 0.060883
O O11 0.404278 0.866086 0.211858
O O12 0.120808 0.218293 0.745137
O O13 0.377151 0.369843 0.618385
O O14 0.493232 0.791897 0.842295
O O15 0.566474 0.131034 0.242042
O O16 0.053756 0.774320 0.918966
O O17 0.000000 0.500000 0.500000
#
# Coordination Sequence:
#
# PCOD9072450 Si02
#       8
#     2   2   2   2   2   2   2   2
#     4  10  23  41  66  90 113 155 214 259 294 351
#     4  11  20  36  63  87 124 163 202 251 311 353
#     4  11  19  35  61  87 124 159 195 244 313 357
#     4  10  19  34  60  94 125 155 196 245 311 372
#     4  10  18  30  57  96 128 151 189 248 311 366
#     4  10  23  40  60  87 126 163 192 252 306 364
#     4  10  24  46  61  82 124 165 210 253 297 356
#     4  10  18  31  55  96 131 152 186 250 308 366
#
# _framework density 23.250681
#
# number of rings (size 3 to 8) (size 9 to 14) (size 15 to 20)
#    0.000    1.750    3.750    1.500    1.750    1.500 
#    0.000    6.875    0.000    0.000    0.000    0.000 
#    0.000    0.000    0.000    0.000    0.000    0.000 
#
# Total GULP energy -89562.962162 kJ/mol
# GULP energy per Si atom -5597.685135 kJ/mol
# Density = 2.319776 g / cm^3
# Si number density = 23.250681 Si / 1000 Ang^3
#
#
#
# Elastic Constant Matrix: (Units=GPa)
#
#
# Indices 1 2 3 4 5 6 
#
# 1 78.1780 16.0684 35.1987 0.4059 -17.8647 -11.7536
# 2 16.0684 87.7365 53.6546 2.7242 -4.6044 -9.4781
# 3 35.1987 53.6546 145.0246 -0.9594 -36.0124 -21.2285
# 4 0.4059 2.7242 -0.9594 49.5134 -9.5553 -6.1979
# 5 -17.8647 -4.6044 -36.0124 -9.5553 34.5050 -0.1247
# 6 -11.7536 -9.4781 -21.2285 -6.1979 -0.1247 32.2768
#
#
#
# Elastic Compliance Matrix: (Units=1/GPa)
#
#
# Indices 1 2 3 4 5 6 
#
# 1 0.016043 -0.001765 -0.000329 0.002274 0.008377 0.005576
# 2 -0.001765 0.015834 -0.007477 -0.002596 -0.007329 -0.001438
# 3 -0.000329 -0.007477 0.014936 0.004813 0.015784 0.008493
# 4 0.002274 -0.002596 0.004813 0.023804 0.012474 0.007850
# 5 0.008377 -0.007329 0.015784 0.012474 0.052318 0.013877
# 6 0.005576 -0.001438 0.008493 0.007850 0.013877 0.039737
#
#
# Mechanical properties :
#
#
# Convention : Reuss Voigt Hill
#
# Bulk Modulus (GPa) = 36.14065 57.86473 47.00269
# Shear Modulus (GPa) = 26.17239 36.99352 31.58296
#
# Velocity S-wave (km/s) = 3.35873 3.99315 3.68960
# Velocity P-wave (km/s) = 5.53345 6.79718 6.19761
#
# Compressibility (1/GPa) = 0.02766968
#
# Stress axis : x y z
#
# Youngs Moduli (GPa) = 62.33168 63.15331 66.95149
#
# Poissons Ratio (x) = 0.11150 0.02204
# Poissons Ratio (y) = 0.11004 0.50062
# Poissons Ratio (z) = 0.02052 0.47222
#
# Static dielectric constant tensor:
#      x y z
#    x 1.915450 0.026340 -0.029910 
#    y 0.026340 1.873060 -0.022420 
#    z -0.029910 -0.022420 1.888550 
# 
# From -- ./inp_files/313842.got.cif
#   From: 2010.05.17/outbox.cif.g08.bks.cpg/sg2_157_cif.got.tgz:313842.got - 2010.06.03 11:33:40.
