data_PCOD9072163
_publ_section_title
;
Structure prediction by ZEFSAII (Michael W. Deem and Ramdas Pophale) SiO2 
 PCOD9072163
Probable space group: P -1
;
_chemical_formula_sum "Si O2"
_cell_formula_units_Z 16
_cell_length_a 15.000000
_cell_length_b 15.000000
_cell_length_c 9.000000
_cell_angle_alpha 130.000000
_cell_angle_beta 50.000000
_cell_angle_gamma 150.000000
_cell_volume 755.761493
_symmetry_space_group_name_H-M "P -1"
_symmetry_group_IT_number 2
_symmetry_cell_setting 'triclinic'
loop_
_space_group_symop_operation_xyz
x,y,z
-x,-y,-z
loop_
_atom_site_type_symbol
_atom_site_label
_atom_site_fract_x
_atom_site_fract_y
_atom_site_fract_z
Si Si1 0.621989 0.291650 0.294861
Si Si2 0.493912 0.455716 0.631500
Si Si3 0.225464 0.659671 0.131684
Si Si4 0.885065 0.920161 0.251548
Si Si5 0.140828 0.737666 0.881136
Si Si6 0.718618 0.806877 0.981388
Si Si7 0.564674 0.932901 0.274546
Si Si8 0.196904 0.893436 0.311329
O O1 0.594803 0.406557 0.488067
O O2 0.735832 0.285779 0.263287
O O3 0.415870 0.083395 0.277505
O O4 0.727110 0.357722 0.097700
O O5 0.500000 0.500000 0.500000
O O6 0.276119 0.269518 0.690548
O O7 0.588540 0.618474 0.822773
O O8 0.411038 0.799038 0.171820
O O9 0.164154 0.747328 0.277609
O O10 0.060746 0.457405 0.154236
O O11 0.883865 0.053212 0.463445
O O12 0.807277 0.841973 0.083004
O O13 0.095116 0.037267 0.151925
O O14 0.239415 0.887198 0.811486
O O15 0.142053 0.812925 0.115094
O O16 0.600488 0.829670 0.182522
O O17 0.500000 0.000000 0.500000
#
# Coordination Sequence:
#
# PCOD9072163 Si02
#       8
#     2   2   2   2   2   2   2   2
#     4  10  19  38  66  97 132 170 211 267 340 389
#     4  11  25  42  70 103 134 176 224 282 336 393
#     4  11  21  38  63  98 133 166 219 276 327 391
#     4  10  25  47  68  99 133 183 228 266 336 412
#     4  11  23  38  66 102 129 173 219 284 324 392
#     4  11  26  46  69  96 138 184 219 276 333 408
#     4  12  26  45  64  93 135 174 222 274 337 390
#     4  10  18  39  70  95 132 173 218 272 335 386
#
# _framework density 21.1707
#
# number of rings (size 3 to 8) (size 9 to 14) (size 15 to 20)
#    0.000    1.250    2.500    4.125    7.000    3.000 
#    0.000    0.000    0.000    0.000    0.000    0.000 
#    0.000    0.000    0.000    0.000    0.000    0.000 
#
# Total GULP energy -89234.287919 kJ/mol
# GULP energy per Si atom -5577.142995 kJ/mol
# Density = 2.112251 g / cm^3
# Si number density = 21.170700 Si / 1000 Ang^3
#
#
#
# Elastic Constant Matrix: (Units=GPa)
#
#
# Indices 1 2 3 4 5 6 
#
# 1 -21.4083 -31.5801 28.1265 4.1025 -25.5260 -46.1862
# 2 -31.5801 105.4162 40.9788 5.2724 -8.4953 -25.1775
# 3 28.1265 40.9788 95.8887 18.2657 -16.8737 10.3587
# 4 4.1025 5.2724 18.2657 39.6099 -1.3689 -6.5090
# 5 -25.5260 -8.4953 -16.8737 -1.3689 25.1898 -22.5103
# 6 -46.1862 -25.1775 10.3587 -6.5090 -22.5103 -25.7469
#
#
#
# Elastic Compliance Matrix: (Units=1/GPa)
#
#
# Indices 1 2 3 4 5 6 
#
# 1 0.020125 -0.000052 -0.003049 -0.005703 -0.007859 -0.028964
# 2 -0.000052 0.009236 -0.004078 -0.000507 -0.005073 -0.006016
# 3 -0.003049 -0.004078 0.015255 -0.004674 0.011504 0.006718
# 4 -0.005703 -0.000507 -0.004674 0.028695 -0.003424 0.004585
# 5 -0.007859 -0.005073 0.011504 -0.003424 0.033394 -0.004643
# 6 -0.028964 -0.006016 0.006718 0.004585 -0.004643 0.024604
#
#
# Mechanical properties :
#
#
# Convention : Reuss Voigt Hill
#
# Bulk Modulus (GPa) = 33.04876 28.32745 30.68811
# Shear Modulus (GPa) = 32.10258 17.30199 24.70228
#
# Velocity S-wave (km/s) = 3.89828 2.86188 3.41957
# Velocity P-wave (km/s) = 5.99221 4.93255 5.48802
#
# Compressibility (1/GPa) = 0.03025832
#
# Stress axis : x y z
#
# Youngs Moduli (GPa) = 49.68997 108.27587 65.55364
#
# Poissons Ratio (x) = 0.00561 0.19985
# Poissons Ratio (y) = 0.00258 0.26732
# Poissons Ratio (z) = 0.15149 0.44154
#
# Static dielectric constant tensor:
#      x y z
#    x 1.744410 -0.051190 -0.024300 
#    y -0.051190 1.784400 -0.024790 
#    z -0.024300 -0.024790 1.759870 
# 
# From -- ./inp_files/271721.got.cif
#   From: 2010.05.17/outbox.ucp.g08.bks.cvg/sg2_136_cif.got.tgz:271721.got - 2010.06.11 11:32:03.
