data_PCOD9072247
_publ_section_title
;
Structure prediction by ZEFSAII (Michael W. Deem and Ramdas Pophale) SiO2 
 PCOD9072247
Probable space group: P -1
;
_chemical_formula_sum "Si O2"
_cell_formula_units_Z 14
_cell_length_a 27.000000
_cell_length_b 12.000000
_cell_length_c 27.000000
_cell_angle_alpha 30.000000
_cell_angle_beta 10.000000
_cell_angle_gamma 30.000000
_cell_volume 750.765935
_symmetry_space_group_name_H-M "P -1"
_symmetry_group_IT_number 2
_symmetry_cell_setting 'triclinic'
loop_
_space_group_symop_operation_xyz
x,y,z
-x,-y,-z
loop_
_atom_site_type_symbol
_atom_site_label
_atom_site_fract_x
_atom_site_fract_y
_atom_site_fract_z
Si Si1 0.684886 0.513499 0.261900
Si Si2 0.091765 0.245576 0.304756
Si Si3 0.925671 0.882262 0.937735
Si Si4 0.640098 0.373600 0.773114
Si Si5 0.631046 0.851033 0.641986
Si Si6 0.201309 0.082787 0.152198
Si Si7 0.654621 0.137888 0.606332
O O1 0.500000 0.500000 0.500000
O O2 0.480324 0.625442 0.376976
O O3 0.880488 0.272080 0.154280
O O4 0.894892 0.697431 0.996433
O O5 0.142736 0.243986 0.196140
O O6 0.837827 0.415946 0.514936
O O7 0.369284 0.283185 0.048986
O O8 0.000000 0.000000 0.500000
O O9 0.068637 0.086874 0.696928
O O10 0.600392 0.991872 0.225070
O O11 0.589728 0.596248 0.770648
O O12 0.793013 0.169371 0.735194
O O13 0.610182 0.948807 0.681171
O O14 0.979890 0.131846 0.306046
O O15 0.502120 0.098358 0.823603
#
# Coordination Sequence:
#
# PCOD9072247 Si02
#       7
#     2   2   2   2   2   2   2
#     4  10  19  34  57  78 110 153 187 225 273 320
#     4  10  20  39  61  78 102 147 206 241 256 305
#     4  10  19  33  53  79 112 140 192 230 253 328
#     4  11  22  38  60  80 112 154 192 224 266 330
#     4  11  22  35  53  86 118 150 183 215 281 340
#     4  11  22  36  55  84 114 148 181 234 279 312
#     4  11  22  33  54  86 122 139 177 227 284 350
#
# _framework density 18.647622999999999
#
# number of rings (size 3 to 8) (size 9 to 14) (size 15 to 20)
#    0.000    1.429    2.857    6.857    2.000    1.143 
#    0.000    0.000    0.000    0.000    0.000   20.000 
#    0.000    0.000    0.000    0.000    0.000    0.000 
#
# Total GULP energy -77951.519912 kJ/mol
# GULP energy per Si atom -5567.965708 kJ/mol
# Density = 1.860518 g / cm^3
# Si number density = 18.647623 Si / 1000 Ang^3
#
#
#
# Elastic Constant Matrix: (Units=GPa)
#
#
# Indices 1 2 3 4 5 6 
#
# 1 84.5094 27.3172 9.8015 -3.4843 -8.6429 2.4333
# 2 27.3172 37.7070 0.9349 -0.1091 -7.4892 -11.8317
# 3 9.8015 0.9349 58.4026 0.1308 -11.0733 4.5429
# 4 -3.4843 -0.1091 0.1308 21.6407 -1.6203 -1.1818
# 5 -8.6429 -7.4892 -11.0733 -1.6203 33.4956 7.9937
# 6 2.4333 -11.8317 4.5429 -1.1818 7.9937 23.0745
#
#
#
# Elastic Compliance Matrix: (Units=1/GPa)
#
#
# Indices 1 2 3 4 5 6 
#
# 1 0.017725 -0.015457 -0.001277 0.002456 0.003337 -0.010574
# 2 -0.015457 0.045566 -0.000029 -0.000884 0.000209 0.024882
# 3 -0.001277 -0.000029 0.019253 -0.000102 0.007523 -0.006282
# 4 0.002456 -0.000884 -0.000102 0.046832 0.002464 0.000852
# 5 0.003337 0.000209 0.007523 0.002464 0.036792 -0.014346
# 6 -0.010574 0.024882 -0.006282 0.000852 -0.014346 0.063462
#
#
# Mechanical properties :
#
#
# Convention : Reuss Voigt Hill
#
# Bulk Modulus (GPa) = 20.40173 28.52514 24.46343
# Shear Modulus (GPa) = 17.88945 25.14651 21.51798
#
# Velocity S-wave (km/s) = 3.10069 3.67619 3.40063
# Velocity P-wave (km/s) = 4.87682 5.77489 5.34475
#
# Compressibility (1/GPa) = 0.04901546
#
# Stress axis : x y z
#
# Youngs Moduli (GPa) = 56.41876 21.94642 51.94096
#
# Poissons Ratio (x) = 0.33923 0.06635
# Poissons Ratio (y) = 0.87206 0.00152
# Poissons Ratio (z) = 0.07207 0.00064
#
# Static dielectric constant tensor:
#      x y z
#    x 1.624130 -0.009270 0.005930 
#    y -0.009270 1.676070 0.038780 
#    z 0.005930 0.038780 1.736100 
# 
# From -- ./inp_files/530605.got.cif
#   From: 2010.05.17/outbox.ucp.g08.bks.cvg/sg2_266_cif.got.tgz:530605.got - 2010.06.11 11:32:03.
