data_PCOD9072605
_publ_section_title
;
Structure prediction by ZEFSAII (Michael W. Deem and Ramdas Pophale) SiO2 
 PCOD9072605
Probable space group: P -1
;
_chemical_formula_sum "Si O2"
_cell_formula_units_Z 16
_cell_length_a 12.000000
_cell_length_b 9.000000
_cell_length_c 18.000000
_cell_angle_alpha 40.000000
_cell_angle_beta 40.000000
_cell_angle_gamma 40.000000
_cell_volume 723.717541
_symmetry_space_group_name_H-M "P -1"
_symmetry_group_IT_number 2
_symmetry_cell_setting 'triclinic'
loop_
_space_group_symop_operation_xyz
x,y,z
-x,-y,-z
loop_
_atom_site_type_symbol
_atom_site_label
_atom_site_fract_x
_atom_site_fract_y
_atom_site_fract_z
Si Si1 0.571928 0.356807 0.442364
Si Si2 0.990097 0.072617 0.312902
Si Si3 0.368795 0.163821 0.071923
Si Si4 0.014940 0.821541 0.237816
Si Si5 0.642229 0.213840 0.015318
Si Si6 0.592537 0.840226 0.590375
Si Si7 0.722863 0.242227 0.123414
Si Si8 0.829149 0.453075 0.510089
O O1 0.500000 0.500000 0.500000
O O2 0.384468 0.487507 0.434787
O O3 0.786272 0.323784 0.326791
O O4 0.618931 0.056704 0.540182
O O5 0.176888 0.126690 0.193707
O O6 0.977662 0.939335 0.293393
O O7 0.041245 0.848363 0.434223
O O8 0.513695 0.081537 0.099795
O O9 0.302519 0.467983 0.978708
O O10 0.500000 0.000000 0.000000
O O11 0.931831 0.608221 0.356037
O O12 0.230128 0.746295 0.130082
O O13 0.901015 0.056754 0.151303
O O14 0.742396 0.114827 0.080933
O O15 0.500000 0.500000 0.000000
O O16 0.454827 0.757366 0.739142
O O17 0.775767 0.590251 0.565948
O O18 0.500000 0.000000 0.500000
#
# Coordination Sequence:
#
# PCOD9072605 Si02
#       8
#     2   2   2   2   2   2   2   2
#     4  11  25  44  68 110 150 184 236 303 374 427
#     4  12  26  44  76 110 144 195 244 298 370 434
#     4  11  24  47  68 104 147 191 243 292 360 439
#     4  12  22  46  74 106 132 186 255 289 360 434
#     4  10  25  43  68 102 140 189 235 294 358 428
#     4  10  19  42  71 103 133 181 236 290 351 425
#     4  11  23  43  74 101 143 184 238 300 355 428
#     4  11  24  46  78 106 143 185 248 307 355 437
#
# _framework density 22.108073000000001
#
# number of rings (size 3 to 8) (size 9 to 14) (size 15 to 20)
#    0.000    1.000    5.000    2.250    1.750    4.000 
#    4.500    0.000    0.000    0.000    0.000    0.000 
#    0.000    0.000    0.000    0.000    0.000    0.000 
#
# Total GULP energy -89294.861501 kJ/mol
# GULP energy per Si atom -5580.928844 kJ/mol
# Density = 2.205775 g / cm^3
# Si number density = 22.108073 Si / 1000 Ang^3
#
#
#
# Elastic Constant Matrix: (Units=GPa)
#
#
# Indices 1 2 3 4 5 6 
#
# 1 109.6635 79.2978 36.0208 6.7336 -14.1504 -1.8381
# 2 79.2978 55.8551 32.2090 17.2400 2.0049 -10.0350
# 3 36.0208 32.2090 100.8179 11.7747 -20.2855 -4.5852
# 4 6.7336 17.2400 11.7747 42.6171 -7.8152 -1.2431
# 5 -14.1504 2.0049 -20.2855 -7.8152 35.7232 4.9037
# 6 -1.8381 -10.0350 -4.5852 -1.2431 4.9037 39.1032
#
#
#
# Elastic Compliance Matrix: (Units=1/GPa)
#
#
# Indices 1 2 3 4 5 6 
#
# 1 -0.024556 0.048166 -0.008640 -0.017030 -0.022779 0.012509
# 2 0.048166 -0.066177 0.007384 0.022919 0.034393 -0.017438
# 3 -0.008640 0.007384 0.011568 -0.004487 0.001404 0.002527
# 4 -0.017030 0.022919 -0.004487 0.016885 -0.007718 0.006060
# 5 -0.022779 0.034393 0.001404 -0.007718 0.015359 0.005749
# 6 0.012509 -0.017438 0.002527 0.006060 0.005749 0.021454
#
#
# Mechanical properties :
#
#
# Convention : Reuss Voigt Hill
#
# Bulk Modulus (GPa) = 68.23904 62.37686 65.30795
# Shear Modulus (GPa) = -43.70669 31.40931 -6.14869
#
# Velocity S-wave (km/s) = -4.45112 3.77333 -1.66950
# Velocity P-wave (km/s) = 2.12520 6.87457 5.08804
#
# Compressibility (1/GPa) = 0.01465437
#
# Stress axis : x y z
#
# Youngs Moduli (GPa) = -40.72357 -15.11107 86.44300
#
# Poissons Ratio (x) = 0.72783 0.74685
# Poissons Ratio (y) = 1.96147 -0.63825
# Poissons Ratio (z) = -0.35184 0.11157
#
# Static dielectric constant tensor:
#      x y z
#    x 1.512870 -0.401630 -0.423050 
#    y -0.401630 1.501960 -0.344050 
#    z -0.423050 -0.344050 1.379400 
# 
# From -- ./inp_files/566417.got.cif
#   From: 2010.05.17/outbox.ucp.g08.bks.cvg/sg2_284_cif.got.tgz:566417.got - 2010.06.11 11:32:03.
