data_PCOD9072882
_publ_section_title
;
Structure prediction by ZEFSAII (Michael W. Deem and Ramdas Pophale) SiO2 
 PCOD9072882
Probable space group: P -1
;
_chemical_formula_sum "Si O2"
_cell_formula_units_Z 16
_cell_length_a 9.000000
_cell_length_b 12.000000
_cell_length_c 15.000000
_cell_angle_alpha 130.000000
_cell_angle_beta 50.000000
_cell_angle_gamma 140.000000
_cell_volume 759.581896
_symmetry_space_group_name_H-M "P -1"
_symmetry_group_IT_number 2
_symmetry_cell_setting 'triclinic'
loop_
_space_group_symop_operation_xyz
x,y,z
-x,-y,-z
loop_
_atom_site_type_symbol
_atom_site_label
_atom_site_fract_x
_atom_site_fract_y
_atom_site_fract_z
Si Si1 0.099024 0.361231 0.799270
Si Si2 0.803442 0.767524 0.648298
Si Si3 0.249431 0.592670 0.511588
Si Si4 0.821630 0.921737 0.440535
Si Si5 0.676993 0.336037 0.278456
Si Si6 0.687016 0.403245 0.983479
Si Si7 0.981463 0.747061 0.924971
Si Si8 0.153014 0.129390 0.112385
O O1 0.108198 0.194150 0.698705
O O2 0.223146 0.488467 0.730273
O O3 0.235091 0.475078 0.894554
O O4 0.838280 0.321927 0.881820
O O5 0.711901 0.562509 0.585272
O O6 0.610018 0.771491 0.666856
O O7 0.805833 0.828798 0.778482
O O8 0.066725 0.896837 0.567780
O O9 0.523201 0.786674 0.489626
O O10 0.207651 0.607753 0.639579
O O11 0.000000 0.500000 0.500000
O O12 0.000000 0.000000 0.500000
O O13 0.771916 0.231599 0.142789
O O14 0.407113 0.237119 0.016195
O O15 0.773510 0.547153 0.942604
O O16 0.965240 0.785106 0.847017
O O17 0.000564 0.913115 0.048600
#
# Coordination Sequence:
#
# PCOD9072882 Si02
#       8
#     2   2   2   2   2   2   2   2
#     4  10  21  38  61  97 122 161 217 268 308 377
#     4  12  24  41  69  94 127 171 221 268 316 385
#     4  12  26  46  68  95 133 170 212 271 332 383
#     4  12  24  41  67  98 128 166 217 269 320 383
#     4  11  21  42  65  92 126 169 219 265 319 379
#     4  10  20  38  62  87 126 166 213 257 316 374
#     4  10  24  38  58  95 129 164 212 260 322 380
#     4  11  22  40  61  91 131 171 205 263 324 379
#
# _framework density 21.064219999999999
#
# number of rings (size 3 to 8) (size 9 to 14) (size 15 to 20)
#    0.000    1.000    3.750    3.000    1.750    1.000 
#    0.000    5.000    0.000    0.000    0.000    0.000 
#    0.000    0.000    0.000    0.000    0.000    0.000 
#
# Total GULP energy -89211.927020 kJ/mol
# GULP energy per Si atom -5575.745439 kJ/mol
# Density = 2.101628 g / cm^3
# Si number density = 21.064220 Si / 1000 Ang^3
#
#
#
# Elastic Constant Matrix: (Units=GPa)
#
#
# Indices 1 2 3 4 5 6 
#
# 1 92.8434 23.7638 25.0620 -2.9923 3.6056 10.3301
# 2 23.7638 79.7533 -9.2688 -21.3575 1.8390 13.7691
# 3 25.0620 -9.2688 49.7806 2.2721 9.1865 8.6181
# 4 -2.9923 -21.3575 2.2721 22.8963 1.4705 0.9625
# 5 3.6056 1.8390 9.1865 1.4705 31.4276 -8.3276
# 6 10.3301 13.7691 8.6181 0.9625 -8.3276 24.9013
#
#
#
# Elastic Compliance Matrix: (Units=1/GPa)
#
#
# Indices 1 2 3 4 5 6 
#
# 1 0.014549 -0.006668 -0.009032 -0.003613 0.001945 0.001567
# 2 -0.006668 0.026308 0.012842 0.023991 -0.011187 -0.020894
# 3 -0.009032 0.012842 0.032873 0.009353 -0.015099 -0.020142
# 4 -0.003613 0.023991 0.009353 0.066378 -0.012601 -0.021784
# 5 0.001945 -0.011187 -0.015099 -0.012601 0.044101 0.025840
# 6 0.001567 -0.020894 -0.020142 -0.021784 0.025840 0.067516
#
#
# Mechanical properties :
#
#
# Convention : Reuss Voigt Hill
#
# Bulk Modulus (GPa) = 14.70280 33.49903 24.10092
# Shear Modulus (GPa) = 17.85006 28.03307 22.94156
#
# Velocity S-wave (km/s) = 2.91419 3.65202 3.30377
# Velocity P-wave (km/s) = 4.28001 5.80696 5.10095
#
# Compressibility (1/GPa) = 0.06801426
#
# Stress axis : x y z
#
# Youngs Moduli (GPa) = 68.73283 38.01179 30.42037
#
# Poissons Ratio (x) = 0.25345 0.27475
# Poissons Ratio (y) = 0.45829 -0.39065
# Poissons Ratio (z) = 0.62077 -0.48814
#
# Static dielectric constant tensor:
#      x y z
#    x 1.801840 0.003910 -0.020140 
#    y 0.003910 1.780350 -0.014120 
#    z -0.020140 -0.014120 1.804130 
# 
# From -- ./inp_files/500804.got.cif
#   From: 2010.05.17/outbox.ucp.g08.bks.cvg/sg2_251_cif.got.tgz:500804.got - 2010.06.11 11:32:03.
