data_PCOD9072698
_publ_section_title
;
Structure prediction by ZEFSAII (Michael W. Deem and Ramdas Pophale) SiO2 
 PCOD9072698
Probable space group: P -1
;
_chemical_formula_sum "Si O2"
_cell_formula_units_Z 16
_cell_length_a 9.000000
_cell_length_b 9.000000
_cell_length_c 18.000000
_cell_angle_alpha 140.000000
_cell_angle_beta 80.000000
_cell_angle_gamma 120.000000
_cell_volume 752.029055
_symmetry_space_group_name_H-M "P -1"
_symmetry_group_IT_number 2
_symmetry_cell_setting 'triclinic'
loop_
_space_group_symop_operation_xyz
x,y,z
-x,-y,-z
loop_
_atom_site_type_symbol
_atom_site_label
_atom_site_fract_x
_atom_site_fract_y
_atom_site_fract_z
Si Si1 0.985459 0.952303 0.739491
Si Si2 0.385178 0.863785 0.327652
Si Si3 0.393681 0.322557 0.832447
Si Si4 0.677331 0.751077 0.442565
Si Si5 0.986866 0.592222 0.733846
Si Si6 0.606577 0.916579 0.095661
Si Si7 0.981585 0.128007 0.456001
Si Si8 0.618514 0.908575 0.748542
O O1 0.979749 0.793660 0.603769
O O2 0.968605 0.786488 0.751675
O O3 0.821769 0.988437 0.770033
O O4 0.187695 0.241412 0.819218
O O5 0.541929 0.809000 0.283432
O O6 0.185465 0.580278 0.260538
O O7 0.420492 0.091479 0.473354
O O8 0.387482 0.991272 0.295767
O O9 0.389381 0.188608 0.861593
O O10 0.545381 0.657085 0.948388
O O11 0.532685 0.426872 0.353333
O O12 0.849731 0.883141 0.535638
O O13 0.788127 0.838759 0.388504
O O14 0.990428 0.367755 0.595752
O O15 0.191729 0.801308 0.830990
O O16 0.445069 0.960301 0.135259
#
# Coordination Sequence:
#
# PCOD9072698 Si02
#       8
#     2   2   2   2   2   2   2   2
#     4  11  23  35  57  88 124 148 187 246 291 331
#     4  10  21  37  60  85 116 155 196 228 282 356
#     4   9  21  39  57  83 116 156 195 237 284 338
#     4  10  20  35  60  89 115 150 195 232 285 351
#     4  10  21  38  59  88 118 153 191 237 289 343
#     4   9  19  39  62  79 112 159 200 231 279 350
#     4  10  20  36  58  88 120 150 185 240 290 346
#     4  11  21  35  62  87 114 152 195 240 282 344
#
# _framework density 21.275773999999998
#
# number of rings (size 3 to 8) (size 9 to 14) (size 15 to 20)
#    0.000    2.000    2.500    0.750    0.000    3.000 
#    0.000    2.500    0.000    3.750    0.000    0.000 
#    0.000    0.000    0.000    0.000    0.000    0.000 
#
# Total GULP energy -89232.686142 kJ/mol
# GULP energy per Si atom -5577.042884 kJ/mol
# Density = 2.122735 g / cm^3
# Si number density = 21.275774 Si / 1000 Ang^3
#
#
#
# Elastic Constant Matrix: (Units=GPa)
#
#
# Indices 1 2 3 4 5 6 
#
# 1 118.8319 45.2191 22.8686 0.4395 1.1869 21.1009
# 2 45.2191 87.9524 20.1425 22.2629 -4.5354 21.3353
# 3 22.8686 20.1425 24.1170 9.0840 -3.6178 0.1685
# 4 0.4395 22.2629 9.0840 20.9455 10.8644 5.1240
# 5 1.1869 -4.5354 -3.6178 10.8644 13.9799 -0.9773
# 6 21.1009 21.3353 0.1685 5.1240 -0.9773 24.5624
#
#
#
# Elastic Compliance Matrix: (Units=1/GPa)
#
#
# Indices 1 2 3 4 5 6 
#
# 1 -0.016175 0.026530 0.053865 -0.115624 0.115117 0.019182
# 2 0.026530 -0.008606 -0.077438 0.112636 -0.115616 -0.042882
# 3 0.053865 -0.077438 -0.079598 0.257421 -0.253300 -0.042243
# 4 -0.115624 0.112636 0.257421 -0.455175 0.474649 0.113566
# 5 0.115117 -0.115616 -0.253300 0.474649 -0.418027 -0.112380
# 6 0.019182 -0.042882 -0.042243 0.113566 -0.112380 0.033609
#
#
# Mechanical properties :
#
#
# Convention : Reuss Voigt Hill
#
# Bulk Modulus (GPa) = -10.15584 45.26242 17.55329
# Shear Modulus (GPa) = -5.08799 21.40898 8.16050
#
# Velocity S-wave (km/s) = -1.54811 3.17560 1.96059
# Velocity P-wave (km/s) = 2.82477 5.89629 3.65971
#
# Compressibility (1/GPa) = -0.09846551
#
# Stress axis : x y z
#
# Youngs Moduli (GPa) = -61.82522 -116.19581 -12.56309
#
# Poissons Ratio (x) = 3.08271 0.67671
# Poissons Ratio (y) = 1.64024 -0.97287
# Poissons Ratio (z) = 3.33021 -8.99802
#
# Static dielectric constant tensor:
#      x y z
#    x 1.820060 -0.050280 0.026670 
#    y -0.050280 1.736840 0.013110 
#    z 0.026670 0.013110 1.807140 
# 
# From -- ./inp_files/177436.got.cif
#   From: 2010.05.17/outbox.ucp.g08.bks.cvg/sg2_89_cif.got.tgz:177436.got - 2010.06.11 11:32:03.
