data_PCOD9072584
_publ_section_title
;
Structure prediction by ZEFSAII (Michael W. Deem and Ramdas Pophale) SiO2 
 PCOD9072584
Probable space group: P -1
;
_chemical_formula_sum "Si O2"
_cell_formula_units_Z 16
_cell_length_a 9.000000
_cell_length_b 15.000000
_cell_length_c 12.000000
_cell_angle_alpha 150.000000
_cell_angle_beta 80.000000
_cell_angle_gamma 90.000000
_cell_volume 759.581896
_symmetry_space_group_name_H-M "P -1"
_symmetry_group_IT_number 2
_symmetry_cell_setting 'triclinic'
loop_
_space_group_symop_operation_xyz
x,y,z
-x,-y,-z
loop_
_atom_site_type_symbol
_atom_site_label
_atom_site_fract_x
_atom_site_fract_y
_atom_site_fract_z
Si Si1 0.161306 0.123518 0.920190
Si Si2 0.325537 0.514240 0.501600
Si Si3 0.887350 0.443153 0.623686
Si Si4 0.853292 0.462911 0.909841
Si Si5 0.787838 0.827598 0.790937
Si Si6 0.168752 0.865957 0.292290
Si Si7 0.831858 0.119012 0.947087
Si Si8 0.676979 0.882308 0.343292
O O1 0.258214 0.082781 0.748921
O O2 0.021033 0.032544 0.836215
O O3 0.091001 0.350754 0.169786
O O4 0.240439 0.074495 0.977840
O O5 0.500000 0.500000 0.500000
O O6 0.276514 0.528528 0.392506
O O7 0.295532 0.331945 0.361999
O O8 0.217839 0.703285 0.775021
O O9 0.895114 0.399521 0.707374
O O10 0.027529 0.291768 0.377738
O O11 0.796006 0.314250 0.827744
O O12 0.723431 0.663824 0.126496
O O13 0.000000 0.500000 0.000000
O O14 0.750412 0.972306 0.849955
O O15 0.191847 0.812703 0.102906
O O16 0.258864 0.015995 0.458671
O O17 0.000000 0.000000 0.500000
O O18 0.500000 0.000000 0.500000
#
# Coordination Sequence:
#
# PCOD9072584 Si02
#       8
#     2   2   2   2   2   2   2   2
#     4  10  19  40  66  94 127 167 224 273 327 407
#     4  11  25  43  62  97 140 172 210 279 343 395
#     4  10  20  40  70  97 125 170 227 274 331 401
#     4  11  23  41  73  99 130 179 234 279 335 401
#     4  11  22  38  70  97 124 169 225 271 333 398
#     4  12  23  40  66  98 130 178 235 277 328 407
#     4  12  23  38  67  98 125 173 226 270 326 407
#     4  11  26  44  65  99 138 174 222 292 346 394
#
# _framework density 21.064219999999999
#
# number of rings (size 3 to 8) (size 9 to 14) (size 15 to 20)
#    0.000    1.000    5.000    2.625    0.000    4.000 
#    0.000    2.500    0.000    0.000    0.000    0.000 
#    0.000    0.000    0.000    0.000    0.000    0.000 
#
# Total GULP energy -89157.289241 kJ/mol
# GULP energy per Si atom -5572.330578 kJ/mol
# Density = 2.101628 g / cm^3
# Si number density = 21.064220 Si / 1000 Ang^3
#
#
#
# Elastic Constant Matrix: (Units=GPa)
#
#
# Indices 1 2 3 4 5 6 
#
# 1 41.3539 24.7966 20.8461 2.4713 -4.9411 -12.1913
# 2 24.7966 166.0246 37.3529 -6.7245 13.8739 5.5417
# 3 20.8461 37.3529 77.1708 -5.3606 7.8999 -0.3747
# 4 2.4713 -6.7245 -5.3606 25.0832 -0.8548 12.9406
# 5 -4.9411 13.8739 7.8999 -0.8548 18.8069 0.3459
# 6 -12.1913 5.5417 -0.3747 12.9406 0.3459 16.6155
#
#
#
# Elastic Compliance Matrix: (Units=1/GPa)
#
#
# Indices 1 2 3 4 5 6 
#
# 1 0.165365 -0.036494 -0.045298 -0.168269 0.076929 0.261934
# 2 -0.036494 0.015414 0.007095 0.041277 -0.020896 -0.063470
# 3 -0.045298 0.007095 0.027360 0.048709 -0.025082 -0.072399
# 4 -0.168269 0.041277 0.048709 0.241808 -0.078191 -0.322832
# 5 0.076929 -0.020896 -0.025082 -0.078191 0.093540 0.121799
# 6 0.261934 -0.063470 -0.072399 -0.322832 0.121799 0.520805
#
#
# Mechanical properties :
#
#
# Convention : Reuss Voigt Hill
#
# Bulk Modulus (GPa) = 17.02235 50.06006 33.54120
# Shear Modulus (GPa) = 4.05428 25.53803 14.79615
#
# Velocity S-wave (km/s) = 1.38885 3.48572 2.65322
# Velocity P-wave (km/s) = 3.26659 6.32592 5.03428
#
# Compressibility (1/GPa) = 0.05874629
#
# Stress axis : x y z
#
# Youngs Moduli (GPa) = 6.04724 64.87644 36.55013
#
# Poissons Ratio (x) = 2.36759 1.65563
# Poissons Ratio (y) = 0.22069 -0.25934
# Poissons Ratio (z) = 0.27393 -0.46032
#
# Static dielectric constant tensor:
#      x y z
#    x 1.766250 -0.022190 0.002340 
#    y -0.022190 1.738550 0.000700 
#    z 0.002340 0.000700 1.752390 
# 
# From -- ./inp_files/297389.got.cif
#   From: 2010.05.17/outbox.ucp.g08.bks.cvg/sg2_149_cif.got.tgz:297389.got - 2010.06.11 11:32:03.
