data_PCOD9072454
_publ_section_title
;
Structure prediction by ZEFSAII (Michael W. Deem and Ramdas Pophale) SiO2 
 PCOD9072454
Probable space group: P -1
;
_chemical_formula_sum "Si O2"
_cell_formula_units_Z 12
_cell_length_a 18.814472
_cell_length_b 8.260326
_cell_length_c 9.399414
_cell_angle_alpha 43.057943
_cell_angle_beta 29.227467
_cell_angle_gamma 39.585145
_cell_volume 446.521394
_symmetry_space_group_name_H-M "P -1"
_symmetry_group_IT_number 2
_symmetry_cell_setting 'triclinic'
loop_
_space_group_symop_operation_xyz
x,y,z
-x,-y,-z
loop_
_atom_site_type_symbol
_atom_site_label
_atom_site_fract_x
_atom_site_fract_y
_atom_site_fract_z
Si Si1 0.252433 0.992606 0.013852
Si Si2 0.550762 0.208003 0.950422
Si Si3 0.383026 0.386218 0.853264
Si Si4 0.784120 0.472647 0.362571
Si Si5 0.953374 0.299480 0.903300
Si Si6 0.077948 0.681285 0.467465
O O1 0.108229 0.133040 0.291681
O O2 0.410731 0.798018 0.943421
O O3 0.166291 0.861182 0.144471
O O4 0.287532 0.221169 0.734990
O O5 0.405680 0.368180 0.997029
O O6 0.678751 0.316785 0.601822
O O7 0.577069 0.910808 0.070477
O O8 0.500000 0.500000 0.500000
O O9 0.211781 0.554607 0.981561
O O10 0.930809 0.365367 0.067819
O O11 0.834686 0.411197 0.475054
O O12 0.071963 0.430594 0.563631
O O13 0.000000 0.000000 0.000000
#
# Coordination Sequence:
#
# PCOD9072454 Si02
#       6
#     2   2   2   2   2   2
#     4   9  15  29  52  78 107 129 193 228 262 299
#     4  10  18  30  58  81 104 141 195 226 261 312
#     4  11  20  35  54  78 114 147 185 220 269 329
#     4  10  18  34  57  84 106 145 186 228 265 320
#     4  11  21  36  54  83 120 142 172 229 285 322
#     4   9  18  31  54  80 107 143 185 227 266 317
#
# _framework density 26.874410000000001
#
# number of rings (size 3 to 8) (size 9 to 14) (size 15 to 20)
#    0.000    2.000    5.000    2.000    0.000    0.000 
#    0.000    0.833    0.000    4.000    0.000   10.500 
#    0.000    0.000    0.000    0.000    0.000    0.000 
#
# Total GULP energy -67089.658678 kJ/mol
# GULP energy per Si atom -5590.804890 kJ/mol
# Density = 2.681324 g / cm^3
# Si number density = 26.874410 Si / 1000 Ang^3
#
#
#
# Elastic Constant Matrix: (Units=GPa)
#
#
# Indices 1 2 3 4 5 6 
#
# 1 158.9239 40.1006 43.3769 -9.8328 -10.1109 -32.5662
# 2 40.1006 145.5401 70.1668 -52.3387 -14.1608 -21.3541
# 3 43.3769 70.1668 182.7343 -51.6763 -31.8284 3.9682
# 4 -9.8328 -52.3387 -51.6763 50.2438 10.3063 -3.3514
# 5 -10.1109 -14.1608 -31.8284 10.3063 52.0770 -6.1580
# 6 -32.5662 -21.3541 3.9682 -3.3514 -6.1580 58.8873
#
#
#
# Elastic Compliance Matrix: (Units=1/GPa)
#
#
# Indices 1 2 3 4 5 6 
#
# 1 0.007861 -0.001118 -0.001746 -0.001335 0.000902 0.004078
# 2 -0.001118 0.012950 -0.001248 0.012169 0.000716 0.004929
# 3 -0.001746 -0.001248 0.008861 0.006718 0.003255 -0.001292
# 4 -0.001335 0.012169 0.006718 0.039600 -0.000034 0.005472
# 5 0.000902 0.000716 0.003255 -0.000034 0.021903 0.002827
# 6 0.004078 0.004929 -0.001292 0.005472 0.002827 0.021718
#
#
# Mechanical properties :
#
#
# Convention : Reuss Voigt Hill
#
# Bulk Modulus (GPa) = 46.62445 88.27633 67.45039
# Shear Modulus (GPa) = 38.98131 54.47854 46.72992
#
# Velocity S-wave (km/s) = 3.81267 4.50728 4.17445
# Velocity P-wave (km/s) = 6.06372 7.74638 6.95611
#
# Compressibility (1/GPa) = 0.02144797
#
# Stress axis : x y z
#
# Youngs Moduli (GPa) = 127.20367 77.22021 112.85657
#
# Poissons Ratio (x) = 0.08637 0.19701
# Poissons Ratio (y) = 0.14227 0.14084
# Poissons Ratio (z) = 0.22206 0.09637
#
# Static dielectric constant tensor:
#      x y z
#    x 2.106250 0.076610 0.036210 
#    y 0.076610 2.189660 0.019320 
#    z 0.036210 0.019320 2.161520 
# 
# From -- ./inp_files/415871.got.cif
#   From: 2010.05.17/outbox.cif.g08.bks.cpg/sg2_208_cif.got.tgz:415871.got - 2010.06.03 11:33:40.
