data_PCOD9072095
_publ_section_title
;
Structure prediction by ZEFSAII (Michael W. Deem and Ramdas Pophale) SiO2 
 PCOD9072095
Probable space group: P -1
;
_chemical_formula_sum "Si O2"
_cell_formula_units_Z 14
_cell_length_a 21.000000
_cell_length_b 12.000000
_cell_length_c 12.000000
_cell_angle_alpha 40.000000
_cell_angle_beta 30.000000
_cell_angle_gamma 30.000000
_cell_volume 754.441492
_symmetry_space_group_name_H-M "P -1"
_symmetry_group_IT_number 2
_symmetry_cell_setting 'triclinic'
loop_
_space_group_symop_operation_xyz
x,y,z
-x,-y,-z
loop_
_atom_site_type_symbol
_atom_site_label
_atom_site_fract_x
_atom_site_fract_y
_atom_site_fract_z
Si Si1 0.623918 0.733034 0.043888
Si Si2 0.192710 0.658644 0.314630
Si Si3 0.453741 0.133200 0.347888
Si Si4 0.692027 0.181657 0.808112
Si Si5 0.161403 0.150625 0.371107
Si Si6 0.634100 0.093608 0.524298
Si Si7 0.379296 0.585627 0.869778
O O1 0.538004 0.726024 0.287561
O O2 0.635379 0.586041 0.040255
O O3 0.793892 0.685743 0.839067
O O4 0.500000 0.000000 0.000000
O O5 0.308805 0.399814 0.376253
O O6 0.186107 0.807161 0.309544
O O7 0.026566 0.725955 0.463257
O O8 0.273639 0.681820 0.067566
O O9 0.500000 0.000000 0.500000
O O10 0.394010 0.045416 0.410643
O O11 0.599432 0.122255 0.075879
O O12 0.562395 0.428732 0.762250
O O13 0.754272 0.026898 0.722864
O O14 0.766866 0.957942 0.529583
O O15 0.665380 0.228870 0.292848
#
# Coordination Sequence:
#
# PCOD9072095 Si02
#       7
#     2   2   2   2   2   2   2
#     4  10  18  36  59  86 114 153 198 239 285 346
#     4  11  24  38  59  90 122 157 195 245 302 345
#     4  11  22  41  65  86 115 157 203 247 288 353
#     4  11  20  40  61  84 121 159 200 238 290 360
#     4  11  22  39  60  88 125 157 191 244 303 348
#     4  11  21  37  65  89 118 154 204 243 286 355
#     4  11  21  37  64  91 112 155 205 244 288 346
#
# _framework density 18.556774000000001
#
# number of rings (size 3 to 8) (size 9 to 14) (size 15 to 20)
#    0.000    1.143    4.286    6.857    0.000    2.857 
#    0.000    2.143    0.000    0.000    0.000    0.000 
#    0.000    0.000    0.000    0.000    0.000    0.000 
#
# Total GULP energy -78005.531299 kJ/mol
# GULP energy per Si atom -5571.823664 kJ/mol
# Density = 1.851454 g / cm^3
# Si number density = 18.556774 Si / 1000 Ang^3
#
#
#
# Elastic Constant Matrix: (Units=GPa)
#
#
# Indices 1 2 3 4 5 6 
#
# 1 176.6972 39.1842 40.5812 -11.1511 -0.0803 7.2727
# 2 39.1842 47.8392 32.1739 -12.9524 5.3566 -3.5600
# 3 40.5812 32.1739 51.3467 -13.5120 11.7005 -17.9348
# 4 -11.1511 -12.9524 -13.5120 21.1808 1.7883 2.2968
# 5 -0.0803 5.3566 11.7005 1.7883 40.3964 -8.8810
# 6 7.2727 -3.5600 -17.9348 2.2968 -8.8810 40.4496
#
#
#
# Elastic Compliance Matrix: (Units=1/GPa)
#
#
# Indices 1 2 3 4 5 6 
#
# 1 0.007904 -0.002901 -0.006630 -0.001509 0.001462 -0.004209
# 2 -0.002901 0.040963 -0.023068 0.009600 -0.000675 -0.006795
# 3 -0.006630 -0.023068 0.051445 0.013813 -0.008205 0.019386
# 4 -0.001509 0.009600 0.013813 0.061510 -0.007540 0.002092
# 5 0.001462 -0.000675 -0.008205 -0.007540 0.028139 0.002646
# 6 -0.004209 -0.006795 0.019386 0.002092 0.002646 0.033939
#
#
# Mechanical properties :
#
#
# Convention : Reuss Voigt Hill
#
# Bulk Modulus (GPa) = 28.47763 55.52907 42.00335
# Shear Modulus (GPa) = 16.62228 31.33494 23.97861
#
# Velocity S-wave (km/s) = 2.99616 4.11371 3.59858
# Velocity P-wave (km/s) = 5.22961 7.24930 6.32065
#
# Compressibility (1/GPa) = 0.03511528
#
# Stress axis : x y z
#
# Youngs Moduli (GPa) = 126.51910 24.41251 19.43813
#
# Poissons Ratio (x) = 0.07081 0.12887
# Poissons Ratio (y) = 0.36700 0.44840
# Poissons Ratio (z) = 0.83877 0.56315
#
# Static dielectric constant tensor:
#      x y z
#    x 1.641670 0.000260 -0.024010 
#    y 0.000260 1.667400 0.035550 
#    z -0.024010 0.035550 1.708440 
# 
# From -- ./inp_files/471132.got.cif
#   From: 2010.05.17/outbox.ucp.g08.bks.cvg/sg2_236_cif.got.tgz:471132.got - 2010.06.11 11:32:03.
