data_PCOD9072415
_publ_section_title
;
Structure prediction by ZEFSAII (Michael W. Deem and Ramdas Pophale) SiO2 
 PCOD9072415
Probable space group: P -1
;
_chemical_formula_sum "Si O2"
_cell_formula_units_Z 16
_cell_length_a 9.000000
_cell_length_b 15.000000
_cell_length_c 9.000000
_cell_angle_alpha 130.000000
_cell_angle_beta 110.000000
_cell_angle_gamma 70.000000
_cell_volume 861.924344
_symmetry_space_group_name_H-M "P -1"
_symmetry_group_IT_number 2
_symmetry_cell_setting 'triclinic'
loop_
_space_group_symop_operation_xyz
x,y,z
-x,-y,-z
loop_
_atom_site_type_symbol
_atom_site_label
_atom_site_fract_x
_atom_site_fract_y
_atom_site_fract_z
Si Si1 0.262036 0.512156 0.793290
Si Si2 0.141531 0.261873 0.460060
Si Si3 0.675547 0.928141 0.478280
Si Si4 0.033241 0.277255 0.114515
Si Si5 0.111122 0.694587 0.341582
Si Si6 0.616911 0.498282 0.844965
Si Si7 0.218774 0.291208 0.922712
Si Si8 0.106337 0.895764 0.334202
O O1 0.190662 0.390927 0.635656
O O2 0.119815 0.617514 0.812023
O O3 0.431957 0.493577 0.745304
O O4 0.322411 0.541500 0.010229
O O5 0.278456 0.164589 0.472998
O O6 0.105108 0.239932 0.256206
O O7 0.977738 0.256009 0.487257
O O8 0.724762 0.842209 0.259755
O O9 0.500000 0.000000 0.500000
O O10 0.774854 0.033899 0.631737
O O11 0.982053 0.171752 0.889105
O O12 0.176144 0.311927 0.101442
O O13 0.253244 0.586594 0.299788
O O14 0.170730 0.795114 0.369833
O O15 0.955403 0.662387 0.164612
O O16 0.649552 0.631339 0.991936
O O17 0.000000 0.000000 0.500000
#
# Coordination Sequence:
#
# PCOD9072415 Si02
#       8
#     2   2   2   2   2   2   2   2
#     4  11  22  35  60  95 120 148 198 250 293 346
#     4  11  23  41  58  90 120 159 193 239 307 348
#     4  11  24  38  64  86 117 151 198 253 285 346
#     4  11  23  39  63  84 124 158 192 244 294 360
#     4  10  19  36  61  84 115 154 198 242 277 354
#     4  11  20  34  64  91 115 150 204 249 287 338
#     4  10  19  38  59  86 115 156 198 234 290 352
#     4  11  20  40  62  87 110 153 209 237 284 344
#
# _framework density 18.563113999999999
#
# number of rings (size 3 to 8) (size 9 to 14) (size 15 to 20)
#    0.000    1.250    8.750    1.500    3.500    0.500 
#    0.000    3.125    0.000    0.000    0.000    0.000 
#    0.000    0.000    0.000    0.000    0.000    0.000 
#
# Total GULP energy -89099.224103 kJ/mol
# GULP energy per Si atom -5568.701506 kJ/mol
# Density = 1.852086 g / cm^3
# Si number density = 18.563114 Si / 1000 Ang^3
#
#
#
# Elastic Constant Matrix: (Units=GPa)
#
#
# Indices 1 2 3 4 5 6 
#
# 1 43.2522 53.7906 33.1343 2.6036 -11.0572 -32.6121
# 2 53.7906 73.9845 49.3005 15.2151 -3.6739 -4.8827
# 3 33.1343 49.3005 53.7909 3.8473 -7.5328 -1.0113
# 4 2.6036 15.2151 3.8473 34.5562 13.9762 -5.5061
# 5 -11.0572 -3.6739 -7.5328 13.9762 20.1368 6.9531
# 6 -32.6121 -4.8827 -1.0113 -5.5061 6.9531 22.2484
#
#
#
# Elastic Compliance Matrix: (Units=1/GPa)
#
#
# Indices 1 2 3 4 5 6 
#
# 1 -0.020732 0.017616 -0.000184 -0.019287 0.017887 -0.036896
# 2 0.017616 0.025796 -0.035561 0.001306 -0.011494 0.033781
# 3 -0.000184 -0.035561 0.053123 0.001945 0.015381 -0.009984
# 4 -0.019287 0.001306 0.001945 0.044623 -0.038983 -0.004670
# 5 0.017887 -0.011494 0.015381 -0.038983 0.095397 -0.015065
# 6 -0.036896 0.033781 -0.009984 -0.004670 -0.015065 0.001377
#
#
# Mechanical properties :
#
#
# Convention : Reuss Voigt Hill
#
# Bulk Modulus (GPa) = 45.60324 49.27539 47.43932
# Shear Modulus (GPa) = 20.56339 17.70842 19.13590
#
# Velocity S-wave (km/s) = 3.33191 3.09197 3.21418
# Velocity P-wave (km/s) = 6.27870 6.27291 6.27581
#
# Compressibility (1/GPa) = 0.02192826
#
# Stress axis : x y z
#
# Youngs Moduli (GPa) = -48.23356 38.76630 18.82421
#
# Poissons Ratio (x) = -0.68289 0.00345
# Poissons Ratio (y) = 0.84966 0.66941
# Poissons Ratio (z) = -0.00885 1.37857
#
# Static dielectric constant tensor:
#      x y z
#    x 1.609360 0.022870 -0.037760 
#    y 0.022870 1.646880 -0.022330 
#    z -0.037760 -0.022330 1.644330 
# 
# From -- ./inp_files/209079.got.cif
#   From: 2010.05.17/outbox.ucp.g08.bks.cvg/sg2_105_cif.got.tgz:209079.got - 2010.06.11 11:32:03.
