data_PCOD9072962
_publ_section_title
;
Structure prediction by ZEFSAII (Michael W. Deem and Ramdas Pophale) SiO2 
 PCOD9072962
Probable space group: P -1
;
_chemical_formula_sum "Si O2"
_cell_formula_units_Z 12
_cell_length_a 7.129864
_cell_length_b 7.178757
_cell_length_c 11.379570
_cell_angle_alpha 102.773063
_cell_angle_beta 62.550762
_cell_angle_gamma 111.266754
_cell_volume 480.652648
_symmetry_space_group_name_H-M "P -1"
_symmetry_group_IT_number 2
_symmetry_cell_setting 'triclinic'
loop_
_space_group_symop_operation_xyz
x,y,z
-x,-y,-z
loop_
_atom_site_type_symbol
_atom_site_label
_atom_site_fract_x
_atom_site_fract_y
_atom_site_fract_z
Si Si1 0.910475 0.616343 0.696039
Si Si2 0.824351 0.959887 0.936770
Si Si3 0.508287 0.343341 0.876148
Si Si4 0.816482 0.760445 0.239403
Si Si5 0.380099 0.882003 0.632994
Si Si6 0.194379 0.210297 0.479340
O O1 0.174300 0.685477 0.645844
O O2 0.137511 0.354027 0.421481
O O3 0.840586 0.784691 0.817516
O O4 0.751911 0.404360 0.756978
O O5 0.590507 0.870292 0.058622
O O6 0.926578 0.166182 0.864074
O O7 0.000000 0.000000 0.000000
O O8 0.344263 0.383708 0.826853
O O9 0.500000 0.500000 0.000000
O O10 0.784939 0.720410 0.381160
O O11 0.727950 0.953009 0.268267
O O12 0.577131 0.827183 0.632174
O O13 0.500000 0.000000 0.500000
O O14 0.000000 0.000000 0.500000
#
# Coordination Sequence:
#
# PCOD9072962 Si02
#       6
#     2   2   2   2   2   2
#     4  10  18  31  52  76 104 134 161 209 262 291
#     4   8  14  28  51  73  92 132 176 200 232 296
#     4   9  18  31  53  77 101 138 172 203 253 298
#     4   9  17  31  53  80 100 131 174 205 248 305
#     4   9  17  31  51  75 104 130 171 206 241 310
#     4  11  18  31  55  79 102 128 169 210 257 301
#
# _framework density 24.966054
#
# number of rings (size 3 to 8) (size 9 to 14) (size 15 to 20)
#    0.000    2.667    5.000    0.000    0.000    0.667 
#    0.000    3.333    3.667   32.000    0.000    0.000 
#    0.000    0.000    0.000    0.000    0.000    0.000 
#
# Total GULP energy -66904.278922 kJ/mol
# GULP energy per Si atom -5575.356577 kJ/mol
# Density = 2.490923 g / cm^3
# Si number density = 24.966054 Si / 1000 Ang^3
#
#
#
# Elastic Constant Matrix: (Units=GPa)
#
#
# Indices 1 2 3 4 5 6 
#
# 1 130.8114 54.4726 48.7946 -8.0588 4.7693 15.7007
# 2 54.4726 106.2827 50.5167 -38.8450 -6.5584 22.7721
# 3 48.7946 50.5167 114.8480 -21.4361 35.6791 8.6899
# 4 -8.0588 -38.8450 -21.4361 52.4499 20.2382 -8.6804
# 5 4.7693 -6.5584 35.6791 20.2382 47.2894 -6.3822
# 6 15.7007 22.7721 8.6899 -8.6804 -6.3822 42.8070
#
#
#
# Elastic Compliance Matrix: (Units=1/GPa)
#
#
# Indices 1 2 3 4 5 6 
#
# 1 0.011158 -0.005089 -0.004777 -0.005751 0.004103 -0.000970
# 2 -0.005089 0.018942 -0.004343 0.010086 0.001416 -0.005072
# 3 -0.004777 -0.004343 0.022656 0.014157 -0.023429 -0.001159
# 4 -0.005751 0.010086 0.014157 0.041447 -0.026670 -0.001702
# 5 0.004103 0.001416 -0.023429 -0.026670 0.050646 0.004640
# 6 -0.000970 -0.005072 -0.001159 -0.001702 0.004640 0.026997
#
#
# Mechanical properties :
#
#
# Convention : Reuss Voigt Hill
#
# Bulk Modulus (GPa) = 41.08947 73.27889 57.18418
# Shear Modulus (GPa) = 23.99502 41.71982 32.85742
#
# Velocity S-wave (km/s) = 3.10353 4.09230 3.63172
# Velocity P-wave (km/s) = 5.41631 7.19335 6.36713
#
# Compressibility (1/GPa) = 0.02433714
#
# Stress axis : x y z
#
# Youngs Moduli (GPa) = 89.62004 52.79296 44.13891
#
# Poissons Ratio (x) = 0.26868 0.21084
# Poissons Ratio (y) = 0.45610 0.19171
# Poissons Ratio (z) = 0.42810 0.22930
#
# Static dielectric constant tensor:
#      x y z
#    x 2.068800 0.149880 -0.109970 
#    y 0.149880 2.445670 -0.141350 
#    z -0.109970 -0.141350 2.134600 
# 
# From -- ./inp_files/215770.got.cif
#   From: 2010.05.17/outbox.cif.g08.bks.cpg/sg2_108_cif.got.tgz:215770.got - 2010.06.03 11:33:40.
