data_PCOD9072809
_publ_section_title
;
Structure prediction by ZEFSAII (Michael W. Deem and Ramdas Pophale) SiO2 
 PCOD9072809
Probable space group: P -1
;
_chemical_formula_sum "Si O2"
_cell_formula_units_Z 12
_cell_length_a 9.000000
_cell_length_b 15.000000
_cell_length_c 15.000000
_cell_angle_alpha 30.000000
_cell_angle_beta 130.000000
_cell_angle_gamma 110.000000
_cell_volume 642.379314
_symmetry_space_group_name_H-M "P -1"
_symmetry_group_IT_number 2
_symmetry_cell_setting 'triclinic'
loop_
_space_group_symop_operation_xyz
x,y,z
-x,-y,-z
loop_
_atom_site_type_symbol
_atom_site_label
_atom_site_fract_x
_atom_site_fract_y
_atom_site_fract_z
Si Si1 0.374082 0.177333 0.573609
Si Si2 0.139747 0.210779 0.629434
Si Si3 0.897519 0.902552 0.612486
Si Si4 0.647016 0.304584 0.295816
Si Si5 0.597566 0.490916 0.797470
Si Si6 0.418768 0.216233 0.890219
O O1 0.198153 0.284742 0.496487
O O2 0.245206 0.156204 0.456739
O O3 0.457309 0.329351 0.450527
O O4 0.569065 0.940764 0.891777
O O5 0.881490 0.269824 0.460743
O O6 0.338420 0.950964 0.926454
O O7 0.207366 0.288033 0.677185
O O8 0.735907 0.085750 0.464649
O O9 0.000000 0.000000 0.500000
O O10 0.126083 0.698422 0.923592
O O11 0.476038 0.383692 0.245610
O O12 0.500000 0.500000 0.000000
O O13 0.456669 0.385358 0.806497
#
# Coordination Sequence:
#
# PCOD9072809 Si02
#       6
#     2   2   2   2   2   2
#     4  10  20  37  62  89 115 159 202 235 297 353
#     4   9  19  40  64  82 119 164 190 241 299 345
#     4  12  19  40  60  82 126 157 189 249 288 346
#     4  12  22  36  65  91 116 158 200 237 302 353
#     4  12  23  36  63  91 117 156 201 244 294 348
#     4   9  19  41  63  81 123 157 196 243 290 350
#
# _framework density 18.680551999999999
#
# number of rings (size 3 to 8) (size 9 to 14) (size 15 to 20)
#    1.000    0.333    6.667    0.500    0.000    2.000 
#    0.000    2.500    0.000    0.000    0.000    0.000 
#    0.000    0.000    0.000    0.000    0.000    0.000 
#
# Total GULP energy -66814.492163 kJ/mol
# GULP energy per Si atom -5567.874347 kJ/mol
# Density = 1.863803 g / cm^3
# Si number density = 18.680552 Si / 1000 Ang^3
#
#
#
# Elastic Constant Matrix: (Units=GPa)
#
#
# Indices 1 2 3 4 5 6 
#
# 1 33.8903 13.8985 32.2146 -14.3188 -11.4403 -10.0709
# 2 13.8985 112.4355 55.3156 16.5680 -12.6751 -14.4152
# 3 32.2146 55.3156 88.6593 7.8783 -4.7706 7.3984
# 4 -14.3188 16.5680 7.8783 41.4987 5.4905 7.0767
# 5 -11.4403 -12.6751 -4.7706 5.4905 30.0980 -7.6396
# 6 -10.0709 -14.4152 7.3984 7.0767 -7.6396 26.6599
#
#
#
# Elastic Compliance Matrix: (Units=1/GPa)
#
#
# Indices 1 2 3 4 5 6 
#
# 1 3.414593 1.296075 -2.215148 0.238570 2.258619 3.189316
# 2 1.296075 0.514363 -0.854833 0.078170 0.872803 1.234308
# 3 -2.215148 -0.854833 1.457554 -0.149085 -1.473264 -2.086095
# 4 0.238570 0.078170 -0.149085 0.050475 0.141780 0.200992
# 5 2.258619 0.872803 -1.473264 0.141780 1.542707 2.138431
# 6 3.189316 1.234308 -2.086095 0.200992 2.138431 3.048048
#
#
# Mechanical properties :
#
#
# Convention : Reuss Voigt Hill
#
# Bulk Modulus (GPa) = 0.54386 48.64918 24.59652
# Shear Modulus (GPa) = 0.35240 28.55507 14.45374
#
# Velocity S-wave (km/s) = 0.43480 3.91397 2.78462
# Velocity P-wave (km/s) = 0.73746 6.82091 4.85122
#
# Compressibility (1/GPa) = 1.83869935
#
# Stress axis : x y z
#
# Youngs Moduli (GPa) = 0.29286 1.94415 0.68608
#
# Poissons Ratio (x) = -2.51977 1.51977
# Poissons Ratio (y) = -0.37957 0.58648
# Poissons Ratio (z) = 0.64873 1.66192
#
# Static dielectric constant tensor:
#      x y z
#    x 1.732890 -0.015690 0.022510 
#    y -0.015690 1.640310 -0.011530 
#    z 0.022510 -0.011530 1.661400 
# 
# From -- ./inp_files/501799.got.cif
#   From: 2010.05.17/outbox.ucp.g08.bks.cvg/sg2_251_cif.got.tgz:501799.got - 2010.06.11 11:32:03.
