data_PCOD9072027
_publ_section_title
;
Structure prediction by ZEFSAII (Michael W. Deem and Ramdas Pophale) SiO2 
 PCOD9072027
Probable space group: P -1
;
_chemical_formula_sum "Si O2"
_cell_formula_units_Z 16
_cell_length_a 8.564900
_cell_length_b 14.632598
_cell_length_c 9.080970
_cell_angle_alpha 118.245665
_cell_angle_beta 51.628644
_cell_angle_gamma 129.731999
_cell_volume 680.649422
_symmetry_space_group_name_H-M "P -1"
_symmetry_group_IT_number 2
_symmetry_cell_setting 'triclinic'
loop_
_space_group_symop_operation_xyz
x,y,z
-x,-y,-z
loop_
_atom_site_type_symbol
_atom_site_label
_atom_site_fract_x
_atom_site_fract_y
_atom_site_fract_z
Si Si1 0.370161 0.296955 0.828150
Si Si2 0.984567 0.308412 0.577576
Si Si3 0.016843 0.156900 0.707185
Si Si4 0.771076 0.345072 0.159641
Si Si5 0.597031 0.133017 0.490774
Si Si6 0.741852 0.450012 0.951840
Si Si7 0.401166 0.532061 0.439949
Si Si8 0.605908 0.894683 0.715803
O O1 0.111474 0.205322 0.852507
O O2 0.479325 0.209184 0.676392
O O3 0.490971 0.378619 0.964548
O O4 0.449840 0.399921 0.734270
O O5 0.845665 0.201217 0.467359
O O6 0.865298 0.384687 0.749878
O O7 0.008522 0.254093 0.677235
O O8 0.196840 0.401598 0.427269
O O9 0.208427 0.136907 0.491787
O O10 0.774591 0.032969 0.765673
O O11 0.686509 0.379978 0.383658
O O12 0.576926 0.205474 0.141441
O O13 0.048717 0.410168 0.069414
O O14 0.730647 0.414264 0.101448
O O15 0.565323 0.120504 0.326646
O O16 0.500000 0.000000 0.500000
O O17 0.500000 0.500000 0.500000
#
# Coordination Sequence:
#
# PCOD9072027 Si02
#       8
#     2   2   2   2   2   2   2   2
#     4  10  20  35  53  83 107 139 179 218 271 310
#     4  10  19  30  52  78 111 136 176 217 271 313
#     4  10  18  33  52  80 107 139 173 226 267 311
#     4  10  19  38  55  77 106 145 178 213 271 316
#     4  10  18  30  50  80 108 136 173 221 266 305
#     4   9  22  35  56  74 110 146 173 218 266 320
#     4  11  19  32  57  84 106 135 177 225 266 318
#     4  10  19  31  55  78 106 141 179 220 269 312
#
# _framework density 23.506962999999999
#
# number of rings (size 3 to 8) (size 9 to 14) (size 15 to 20)
#    0.000    2.000    5.000    0.000    1.750    1.500 
#    0.000    1.875    0.000    0.000    0.000    0.000 
#    0.000    0.000    0.000    0.000    0.000    0.000 
#
# Total GULP energy -89081.449118 kJ/mol
# GULP energy per Si atom -5567.590570 kJ/mol
# Density = 2.345346 g / cm^3
# Si number density = 23.506963 Si / 1000 Ang^3
#
#
#
# Elastic Constant Matrix: (Units=GPa)
#
#
# Indices 1 2 3 4 5 6 
#
# 1 65.9705 44.9320 22.5398 12.0844 20.7234 25.6150
# 2 44.9320 184.7850 28.5821 -7.8041 0.9742 33.3142
# 3 22.5398 28.5821 58.1177 -0.4044 -2.7934 20.0651
# 4 12.0844 -7.8041 -0.4044 33.2898 2.4104 6.9325
# 5 20.7234 0.9742 -2.7934 2.4104 24.9618 11.1872
# 6 25.6150 33.3142 20.0651 6.9325 11.1872 53.0224
#
#
#
# Elastic Compliance Matrix: (Units=1/GPa)
#
#
# Indices 1 2 3 4 5 6 
#
# 1 0.035681 -0.007156 -0.011621 -0.012544 -0.029189 -0.000545
# 2 -0.007156 0.007917 0.000568 0.004753 0.006949 -0.003819
# 3 -0.011621 0.000568 0.025051 0.005234 0.015598 -0.008198
# 4 -0.012544 0.004753 0.005234 0.036249 0.009883 -0.005731
# 5 -0.029189 0.006949 0.015598 0.009883 0.070325 -0.012298
# 6 -0.000545 -0.003819 -0.008198 -0.005731 -0.012298 0.027969
#
#
# Mechanical properties :
#
#
# Convention : Reuss Voigt Hill
#
# Bulk Modulus (GPa) = 31.02763 55.66457 43.34610
# Shear Modulus (GPa) = 19.97172 36.44275 28.20723
#
# Velocity S-wave (km/s) = 2.91797 3.94165 3.46779
# Velocity P-wave (km/s) = 4.95789 6.66685 5.87485
#
# Compressibility (1/GPa) = 0.03222934
#
# Stress axis : x y z
#
# Youngs Moduli (GPa) = 28.02577 126.31583 39.91927
#
# Poissons Ratio (x) = 0.90397 0.46390
# Poissons Ratio (y) = 0.20056 -0.02266
# Poissons Ratio (z) = 0.32569 -0.07171
#
# Static dielectric constant tensor:
#      x y z
#    x 1.974130 -0.047360 -0.075770 
#    y -0.047360 1.990320 0.112070 
#    z -0.075770 0.112070 2.009420 
# 
# From -- ./inp_files/170715.got.cif
#   From: 2010.05.17/outbox.cif.g08.bks.cpg/sg2_86_cif.got.tgz:170715.got - 2010.06.03 11:33:40.
