data_PCOD9072722
_publ_section_title
;
Structure prediction by ZEFSAII (Michael W. Deem and Ramdas Pophale) SiO2 
 PCOD9072722
Probable space group: P -1
;
_chemical_formula_sum "Si O2"
_cell_formula_units_Z 16
_cell_length_a 12.000000
_cell_length_b 15.000000
_cell_length_c 12.000000
_cell_angle_alpha 120.000000
_cell_angle_beta 130.000000
_cell_angle_gamma 30.000000
_cell_volume 818.222392
_symmetry_space_group_name_H-M "P -1"
_symmetry_group_IT_number 2
_symmetry_cell_setting 'triclinic'
loop_
_space_group_symop_operation_xyz
x,y,z
-x,-y,-z
loop_
_atom_site_type_symbol
_atom_site_label
_atom_site_fract_x
_atom_site_fract_y
_atom_site_fract_z
Si Si1 0.579791 0.618332 0.911855
Si Si2 0.896192 0.734035 0.084070
Si Si3 0.211363 0.651353 0.666973
Si Si4 0.113609 0.023869 0.507862
Si Si5 0.614917 0.671184 0.491071
Si Si6 0.422812 0.892422 0.831792
Si Si7 0.737070 0.792344 0.488684
Si Si8 0.878700 0.624624 0.235330
O O1 0.387761 0.635957 0.830309
O O2 0.429018 0.780359 0.829512
O O3 0.821751 0.429055 0.884739
O O4 0.710690 0.621973 0.087683
O O5 0.891546 0.694777 0.183042
O O6 0.741042 0.929969 0.091956
O O7 0.715989 0.754716 0.922659
O O8 0.368999 0.459353 0.609820
O O9 0.082506 0.787944 0.565031
O O10 0.981481 0.724415 0.628315
O O11 0.322312 0.861500 0.453329
O O12 0.290047 0.978281 0.681899
O O13 0.000000 0.000000 0.500000
O O14 0.707313 0.700694 0.476587
O O15 0.828350 0.565253 0.658010
O O16 0.757995 0.749762 0.344939
O O17 0.500000 0.000000 0.500000
#
# Coordination Sequence:
#
# PCOD9072722 Si02
#       8
#     2   2   2   2   2   2   2   2
#     4  11  22  39  60  94 136 160 201 259 324 369
#     4  10  21  36  61  88 132 168 206 246 313 380
#     4  11  24  40  63  95 128 164 209 267 314 372
#     4  12  23  36  62  96 131 164 206 251 321 370
#     4  11  24  43  68  86 125 168 216 262 311 370
#     4  10  20  36  56  88 129 169 209 240 300 388
#     4  11  23  47  68  89 119 167 226 265 306 370
#     4  10  21  41  65  91 121 170 215 255 307 382
#
# _framework density 19.554586
#
# number of rings (size 3 to 8) (size 9 to 14) (size 15 to 20)
#    0.000    1.250    2.500    6.000    1.750    0.500 
#    2.250    3.125    0.000    0.000    0.000    0.000 
#    0.000    0.000    0.000    0.000    0.000    0.000 
#
# Total GULP energy -89179.225724 kJ/mol
# GULP energy per Si atom -5573.701608 kJ/mol
# Density = 1.951008 g / cm^3
# Si number density = 19.554586 Si / 1000 Ang^3
#
#
#
# Elastic Constant Matrix: (Units=GPa)
#
#
# Indices 1 2 3 4 5 6 
#
# 1 104.2288 45.6398 11.5266 0.8138 26.8084 -2.8624
# 2 45.6398 94.0709 24.7844 15.9065 9.7197 4.9718
# 3 11.5266 24.7844 62.0550 -3.7818 16.1757 -4.5084
# 4 0.8138 15.9065 -3.7818 22.5018 4.6815 -3.0757
# 5 26.8084 9.7197 16.1757 4.6815 32.3135 2.5212
# 6 -2.8624 4.9718 -4.5084 -3.0757 2.5212 36.3892
#
#
#
# Elastic Compliance Matrix: (Units=1/GPa)
#
#
# Indices 1 2 3 4 5 6 
#
# 1 0.018569 -0.011625 0.007130 0.013329 -0.017901 0.006299
# 2 -0.011625 0.022015 -0.011755 -0.020823 0.012548 -0.008008
# 3 0.007130 -0.011755 0.025966 0.017383 -0.018531 0.008137
# 4 0.013329 -0.020823 0.017383 0.068544 -0.024484 0.013537
# 5 -0.017901 0.012548 -0.018531 -0.024484 0.055732 -0.011349
# 6 0.006299 -0.008008 0.008137 0.013537 -0.011349 0.032009
#
#
# Mechanical properties :
#
#
# Convention : Reuss Voigt Hill
#
# Bulk Modulus (GPa) = 29.36843 47.13958 38.25400
# Shear Modulus (GPa) = 18.74864 30.13447 24.44156
#
# Velocity S-wave (km/s) = 3.09978 3.92987 3.53925
# Velocity P-wave (km/s) = 5.27853 6.68961 6.02552
#
# Compressibility (1/GPa) = 0.03405017
#
# Stress axis : x y z
#
# Youngs Moduli (GPa) = 53.85272 45.42386 38.51150
#
# Poissons Ratio (x) = 0.52804 -0.27458
# Poissons Ratio (y) = 0.62603 0.45270
# Poissons Ratio (z) = -0.38396 0.53396
#
# Static dielectric constant tensor:
#      x y z
#    x 1.699820 -0.024460 0.016560 
#    y -0.024460 1.760600 0.026530 
#    z 0.016560 0.026530 1.741400 
# 
# From -- ./inp_files/433131.got.cif
#   From: 2010.05.17/outbox.ucp.g08.bks.cvg/sg2_217_cif.got.tgz:433131.got - 2010.06.11 11:32:03.
