data_PCOD9072070
_publ_section_title
;
Structure prediction by ZEFSAII (Michael W. Deem and Ramdas Pophale) SiO2 
 PCOD9072070
Probable space group: P -1
;
_chemical_formula_sum "Si O2"
_cell_formula_units_Z 16
_cell_length_a 9.000000
_cell_length_b 15.000000
_cell_length_c 12.000000
_cell_angle_alpha 150.000000
_cell_angle_beta 70.000000
_cell_angle_gamma 110.000000
_cell_volume 757.522634
_symmetry_space_group_name_H-M "P -1"
_symmetry_group_IT_number 2
_symmetry_cell_setting 'triclinic'
loop_
_space_group_symop_operation_xyz
x,y,z
-x,-y,-z
loop_
_atom_site_type_symbol
_atom_site_label
_atom_site_fract_x
_atom_site_fract_y
_atom_site_fract_z
Si Si1 0.549030 0.189963 0.449792
Si Si2 0.296214 0.881230 0.902442
Si Si3 0.179136 0.265641 0.404458
Si Si4 0.645275 0.889320 0.379655
Si Si5 0.642015 0.601877 0.874080
Si Si6 0.416996 0.601349 0.730726
Si Si7 0.933994 0.736293 0.820127
Si Si8 0.863171 0.071485 0.352690
O O1 0.589667 0.131469 0.249118
O O2 0.390642 0.128482 0.497372
O O3 0.561114 0.402894 0.684141
O O4 0.704081 0.146082 0.431058
O O5 0.355654 0.773663 0.875415
O O6 0.124395 0.769663 0.800830
O O7 0.268519 0.084891 0.164509
O O8 0.279454 0.440176 0.620067
O O9 0.125814 0.306572 0.335816
O O10 0.021734 0.205492 0.451502
O O11 0.500000 0.000000 0.500000
O O12 0.811168 0.988920 0.397620
O O13 0.631217 0.711441 0.110525
O O14 0.538595 0.672684 0.874644
O O15 0.824979 0.602828 0.785099
O O16 0.500000 0.500000 0.500000
O O17 0.891400 0.921979 0.089210
#
# Coordination Sequence:
#
# PCOD9072070 Si02
#       8
#     2   2   2   2   2   2   2   2
#     4  11  18  33  62  88 115 152 196 255 297 332
#     4  11  22  37  61  97 119 162 195 238 311 349
#     4  11  20  37  60  86 128 159 195 242 298 364
#     4   9  21  38  61  86 110 153 206 261 285 335
#     4  11  23  39  56  91 124 152 198 246 298 361
#     4  12  25  38  53  93 136 159 184 239 306 378
#     4  10  18  35  61  86 121 150 203 253 281 354
#     4   9  18  34  57  90 110 150 203 251 289 334
#
# _framework density 21.121480999999999
#
# number of rings (size 3 to 8) (size 9 to 14) (size 15 to 20)
#    0.000    1.500    5.000    1.125    1.750    1.500 
#    6.750    0.000    0.000    3.750    0.000    0.000 
#    0.000    0.000    0.000    0.000    0.000    0.000 
#
# Total GULP energy -89239.945090 kJ/mol
# GULP energy per Si atom -5577.496568 kJ/mol
# Density = 2.107341 g / cm^3
# Si number density = 21.121481 Si / 1000 Ang^3
#
#
#
# Elastic Constant Matrix: (Units=GPa)
#
#
# Indices 1 2 3 4 5 6 
#
# 1 62.2434 30.2666 10.0578 -9.5188 11.5532 23.7795
# 2 30.2666 126.0304 23.5370 -16.5845 -4.4367 39.4414
# 3 10.0578 23.5370 50.7333 -9.0453 -10.9159 6.0098
# 4 -9.5188 -16.5845 -9.0453 33.8956 7.9877 -6.6518
# 5 11.5532 -4.4367 -10.9159 7.9877 24.1640 4.2769
# 6 23.7795 39.4414 6.0098 -6.6518 4.2769 40.8567
#
#
#
# Elastic Compliance Matrix: (Units=1/GPa)
#
#
# Indices 1 2 3 4 5 6 
#
# 1 0.025234 -0.001783 -0.005145 0.006546 -0.015189 -0.009553
# 2 -0.001783 0.012699 -0.003275 0.002048 0.002924 -0.010713
# 3 -0.005145 -0.003275 0.024969 0.000902 0.012608 0.001310
# 4 0.006546 0.002048 0.000902 0.036329 -0.014625 0.001527
# 5 -0.015189 0.002924 0.012608 -0.014625 0.060519 -0.004553
# 6 -0.009553 -0.010713 0.001310 0.001527 -0.004553 0.040910
#
#
# Mechanical properties :
#
#
# Convention : Reuss Voigt Hill
#
# Bulk Modulus (GPa) = 23.53130 40.74777 32.13954
# Shear Modulus (GPa) = 21.25562 31.45964 26.35763
#
# Velocity S-wave (km/s) = 3.17575 3.86354 3.53640
# Velocity P-wave (km/s) = 4.96107 6.26391 5.65017
#
# Compressibility (1/GPa) = 0.04249659
#
# Stress axis : x y z
#
# Youngs Moduli (GPa) = 39.62848 78.74427 40.05023
#
# Poissons Ratio (x) = 0.14039 0.20606
# Poissons Ratio (y) = 0.07065 0.13117
# Poissons Ratio (z) = 0.20389 0.25789
#
# Static dielectric constant tensor:
#      x y z
#    x 1.848230 -0.055260 -0.027920 
#    y -0.055260 1.913060 0.064920 
#    z -0.027920 0.064920 1.746090 
# 
# From -- ./inp_files/258512.got.cif
#   From: 2010.05.17/outbox.ucp.g08.bks.cvg/sg2_130_cif.got.tgz:258512.got - 2010.06.11 11:32:03.
