data_PCOD9072420
_publ_section_title
;
Structure prediction by ZEFSAII (Michael W. Deem and Ramdas Pophale) SiO2 
 PCOD9072420
Probable space group: P -1
;
_chemical_formula_sum "Si O2"
_cell_formula_units_Z 16
_cell_length_a 9.000000
_cell_length_b 18.000000
_cell_length_c 12.000000
_cell_angle_alpha 50.000000
_cell_angle_beta 100.000000
_cell_angle_gamma 140.000000
_cell_volume 729.599496
_symmetry_space_group_name_H-M "P -1"
_symmetry_group_IT_number 2
_symmetry_cell_setting 'triclinic'
loop_
_space_group_symop_operation_xyz
x,y,z
-x,-y,-z
loop_
_atom_site_type_symbol
_atom_site_label
_atom_site_fract_x
_atom_site_fract_y
_atom_site_fract_z
Si Si1 0.563871 0.882229 0.590969
Si Si2 0.348693 0.999079 0.904183
Si Si3 0.936953 0.315123 0.973634
Si Si4 0.680568 0.466782 0.733596
Si Si5 0.105232 0.165766 0.820300
Si Si6 0.660090 0.897551 0.834771
Si Si7 0.257043 0.662384 0.545501
Si Si8 0.000356 0.690693 0.772287
O O1 0.682533 0.897426 0.704598
O O2 0.512684 0.806796 0.536685
O O3 0.221786 0.726333 0.728586
O O4 0.779213 0.094582 0.395647
O O5 0.573863 0.205689 0.675019
O O6 0.158663 0.841960 0.933520
O O7 0.099313 0.893821 0.060269
O O8 0.500000 0.000000 0.000000
O O9 0.086785 0.465518 0.749954
O O10 0.610485 0.177442 0.101483
O O11 0.120278 0.406077 0.027017
O O12 0.457260 0.378710 0.691472
O O13 0.983966 0.588179 0.602376
O O14 0.784941 0.588978 0.735696
O O15 0.476481 0.272787 0.958435
O O16 0.969659 0.103940 0.737635
O O17 0.000000 0.000000 0.000000
#
# Coordination Sequence:
#
# PCOD9072420 Si02
#       8
#     2   2   2   2   2   2   2   2
#     4   9  16  29  58  89 120 151 204 259 304 347
#     4  12  24  41  66  91 126 164 207 256 306 362
#     4  10  19  36  61  92 121 157 211 257 301 358
#     4   9  19  35  59  91 121 162 205 248 308 370
#     4  10  22  42  62  85 130 172 198 251 312 371
#     4   9  17  33  57  85 119 164 203 250 301 358
#     4  10  21  38  65  96 120 157 209 261 306 358
#     4   9  16  29  56  89 122 156 199 257 303 360
#
# _framework density 21.929839999999999
#
# number of rings (size 3 to 8) (size 9 to 14) (size 15 to 20)
#    0.000    2.250    2.500    0.750    1.750    3.500 
#    0.000    3.125    2.750    3.750    0.000    0.000 
#    0.000    0.000    0.000    0.000    0.000    0.000 
#
# Total GULP energy -89074.506734 kJ/mol
# GULP energy per Si atom -5567.156671 kJ/mol
# Density = 2.187993 g / cm^3
# Si number density = 21.929840 Si / 1000 Ang^3
#
#
#
# Elastic Constant Matrix: (Units=GPa)
#
#
# Indices 1 2 3 4 5 6 
#
# 1 15.2912 6.2427 -20.3693 -10.9953 2.1742 1.8459
# 2 6.2427 143.2549 8.8365 -0.2520 -6.3710 26.2230
# 3 -20.3693 8.8365 65.4038 12.7541 4.6222 10.9612
# 4 -10.9953 -0.2520 12.7541 35.8224 5.0153 4.9938
# 5 2.1742 -6.3710 4.6222 5.0153 14.6011 -1.1864
# 6 1.8459 26.2230 10.9612 4.9938 -1.1864 19.3341
#
#
#
# Elastic Compliance Matrix: (Units=1/GPa)
#
#
# Indices 1 2 3 4 5 6 
#
# 1 0.294535 -0.004064 0.102212 0.085573 -0.116302 -0.109796
# 2 -0.004064 0.009570 -0.000894 0.000235 0.004016 -0.011899
# 3 0.102212 -0.000894 0.053580 0.025343 -0.045196 -0.048242
# 4 0.085573 0.000235 0.025343 0.056849 -0.043456 -0.040206
# 5 -0.116302 0.004016 -0.045196 -0.043456 0.120849 0.049920
# 6 -0.109796 -0.011899 -0.048242 -0.040206 0.049920 0.119142
#
#
# Mechanical properties :
#
#
# Convention : Reuss Voigt Hill
#
# Bulk Modulus (GPa) = 1.81096 23.70776 12.75936
# Shear Modulus (GPa) = 7.76300 29.23420 18.49860
#
# Velocity S-wave (km/s) = 1.88351 3.65510 2.90752
# Velocity P-wave (km/s) = 2.35749 5.35231 4.13551
#
# Compressibility (1/GPa) = 0.55219308
#
# Stress axis : x y z
#
# Youngs Moduli (GPa) = 3.39519 104.49333 18.66359
#
# Poissons Ratio (x) = 0.42462 -1.90764
# Poissons Ratio (y) = 0.01380 0.01668
# Poissons Ratio (z) = -0.34703 0.09341
#
# Static dielectric constant tensor:
#      x y z
#    x 1.727040 0.032420 0.047660 
#    y 0.032420 1.900850 -0.001180 
#    z 0.047660 -0.001180 1.764480 
# 
# From -- ./inp_files/403013.got.cif
#   From: 2010.05.17/outbox.ucp.g08.bks.cvg/sg2_202_cif.got.tgz:403013.got - 2010.06.11 11:32:03.
