data_PCOD9072937
_publ_section_title
;
Structure prediction by ZEFSAII (Michael W. Deem and Ramdas Pophale) SiO2 
 PCOD9072937
Probable space group: P -1
;
_chemical_formula_sum "Si O2"
_cell_formula_units_Z 16
_cell_length_a 15.000000
_cell_length_b 24.000000
_cell_length_c 18.000000
_cell_angle_alpha 160.000000
_cell_angle_beta 30.000000
_cell_angle_gamma 160.000000
_cell_volume 749.971719
_symmetry_space_group_name_H-M "P -1"
_symmetry_group_IT_number 2
_symmetry_cell_setting 'triclinic'
loop_
_space_group_symop_operation_xyz
x,y,z
-x,-y,-z
loop_
_atom_site_type_symbol
_atom_site_label
_atom_site_fract_x
_atom_site_fract_y
_atom_site_fract_z
Si Si1 0.771253 0.975952 0.074361
Si Si2 0.693097 0.371187 0.815543
Si Si3 0.777854 0.807964 0.477563
Si Si4 0.226454 0.888476 0.031970
Si Si5 0.621496 0.800218 0.810055
Si Si6 0.609961 0.067006 0.625563
Si Si7 0.160299 0.346476 0.627656
Si Si8 0.337450 0.364506 0.149761
O O1 0.051713 0.245054 0.193513
O O2 0.550853 0.962884 0.228533
O O3 0.731803 0.835488 0.855728
O O4 0.739026 0.844581 0.006417
O O5 0.705808 0.273029 0.758359
O O6 0.563460 0.170475 0.595800
O O7 0.510153 0.404821 0.009222
O O8 0.977850 0.613612 0.886115
O O9 0.810378 0.660902 0.315165
O O10 0.507840 0.604862 0.374555
O O11 0.796818 0.964285 0.718244
O O12 0.000000 0.000000 0.500000
O O13 0.255621 0.958320 0.012592
O O14 0.500000 0.000000 0.000000
O O15 0.310644 0.600384 0.800939
O O16 0.697125 0.706633 0.583155
O O17 0.859570 0.141408 0.568340
#
# Coordination Sequence:
#
# PCOD9072937 Si02
#       8
#     2   2   2   2   2   2   2   2
#     4  10  21  37  62  90 113 154 198 245 288 339
#     4  10  21  41  58  88 119 157 197 236 299 347
#     4  11  22  40  62  89 116 158 198 238 297 348
#     4  11  24  38  60  88 122 156 192 245 297 348
#     4  10  21  39  59  88 117 158 196 236 293 350
#     4  10  22  38  64  89 117 154 195 248 292 341
#     4  10  21  39  61  87 120 154 197 238 291 355
#     4  10  20  39  62  85 119 152 200 241 284 357
#
# _framework density 21.334137999999999
#
# number of rings (size 3 to 8) (size 9 to 14) (size 15 to 20)
#    0.000    1.750    2.500    1.500    1.750    2.500 
#    2.250    2.500    0.000    0.000    0.000    0.000 
#    0.000    0.000    0.000    0.000    0.000    0.000 
#
# Total GULP energy -89077.011927 kJ/mol
# GULP energy per Si atom -5567.313245 kJ/mol
# Density = 2.128558 g / cm^3
# Si number density = 21.334138 Si / 1000 Ang^3
#
#
#
# Elastic Constant Matrix: (Units=GPa)
#
#
# Indices 1 2 3 4 5 6 
#
# 1 16.4869 61.6701 32.3857 -8.8119 -0.6959 -17.8740
# 2 61.6701 156.1513 22.4672 35.8900 -7.1773 -14.1385
# 3 32.3857 22.4672 9.6001 28.8560 7.0275 -9.5386
# 4 -8.8119 35.8900 28.8560 18.2056 -4.1829 8.6450
# 5 -0.6959 -7.1773 7.0275 -4.1829 9.7976 -3.5670
# 6 -17.8740 -14.1385 -9.5386 8.6450 -3.5670 16.0484
#
#
#
# Elastic Compliance Matrix: (Units=1/GPa)
#
#
# Indices 1 2 3 4 5 6 
#
# 1 -0.429377 0.080961 -0.193410 0.257918 0.040339 -0.651825
# 2 0.080961 -0.004319 0.025869 -0.054372 0.009274 0.133093
# 3 -0.193410 0.025869 -0.087458 0.150501 0.014827 -0.322382
# 4 0.257918 -0.054372 0.150501 -0.152942 -0.049016 0.400303
# 5 0.040339 0.009274 0.014827 -0.049016 0.122205 0.115478
# 6 -0.651825 0.133093 -0.322382 0.400303 0.115478 -0.927996
#
#
# Mechanical properties :
#
#
# Convention : Reuss Voigt Hill
#
# Bulk Modulus (GPa) = -1.44027 46.14271 22.35122
# Shear Modulus (GPa) = -3.25063 13.19132 4.97035
#
# Velocity S-wave (km/s) = -1.23571 2.48930 1.52801
# Velocity P-wave (km/s) = 1.64698 5.47153 3.68952
#
# Compressibility (1/GPa) = -0.69431349
#
# Stress axis : x y z
#
# Youngs Moduli (GPa) = -2.32896 -231.53854 -11.43406
#
# Poissons Ratio (x) = 18.74562 -2.21147
# Poissons Ratio (y) = 0.18855 0.29579
# Poissons Ratio (z) = -0.45044 5.98977
#
# Static dielectric constant tensor:
#      x y z
#    x 1.899990 0.105620 -0.038210 
#    y 0.105620 1.990370 0.021650 
#    z -0.038210 0.021650 1.807230 
# 
# From -- ./inp_files/185256.got.cif
#   From: 2010.05.17/outbox.ucp.g08.bks.cvg/sg2_93_cif.got.tgz:185256.got - 2010.06.11 11:32:03.
