data_PCOD9072934
_publ_section_title
;
Structure prediction by ZEFSAII (Michael W. Deem and Ramdas Pophale) SiO2 
 PCOD9072934
Probable space group: P -1
;
_chemical_formula_sum "Si O2"
_cell_formula_units_Z 12
_cell_length_a 10.950596
_cell_length_b 12.139754
_cell_length_c 8.837590
_cell_angle_alpha 104.749918
_cell_angle_beta 64.340372
_cell_angle_gamma 51.921307
_cell_volume 565.035621
_symmetry_space_group_name_H-M "P -1"
_symmetry_group_IT_number 2
_symmetry_cell_setting 'triclinic'
loop_
_space_group_symop_operation_xyz
x,y,z
-x,-y,-z
loop_
_atom_site_type_symbol
_atom_site_label
_atom_site_fract_x
_atom_site_fract_y
_atom_site_fract_z
Si Si1 0.078604 0.420681 0.155781
Si Si2 0.865384 0.270306 0.587705
Si Si3 0.274137 0.079755 0.093901
Si Si4 0.213905 0.927938 0.497374
Si Si5 0.464594 0.298522 0.064571
Si Si6 0.398609 0.198995 0.608465
O O1 0.216495 0.400926 0.198591
O O2 0.791625 0.649988 0.373655
O O3 0.225679 0.345345 0.897130
O O4 0.139696 0.245531 0.094456
O O5 0.842331 0.164882 0.480586
O O6 0.616683 0.515894 0.801499
O O7 0.968800 0.168249 0.664094
O O8 0.069930 0.203889 0.374378
O O9 0.390212 0.872299 0.943738
O O10 0.500000 0.000000 0.000000
O O11 0.371420 0.878006 0.524307
O O12 0.372637 0.819972 0.217535
O O13 0.500000 0.000000 0.500000
#
# Coordination Sequence:
#
# PCOD9072934 Si02
#       6
#     2   2   2   2   2   2
#     4   9  19  32  47  72  98 120 161 205 231 279
#     4  10  18  31  52  73  99 130 154 195 250 284
#     4   9  19  32  47  73 102 124 160 201 234 285
#     4   9  19  32  48  76 101 121 163 202 231 287
#     4   9  17  31  52  74  97 126 157 197 244 283
#     4  10  19  33  52  69  92 129 163 197 240 280
#
# _framework density 21.2376
#
# number of rings (size 3 to 8) (size 9 to 14) (size 15 to 20)
#    0.000    2.667    0.000    2.500    0.000    4.000 
#    0.000    0.833    0.000    2.000    0.000    0.000 
#    0.000    0.000    0.000    0.000    0.000    0.000 
#
# Total GULP energy -66874.632038 kJ/mol
# GULP energy per Si atom -5572.886003 kJ/mol
# Density = 2.118926 g / cm^3
# Si number density = 21.237600 Si / 1000 Ang^3
#
#
#
# Elastic Constant Matrix: (Units=GPa)
#
#
# Indices 1 2 3 4 5 6 
#
# 1 84.5760 26.2948 9.7018 12.8770 -22.1759 2.3311
# 2 26.2948 109.3253 12.3602 37.4152 -10.2030 6.0227
# 3 9.7018 12.3602 35.8518 13.0860 -12.1353 3.4402
# 4 12.8770 37.4152 13.0860 35.9839 0.2038 -6.2274
# 5 -22.1759 -10.2030 -12.1353 0.2038 19.1590 2.7936
# 6 2.3311 6.0227 3.4402 -6.2274 2.7936 25.0779
#
#
#
# Elastic Compliance Matrix: (Units=1/GPa)
#
#
# Indices 1 2 3 4 5 6 
#
# 1 0.023433 0.005125 0.016083 -0.022568 0.042607 -0.015966
# 2 0.005125 0.021482 0.015539 -0.033357 0.030403 -0.019437
# 3 0.016083 0.015539 0.065933 -0.052470 0.074400 -0.035589
# 4 -0.022568 -0.033357 -0.052470 0.099019 -0.085673 0.051439
# 5 0.042607 0.030403 0.074400 -0.085673 0.174809 -0.062216
# 6 -0.015966 -0.019437 -0.035589 0.051439 -0.062216 0.070614
#
#
# Mechanical properties :
#
#
# Convention : Reuss Voigt Hill
#
# Bulk Modulus (GPa) = 5.42472 36.27407 20.84939
# Shear Modulus (GPa) = 11.28046 28.13724 19.70885
#
# Velocity S-wave (km/s) = 2.30718 3.64384 3.04964
# Velocity P-wave (km/s) = 3.10762 5.90090 4.71582
#
# Compressibility (1/GPa) = 0.18434146
#
# Stress axis : x y z
#
# Youngs Moduli (GPa) = 42.67465 46.55093 15.16689
#
# Poissons Ratio (x) = -0.23857 -0.24393
# Poissons Ratio (y) = -0.21871 -0.23567
# Poissons Ratio (z) = -0.68634 -0.72334
#
# Static dielectric constant tensor:
#      x y z
#    x 1.788550 -0.016630 -0.002960 
#    y -0.016630 1.834560 0.014840 
#    z -0.002960 0.014840 1.810040 
# 
# From -- ./inp_files/41194.got.cif
#   From: 2010.05.17/outbox.cif.g08.bks.cpg/sg2_21_cif.got.tgz:41194.got - 2010.06.03 11:33:40.
