data_PCOD9072413
_publ_section_title
;
Structure prediction by ZEFSAII (Michael W. Deem and Ramdas Pophale) SiO2 
 PCOD9072413
Probable space group: P -1
;
_chemical_formula_sum "Si O2"
_cell_formula_units_Z 15
_cell_length_a 14.570666
_cell_length_b 12.841927
_cell_length_c 23.965047
_cell_angle_alpha 157.985495
_cell_angle_beta 158.118361
_cell_angle_gamma 30.905399
_cell_volume 626.362384
_symmetry_space_group_name_H-M "P -1"
_symmetry_group_IT_number 2
_symmetry_cell_setting 'triclinic'
loop_
_space_group_symop_operation_xyz
x,y,z
-x,-y,-z
loop_
_atom_site_type_symbol
_atom_site_label
_atom_site_fract_x
_atom_site_fract_y
_atom_site_fract_z
Si Si1 0.319303 0.114821 0.561061
Si Si2 0.709812 0.442267 0.135306
Si Si3 0.603199 0.949340 0.165809
Si Si4 0.737068 0.452990 0.689436
Si Si5 0.506360 0.300812 0.182101
Si Si6 0.816857 0.378202 0.569792
Si Si7 0.776937 0.419559 0.926306
Si Si8 0.000000 0.500000 0.500000
O O1 0.290344 0.317125 0.698827
O O2 0.118961 0.220625 0.457053
O O3 0.278463 0.810172 0.409319
O O4 0.588351 0.176000 0.717315
O O5 0.970610 0.443767 0.252442
O O6 0.500000 0.500000 0.000000
O O7 0.624574 0.168449 0.984827
O O8 0.695501 0.690394 0.052265
O O9 0.528413 0.201899 0.208679
O O10 0.804355 0.073034 0.383243
O O11 0.846913 0.391954 0.659581
O O12 0.457758 0.521571 0.549625
O O13 0.945712 0.643301 0.931817
O O14 0.750906 0.456976 0.376289
O O15 0.284354 0.481869 0.122159
O O16 0.500000 0.000000 0.000000
#
# Coordination Sequence:
#
# PCOD9072413 Si02
#       8
#     2   2   2   2   2   2   2   1
#     4  10  20  35  59  85 110 141 184 232 277 327
#     4  11  22  36  57  84 109 141 188 237 278 322
#     4  10  20  36  59  82 110 144 183 233 277 323
#     4  11  23  38  55  78 114 153 185 225 278 336
#     4   9  17  31  54  83 109 136 175 225 277 322
#     4  11  24  38  54  80 114 152 188 224 276 334
#     4   9  19  35  58  84 107 139 184 230 276 327
#     4  10  18  30  56  88 110 136 178 230 276 320
#
# _framework density 23.947799
#
# number of rings (size 3 to 8) (size 9 to 14) (size 15 to 20)
#    0.000    1.867    0.000    6.400    0.000    2.667 
#    0.000    4.000    0.000    9.600    0.000    0.000 
#    0.000    0.000    0.000    0.000    0.000    0.000 
#
# Total GULP energy -83585.244419 kJ/mol
# GULP energy per Si atom -5572.349628 kJ/mol
# Density = 2.389329 g / cm^3
# Si number density = 23.947799 Si / 1000 Ang^3
#
#
#
# Elastic Constant Matrix: (Units=GPa)
#
#
# Indices 1 2 3 4 5 6 
#
# 1 306.8575 505.6840 -23.0299 -250.9079 104.1931 780.9725
# 2 505.6840 1125.5870 -91.5227 -551.1251 200.0976 1646.4596
# 3 -23.0299 -91.5227 99.5125 39.6831 15.4250 -175.0510
# 4 -250.9079 -551.1251 39.6831 311.5082 -93.3511 -831.4864
# 5 104.1931 200.0976 15.4250 -93.3511 67.0289 270.8883
# 6 780.9725 1646.4596 -175.0510 -831.4864 270.8883 2613.9424
#
#
#
# Elastic Compliance Matrix: (Units=1/GPa)
#
#
# Indices 1 2 3 4 5 6 
#
# 1 0.017266 0.000334 -0.002858 -0.001135 -0.008308 -0.005061
# 2 0.000334 0.018735 0.003697 0.009784 -0.015754 -0.006908
# 3 -0.002858 0.003697 0.018842 0.005936 -0.016231 0.003358
# 4 -0.001135 0.009784 0.005936 0.027908 -0.006693 0.004145
# 5 -0.008308 -0.015754 -0.016231 -0.006693 0.055300 0.003459
# 6 -0.005061 -0.006908 0.003358 0.004145 0.003459 0.007431
#
#
# Mechanical properties :
#
#
# Convention : Reuss Voigt Hill
#
# Bulk Modulus (GPa) = 17.48606 257.13553 137.31080
# Shear Modulus (GPa) = 30.82623 674.55096 352.68859
#
# Velocity S-wave (km/s) = 3.59169 16.80140 12.14881
# Velocity P-wave (km/s) = 4.95155 21.99975 15.94533
#
# Compressibility (1/GPa) = 0.05718840
#
# Stress axis : x y z
#
# Youngs Moduli (GPa) = 57.91685 53.37651 53.07169
#
# Poissons Ratio (x) = -0.01785 0.15170
# Poissons Ratio (y) = -0.01937 -0.19618
# Poissons Ratio (z) = 0.16555 -0.19731
#
# Static dielectric constant tensor:
#      x y z
#    x 1.979990 -0.058130 -0.027110 
#    y -0.058130 1.944200 -0.000080 
#    z -0.027110 -0.000080 1.896420 
# 
# From -- ./inp_files/253801.got.cif
#   From: 2010.05.17/outbox.cif.g08.bks.cpg/sg2_127_cif.got.tgz:253801.got - 2010.06.03 11:33:40.
