data_PCOD9072986
_publ_section_title
;
Structure prediction by ZEFSAII (Michael W. Deem and Ramdas Pophale) SiO2 
 PCOD9072986
Probable space group: P -1
;
_chemical_formula_sum "Si O2"
_cell_formula_units_Z 16
_cell_length_a 9.000000
_cell_length_b 15.000000
_cell_length_c 9.000000
_cell_angle_alpha 140.000000
_cell_angle_beta 110.000000
_cell_angle_gamma 80.000000
_cell_volume 725.993766
_symmetry_space_group_name_H-M "P -1"
_symmetry_group_IT_number 2
_symmetry_cell_setting 'triclinic'
loop_
_space_group_symop_operation_xyz
x,y,z
-x,-y,-z
loop_
_atom_site_type_symbol
_atom_site_label
_atom_site_fract_x
_atom_site_fract_y
_atom_site_fract_z
Si Si1 0.851710 0.541142 0.414567
Si Si2 0.659702 0.607264 0.702082
Si Si3 0.619214 0.911885 0.557738
Si Si4 0.114653 0.909108 0.509403
Si Si5 0.597498 0.894910 0.187433
Si Si6 0.179091 0.472660 0.064397
Si Si7 0.114496 0.235938 0.523387
Si Si8 0.703893 0.308128 0.839409
O O1 0.740152 0.616016 0.580513
O O2 0.927583 0.653205 0.464424
O O3 0.000000 0.500000 0.500000
O O4 0.747838 0.411625 0.125523
O O5 0.500000 0.500000 0.500000
O O6 0.783790 0.548134 0.779833
O O7 0.611108 0.745463 0.936938
O O8 0.664976 0.927879 0.420315
O O9 0.763336 0.858153 0.620594
O O10 0.461880 0.795063 0.345404
O O11 0.572966 0.053315 0.791362
O O12 0.154438 0.783998 0.257513
O O13 0.031055 0.850507 0.554930
O O14 0.281604 0.996708 0.725557
O O15 0.000000 0.000000 0.500000
O O16 0.296029 0.596585 0.185456
O O17 0.205518 0.332147 0.807992
O O18 0.000000 0.500000 0.000000
#
# Coordination Sequence:
#
# PCOD9072986 Si02
#       8
#     2   2   2   2   2   2   2   2
#     4  11  27  41  63  96 141 171 213 278 338 398
#     4  12  25  44  67  97 138 177 211 274 354 399
#     4  10  20  39  67  99 126 156 229 279 316 377
#     4  11  20  37  69  96 121 172 228 274 314 383
#     4  10  22  40  64  97 129 169 215 273 328 393
#     4  11  21  39  69  96 128 170 232 272 314 399
#     4  11  22  40  69  98 127 168 230 271 321 385
#     4  10  23  38  67  95 126 169 222 275 327 379
#
# _framework density 22.038757
#
# number of rings (size 3 to 8) (size 9 to 14) (size 15 to 20)
#    0.000    1.250    3.750    2.250    3.500    1.000 
#    0.000    1.250    0.000    0.000    0.000    0.000 
#    0.000    0.000    0.000    0.000    0.000    0.000 
#
# Total GULP energy -89280.995932 kJ/mol
# GULP energy per Si atom -5580.062246 kJ/mol
# Density = 2.198860 g / cm^3
# Si number density = 22.038757 Si / 1000 Ang^3
#
#
#
# Elastic Constant Matrix: (Units=GPa)
#
#
# Indices 1 2 3 4 5 6 
#
# 1 111.8231 54.2069 47.1377 13.5458 -24.4858 5.3837
# 2 54.2069 77.0603 48.9994 4.8511 -3.1191 13.0129
# 3 47.1377 48.9994 90.4282 15.5352 -30.1956 0.4393
# 4 13.5458 4.8511 15.5352 22.3911 -2.3118 -1.5089
# 5 -24.4858 -3.1191 -30.1956 -2.3118 28.2711 15.2085
# 6 5.3837 13.0129 0.4393 -1.5089 15.2085 33.0997
#
#
#
# Elastic Compliance Matrix: (Units=1/GPa)
#
#
# Indices 1 2 3 4 5 6 
#
# 1 0.027708 -0.025971 0.020811 -0.021510 0.052083 -0.019484
# 2 -0.025971 0.049856 -0.041033 0.027542 -0.068096 0.017713
# 3 0.020811 -0.041033 0.059366 -0.037638 0.090746 -0.031453
# 4 -0.021510 0.027542 -0.037638 0.072981 -0.063680 0.025757
# 5 0.052083 -0.068096 0.090746 -0.063680 0.208615 -0.081661
# 6 -0.019484 0.017713 -0.031453 0.025757 -0.081661 0.065530
#
#
# Mechanical properties :
#
#
# Convention : Reuss Voigt Hill
#
# Bulk Modulus (GPa) = 22.45061 64.44439 43.44750
# Shear Modulus (GPa) = 8.45608 25.35021 16.90315
#
# Velocity S-wave (km/s) = 1.96093 3.39522 2.77243
# Velocity P-wave (km/s) = 3.91612 6.68393 5.47772
#
# Compressibility (1/GPa) = 0.04454222
#
# Stress axis : x y z
#
# Youngs Moduli (GPa) = 36.09053 20.05777 16.84478
#
# Poissons Ratio (x) = 0.52092 -0.35055
# Poissons Ratio (y) = 0.93731 0.69120
# Poissons Ratio (z) = -0.75107 0.82304
#
# Static dielectric constant tensor:
#      x y z
#    x 2.063300 0.048350 -0.047650 
#    y 0.048350 2.007400 0.056020 
#    z -0.047650 0.056020 1.791960 
# 
# From -- ./inp_files/209567.got.cif
#   From: 2010.05.17/outbox.ucp.g08.bks.cvg/sg2_105_cif.got.tgz:209567.got - 2010.06.11 11:32:03.
