data_PCOD9072975
_publ_section_title
;
Structure prediction by ZEFSAII (Michael W. Deem and Ramdas Pophale) SiO2 
 PCOD9072975
Probable space group: P -1
;
_chemical_formula_sum "Si O2"
_cell_formula_units_Z 16
_cell_length_a 15.000000
_cell_length_b 15.000000
_cell_length_c 15.000000
_cell_angle_alpha 40.000000
_cell_angle_beta 40.000000
_cell_angle_gamma 20.000000
_cell_volume 725.414092
_symmetry_space_group_name_H-M "P -1"
_symmetry_group_IT_number 2
_symmetry_cell_setting 'triclinic'
loop_
_space_group_symop_operation_xyz
x,y,z
-x,-y,-z
loop_
_atom_site_type_symbol
_atom_site_label
_atom_site_fract_x
_atom_site_fract_y
_atom_site_fract_z
Si Si1 0.782046 0.808456 0.035035
Si Si2 0.198519 0.198801 0.178041
Si Si3 0.944354 0.309498 0.448690
Si Si4 0.131707 0.731029 0.933960
Si Si5 0.720058 0.310214 0.764360
Si Si6 0.398721 0.309746 0.327066
Si Si7 0.095344 0.207537 0.773495
Si Si8 0.470458 0.115190 0.609107
O O1 0.979742 0.507809 0.112143
O O2 0.483685 0.015644 0.134170
O O3 0.751129 0.886066 0.897033
O O4 0.945802 0.784959 0.979356
O O5 0.062392 0.198057 0.344299
O O6 0.823780 0.278978 0.613591
O O7 0.699501 0.625417 0.405429
O O8 0.213240 0.141709 0.418878
O O9 0.435066 0.474233 0.861692
O O10 0.974206 0.009205 0.834056
O O11 0.099426 0.714822 0.073690
O O12 0.661408 0.491016 0.734254
O O13 0.432738 0.177942 0.484859
O O14 0.127147 0.513210 0.323677
O O15 0.681867 0.064143 0.246807
O O16 0.297001 0.124550 0.744455
#
# Coordination Sequence:
#
# PCOD9072975 Si02
#       8
#     2   2   2   2   2   2   2   2
#     4  10  22  39  63  94 123 145 179 243 294 339
#     4  10  20  39  66  94 119 145 185 233 296 352
#     4  11  21  39  63  85 115 158 194 228 288 350
#     4  12  24  40  58  84 119 156 197 235 283 338
#     4  11  25  41  56  79 118 161 199 238 274 334
#     4  11  23  40  57  83 116 152 196 243 292 337
#     4  12  23  36  61  86 112 151 195 246 297 344
#     4  11  22  38  61  89 118 143 189 251 298 341
#
# _framework density 22.056367999999999
#
# number of rings (size 3 to 8) (size 9 to 14) (size 15 to 20)
#    0.000    1.000    0.000    9.000    0.000    3.000 
#    0.000    1.250    0.000    0.000    0.000    0.000 
#    0.000    0.000    0.000    0.000    0.000    0.000 
#
# Total GULP energy -89329.340161 kJ/mol
# GULP energy per Si atom -5583.083760 kJ/mol
# Density = 2.200617 g / cm^3
# Si number density = 22.056368 Si / 1000 Ang^3
#
#
#
# Elastic Constant Matrix: (Units=GPa)
#
#
# Indices 1 2 3 4 5 6 
#
# 1 33.7471 -3.4090 4.3894 9.7053 7.6089 -17.5738
# 2 -3.4090 103.9625 21.0346 30.1140 13.5325 -22.1377
# 3 4.3894 21.0346 110.2829 36.1696 16.0411 -2.0201
# 4 9.7053 30.1140 36.1696 47.3412 -0.3285 -3.9218
# 5 7.6089 13.5325 16.0411 -0.3285 18.8919 -0.5317
# 6 -17.5738 -22.1377 -2.0201 -3.9218 -0.5317 29.7202
#
#
#
# Elastic Compliance Matrix: (Units=1/GPa)
#
#
# Indices 1 2 3 4 5 6 
#
# 1 0.185328 0.085712 0.039966 -0.111083 -0.167446 0.158494
# 2 0.085712 0.056364 0.021625 -0.063619 -0.091997 0.084096
# 3 0.039966 0.021625 0.023802 -0.037552 -0.051452 0.035482
# 4 -0.111083 -0.063619 -0.037552 0.105652 0.121233 -0.099514
# 5 -0.167446 -0.091997 -0.051452 0.121233 0.227819 -0.150963
# 6 0.158494 0.084096 0.035482 -0.099514 -0.150963 0.176586
#
#
# Mechanical properties :
#
#
# Convention : Reuss Voigt Hill
#
# Bulk Modulus (GPa) = 1.78539 32.44696 17.11618
# Shear Modulus (GPa) = 7.48902 34.25582 20.87242
#
# Velocity S-wave (km/s) = 1.84466 3.94522 3.07957
# Velocity P-wave (km/s) = 2.31263 5.95784 4.51908
#
# Compressibility (1/GPa) = 0.56010174
#
# Stress axis : x y z
#
# Youngs Moduli (GPa) = 5.39585 17.74173 42.01316
#
# Poissons Ratio (x) = -1.52069 -1.67911
# Poissons Ratio (y) = -0.46249 -0.90853
# Poissons Ratio (z) = -0.21565 -0.38366
#
# Static dielectric constant tensor:
#      x y z
#    x 1.871560 0.016720 0.035210 
#    y 0.016720 1.752040 -0.044260 
#    z 0.035210 -0.044260 1.935980 
# 
# From -- ./inp_files/137620.got.cif
#   From: 2010.05.17/outbox.ucp.g08.bks.cvg/sg2_69_cif.got.tgz:137620.got - 2010.06.11 11:32:03.
