data_PCOD9072748
_publ_section_title
;
Structure prediction by ZEFSAII (Michael W. Deem and Ramdas Pophale) SiO2 
 PCOD9072748
Probable space group: P -1
;
_chemical_formula_sum "Si O2"
_cell_formula_units_Z 16
_cell_length_a 12.645230
_cell_length_b 11.193072
_cell_length_c 15.762625
_cell_angle_alpha 128.611059
_cell_angle_beta 28.536885
_cell_angle_gamma 141.960736
_cell_volume 639.061091
_symmetry_space_group_name_H-M "P -1"
_symmetry_group_IT_number 2
_symmetry_cell_setting 'triclinic'
loop_
_space_group_symop_operation_xyz
x,y,z
-x,-y,-z
loop_
_atom_site_type_symbol
_atom_site_label
_atom_site_fract_x
_atom_site_fract_y
_atom_site_fract_z
Si Si1 0.095932 0.090040 0.827632
Si Si2 0.190511 0.880416 0.802154
Si Si3 0.052819 0.880977 0.230158
Si Si4 0.580140 0.450134 0.007336
Si Si5 0.090419 0.710642 0.282425
Si Si6 0.436867 0.703030 0.607926
Si Si7 0.379682 0.438195 0.314091
Si Si8 0.318341 0.709857 0.882623
O O1 0.964513 0.008260 0.789827
O O2 0.366874 0.328566 0.737999
O O3 0.213587 0.999254 0.757793
O O4 0.852536 0.049391 0.046807
O O5 0.430068 0.855535 0.625934
O O6 0.886634 0.659150 0.910316
O O7 0.142614 0.890104 0.270692
O O8 0.707095 0.714907 0.408653
O O9 0.243838 0.835820 0.032871
O O10 0.655665 0.301284 0.887234
O O11 0.500000 0.500000 0.000000
O O12 0.358515 0.415548 0.218518
O O13 0.857207 0.515164 0.302254
O O14 0.912249 0.662799 0.472968
O O15 0.453118 0.770087 0.721788
O O16 0.504865 0.328114 0.201673
O O17 0.000000 0.500000 0.000000
#
# Coordination Sequence:
#
# PCOD9072748 Si02
#       8
#     2   2   2   2   2   2   2   2
#     4  10  18  31  50  76 111 139 157 191 260 314
#     4   9  20  34  49  73 108 139 170 197 242 313
#     4  12  19  27  49  77 108 135 158 198 258 312
#     4  10  22  38  54  70  96 136 179 218 247 277
#     4  11  19  30  50  79  99 129 172 206 252 302
#     4  11  18  28  45  74 108 136 160 194 247 312
#     4  11  19  32  52  77 107 130 159 214 254 299
#     4  12  16  26  45  73 107 135 154 202 248 296
#
# _framework density 25.036729000000001
#
# number of rings (size 3 to 8) (size 9 to 14) (size 15 to 20)
#    0.000    1.250    7.500    1.125    0.000    1.000 
#    0.000    0.000    0.000    0.750    0.000    0.875 
#    0.000    0.000    0.000    0.000    0.000    0.000 
#
# Total GULP energy -89296.287914 kJ/mol
# GULP energy per Si atom -5581.017995 kJ/mol
# Density = 2.497974 g / cm^3
# Si number density = 25.036729 Si / 1000 Ang^3
#
#
#
# Elastic Constant Matrix: (Units=GPa)
#
#
# Indices 1 2 3 4 5 6 
#
# 1 165.4519 28.0214 68.3339 5.3816 26.3177 -41.5784
# 2 28.0214 73.4733 23.2649 -2.7177 -2.2403 -21.4073
# 3 68.3339 23.2649 103.5424 -9.7035 20.9667 4.9058
# 4 5.3816 -2.7177 -9.7035 21.3544 -3.0077 -7.3178
# 5 26.3177 -2.2403 20.9667 -3.0077 49.4086 -2.3018
# 6 -41.5784 -21.4073 4.9058 -7.3178 -2.3018 41.5279
#
#
#
# Elastic Compliance Matrix: (Units=1/GPa)
#
#
# Indices 1 2 3 4 5 6 
#
# 1 0.014852 0.002490 -0.010918 -0.003001 -0.002567 0.016773
# 2 0.002490 0.019222 -0.006945 0.003976 0.003392 0.014111
# 3 -0.010918 -0.006945 0.020397 0.005068 -0.003603 -0.016227
# 4 -0.003001 0.003976 0.005068 0.053622 0.003269 0.008077
# 5 -0.002567 0.003392 -0.003603 0.003269 0.023557 0.001486
# 6 0.016773 0.014111 -0.016227 0.008077 0.001486 0.051570
#
#
# Mechanical properties :
#
#
# Convention : Reuss Voigt Hill
#
# Bulk Modulus (GPa) = 42.14821 64.63423 53.39122
# Shear Modulus (GPa) = 22.53530 37.31467 29.92499
#
# Velocity S-wave (km/s) = 3.00340 3.86475 3.46098
# Velocity P-wave (km/s) = 5.37572 6.76660 6.11086
#
# Compressibility (1/GPa) = 0.02372580
#
# Stress axis : x y z
#
# Youngs Moduli (GPa) = 67.32918 52.02460 49.02697
#
# Poissons Ratio (x) = -0.12956 0.53526
# Poissons Ratio (y) = -0.16767 0.34050
# Poissons Ratio (z) = 0.73508 0.36132
#
# Static dielectric constant tensor:
#      x y z
#    x 2.073110 -0.008300 0.144500 
#    y -0.008300 2.114190 -0.046820 
#    z 0.144500 -0.046820 2.067420 
# 
# From -- ./inp_files/422880.got.cif
#   From: 2010.05.17/outbox.cif.g08.bks.cpg/sg2_212_cif.got.tgz:422880.got - 2010.06.03 11:33:40.
