data_PCOD9072205
_publ_section_title
;
Structure prediction by ZEFSAII (Michael W. Deem and Ramdas Pophale) SiO2 
 PCOD9072205
Probable space group: P -1
;
_chemical_formula_sum "Si O2"
_cell_formula_units_Z 12
_cell_length_a 9.000000
_cell_length_b 12.000000
_cell_length_c 9.000000
_cell_angle_alpha 130.000000
_cell_angle_beta 130.000000
_cell_angle_gamma 60.000000
_cell_volume 564.115245
_symmetry_space_group_name_H-M "P -1"
_symmetry_group_IT_number 2
_symmetry_cell_setting 'triclinic'
loop_
_space_group_symop_operation_xyz
x,y,z
-x,-y,-z
loop_
_atom_site_type_symbol
_atom_site_label
_atom_site_fract_x
_atom_site_fract_y
_atom_site_fract_z
Si Si1 0.598848 0.279938 0.727836
Si Si2 0.910714 0.980481 0.083419
Si Si3 0.189958 0.016671 0.537362
Si Si4 0.531353 0.195354 0.958544
Si Si5 0.730438 0.464399 0.376860
Si Si6 0.976564 0.363697 0.155950
O O1 0.670183 0.138019 0.546908
O O2 0.566069 0.220818 0.824377
O O3 0.405174 0.387773 0.644675
O O4 0.779658 0.375710 0.938919
O O5 0.066159 0.056865 0.343957
O O6 0.924615 0.803967 0.960717
O O7 0.692466 0.066663 0.018687
O O8 0.000000 0.000000 0.000000
O O9 0.322405 0.135556 0.781057
O O10 0.000000 0.000000 0.500000
O O11 0.582524 0.343480 0.199238
O O12 0.865867 0.521761 0.642376
O O13 0.880836 0.387436 0.280736
#
# Coordination Sequence:
#
# PCOD9072205 Si02
#       6
#     2   2   2   2   2   2
#     4  10  20  35  58  85 116 149 193 237 288 338
#     4  11  20  37  62  90 113 149 198 243 281 337
#     4  11  25  40  59  85 120 156 193 241 293 341
#     4  11  21  35  61  91 113 152 198 240 285 344
#     4  10  19  31  54  89 120 144 185 243 291 335
#     4   9  18  30  51  86 120 138 182 241 293 323
#
# _framework density 21.272248999999999
#
# number of rings (size 3 to 8) (size 9 to 14) (size 15 to 20)
#    0.000    1.667    5.000    3.500    2.333    2.000 
#    0.000    0.833    0.000    5.000    0.000    0.000 
#    0.000    0.000    0.000    0.000    0.000    0.000 
#
# Total GULP energy -66858.168069 kJ/mol
# GULP energy per Si atom -5571.514006 kJ/mol
# Density = 2.122383 g / cm^3
# Si number density = 21.272249 Si / 1000 Ang^3
#
#
#
# Elastic Constant Matrix: (Units=GPa)
#
#
# Indices 1 2 3 4 5 6 
#
# 1 53.1815 19.7935 20.8755 6.8542 33.4456 -8.0813
# 2 19.7935 63.9462 7.1334 -1.5034 13.1483 -22.6817
# 3 20.8755 7.1334 123.8519 16.4411 60.8834 6.3958
# 4 6.8542 -1.5034 16.4411 36.2257 2.6605 9.8347
# 5 33.4456 13.1483 60.8834 2.6605 39.8351 0.8653
# 6 -8.0813 -22.6817 6.3958 9.8347 0.8653 17.0632
#
#
#
# Elastic Compliance Matrix: (Units=1/GPa)
#
#
# Indices 1 2 3 4 5 6 
#
# 1 -0.030732 -0.025205 -0.044799 0.032632 0.101612 -0.055229
# 2 -0.025205 0.026015 -0.019940 0.004985 0.042173 0.025106
# 3 -0.044799 -0.019940 -0.021300 0.027928 0.076181 -0.059699
# 4 0.032632 0.004985 0.027928 0.012031 -0.072714 0.008367
# 5 0.101612 0.042173 0.076181 -0.072714 -0.188469 0.127097
# 6 -0.055229 0.025106 -0.059699 0.008367 0.127097 0.076930
#
#
# Mechanical properties :
#
#
# Convention : Reuss Voigt Hill
#
# Bulk Modulus (GPa) = -4.85661 37.39829 16.27084
# Shear Modulus (GPa) = -350.32708 31.50326 -159.41191
#
# Velocity S-wave (km/s) = -12.84698 3.85249 -8.66612
# Velocity P-wave (km/s) = 14.91133 6.11620 9.61613
#
# Compressibility (1/GPa) = -0.20590495
#
# Stress axis : x y z
#
# Youngs Moduli (GPa) = -32.53954 38.43906 -46.94754
#
# Poissons Ratio (x) = 0.96887 -2.10320
# Poissons Ratio (y) = -0.82017 -0.93612
# Poissons Ratio (z) = -1.45773 0.76646
#
# Static dielectric constant tensor:
#      x y z
#    x 1.828970 -0.064550 -0.029430 
#    y -0.064550 1.870320 0.076610 
#    z -0.029430 0.076610 1.834070 
# 
# From -- ./inp_files/174247.got.cif
#   From: 2010.05.17/outbox.ucp.g08.bks.cvg/sg2_88_cif.got.tgz:174247.got - 2010.06.11 11:32:03.
