data_PCOD9072778
_publ_section_title
;
Structure prediction by ZEFSAII (Michael W. Deem and Ramdas Pophale) SiO2 
 PCOD9072778
Probable space group: P -1
;
_chemical_formula_sum "Si O2"
_cell_formula_units_Z 16
_cell_length_a 13.480713
_cell_length_b 11.050449
_cell_length_c 8.007710
_cell_angle_alpha 122.310605
_cell_angle_beta 142.629324
_cell_angle_gamma 59.460763
_cell_volume 603.809439
_symmetry_space_group_name_H-M "P -1"
_symmetry_group_IT_number 2
_symmetry_cell_setting 'triclinic'
loop_
_space_group_symop_operation_xyz
x,y,z
-x,-y,-z
loop_
_atom_site_type_symbol
_atom_site_label
_atom_site_fract_x
_atom_site_fract_y
_atom_site_fract_z
Si Si1 0.791030 0.730668 0.003465
Si Si2 0.532754 0.579647 0.430843
Si Si3 0.325819 0.889851 0.475273
Si Si4 0.719220 0.594780 0.131825
Si Si5 0.133291 0.878434 0.882689
Si Si6 0.584831 0.025803 0.809973
Si Si7 0.936433 0.167654 0.703378
Si Si8 0.012968 0.338413 0.258114
O O1 0.723065 0.605354 0.710346
O O2 0.713077 0.883130 0.927484
O O3 0.985370 0.744852 0.271494
O O4 0.707414 0.714736 0.059144
O O5 0.500000 0.500000 0.500000
O O6 0.428308 0.741909 0.424960
O O7 0.439806 0.483259 0.112363
O O8 0.434564 0.017022 0.727547
O O9 0.188769 0.937590 0.182008
O O10 0.254086 0.840310 0.516428
O O11 0.799626 0.642003 0.442705
O O12 0.873009 0.480201 0.175503
O O13 0.043754 0.749303 0.725219
O O14 0.303247 0.851302 0.982262
O O15 0.014083 0.999612 0.710169
O O16 0.500000 0.000000 0.500000
O O17 0.993388 0.251723 0.001845
#
# Coordination Sequence:
#
# PCOD9072778 Si02
#       8
#     2   2   2   2   2   2   2   2
#     4   9  19  31  50  79 101 123 170 215 246 287
#     4   9  16  30  47  70  97 131 165 202 236 291
#     4   9  14  26  46  72  96 121 160 203 250 281
#     4  10  19  33  49  72 104 137 168 198 245 306
#     4   9  16  29  49  75  98 122 169 211 244 289
#     4   8  15  27  48  74  97 123 161 211 246 283
#     4  10  18  31  50  80  99 124 168 214 253 288
#     4  10  19  31  51  73 102 138 164 200 252 300
#
# _framework density 26.498425999999998
#
# number of rings (size 3 to 8) (size 9 to 14) (size 15 to 20)
#    0.000    2.750    2.500    1.500    0.000    0.500 
#    0.000    3.125    0.000    0.000    0.000   51.625 
#    0.000    0.000    0.000    0.000    0.000    0.000 
#
# Total GULP energy -89242.969009 kJ/mol
# GULP energy per Si atom -5577.685563 kJ/mol
# Density = 2.643811 g / cm^3
# Si number density = 26.498426 Si / 1000 Ang^3
#
#
#
# Elastic Constant Matrix: (Units=GPa)
#
#
# Indices 1 2 3 4 5 6 
#
# 1 90.7914 19.9012 33.7008 27.4251 11.4229 29.1787
# 2 19.9012 73.8369 -2.8943 3.0450 -8.7340 15.1426
# 3 33.7008 -2.8943 72.7990 22.8649 4.6421 3.9626
# 4 27.4251 3.0450 22.8649 38.9900 22.2831 8.2380
# 5 11.4229 -8.7340 4.6421 22.2831 45.8310 7.9898
# 6 29.1787 15.1426 3.9626 8.2380 7.9898 23.7739
#
#
#
# Elastic Compliance Matrix: (Units=1/GPa)
#
#
# Indices 1 2 3 4 5 6 
#
# 1 0.024992 -0.000642 -0.007317 -0.009724 0.003817 -0.026959
# 2 -0.000642 0.017191 0.002385 -0.003906 0.007115 -0.011597
# 3 -0.007317 0.002385 0.019892 -0.010475 0.004250 0.006347
# 4 -0.009724 -0.003906 -0.010475 0.050771 -0.023046 0.006320
# 5 0.003817 0.007115 0.004250 -0.023046 0.035411 -0.013840
# 6 -0.026959 -0.011597 0.006347 0.006320 -0.013840 0.083940
#
#
# Mechanical properties :
#
#
# Convention : Reuss Voigt Hill
#
# Bulk Modulus (GPa) = 19.63589 37.64919 28.64254
# Shear Modulus (GPa) = 19.20712 34.16696 26.68704
#
# Velocity S-wave (km/s) = 2.69521 3.59471 3.17696
# Velocity P-wave (km/s) = 4.13664 5.60965 4.92849
#
# Compressibility (1/GPa) = 0.05092716
#
# Stress axis : x y z
#
# Youngs Moduli (GPa) = 40.01313 58.17030 50.27176
#
# Poissons Ratio (x) = 0.03732 0.36783
# Poissons Ratio (y) = 0.02567 -0.11989
# Poissons Ratio (z) = 0.29277 -0.13872
#
# Static dielectric constant tensor:
#      x y z
#    x 2.209320 -0.040870 0.056010 
#    y -0.040870 2.080640 -0.021010 
#    z 0.056010 -0.021010 2.240900 
# 
# From -- ./inp_files/305618.got.cif
#   From: 2010.05.17/outbox.cif.g08.bks.cpg/sg2_153_cif.got.tgz:305618.got - 2010.06.03 11:33:40.
