data_PCOD9072475
_publ_section_title
;
Structure prediction by ZEFSAII (Michael W. Deem and Ramdas Pophale) SiO2 
 PCOD9072475
Probable space group: P -1
;
_chemical_formula_sum "Si O2"
_cell_formula_units_Z 16
_cell_length_a 21.000000
_cell_length_b 12.000000
_cell_length_c 9.000000
_cell_angle_alpha 70.000000
_cell_angle_beta 70.000000
_cell_angle_gamma 20.000000
_cell_volume 727.418465
_symmetry_space_group_name_H-M "P -1"
_symmetry_group_IT_number 2
_symmetry_cell_setting 'triclinic'
loop_
_space_group_symop_operation_xyz
x,y,z
-x,-y,-z
loop_
_atom_site_type_symbol
_atom_site_label
_atom_site_fract_x
_atom_site_fract_y
_atom_site_fract_z
Si Si1 0.825117 0.833525 0.310757
Si Si2 0.024002 0.773585 0.727928
Si Si3 0.151750 0.373627 0.039352
Si Si4 0.290265 0.283339 0.237029
Si Si5 0.043349 0.243665 0.504362
Si Si6 0.278812 0.570831 0.196196
Si Si7 0.413850 0.770339 0.952578
Si Si8 0.402257 0.268781 0.538462
O O1 0.799657 0.955052 0.423157
O O2 0.974821 0.644653 0.163093
O O3 0.920404 0.555583 0.406542
O O4 0.651026 0.099440 0.223438
O O5 0.208340 0.540645 0.635390
O O6 0.918561 0.899826 0.604098
O O7 0.089359 0.550357 0.866283
O O8 0.911459 0.046324 0.800314
O O9 0.281065 0.245022 0.097893
O O10 0.248908 0.091478 0.042180
O O11 0.308878 0.393980 0.179004
O O12 0.097941 0.587350 0.345535
O O13 0.448561 0.951037 0.351116
O O14 0.409923 0.438527 0.054436
O O15 0.350113 0.440677 0.368801
O O16 0.500000 0.500000 0.000000
O O17 0.500000 0.000000 0.500000
#
# Coordination Sequence:
#
# PCOD9072475 Si02
#       8
#     2   2   2   2   2   2   2   2
#     4  10  22  41  65  90 120 169 212 254 305 369
#     4  12  22  38  65  95 123 168 203 254 317 364
#     4  11  24  42  67  89 126 166 211 257 310 378
#     4  10  22  42  65  97 122 164 208 257 317 362
#     4  10  20  38  68  89 124 158 214 252 303 370
#     4  11  24  39  64  94 129 161 208 260 306 371
#     4  12  25  42  62  91 130 166 206 255 315 373
#     4  10  19  37  64  89 125 157 203 254 307 369
#
# _framework density 21.995591999999998
#
# number of rings (size 3 to 8) (size 9 to 14) (size 15 to 20)
#    0.000    1.250    3.750    3.750    1.750    2.500 
#    2.250    0.625    0.000    0.000    0.000    0.000 
#    0.000    0.000    0.000    0.000    0.000    0.000 
#
# Total GULP energy -89144.584094 kJ/mol
# GULP energy per Si atom -5571.536506 kJ/mol
# Density = 2.194553 g / cm^3
# Si number density = 21.995592 Si / 1000 Ang^3
#
#
#
# Elastic Constant Matrix: (Units=GPa)
#
#
# Indices 1 2 3 4 5 6 
#
# 1 -97.3369 -332.2389 90.1313 -11.4317 216.5735 -218.8764
# 2 -332.2389 -552.4125 113.6395 -19.6388 365.0654 -398.6722
# 3 90.1313 113.6395 32.9737 5.8719 -54.0355 76.7292
# 4 -11.4317 -19.6388 5.8719 11.2532 7.9559 -20.8612
# 5 216.5735 365.0654 -54.0355 7.9559 -165.1627 244.3253
# 6 -218.8764 -398.6722 76.7292 -20.8612 244.3253 -247.3847
#
#
#
# Elastic Compliance Matrix: (Units=1/GPa)
#
#
# Indices 1 2 3 4 5 6 
#
# 1 0.012542 -0.002897 -0.005342 -0.004230 -0.000335 -0.008059
# 2 -0.002897 0.014734 0.002470 -0.011244 0.002992 -0.016513
# 3 -0.005342 0.002470 0.022492 -0.004826 -0.006267 0.001940
# 4 -0.004230 -0.011244 -0.004826 0.105225 0.014644 0.025956
# 5 -0.000335 0.002992 -0.006267 0.014644 0.018484 0.010552
# 6 -0.008059 -0.016513 0.001940 0.025956 0.010552 0.038534
#
#
# Mechanical properties :
#
#
# Convention : Reuss Voigt Hill
#
# Bulk Modulus (GPa) = 26.15729 -97.07912 -35.46091
# Shear Modulus (GPa) = 21.16003 -112.81268 -45.82632
#
# Velocity S-wave (km/s) = 3.10500 -7.16939 -4.56941
# Velocity P-wave (km/s) = 4.97720 10.61909 6.63297
#
# Compressibility (1/GPa) = 0.03823026
#
# Stress axis : x y z
#
# Youngs Moduli (GPa) = 79.72916 67.86799 44.45989
#
# Poissons Ratio (x) = 0.19664 0.23749
# Poissons Ratio (y) = 0.23101 -0.10980
# Poissons Ratio (z) = 0.42589 -0.16761
#
# Static dielectric constant tensor:
#      x y z
#    x 1.823450 -0.082730 -0.015350 
#    y -0.082730 1.799010 -0.003050 
#    z -0.015350 -0.003050 1.814120 
# 
# From -- ./inp_files/257610.got.cif
#   From: 2010.05.17/outbox.ucp.g08.bks.cvg/sg2_129_cif.got.tgz:257610.got - 2010.06.11 11:32:03.
