data_PCOD9072718
_publ_section_title
;
Structure prediction by ZEFSAII (Michael W. Deem and Ramdas Pophale) SiO2 
 PCOD9072718
Probable space group: P -1
;
_chemical_formula_sum "Si O2"
_cell_formula_units_Z 14
_cell_length_a 6.805925
_cell_length_b 8.777904
_cell_length_c 10.686808
_cell_angle_alpha 56.833859
_cell_angle_beta 79.593512
_cell_angle_gamma 77.988145
_cell_volume 520.994303
_symmetry_space_group_name_H-M "P -1"
_symmetry_group_IT_number 2
_symmetry_cell_setting 'triclinic'
loop_
_space_group_symop_operation_xyz
x,y,z
-x,-y,-z
loop_
_atom_site_type_symbol
_atom_site_label
_atom_site_fract_x
_atom_site_fract_y
_atom_site_fract_z
Si Si1 0.807351 0.525555 0.162201
Si Si2 0.257220 0.467577 0.118193
Si Si3 0.618168 0.196284 0.125276
Si Si4 0.261357 0.006098 0.548348
Si Si5 0.772598 0.656517 0.443258
Si Si6 0.300989 0.694909 0.503598
Si Si7 0.819274 0.885115 0.103965
O O1 0.674843 0.436448 0.316937
O O2 0.783342 0.745559 0.061936
O O3 0.039234 0.455656 0.199235
O O4 0.773492 0.466641 0.052734
O O5 0.413597 0.286325 0.175729
O O6 0.345132 0.653647 0.056916
O O7 0.757263 0.107854 0.267712
O O8 0.629188 0.017732 0.117059
O O9 0.199551 0.890534 0.486050
O O10 0.500000 0.000000 0.500000
O O11 0.189143 0.218895 0.497285
O O12 0.528477 0.705809 0.429868
O O13 0.802135 0.434096 0.524967
O O14 0.874039 0.742375 0.275090
O O15 0.000000 0.000000 0.000000
#
# Coordination Sequence:
#
# PCOD9072718 Si02
#       7
#     2   2   2   2   2   2   2
#     4  10  19  32  52  74  99 138 172 205 258 306
#     4  10  20  31  49  76 104 132 165 215 254 303
#     4  10  19  33  48  75 107 127 168 215 253 304
#     4   9  16  29  51  71  94 133 171 203 251 304
#     4   8  17  26  45  73  99 123 167 216 241 292
#     4   9  15  29  46  73  95 127 172 206 244 307
#     4  10  18  31  50  74 103 132 170 211 257 302
#
# _framework density 26.871694999999999
#
# number of rings (size 3 to 8) (size 9 to 14) (size 15 to 20)
#    0.000    2.571    2.857    0.000    0.000    0.571 
#    0.000    0.000    0.000    7.714    0.000   53.000 
#    0.000    0.000    0.000    0.000    0.000    0.000 
#
# Total GULP energy -78049.308414 kJ/mol
# GULP energy per Si atom -5574.950601 kJ/mol
# Density = 2.681053 g / cm^3
# Si number density = 26.871695 Si / 1000 Ang^3
#
#
#
# Elastic Constant Matrix: (Units=GPa)
#
#
# Indices 1 2 3 4 5 6 
#
# 1 61.9110 28.6451 28.2029 -10.3889 -1.7941 -2.4988
# 2 28.6451 108.4410 -21.7409 -14.8478 8.7959 -12.2855
# 3 28.2029 -21.7409 112.7594 0.7436 -13.7898 -1.3188
# 4 -10.3889 -14.8478 0.7436 38.6715 -4.4310 -5.1099
# 5 -1.7941 8.7959 -13.7898 -4.4310 35.7149 -9.0832
# 6 -2.4988 -12.2855 -1.3188 -5.1099 -9.0832 42.7848
#
#
#
# Elastic Compliance Matrix: (Units=1/GPa)
#
#
# Indices 1 2 3 4 5 6 
#
# 1 0.023380 -0.007203 -0.007201 0.003665 0.000528 -0.000375
# 2 -0.007203 0.012899 0.004243 0.003363 -0.000542 0.003700
# 3 -0.007201 0.004243 0.011967 0.000154 0.003736 0.001978
# 4 0.003665 0.003363 0.000154 0.029394 0.004499 0.005650
# 5 0.000528 -0.000542 0.003736 0.004499 0.032023 0.007326
# 6 -0.000375 0.003700 0.001978 0.005650 0.007326 0.026705
#
#
# Mechanical properties :
#
#
# Convention : Reuss Voigt Hill
#
# Bulk Modulus (GPa) = 35.81036 39.25840 37.53438
# Shear Modulus (GPa) = 30.12123 39.96786 35.04455
#
# Velocity S-wave (km/s) = 3.35166 3.86081 3.61521
# Velocity P-wave (km/s) = 5.32292 5.87501 5.60577
#
# Compressibility (1/GPa) = 0.02792488
#
# Stress axis : x y z
#
# Youngs Moduli (GPa) = 42.77119 77.52736 83.56607
#
# Poissons Ratio (x) = 0.55844 0.60173
# Poissons Ratio (y) = 0.30809 -0.35461
# Poissons Ratio (z) = 0.30798 -0.32898
#
# Static dielectric constant tensor:
#      x y z
#    x 2.203430 0.105990 -0.052300 
#    y 0.105990 2.242010 -0.010040 
#    z -0.052300 -0.010040 2.126190 
# 
# From -- ./inp_files/168895.got.cif
#   From: 2010.05.17/outbox.cif.g08.bks.cpg/sg2_85_cif.got.tgz:168895.got - 2010.06.03 11:33:40.
