data_PCOD9072270
_publ_section_title
;
Structure prediction by ZEFSAII (Michael W. Deem and Ramdas Pophale) SiO2 
 PCOD9072270
Probable space group: P -1
;
_chemical_formula_sum "Si O2"
_cell_formula_units_Z 16
_cell_length_a 27.000000
_cell_length_b 27.000000
_cell_length_c 9.000000
_cell_angle_alpha 40.000000
_cell_angle_beta 140.000000
_cell_angle_gamma 170.000000
_cell_volume 728.340053
_symmetry_space_group_name_H-M "P -1"
_symmetry_group_IT_number 2
_symmetry_cell_setting 'triclinic'
loop_
_space_group_symop_operation_xyz
x,y,z
-x,-y,-z
loop_
_atom_site_type_symbol
_atom_site_label
_atom_site_fract_x
_atom_site_fract_y
_atom_site_fract_z
Si Si1 0.335080 0.527284 0.963774
Si Si2 0.984203 0.332705 0.035528
Si Si3 0.861384 0.945007 0.172556
Si Si4 0.291878 0.874385 0.813158
Si Si5 0.550977 0.139982 0.292092
Si Si6 0.822232 0.895131 0.535307
Si Si7 0.290598 0.474491 0.320916
Si Si8 0.758613 0.396796 0.502255
O O1 0.182885 0.456382 0.715449
O O2 0.395577 0.604267 0.100328
O O3 0.129699 0.256907 0.105231
O O4 0.613430 0.765449 0.967574
O O5 0.841881 0.225768 0.107535
O O6 0.169575 0.431198 0.235133
O O7 0.205579 0.608308 0.848025
O O8 0.731269 0.087140 0.894455
O O9 0.979093 0.988434 0.242655
O O10 0.749559 0.808770 0.391744
O O11 0.029977 0.613289 0.695319
O O12 0.499592 0.139008 0.615045
O O13 0.500000 0.000000 0.000000
O O14 0.656004 0.266935 0.404831
O O15 0.500000 0.000000 0.500000
O O16 0.539502 0.652698 0.529165
O O17 0.019930 0.159925 0.393930
#
# Coordination Sequence:
#
# PCOD9072270 Si02
#       8
#     2   2   2   2   2   2   2   2
#     4  10  19  33  58  89 124 162 207 265 310 372
#     4  12  25  45  66  97 129 172 214 271 327 382
#     4   9  17  29  50  86 130 164 199 250 318 374
#     4  12  28  48  68  92 132 171 218 272 326 393
#     4  12  26  44  70  98 126 162 217 271 332 393
#     4   9  17  29  50  86 128 168 198 248 318 376
#     4  10  19  33  58  87 126 163 208 262 310 372
#     4  12  25  45  70  97 127 172 216 269 330 383
#
# _framework density 21.967760999999999
#
# number of rings (size 3 to 8) (size 9 to 14) (size 15 to 20)
#    0.000    1.250    1.250    5.250    3.500    5.000 
#    0.000    0.000    0.000    0.000    0.000   17.500 
#    0.000    0.000    0.000    0.000    0.000    0.000 
#
# Total GULP energy -89282.734907 kJ/mol
# GULP energy per Si atom -5580.170932 kJ/mol
# Density = 2.191776 g / cm^3
# Si number density = 21.967761 Si / 1000 Ang^3
#
#
#
# Elastic Constant Matrix: (Units=GPa)
#
#
# Indices 1 2 3 4 5 6 
#
# 1 145.6534 34.5985 55.5824 5.7146 34.4113 27.6512
# 2 34.5985 103.3623 18.7930 12.2651 10.8155 15.4749
# 3 55.5824 18.7930 61.6534 6.0778 21.9192 3.2985
# 4 5.7146 12.2651 6.0778 47.8327 6.1827 10.5708
# 5 34.4113 10.8155 21.9192 6.1827 29.7954 1.7394
# 6 27.6512 15.4749 3.2985 10.5708 1.7394 40.9567
#
#
#
# Elastic Compliance Matrix: (Units=1/GPa)
#
#
# Indices 1 2 3 4 5 6 
#
# 1 0.014483 -0.001197 -0.009046 0.002961 -0.009730 -0.008949
# 2 -0.001197 0.011093 -0.001663 -0.001766 -0.000894 -0.002756
# 3 -0.009046 -0.001663 0.028203 -0.002029 -0.009590 0.005396
# 4 0.002961 -0.001766 -0.002029 0.023556 -0.005765 -0.007004
# 5 -0.009730 -0.000894 -0.009590 -0.005765 0.052971 0.006917
# 6 -0.008949 -0.002756 0.005396 -0.007004 0.006917 0.032578
#
#
# Mechanical properties :
#
#
# Convention : Reuss Voigt Hill
#
# Bulk Modulus (GPa) = 33.37003 58.73521 46.05262
# Shear Modulus (GPa) = 25.42109 37.16332 31.29220
#
# Velocity S-wave (km/s) = 3.40545 4.11752 3.77830
# Velocity P-wave (km/s) = 5.53952 7.02853 6.32798
#
# Compressibility (1/GPa) = 0.02996701
#
# Stress axis : x y z
#
# Youngs Moduli (GPa) = 69.04456 90.14416 35.45704
#
# Poissons Ratio (x) = 0.10789 0.32076
# Poissons Ratio (y) = 0.08263 0.05897
# Poissons Ratio (z) = 0.62460 0.14993
#
# Static dielectric constant tensor:
#      x y z
#    x 1.795250 0.006780 0.005540 
#    y 0.006780 1.877720 0.023330 
#    z 0.005540 0.023330 1.849660 
# 
# From -- ./inp_files/357995.got.cif
#   From: 2010.05.17/outbox.ucp.g08.bks.cvg/sg2_179_cif.got.tgz:357995.got - 2010.06.11 11:32:03.
