data_PCOD9072416
_publ_section_title
;
Structure prediction by ZEFSAII (Michael W. Deem and Ramdas Pophale) SiO2 
 PCOD9072416
Probable space group: P -1
;
_chemical_formula_sum "Si O2"
_cell_formula_units_Z 16
_cell_length_a 5.656636
_cell_length_b 17.157940
_cell_length_c 7.447364
_cell_angle_alpha 69.573152
_cell_angle_beta 63.247017
_cell_angle_gamma 98.692792
_cell_volume 562.323300
_symmetry_space_group_name_H-M "P -1"
_symmetry_group_IT_number 2
_symmetry_cell_setting 'triclinic'
loop_
_space_group_symop_operation_xyz
x,y,z
-x,-y,-z
loop_
_atom_site_type_symbol
_atom_site_label
_atom_site_fract_x
_atom_site_fract_y
_atom_site_fract_z
Si Si1 0.213737 0.603642 0.351792
Si Si2 0.260880 0.420645 0.884376
Si Si3 0.161323 0.308030 0.691909
Si Si4 0.743796 0.132114 0.632820
Si Si5 0.682093 0.381435 0.272138
Si Si6 0.047788 0.168241 0.150873
Si Si7 0.590631 0.929874 0.703179
Si Si8 0.852707 0.912784 0.242453
O O1 0.474095 0.605853 0.131322
O O2 0.241429 0.617204 0.545503
O O3 0.000000 0.500000 0.500000
O O4 0.140925 0.690268 0.255952
O O5 0.273319 0.406395 0.676694
O O6 0.315158 0.520158 0.850696
O O7 0.933128 0.366393 0.091200
O O8 0.356481 0.314079 0.447516
O O9 0.172022 0.246232 0.901951
O O10 0.951480 0.190293 0.361259
O O11 0.444083 0.144146 0.707638
O O12 0.920359 0.134255 0.751902
O O13 0.653032 0.027442 0.686145
O O14 0.739389 0.112170 0.209364
O O15 0.268635 0.120668 0.168433
O O16 0.758230 0.934264 0.454521
O O17 0.000000 0.000000 0.000000
#
# Coordination Sequence:
#
# PCOD9072416 Si02
#       8
#     2   2   2   2   2   2   2   2
#     4  11  19  35  58  89 114 154 201 247 295 363
#     4  10  21  37  59  85 119 154 196 250 304 356
#     4  11  22  37  60  80 122 156 200 246 308 368
#     4  10  19  37  60  83 113 152 204 243 290 365
#     4  10  21  37  59  88 115 152 202 250 295 364
#     4  10  21  34  61  85 114 157 197 248 307 357
#     4  10  20  38  62  83 111 154 207 241 295 367
#     4  10  18  30  56  88 114 140 183 250 299 336
#
# _framework density 28.453382000000001
#
# number of rings (size 3 to 8) (size 9 to 14) (size 15 to 20)
#    0.000    1.750    2.500    4.875    3.500    1.500 
#    0.000    0.000   22.000    0.000    0.000    0.000 
#    0.000    0.000    0.000    0.000    0.000    0.000 
#
# Total GULP energy -89474.520160 kJ/mol
# GULP energy per Si atom -5592.157510 kJ/mol
# Density = 2.838862 g / cm^3
# Si number density = 28.453382 Si / 1000 Ang^3
#
#
#
# Elastic Constant Matrix: (Units=GPa)
#
#
# Indices 1 2 3 4 5 6 
#
# 1 192.8129 56.7859 65.2468 -9.8296 5.8740 -49.2392
# 2 56.7859 88.4317 54.2937 -5.1653 -1.3660 -38.2861
# 3 65.2468 54.2937 160.3723 13.9909 -5.0692 -36.2053
# 4 -9.8296 -5.1653 13.9909 53.7779 -4.7576 9.1354
# 5 5.8740 -1.3660 -5.0692 -4.7576 54.7214 -1.4872
# 6 -49.2392 -38.2861 -36.2053 9.1354 -1.4872 68.9346
#
#
#
# Elastic Compliance Matrix: (Units=1/GPa)
#
#
# Indices 1 2 3 4 5 6 
#
# 1 0.007233 -0.002381 -0.001600 0.000951 -0.000824 0.002860
# 2 -0.002381 0.017893 -0.003810 0.001298 0.000627 0.006077
# 3 -0.001600 -0.003810 0.008899 -0.003230 0.000671 0.001857
# 4 0.000951 0.001298 -0.003230 0.020354 0.001320 -0.002965
# 5 -0.000824 0.000627 0.000671 0.001320 0.018565 0.000338
# 6 0.002860 0.006077 0.001857 -0.002965 0.000338 0.021300
#
#
# Mechanical properties :
#
#
# Convention : Reuss Voigt Hill
#
# Bulk Modulus (GPa) = 54.22481 88.25218 71.23849
# Shear Modulus (GPa) = 43.11307 53.17282 48.14294
#
# Velocity S-wave (km/s) = 3.89680 4.32762 4.11785
# Velocity P-wave (km/s) = 6.27260 7.48697 6.90653
#
# Compressibility (1/GPa) = 0.01844174
#
# Stress axis : x y z
#
# Youngs Moduli (GPa) = 138.25533 55.88668 112.37780
#
# Poissons Ratio (x) = 0.13309 0.17979
# Poissons Ratio (y) = 0.32925 0.42819
# Poissons Ratio (z) = 0.22119 0.21294
#
# Static dielectric constant tensor:
#      x y z
#    x 2.735780 -0.097610 -0.022440 
#    y -0.097610 2.371930 -0.199600 
#    z -0.022440 -0.199600 2.354790 
# 
# From -- ./inp_files/55464.got.cif
#   From: 2010.05.17/outbox.cif.g08.bks.cpg/sg2_28_cif.got.tgz:55464.got - 2010.06.03 11:33:40.
