data_PCOD9072871
_publ_section_title
;
Structure prediction by ZEFSAII (Michael W. Deem and Ramdas Pophale) SiO2 
 PCOD9072871
Probable space group: P -1
;
_chemical_formula_sum "Si O2"
_cell_formula_units_Z 16
_cell_length_a 30.000000
_cell_length_b 18.000000
_cell_length_c 12.000000
_cell_angle_alpha 20.000000
_cell_angle_beta 150.000000
_cell_angle_gamma 160.000000
_cell_volume 749.971719
_symmetry_space_group_name_H-M "P -1"
_symmetry_group_IT_number 2
_symmetry_cell_setting 'triclinic'
loop_
_space_group_symop_operation_xyz
x,y,z
-x,-y,-z
loop_
_atom_site_type_symbol
_atom_site_label
_atom_site_fract_x
_atom_site_fract_y
_atom_site_fract_z
Si Si1 0.585950 0.616853 0.803157
Si Si2 0.046930 0.936360 0.532369
Si Si3 0.344109 0.797854 0.792594
Si Si4 0.297904 0.112246 0.556564
Si Si5 0.427550 0.613918 0.684227
Si Si6 0.198298 0.479331 0.271616
Si Si7 0.665141 0.647474 0.466505
Si Si8 0.906627 0.906502 0.833889
O O1 0.437154 0.445211 0.712862
O O2 0.670988 0.981159 0.510690
O O3 0.630729 0.653632 0.723368
O O4 0.597994 0.437498 0.165667
O O5 0.105607 0.233332 0.317292
O O6 0.181637 0.034291 0.680335
O O7 0.023760 0.964771 0.316114
O O8 0.907927 0.620414 0.728546
O O9 0.465638 0.035171 0.635153
O O10 0.359696 0.651600 0.134124
O O11 0.216997 0.476744 0.907871
O O12 0.360865 0.287945 0.562574
O O13 0.154174 0.965730 0.454732
O O14 0.287885 0.836569 0.920438
O O15 0.289932 0.447791 0.562946
O O16 0.500000 0.500000 0.000000
O O17 0.000000 0.000000 0.000000
#
# Coordination Sequence:
#
# PCOD9072871 Si02
#       8
#     2   2   2   2   2   2   2   2
#     4  11  20  36  62  93 120 157 208 257 301 356
#     4   9  21  39  65  86 121 168 206 248 302 360
#     4   9  19  39  61  86 115 165 203 243 310 362
#     4  10  22  38  60  91 120 165 206 249 307 363
#     4  10  22  37  60  93 125 153 198 262 313 346
#     4  11  21  41  64  93 122 158 218 251 293 373
#     4  10  20  38  61  87 126 160 201 246 310 375
#     4  10  23  43  61  88 131 163 202 253 311 370
#
# _framework density 21.334137999999999
#
# number of rings (size 3 to 8) (size 9 to 14) (size 15 to 20)
#    0.000    2.250    0.000    4.500    1.750    3.000 
#   13.500    4.375    0.000    0.000    0.000    0.000 
#    0.000    0.000    0.000    0.000    0.000    0.000 
#
# Total GULP energy -89113.725686 kJ/mol
# GULP energy per Si atom -5569.607855 kJ/mol
# Density = 2.128558 g / cm^3
# Si number density = 21.334138 Si / 1000 Ang^3
#
#
#
# Elastic Constant Matrix: (Units=GPa)
#
#
# Indices 1 2 3 4 5 6 
#
# 1 99.0481 24.2815 13.1923 9.8685 -16.4271 6.8954
# 2 24.2815 73.8278 11.6829 33.0827 -7.9175 -8.1707
# 3 13.1923 11.6829 39.0791 27.2601 -5.1962 -1.0397
# 4 9.8685 33.0827 27.2601 31.7343 -8.0124 -13.5946
# 5 -16.4271 -7.9175 -5.1962 -8.0124 31.7262 -5.3118
# 6 6.8954 -8.1707 -1.0397 -13.5946 -5.3118 30.9602
#
#
#
# Elastic Compliance Matrix: (Units=1/GPa)
#
#
# Indices 1 2 3 4 5 6 
#
# 1 0.003243 0.044068 0.085912 -0.149599 -0.020305 -0.055380
# 2 0.044068 -0.234766 -0.470121 0.789510 0.133848 0.282077
# 3 0.085912 -0.470121 -0.841658 1.469935 0.246993 0.516354
# 4 -0.149599 0.789510 1.469935 -2.485191 -0.413154 -0.871087
# 5 -0.020305 0.133848 0.246993 -0.413154 -0.032733 -0.138891
# 6 -0.055380 0.282077 0.516354 -0.871087 -0.138891 -0.269906
#
#
# Mechanical properties :
#
#
# Convention : Reuss Voigt Hill
#
# Bulk Modulus (GPa) = -0.57030 34.47427 16.95199
# Shear Modulus (GPa) = -1.32794 29.73737 14.20471
#
# Velocity S-wave (km/s) = -0.78981 3.73753 2.58315
# Velocity P-wave (km/s) = 1.04863 5.90083 4.10610
#
# Compressibility (1/GPa) = -1.75346245
#
# Stress axis : x y z
#
# Youngs Moduli (GPa) = 308.35245 -4.25955 -1.18813
#
# Poissons Ratio (x) = 0.18771 0.10207
# Poissons Ratio (y) = -13.58847 -0.55857
# Poissons Ratio (z) = -26.49121 -2.00250
#
# Static dielectric constant tensor:
#      x y z
#    x 1.938130 0.028350 0.015020 
#    y 0.028350 1.764810 0.006500 
#    z 0.015020 0.006500 1.742210 
# 
# From -- ./inp_files/477713.got.cif
#   From: 2010.05.17/outbox.ucp.g08.bks.cvg/sg2_239_cif.got.tgz:477713.got - 2010.06.11 11:32:03.
