data_PCOD9072719
_publ_section_title
;
Structure prediction by ZEFSAII (Michael W. Deem and Ramdas Pophale) SiO2 
 PCOD9072719
Probable space group: P -1
;
_chemical_formula_sum "Si O2"
_cell_formula_units_Z 16
_cell_length_a 8.013077
_cell_length_b 12.151727
_cell_length_c 10.879174
_cell_angle_alpha 76.264479
_cell_angle_beta 100.345313
_cell_angle_gamma 49.450113
_cell_volume 697.304063
_symmetry_space_group_name_H-M "P -1"
_symmetry_group_IT_number 2
_symmetry_cell_setting 'triclinic'
loop_
_space_group_symop_operation_xyz
x,y,z
-x,-y,-z
loop_
_atom_site_type_symbol
_atom_site_label
_atom_site_fract_x
_atom_site_fract_y
_atom_site_fract_z
Si Si1 0.820573 0.724589 0.261224
Si Si2 0.630503 0.071632 0.112938
Si Si3 0.763760 0.073984 0.873947
Si Si4 0.534596 0.856761 0.435382
Si Si5 0.744084 0.403998 0.478310
Si Si6 0.106859 0.901971 0.354553
Si Si7 0.953014 0.426246 0.279900
Si Si8 0.225446 0.171436 0.189414
O O1 0.744664 0.887950 0.165230
O O2 0.617091 0.786670 0.321619
O O3 0.244899 0.537661 0.665749
O O4 0.893201 0.586917 0.219484
O O5 0.823654 0.047028 0.232237
O O6 0.370649 0.183110 0.115266
O O7 0.591827 0.134601 0.952974
O O8 0.834161 0.918845 0.860807
O O9 0.756726 0.173334 0.740638
O O10 0.000000 0.000000 0.000000
O O11 0.068392 0.621002 0.401897
O O12 0.780656 0.713171 0.579724
O O13 0.438775 0.030290 0.353512
O O14 0.287726 0.910350 0.431956
O O15 0.500000 0.500000 0.500000
O O16 0.865887 0.221136 0.526421
O O17 0.998173 0.337689 0.183602
#
# Coordination Sequence:
#
# PCOD9072719 Si02
#       8
#     2   2   2   2   2   2   2   2
#     4   9  18  31  50  73 100 139 176 197 241 310
#     4   9  18  34  55  75  97 131 178 217 248 296
#     4   9  18  35  55  73  96 130 172 220 257 296
#     4   9  17  32  50  71 104 142 168 197 244 304
#     4  10  18  31  50  74 103 141 173 199 243 309
#     4   9  17  30  52  78  96 126 178 211 238 292
#     4  11  20  32  49  76 112 138 161 208 253 297
#     4  10  20  33  51  78 103 131 170 213 258 298
#
# _framework density 22.945513999999999
#
# number of rings (size 3 to 8) (size 9 to 14) (size 15 to 20)
#    0.000    2.500    0.000    4.500    0.000    0.000 
#    0.000   11.250    0.000    0.000    0.000   21.875 
#    0.000    0.000    0.000    0.000    0.000    0.000 
#
# Total GULP energy -89092.455041 kJ/mol
# GULP energy per Si atom -5568.278440 kJ/mol
# Density = 2.289329 g / cm^3
# Si number density = 22.945514 Si / 1000 Ang^3
#
#
#
# Elastic Constant Matrix: (Units=GPa)
#
#
# Indices 1 2 3 4 5 6 
#
# 1 103.0897 32.3769 9.6903 10.2337 -14.7361 -2.5338
# 2 32.3769 93.9735 11.6286 18.2322 -0.6252 -19.6868
# 3 9.6903 11.6286 50.7559 2.0462 -11.4544 -1.4757
# 4 10.2337 18.2322 2.0462 19.1380 -1.9529 -2.9233
# 5 -14.7361 -0.6252 -11.4544 -1.9529 22.0031 0.9465
# 6 -2.5338 -19.6868 -1.4757 -2.9233 0.9465 17.1337
#
#
#
# Elastic Compliance Matrix: (Units=1/GPa)
#
#
# Indices 1 2 3 4 5 6 
#
# 1 0.012483 -0.004903 0.000619 -0.001888 0.008570 -0.004530
# 2 -0.004903 0.019374 -0.003941 -0.013154 -0.006784 0.019327
# 3 0.000619 -0.003941 0.023188 0.001804 0.012656 -0.002832
# 4 -0.001888 -0.013154 0.001804 0.065475 0.005300 -0.004359
# 5 0.008570 -0.006784 0.012656 0.005300 0.058388 -0.007759
# 6 -0.004530 0.019327 -0.002832 -0.004359 -0.007759 0.079343
#
#
# Mechanical properties :
#
#
# Convention : Reuss Voigt Hill
#
# Bulk Modulus (GPa) = 25.91123 39.46784 32.68954
# Shear Modulus (GPa) = 17.38726 24.59652 20.99189
#
# Velocity S-wave (km/s) = 2.75574 3.27762 3.02794
# Velocity P-wave (km/s) = 4.63060 5.61799 5.14802
#
# Compressibility (1/GPa) = 0.03859331
#
# Stress axis : x y z
#
# Youngs Moduli (GPa) = 80.10771 51.61524 43.12558
#
# Poissons Ratio (x) = 0.25308 -0.02668
# Poissons Ratio (y) = 0.39278 0.16998
# Poissons Ratio (z) = -0.04956 0.20344
#
# Static dielectric constant tensor:
#      x y z
#    x 1.710460 0.055400 -0.417740 
#    y 0.055400 1.847700 0.142270 
#    z -0.417740 0.142270 1.163990 
# 
# From -- ./inp_files/344370.got.cif
#   From: 2010.05.17/outbox.cif.g08.bks.cpg/sg2_173_cif.got.tgz:344370.got - 2010.06.03 11:33:40.
