data_PCOD9072075
_publ_section_title
;
Structure prediction by ZEFSAII (Michael W. Deem and Ramdas Pophale) SiO2 
 PCOD9072075
Probable space group: P -1
;
_chemical_formula_sum "Si O2"
_cell_formula_units_Z 12
_cell_length_a 15.000000
_cell_length_b 9.000000
_cell_length_c 27.000000
_cell_angle_alpha 30.000000
_cell_angle_beta 160.000000
_cell_angle_gamma 140.000000
_cell_volume 598.536002
_symmetry_space_group_name_H-M "P -1"
_symmetry_group_IT_number 2
_symmetry_cell_setting 'triclinic'
loop_
_space_group_symop_operation_xyz
x,y,z
-x,-y,-z
loop_
_atom_site_type_symbol
_atom_site_label
_atom_site_fract_x
_atom_site_fract_y
_atom_site_fract_z
Si Si1 0.910324 0.706771 0.516876
Si Si2 0.846873 0.566092 0.186168
Si Si3 0.713638 0.087372 0.883080
Si Si4 0.141175 0.427826 0.977141
Si Si5 0.240618 0.828409 0.826853
Si Si6 0.601521 0.688185 0.177368
O O1 0.608256 0.778310 0.318044
O O2 0.939959 0.477979 0.645950
O O3 0.140039 0.539879 0.646862
O O4 0.000000 0.000000 0.500000
O O5 0.903142 0.256473 0.271919
O O6 0.552297 0.611845 0.045248
O O7 0.825543 0.850028 0.055518
O O8 0.740991 0.875116 0.908768
O O9 0.884542 0.339573 0.893229
O O10 0.361022 0.518779 0.101982
O O11 0.097754 0.709501 0.833108
O O12 0.287768 0.162863 0.760952
O O13 0.500000 0.000000 0.000000
#
# Coordination Sequence:
#
# PCOD9072075 Si02
#       6
#     2   2   2   2   2   2
#     4  12  20  36  64  90 110 154 206 230 279 358
#     4  10  19  37  60  88 114 149 198 242 282 339
#     4  10  21  35  59  87 118 153 189 239 291 344
#     4   9  17  36  56  83 119 156 183 235 302 337
#     4   9  17  34  60  80 112 158 189 230 290 340
#     4  10  18  35  62  86 114 159 190 235 295 341
#
# _framework density 20.048919000000001
#
# number of rings (size 3 to 8) (size 9 to 14) (size 15 to 20)
#    0.000    2.000    5.000    2.000    0.000    0.000 
#    0.000   15.000    0.000    0.000    0.000    0.000 
#    0.000    0.000    0.000    0.000    0.000    0.000 
#
# Total GULP energy -66860.762002 kJ/mol
# GULP energy per Si atom -5571.730167 kJ/mol
# Density = 2.000329 g / cm^3
# Si number density = 20.048919 Si / 1000 Ang^3
#
#
#
# Elastic Constant Matrix: (Units=GPa)
#
#
# Indices 1 2 3 4 5 6 
#
# 1 75.0651 48.4515 35.3686 6.8738 -5.5538 9.4564
# 2 48.4515 168.1953 38.8503 16.5375 10.2348 17.3657
# 3 35.3686 38.8503 78.8396 4.0943 2.9671 2.5073
# 4 6.8738 16.5375 4.0943 20.3129 -0.1402 8.7419
# 5 -5.5538 10.2348 2.9671 -0.1402 32.4902 0.0720
# 6 9.4564 17.3657 2.5073 8.7419 0.0720 39.5248
#
#
#
# Elastic Compliance Matrix: (Units=1/GPa)
#
#
# Indices 1 2 3 4 5 6 
#
# 1 0.020108 -0.004156 -0.007051 -0.000957 0.005392 -0.002335
# 2 -0.004156 0.008359 -0.001857 -0.004362 -0.003189 -0.001590
# 3 -0.007051 -0.001857 0.016804 -0.000137 -0.002159 0.001471
# 4 -0.000957 -0.004362 -0.000137 0.057710 0.001496 -0.010613
# 5 0.005392 -0.003189 -0.002159 0.001496 0.032909 -0.000142
# 6 -0.002335 -0.001590 0.001471 -0.010613 -0.000142 0.028812
#
#
# Mechanical properties :
#
#
# Convention : Reuss Voigt Hill
#
# Bulk Modulus (GPa) = 52.24516 63.04894 57.64705
# Shear Modulus (GPa) = 25.35339 31.76089 28.55714
#
# Velocity S-wave (km/s) = 3.55995 3.98448 3.77818
# Velocity P-wave (km/s) = 6.55843 7.25837 6.91726
#
# Compressibility (1/GPa) = 0.01914053
#
# Stress axis : x y z
#
# Youngs Moduli (GPa) = 49.73208 119.63234 59.50925
#
# Poissons Ratio (x) = 0.49725 0.41962
# Poissons Ratio (y) = 0.20671 0.11053
# Poissons Ratio (z) = 0.35068 0.22219
#
# Static dielectric constant tensor:
#      x y z
#    x 1.789620 -0.060670 -0.045470 
#    y -0.060670 1.739420 -0.021750 
#    z -0.045470 -0.021750 1.745290 
# 
# From -- ./inp_files/204926.got.cif
#   From: 2010.05.17/outbox.ucp.g08.bks.cvg/sg2_103_cif.got.tgz:204926.got - 2010.06.11 11:32:03.
