data_PCOD9072904
_publ_section_title
;
Structure prediction by ZEFSAII (Michael W. Deem and Ramdas Pophale) SiO2 
 PCOD9072904
Probable space group: P -1
;
_chemical_formula_sum "Si O2"
_cell_formula_units_Z 14
_cell_length_a 12.000000
_cell_length_b 15.000000
_cell_length_c 30.000000
_cell_angle_alpha 20.000000
_cell_angle_beta 160.000000
_cell_angle_gamma 150.000000
_cell_volume 624.976433
_symmetry_space_group_name_H-M "P -1"
_symmetry_group_IT_number 2
_symmetry_cell_setting 'triclinic'
loop_
_space_group_symop_operation_xyz
x,y,z
-x,-y,-z
loop_
_atom_site_type_symbol
_atom_site_label
_atom_site_fract_x
_atom_site_fract_y
_atom_site_fract_z
Si Si1 0.153170 0.553614 0.281471
Si Si2 0.677809 0.897533 0.688595
Si Si3 0.833833 0.678440 0.007897
Si Si4 0.818264 0.158171 0.710427
Si Si5 0.982709 0.839680 0.735107
Si Si6 0.218593 0.553895 0.722648
Si Si7 0.364561 0.036110 0.715585
O O1 0.446369 0.306282 0.510367
O O2 0.336226 0.796455 0.251537
O O3 0.059282 0.604219 0.170956
O O4 0.850903 0.539808 0.208880
O O5 0.922744 0.837943 0.766280
O O6 0.546318 0.650372 0.780591
O O7 0.816654 0.060614 0.704335
O O8 0.357487 0.055829 0.468333
O O9 0.884206 0.439940 0.104660
O O10 0.897052 0.918943 0.886887
O O11 0.483571 0.776420 0.853907
O O12 0.073774 0.357289 0.725956
O O13 0.250175 0.011460 0.735308
O O14 0.953473 0.817234 0.497110
#
# Coordination Sequence:
#
# PCOD9072904 Si02
#       7
#     2   2   2   2   2   2   2
#     4  11  21  41  64  96 131 161 206 265 322 370
#     4  10  23  45  64  89 132 173 211 260 305 379
#     4  12  22  38  67  98 125 163 210 262 323 371
#     4  11  22  42  66  96 129 164 213 258 317 376
#     4  10  23  42  62  94 126 168 220 251 314 382
#     4  10  21  41  67  94 128 168 207 259 320 377
#     4  10  20  38  64  93 129 160 206 267 314 370
#
# _framework density 22.400845
#
# number of rings (size 3 to 8) (size 9 to 14) (size 15 to 20)
#    0.000    1.429    4.286    1.714    0.000    3.429 
#    2.571    3.571    0.000    0.000    0.000    0.000 
#    0.000    0.000    0.000    0.000    0.000    0.000 
#
# Total GULP energy -78171.831793 kJ/mol
# GULP energy per Si atom -5583.702271 kJ/mol
# Density = 2.234986 g / cm^3
# Si number density = 22.400845 Si / 1000 Ang^3
#
#
#
# Elastic Constant Matrix: (Units=GPa)
#
#
# Indices 1 2 3 4 5 6 
#
# 1 221.9607 50.4237 20.4201 -15.7321 7.8255 -13.3828
# 2 50.4237 40.0244 20.5069 -16.4235 1.3047 -14.0791
# 3 20.4201 20.5069 73.6511 -15.5343 -7.9249 0.9404
# 4 -15.7321 -16.4235 -15.5343 19.0248 -6.3723 -4.4898
# 5 7.8255 1.3047 -7.9249 -6.3723 32.3992 0.6183
# 6 -13.3828 -14.0791 0.9404 -4.4898 0.6183 42.3938
#
#
#
# Elastic Compliance Matrix: (Units=1/GPa)
#
#
# Indices 1 2 3 4 5 6 
#
# 1 0.006635 -0.011355 -0.000085 -0.005663 -0.002237 -0.002242
# 2 -0.011355 0.077999 -0.004022 0.065186 0.010882 0.029154
# 3 -0.000085 -0.004022 0.018467 0.013936 0.007448 -0.000405
# 4 -0.005663 0.065186 0.013936 0.132611 0.027600 0.033194
# 5 -0.002237 0.010882 0.007448 0.027600 0.038120 0.005110
# 6 -0.002242 0.029154 -0.000405 0.033194 0.005110 0.036013
#
#
# Mechanical properties :
#
#
# Convention : Reuss Voigt Hill
#
# Bulk Modulus (GPa) = 13.85456 57.59307 35.72382
# Shear Modulus (GPa) = 13.70516 35.04926 24.37721
#
# Velocity S-wave (km/s) = 2.47617 3.95984 3.30241
# Velocity P-wave (km/s) = 3.79124 6.83178 5.52479
#
# Compressibility (1/GPa) = 0.07217840
#
# Stress axis : x y z
#
# Youngs Moduli (GPa) = 150.71687 12.82061 54.15153
#
# Poissons Ratio (x) = 0.14558 0.00458
# Poissons Ratio (y) = 1.71140 0.21778
# Poissons Ratio (z) = 0.01274 0.05156
#
# Static dielectric constant tensor:
#      x y z
#    x 1.816310 0.035360 -0.024310 
#    y 0.035360 1.866960 -0.037710 
#    z -0.024310 -0.037710 1.908600 
# 
# From -- ./inp_files/239192.got.cif
#   From: 2010.05.17/outbox.ucp.g08.bks.cvg/sg2_120_cif.got.tgz:239192.got - 2010.06.11 11:32:03.
