data_PCOD9072233
_publ_section_title
;
Structure prediction by ZEFSAII (Michael W. Deem and Ramdas Pophale) SiO2 
 PCOD9072233
Probable space group: P -1
;
_chemical_formula_sum "Si O2"
_cell_formula_units_Z 14
_cell_length_a 8.483815
_cell_length_b 13.554447
_cell_length_c 9.104916
_cell_angle_alpha 150.423274
_cell_angle_beta 107.148835
_cell_angle_gamma 69.792178
_cell_volume 484.944474
_symmetry_space_group_name_H-M "P -1"
_symmetry_group_IT_number 2
_symmetry_cell_setting 'triclinic'
loop_
_space_group_symop_operation_xyz
x,y,z
-x,-y,-z
loop_
_atom_site_type_symbol
_atom_site_label
_atom_site_fract_x
_atom_site_fract_y
_atom_site_fract_z
Si Si1 0.707317 0.148134 0.850772
Si Si2 0.367582 0.306992 0.073132
Si Si3 0.056309 0.272062 0.623560
Si Si4 0.958823 0.232967 0.237617
Si Si5 0.494900 0.710446 0.579197
Si Si6 0.814180 0.962022 0.197529
Si Si7 0.307758 0.503055 0.903957
O O1 0.789227 0.917992 0.596915
O O2 0.511050 0.175423 0.843785
O O3 0.754578 0.270467 0.882846
O O4 0.775858 0.267955 0.161469
O O5 0.383984 0.532611 0.324049
O O6 0.427934 0.285752 0.232626
O O7 0.218104 0.180182 0.860268
O O8 0.981612 0.351385 0.544114
O O9 0.168809 0.447566 0.908875
O O10 0.926039 0.135694 0.474101
O O11 0.088189 0.211291 0.111423
O O12 0.000000 0.000000 0.000000
O O13 0.360186 0.908540 0.748986
O O14 0.645746 0.648491 0.421362
O O15 0.500000 0.500000 0.000000
#
# Coordination Sequence:
#
# PCOD9072233 Si02
#       7
#     2   2   2   2   2   2   2
#     4   9  19  36  58  83 110 137 173 222 270 328
#     4  10  18  30  53  85 110 135 170 214 280 330
#     4  10  20  35  56  82 110 141 176 222 276 319
#     4   8  16  31  53  84 111 134 166 214 280 330
#     4  10  20  33  53  79 110 142 174 220 266 314
#     4  10  18  30  53  81 109 133 163 219 279 326
#     4  11  24  39  55  75 105 152 195 217 249 313
#
# _framework density 28.869285000000001
#
# number of rings (size 3 to 8) (size 9 to 14) (size 15 to 20)
#    0.000    2.571    0.000    4.714    0.000    3.429 
#    0.000    0.714    0.000    7.714    0.000    0.000 
#    0.000    0.000    0.000    0.000    0.000    0.000 
#
# Total GULP energy -78202.981534 kJ/mol
# GULP energy per Si atom -5585.927252 kJ/mol
# Density = 2.880358 g / cm^3
# Si number density = 28.869285 Si / 1000 Ang^3
#
#
#
# Elastic Constant Matrix: (Units=GPa)
#
#
# Indices 1 2 3 4 5 6 
#
# 1 124.9592 10.8427 0.8449 5.6748 52.6598 45.0407
# 2 10.8427 78.4310 28.1482 8.7421 29.7412 20.3343
# 3 0.8449 28.1482 99.0194 4.7014 48.7559 12.9710
# 4 5.6748 8.7421 4.7014 62.7511 12.6201 11.2768
# 5 52.6598 29.7412 48.7559 12.6201 57.1462 7.6804
# 6 45.0407 20.3343 12.9710 11.2768 7.6804 48.0657
#
#
#
# Elastic Compliance Matrix: (Units=1/GPa)
#
#
# Indices 1 2 3 4 5 6 
#
# 1 -0.051070 -0.026456 -0.046652 -0.018505 0.096581 0.060547
# 2 -0.026456 0.003762 -0.024291 -0.009254 0.041796 0.025247
# 3 -0.046652 -0.024291 -0.024632 -0.014621 0.072828 0.052432
# 4 -0.018505 -0.009254 -0.014621 0.010829 0.029540 0.017940
# 5 0.096581 0.041796 0.072828 0.029540 -0.146954 -0.111287
# 6 0.060547 0.025247 0.052432 0.017940 -0.111287 -0.047188
#
#
# Mechanical properties :
#
#
# Convention : Reuss Voigt Hill
#
# Bulk Modulus (GPa) = -3.74901 42.45346 19.35223
# Shear Modulus (GPa) = -33.47430 51.09752 8.81161
#
# Velocity S-wave (km/s) = -3.40886 4.21166 1.74896
# Velocity P-wave (km/s) = 4.09819 6.19581 3.28579
#
# Compressibility (1/GPa) = -0.26673718
#
# Stress axis : x y z
#
# Youngs Moduli (GPa) = -19.58078 265.80869 -40.59839
#
# Poissons Ratio (x) = 7.03213 -1.89398
# Poissons Ratio (y) = -0.51802 -0.98619
# Poissons Ratio (z) = -0.91348 6.45687
#
# Static dielectric constant tensor:
#      x y z
#    x 2.317180 0.028980 -0.033410 
#    y 0.028980 2.282260 -0.173820 
#    z -0.033410 -0.173820 2.366520 
# 
# From -- ./inp_files/400120.got.cif
#   From: 2010.05.17/outbox.cif.g08.bks.cpg/sg2_201_cif.got.tgz:400120.got - 2010.06.03 11:33:40.
