data_PCOD9072586
_publ_section_title
;
Structure prediction by ZEFSAII (Michael W. Deem and Ramdas Pophale) SiO2 
 PCOD9072586
Probable space group: P -1
;
_chemical_formula_sum "Si O2"
_cell_formula_units_Z 14
_cell_length_a 9.000000
_cell_length_b 9.000000
_cell_length_c 18.000000
_cell_angle_alpha 60.000000
_cell_angle_beta 50.000000
_cell_angle_gamma 100.000000
_cell_volume 643.920384
_symmetry_space_group_name_H-M "P -1"
_symmetry_group_IT_number 2
_symmetry_cell_setting 'triclinic'
loop_
_space_group_symop_operation_xyz
x,y,z
-x,-y,-z
loop_
_atom_site_type_symbol
_atom_site_label
_atom_site_fract_x
_atom_site_fract_y
_atom_site_fract_z
Si Si1 0.140761 0.475036 0.396734
Si Si2 0.708559 0.238813 0.198873
Si Si3 0.845438 0.198940 0.320271
Si Si4 0.272684 0.000679 0.868244
Si Si5 0.719722 0.808865 0.552428
Si Si6 0.830568 0.711994 0.213270
Si Si7 0.179154 0.695662 0.180589
O O1 0.485606 0.739161 0.228142
O O2 0.105957 0.245915 0.464031
O O3 0.082489 0.521397 0.325453
O O4 0.000000 0.500000 0.500000
O O5 0.825189 0.195009 0.239006
O O6 0.480286 0.223320 0.313072
O O7 0.581068 0.042422 0.221129
O O8 0.000000 0.500000 0.000000
O O9 0.074487 0.497176 0.197867
O O10 0.500000 0.000000 0.500000
O O11 0.908654 0.069328 0.379614
O O12 0.143664 0.068016 0.843530
O O13 0.028097 0.786952 0.059431
O O14 0.485254 0.572483 0.629661
O O15 0.963194 0.712491 0.241685
O O16 0.500000 0.000000 0.000000
#
# Coordination Sequence:
#
# PCOD9072586 Si02
#       7
#     2   2   2   2   2   2   2
#     4  11  27  42  63  96 135 177 215 269 338 391
#     4  11  20  36  70  97 125 161 228 272 316 381
#     4  10  22  40  66  97 130 175 218 267 327 391
#     4  10  21  38  65  99 127 169 224 268 320 396
#     4  10  22  44  67  92 133 173 218 268 327 394
#     4  10  19  40  67  95 128 174 217 264 328 392
#     4  12  23  41  67  96 135 174 217 273 331 388
#
# _framework density 21.741817999999999
#
# number of rings (size 3 to 8) (size 9 to 14) (size 15 to 20)
#    0.000    1.429    5.714    0.000    4.000    1.714 
#    0.000    2.857    0.000    3.429    0.000    0.000 
#    0.000    0.000    0.000    0.000    0.000    0.000 
#
# Total GULP energy -77946.042726 kJ/mol
# GULP energy per Si atom -5567.574480 kJ/mol
# Density = 2.169233 g / cm^3
# Si number density = 21.741818 Si / 1000 Ang^3
#
#
#
# Elastic Constant Matrix: (Units=GPa)
#
#
# Indices 1 2 3 4 5 6 
#
# 1 119.2569 18.3439 21.2892 -2.9172 24.4134 -32.6074
# 2 18.3439 84.0108 16.1914 1.8870 7.1264 -17.6629
# 3 21.2892 16.1914 72.7619 -15.1611 14.1279 -9.7481
# 4 -2.9172 1.8870 -15.1611 42.7268 1.2921 -5.1045
# 5 24.4134 7.1264 14.1279 1.2921 34.8408 -13.6926
# 6 -32.6074 -17.6629 -9.7481 -5.1045 -13.6926 39.1165
#
#
#
# Elastic Compliance Matrix: (Units=1/GPa)
#
#
# Indices 1 2 3 4 5 6 
#
# 1 0.011810 -0.000328 -0.001083 0.001532 -0.004687 0.007986
# 2 -0.000328 0.013544 -0.002509 -0.000895 0.000596 0.005309
# 3 -0.001083 -0.002509 0.017180 0.006438 -0.005473 0.001170
# 4 0.001532 -0.000895 0.006438 0.026514 -0.002494 0.005065
# 5 -0.004687 0.000596 -0.005473 -0.002494 0.037200 0.007694
# 6 0.007986 0.005309 0.001170 0.005065 0.007694 0.038265
#
#
# Mechanical properties :
#
#
# Convention : Reuss Voigt Hill
#
# Bulk Modulus (GPa) = 28.82375 43.07539 35.94957
# Shear Modulus (GPa) = 30.50348 38.01717 34.26032
#
# Velocity S-wave (km/s) = 3.74971 4.18613 3.97392
# Velocity P-wave (km/s) = 5.65978 6.57420 6.13406
#
# Compressibility (1/GPa) = 0.03469361
#
# Stress axis : x y z
#
# Youngs Moduli (GPa) = 84.67756 73.83280 58.20870
#
# Poissons Ratio (x) = 0.02420 0.06305
# Poissons Ratio (y) = 0.02775 0.14604
# Poissons Ratio (z) = 0.09172 0.18524
#
# Static dielectric constant tensor:
#      x y z
#    x 2.204950 -0.207510 0.079680 
#    y -0.207510 2.061490 -0.148880 
#    z 0.079680 -0.148880 1.838730 
# 
# From -- ./inp_files/225671.got.cif
#   From: 2010.05.17/outbox.ucp.g08.bks.cvg/sg2_113_cif.got.tgz:225671.got - 2010.06.11 11:32:03.
