data_PCOD9072654
_publ_section_title
;
Structure prediction by ZEFSAII (Michael W. Deem and Ramdas Pophale) SiO2 
 PCOD9072654
Probable space group: P -1
;
_chemical_formula_sum "Si O2"
_cell_formula_units_Z 13
_cell_length_a 12.000000
_cell_length_b 12.000000
_cell_length_c 9.000000
_cell_angle_alpha 60.000000
_cell_angle_beta 40.000000
_cell_angle_gamma 40.000000
_cell_volume 523.519695
_symmetry_space_group_name_H-M "P -1"
_symmetry_group_IT_number 2
_symmetry_cell_setting 'triclinic'
loop_
_space_group_symop_operation_xyz
x,y,z
-x,-y,-z
loop_
_atom_site_type_symbol
_atom_site_label
_atom_site_fract_x
_atom_site_fract_y
_atom_site_fract_z
Si Si1 0.000000 0.500000 0.500000
Si Si2 0.417845 0.638027 0.264335
Si Si3 0.712903 0.776127 0.288363
Si Si4 0.100073 0.944154 0.161268
Si Si5 0.206021 0.153769 0.518387
Si Si6 0.136744 0.661970 0.799768
Si Si7 0.464662 0.353603 0.263394
O O1 0.106578 0.321096 0.411492
O O2 0.269512 0.420493 0.294437
O O3 0.270521 0.828934 0.209115
O O4 0.233788 0.660605 0.546375
O O5 0.658532 0.519478 0.197048
O O6 0.482011 0.494654 0.177055
O O7 0.840795 0.755254 0.329531
O O8 0.622478 0.680220 0.479753
O O9 0.486450 0.981737 0.350607
O O10 0.903162 0.694290 0.021134
O O11 0.928210 0.908543 0.341749
O O12 0.287737 0.838825 0.905851
O O13 0.957878 0.150907 0.162465
#
# Coordination Sequence:
#
# PCOD9072654 Si02
#       7
#     1   2   2   2   2   2   2
#     4  10  20  34  56  94 124 150 198 270 308 368
#     4  11  25  43  65  97 126 175 213 263 313 391
#     4  10  22  40  61  92 131 169 204 269 317 383
#     4  12  23  42  69  96 125 169 215 271 313 382
#     4  10  20  36  62  93 125 160 213 262 324 360
#     4  11  25  44  64  90 139 171 213 252 325 382
#     4  11  23  39  67  95 126 160 218 265 323 361
#
# _framework density 24.831921999999999
#
# number of rings (size 3 to 8) (size 9 to 14) (size 15 to 20)
#    0.000    1.231    1.538    5.538    4.308    2.462 
#    0.000    0.769    0.000    0.000    0.000    0.000 
#    0.000    0.000    0.000    0.000    0.000    0.000 
#
# Total GULP energy -72453.535031 kJ/mol
# GULP energy per Si atom -5573.348849 kJ/mol
# Density = 2.477540 g / cm^3
# Si number density = 24.831922 Si / 1000 Ang^3
#
#
#
# Elastic Constant Matrix: (Units=GPa)
#
#
# Indices 1 2 3 4 5 6 
#
# 1 31.9240 1.6018 5.8243 -3.9882 -0.5031 -5.8266
# 2 1.6018 37.4741 14.6204 -2.2240 9.5589 1.0816
# 3 5.8243 14.6204 125.9148 8.7422 -10.8922 -5.9847
# 4 -3.9882 -2.2240 8.7422 28.1460 7.3874 -3.1884
# 5 -0.5031 9.5589 -10.8922 7.3874 10.0418 -3.3717
# 6 -5.8266 1.0816 -5.9847 -3.1884 -3.3717 39.2072
#
#
#
# Elastic Compliance Matrix: (Units=1/GPa)
#
#
# Indices 1 2 3 4 5 6 
#
# 1 0.033489 0.002216 -0.002911 0.008524 -0.008367 0.004445
# 2 0.002216 0.074827 -0.024780 0.048711 -0.138348 -0.013454
# 3 -0.002911 -0.024780 0.018393 -0.023928 0.063194 0.006547
# 4 0.008524 0.048711 -0.023928 0.082623 -0.135589 -0.008670
# 5 -0.008367 -0.138348 0.063194 -0.135589 0.411432 0.036574
# 6 0.004445 -0.013454 0.006547 -0.008670 0.036574 0.029977
#
#
# Mechanical properties :
#
#
# Convention : Reuss Voigt Hill
#
# Bulk Modulus (GPa) = 13.19970 26.60064 19.90017
# Shear Modulus (GPa) = 6.87812 27.03011 16.95411
#
# Velocity S-wave (km/s) = 1.66610 3.30286 2.61579
# Velocity P-wave (km/s) = 3.00472 5.02799 4.14180
#
# Compressibility (1/GPa) = 0.07575932
#
# Stress axis : x y z
#
# Youngs Moduli (GPa) = 29.86094 13.36412 54.36902
#
# Poissons Ratio (x) = -0.02962 0.15825
# Poissons Ratio (y) = -0.06617 1.34727
# Poissons Ratio (z) = 0.08692 0.33116
#
# Static dielectric constant tensor:
#      x y z
#    x 2.172710 -0.450700 0.284470 
#    y -0.450700 2.904280 -0.546670 
#    z 0.284470 -0.546670 2.379690 
# 
# From -- ./inp_files/261884.got.cif
#   From: 2010.05.17/outbox.ucp.g08.bks.cvg/sg2_131_cif.got.tgz:261884.got - 2010.06.11 11:32:03.
