data_PCOD9072179
_publ_section_title
;
Structure prediction by ZEFSAII (Michael W. Deem and Ramdas Pophale) SiO2 
 PCOD9072179
Probable space group: P -1
;
_chemical_formula_sum "Si O2"
_cell_formula_units_Z 16
_cell_length_a 14.987878
_cell_length_b 8.182167
_cell_length_c 9.409072
_cell_angle_alpha 114.171293
_cell_angle_beta 70.391698
_cell_angle_gamma 130.967041
_cell_volume 791.097371
_symmetry_space_group_name_H-M "P -1"
_symmetry_group_IT_number 2
_symmetry_cell_setting 'triclinic'
loop_
_space_group_symop_operation_xyz
x,y,z
-x,-y,-z
loop_
_atom_site_type_symbol
_atom_site_label
_atom_site_fract_x
_atom_site_fract_y
_atom_site_fract_z
Si Si1 0.492753 0.176035 0.396312
Si Si2 0.860564 0.786525 0.684348
Si Si3 0.090743 0.430270 0.642765
Si Si4 0.655572 0.695093 0.584753
Si Si5 0.058423 0.252163 0.895200
Si Si6 0.336136 0.912715 0.655839
Si Si7 0.211066 0.099988 0.715939
Si Si8 0.968194 0.629092 0.737188
O O1 0.573431 0.425203 0.513459
O O2 0.421612 0.210764 0.329918
O O3 0.577685 0.103655 0.293481
O O4 0.400657 0.998013 0.499201
O O5 0.911268 0.763406 0.500811
O O6 0.743172 0.755296 0.689000
O O7 0.857534 0.600268 0.712595
O O8 0.946640 0.012749 0.808383
O O9 0.088559 0.415719 0.807908
O O10 0.215354 0.663274 0.621268
O O11 0.983672 0.434784 0.651137
O O12 0.728603 0.799757 0.434090
O O13 0.168010 0.239705 0.850815
O O14 0.029596 0.312334 0.078910
O O15 0.296247 0.073310 0.758078
O O16 0.087224 0.849875 0.683145
#
# Coordination Sequence:
#
# PCOD9072179 Si02
#       8
#     2   2   2   2   2   2   2   2
#     4   9  17  31  48  76 114 129 171 223 288 303
#     4  11  20  34  52  82 109 142 176 220 261 310
#     4  11  20  35  55  80 108 143 180 218 264 308
#     4  10  18  30  52  79 105 139 172 227 267 312
#     4  11  21  36  53  77 114 148 178 204 259 329
#     4   9  17  30  50  77 107 136 168 225 269 314
#     4   9  17  30  50  74 104 138 176 204 261 311
#     4  10  23  35  51  78 115 148 173 212 258 324
#
# _framework density 20.225072000000001
#
# number of rings (size 3 to 8) (size 9 to 14) (size 15 to 20)
#    0.000    2.000    2.500    2.625    1.750    0.000 
#    2.250    0.000    0.000    0.000    0.000   64.750 
#    0.000    0.000    0.000    0.000    0.000    0.000 
#
# Total GULP energy -89140.406480 kJ/mol
# GULP energy per Si atom -5571.275405 kJ/mol
# Density = 2.017904 g / cm^3
# Si number density = 20.225072 Si / 1000 Ang^3
#
#
#
# Elastic Constant Matrix: (Units=GPa)
#
#
# Indices 1 2 3 4 5 6 
#
# 1 207.2554 1.2305 33.5913 15.6588 7.9645 -29.2067
# 2 1.2305 -6.5183 78.5434 14.5732 20.5212 -36.5074
# 3 33.5913 78.5434 23.3425 -26.1343 0.9253 28.3148
# 4 15.6588 14.5732 -26.1343 -0.5529 -11.7575 11.9836
# 5 7.9645 20.5212 0.9253 -11.7575 15.9947 4.8167
# 6 -29.2067 -36.5074 28.3148 11.9836 4.8167 11.2035
#
#
#
# Elastic Compliance Matrix: (Units=1/GPa)
#
#
# Indices 1 2 3 4 5 6 
#
# 1 0.005279 -0.005081 0.001378 -0.006293 -0.001093 0.000923
# 2 -0.005081 0.021215 -0.001014 0.052404 0.015129 -0.004110
# 3 0.001378 -0.001014 0.011788 -0.024367 -0.019461 0.004924
# 4 -0.006293 0.052404 -0.024367 0.158394 0.045643 0.026893
# 5 -0.001093 0.015129 -0.019461 0.045643 0.073787 0.015090
# 6 0.000923 -0.004110 0.004924 0.026893 0.015090 0.030575
#
#
# Mechanical properties :
#
#
# Convention : Reuss Voigt Hill
#
# Bulk Modulus (GPa) = 34.66537 50.09001 42.37769
# Shear Modulus (GPa) = 15.62053 12.71001 14.16527
#
# Velocity S-wave (km/s) = 2.78211 2.50957 2.64934
# Velocity P-wave (km/s) = 5.24377 5.76344 5.50974
#
# Compressibility (1/GPa) = 0.02884723
#
# Stress axis : x y z
#
# Youngs Moduli (GPa) = 189.41569 47.13628 84.82850
#
# Poissons Ratio (x) = 0.23952 -0.11690
# Poissons Ratio (y) = 0.96251 0.08606
# Poissons Ratio (z) = -0.26103 0.04782
#
# Static dielectric constant tensor:
#      x y z
#    x 1.833290 -0.027750 -0.008770 
#    y -0.027750 1.737700 -0.020940 
#    z -0.008770 -0.020940 1.682000 
# 
# From -- ./inp_files/197832.got.cif
#   From: 2010.05.17/outbox.cif.g08.bks.cpg/sg2_99_cif.got.tgz:197832.got - 2010.06.03 11:33:40.
