data_PCOD9072408
_publ_section_title
;
Structure prediction by ZEFSAII (Michael W. Deem and Ramdas Pophale) SiO2 
 PCOD9072408
Probable space group: P -1
;
_chemical_formula_sum "Si O2"
_cell_formula_units_Z 16
_cell_length_a 9.000000
_cell_length_b 18.000000
_cell_length_c 21.000000
_cell_angle_alpha 160.000000
_cell_angle_beta 60.000000
_cell_angle_gamma 130.000000
_cell_volume 818.070593
_symmetry_space_group_name_H-M "P -1"
_symmetry_group_IT_number 2
_symmetry_cell_setting 'triclinic'
loop_
_space_group_symop_operation_xyz
x,y,z
-x,-y,-z
loop_
_atom_site_type_symbol
_atom_site_label
_atom_site_fract_x
_atom_site_fract_y
_atom_site_fract_z
Si Si1 0.949273 0.470008 0.084627
Si Si2 0.748143 0.141097 0.564015
Si Si3 0.206444 0.299290 0.207695
Si Si4 0.007435 0.126596 0.702714
Si Si5 0.671947 0.525175 0.278277
Si Si6 0.973941 0.619510 0.800348
Si Si7 0.794018 0.811372 0.739503
Si Si8 0.680426 0.419843 0.338391
O O1 0.919387 0.631711 0.166958
O O2 0.771488 0.395647 0.115272
O O3 0.163290 0.692456 0.254955
O O4 0.953385 0.232054 0.861996
O O5 0.869550 0.365200 0.663490
O O6 0.500000 0.000000 0.500000
O O7 0.822125 0.943069 0.383071
O O8 0.424164 0.354075 0.182404
O O9 0.169245 0.464602 0.299397
O O10 0.222008 0.339186 0.312530
O O11 0.000000 0.000000 0.000000
O O12 0.803931 0.842817 0.490677
O O13 0.699848 0.526123 0.348755
O O14 0.203733 0.723541 0.807364
O O15 0.022032 0.876215 0.036216
O O16 0.806224 0.661366 0.556151
O O17 0.567129 0.763145 0.739727
#
# Coordination Sequence:
#
# PCOD9072408 Si02
#       8
#     2   2   2   2   2   2   2   2
#     4  10  22  41  64  86 118 159 199 254 288 352
#     4  11  24  38  62  92 126 156 189 249 303 359
#     4   9  21  39  58  86 122 158 199 242 295 353
#     4  10  22  41  63  90 118 153 206 243 298 355
#     4  10  19  37  64  86 116 156 199 245 293 355
#     4  11  21  36  59  86 118 160 189 236 306 350
#     4   9  21  38  58  84 119 149 199 249 286 351
#     4  10  19  36  60  88 110 151 196 247 294 345
#
# _framework density 19.558214
#
# number of rings (size 3 to 8) (size 9 to 14) (size 15 to 20)
#    0.000    2.000    2.500    1.875    5.250    1.000 
#    0.000    2.500    0.000    0.000    0.000    0.000 
#    0.000    0.000    0.000    0.000    0.000    0.000 
#
# Total GULP energy -89163.844782 kJ/mol
# GULP energy per Si atom -5572.740299 kJ/mol
# Density = 1.951370 g / cm^3
# Si number density = 19.558214 Si / 1000 Ang^3
#
#
#
# Elastic Constant Matrix: (Units=GPa)
#
#
# Indices 1 2 3 4 5 6 
#
# 1 102.3453 29.0028 38.4864 -0.3142 4.2314 -1.9968
# 2 29.0028 60.9404 31.5071 -13.0005 -1.6840 2.5267
# 3 38.4864 31.5071 93.1705 -24.7264 -6.6303 13.9973
# 4 -0.3142 -13.0005 -24.7264 36.9639 -1.9365 5.3755
# 5 4.2314 -1.6840 -6.6303 -1.9365 22.8900 4.4483
# 6 -1.9968 2.5267 13.9973 5.3755 4.4483 28.5054
#
#
#
# Elastic Compliance Matrix: (Units=1/GPa)
#
#
# Indices 1 2 3 4 5 6 
#
# 1 0.015070 -0.005172 -0.008896 -0.009376 -0.008274 0.008942
# 2 -0.005172 0.021958 -0.003152 0.006043 0.002619 -0.002309
# 3 -0.008896 -0.003152 0.023817 0.017985 0.013233 -0.017495
# 4 -0.009376 0.006043 0.017985 0.044966 0.015250 -0.020883
# 5 -0.008274 0.002619 0.013233 0.015250 0.054154 -0.018636
# 6 0.008942 -0.002309 -0.017495 -0.020883 -0.018636 0.051349
#
#
# Mechanical properties :
#
#
# Convention : Reuss Voigt Hill
#
# Bulk Modulus (GPa) = 37.87287 50.49432 44.18359
# Shear Modulus (GPa) = 19.64208 28.16918 23.90563
#
# Velocity S-wave (km/s) = 3.17249 3.79921 3.49991
# Velocity P-wave (km/s) = 5.72938 6.71706 6.24278
#
# Compressibility (1/GPa) = 0.02640413
#
# Stress axis : x y z
#
# Youngs Moduli (GPa) = 66.35857 45.54180 41.98711
#
# Poissons Ratio (x) = 0.23554 0.37353
# Poissons Ratio (y) = 0.34321 0.13234
# Poissons Ratio (z) = 0.59034 0.14354
#
# Static dielectric constant tensor:
#      x y z
#    x 1.763610 -0.021810 -0.007370 
#    y -0.021810 1.731370 0.014380 
#    z -0.007370 0.014380 1.678090 
# 
# From -- ./inp_files/312983.got.cif
#   From: 2010.05.17/outbox.ucp.g08.bks.cvg/sg2_157_cif.got.tgz:312983.got - 2010.06.11 11:32:03.
