data_PCOD9072165
_publ_section_title
;
Structure prediction by ZEFSAII (Michael W. Deem and Ramdas Pophale) SiO2 
 PCOD9072165
Probable space group: P -1
;
_chemical_formula_sum "Si O2"
_cell_formula_units_Z 16
_cell_length_a 12.000000
_cell_length_b 9.000000
_cell_length_c 18.000000
_cell_angle_alpha 80.000000
_cell_angle_beta 140.000000
_cell_angle_gamma 70.000000
_cell_volume 813.354092
_symmetry_space_group_name_H-M "P -1"
_symmetry_group_IT_number 2
_symmetry_cell_setting 'triclinic'
loop_
_space_group_symop_operation_xyz
x,y,z
-x,-y,-z
loop_
_atom_site_type_symbol
_atom_site_label
_atom_site_fract_x
_atom_site_fract_y
_atom_site_fract_z
Si Si1 0.546517 0.805389 0.503413
Si Si2 0.568328 0.937068 0.355997
Si Si3 0.884463 0.681703 0.189808
Si Si4 0.951341 0.827636 0.361155
Si Si5 0.213737 0.960587 0.442083
Si Si6 0.164489 0.537379 0.636144
Si Si7 0.529707 0.008138 0.854415
Si Si8 0.289713 0.533183 0.851423
O O1 0.485757 0.870164 0.380741
O O2 0.365948 0.815302 0.458564
O O3 0.841929 0.557780 0.679758
O O4 0.500000 0.000000 0.500000
O O5 0.383578 0.054259 0.180637
O O6 0.868454 0.705627 0.502304
O O7 0.598324 0.079267 0.399201
O O8 0.934112 0.747858 0.282471
O O9 0.706827 0.649618 0.119521
O O10 0.743707 0.869246 0.038622
O O11 0.658626 0.013289 0.228449
O O12 0.059155 0.922298 0.398292
O O13 0.133426 0.628522 0.532163
O O14 0.994072 0.227269 0.286721
O O15 0.335187 0.276292 0.741111
O O16 0.295138 0.555261 0.763742
O O17 0.500000 0.500000 0.000000
#
# Coordination Sequence:
#
# PCOD9072165 Si02
#       8
#     2   2   2   2   2   2   2   2
#     4  10  18  40  62  77 111 156 201 227 272 341
#     4   9  18  36  59  83 112 156 194 226 284 340
#     4  12  22  36  59  88 114 153 190 233 289 341
#     4  11  22  36  61  88 117 150 191 233 292 338
#     4  10  22  36  61  86 110 152 199 237 268 341
#     4  10  20  36  58  85 119 153 184 233 291 346
#     4  11  21  33  59  88 120 145 187 238 294 337
#     4  11  22  36  58  89 119 144 186 238 297 334
#
# _framework density 19.671628999999999
#
# number of rings (size 3 to 8) (size 9 to 14) (size 15 to 20)
#    0.000    1.500    5.000    3.375    1.750    6.000 
#    0.000    2.500    2.750    1.500    0.000    0.000 
#    0.000    0.000    0.000    0.000    0.000    0.000 
#
# Total GULP energy -89130.426583 kJ/mol
# GULP energy per Si atom -5570.651661 kJ/mol
# Density = 1.962686 g / cm^3
# Si number density = 19.671629 Si / 1000 Ang^3
#
#
#
# Elastic Constant Matrix: (Units=GPa)
#
#
# Indices 1 2 3 4 5 6 
#
# 1 85.5421 31.6620 39.8944 2.1867 -25.2435 -16.6261
# 2 31.6620 57.6567 30.9856 16.0671 -17.3492 -10.9550
# 3 39.8944 30.9856 77.5184 20.0643 -39.6772 -19.3598
# 4 2.1867 16.0671 20.0643 28.8928 -5.2706 -5.9276
# 5 -25.2435 -17.3492 -39.6772 -5.2706 27.3606 5.6917
# 6 -16.6261 -10.9550 -19.3598 -5.9276 5.6917 20.8733
#
#
#
# Elastic Compliance Matrix: (Units=1/GPa)
#
#
# Indices 1 2 3 4 5 6 
#
# 1 0.020070 -0.006904 0.000703 0.006681 0.014146 0.011055
# 2 -0.006904 0.028060 0.005515 -0.014900 0.015316 0.005935
# 3 0.000703 0.005515 0.099417 -0.038227 0.130726 0.049161
# 4 0.006681 -0.014900 -0.038227 0.058816 -0.045553 -0.008830
# 5 0.014146 0.015316 0.130726 -0.045553 0.226406 0.065881
# 6 0.011055 0.005935 0.049161 -0.008830 0.065881 0.084953
#
#
# Mechanical properties :
#
#
# Convention : Reuss Voigt Hill
#
# Bulk Modulus (GPa) = 6.84107 47.31126 27.07616
# Shear Modulus (GPa) = 8.80561 23.30366 16.05464
#
# Velocity S-wave (km/s) = 2.11802 3.44558 2.85990
# Velocity P-wave (km/s) = 3.07677 6.31919 4.96984
#
# Compressibility (1/GPa) = 0.14617599
#
# Stress axis : x y z
#
# Youngs Moduli (GPa) = 49.82567 35.63816 10.05860
#
# Poissons Ratio (x) = 0.24604 -0.00707
# Poissons Ratio (y) = 0.34399 -0.05548
# Poissons Ratio (z) = -0.03502 -0.19656
#
# Static dielectric constant tensor:
#      x y z
#    x 1.788680 0.000210 -0.023640 
#    y 0.000210 1.731540 0.005780 
#    z -0.023640 0.005780 1.730660 
# 
# From -- ./inp_files/189299.got.cif
#   From: 2010.05.17/outbox.ucp.g08.bks.cvg/sg2_95_cif.got.tgz:189299.got - 2010.06.11 11:32:03.
