data_PCOD9072707
_publ_section_title
;
Structure prediction by ZEFSAII (Michael W. Deem and Ramdas Pophale) SiO2 
 PCOD9072707
Probable space group: P -1
;
_chemical_formula_sum "Si O2"
_cell_formula_units_Z 16
_cell_length_a 11.816955
_cell_length_b 11.523943
_cell_length_c 13.847142
_cell_angle_alpha 44.727340
_cell_angle_beta 148.901785
_cell_angle_gamma 119.177766
_cell_volume 646.427355
_symmetry_space_group_name_H-M "P -1"
_symmetry_group_IT_number 2
_symmetry_cell_setting 'triclinic'
loop_
_space_group_symop_operation_xyz
x,y,z
-x,-y,-z
loop_
_atom_site_type_symbol
_atom_site_label
_atom_site_fract_x
_atom_site_fract_y
_atom_site_fract_z
Si Si1 0.023626 0.149840 0.180573
Si Si2 0.174143 0.721221 0.743970
Si Si3 0.684721 0.246089 0.374816
Si Si4 0.352548 0.011128 0.788167
Si Si5 0.773106 0.842381 0.873754
Si Si6 0.528229 0.265541 0.660507
Si Si7 0.962353 0.593132 0.814295
Si Si8 0.258651 0.751626 0.375821
O O1 0.167921 0.203830 0.168785
O O2 0.070496 0.212126 0.282281
O O3 0.103447 0.940961 0.359307
O O4 0.754986 0.244540 0.901504
O O5 0.274702 0.662589 0.746501
O O6 0.905392 0.850041 0.462798
O O7 0.158995 0.566712 0.894061
O O8 0.316941 0.833256 0.832285
O O9 0.451574 0.194994 0.231945
O O10 0.685916 0.332805 0.428607
O O11 0.487277 0.082836 0.762332
O O12 0.500000 0.000000 0.000000
O O13 0.741515 0.048569 0.731463
O O14 0.004887 0.754936 0.155969
O O15 0.274121 0.404090 0.412086
O O16 0.575766 0.305933 0.561370
O O17 0.000000 0.500000 0.000000
#
# Coordination Sequence:
#
# PCOD9072707 Si02
#       8
#     2   2   2   2   2   2   2   2
#     4  10  19  32  52  78 103 131 165 200 243 294
#     4  10  21  31  46  75  99 126 167 199 245 307
#     4  11  18  29  50  77 110 129 147 195 253 305
#     4  10  18  31  50  73 103 130 154 200 257 300
#     4   9  17  27  46  76 106 132 156 185 237 306
#     4  10  19  33  54  77 102 131 165 202 246 299
#     4  11  23  38  52  67  94 135 179 216 243 275
#     4   9  17  28  46  76 105 131 157 186 240 307
#
# _framework density 24.751429000000002
#
# number of rings (size 3 to 8) (size 9 to 14) (size 15 to 20)
#    0.000    2.000    0.000    8.250    0.000    1.500 
#    0.000    0.000    0.000    3.000    0.000    3.500 
#    0.000    0.000    0.000    0.000    0.000    0.000 
#
# Total GULP energy -89457.096629 kJ/mol
# GULP energy per Si atom -5591.068539 kJ/mol
# Density = 2.469509 g / cm^3
# Si number density = 24.751429 Si / 1000 Ang^3
#
#
#
# Elastic Constant Matrix: (Units=GPa)
#
#
# Indices 1 2 3 4 5 6 
#
# 1 170.9940 43.0880 50.5772 16.7999 -38.0499 30.6398
# 2 43.0880 61.1461 35.9355 9.4283 -5.2805 13.0670
# 3 50.5772 35.9355 117.4148 27.3510 -4.7357 8.7201
# 4 16.7999 9.4283 27.3510 36.2072 0.9657 -4.4681
# 5 -38.0499 -5.2805 -4.7357 0.9657 36.2548 -3.0628
# 6 30.6398 13.0670 8.7201 -4.4681 -3.0628 39.2121
#
#
#
# Elastic Compliance Matrix: (Units=1/GPa)
#
#
# Indices 1 2 3 4 5 6 
#
# 1 0.011355 -0.003950 -0.001822 -0.003983 0.010637 -0.006774
# 2 -0.003950 0.022754 -0.004873 -0.000814 -0.001754 -0.003642
# 3 -0.001822 -0.004873 0.012534 -0.007411 -0.000843 -0.000650
# 4 -0.003983 -0.000814 -0.007411 0.036505 -0.005499 0.008762
# 5 0.010637 -0.001754 -0.000843 -0.005499 0.038089 -0.005192
# 6 -0.006774 -0.003642 -0.000650 0.008762 -0.005192 0.032746
#
#
# Mechanical properties :
#
#
# Convention : Reuss Voigt Hill
#
# Bulk Modulus (GPa) = 39.44511 67.63958 53.54234
# Shear Modulus (GPa) = 27.21463 36.99842 32.10653
#
# Velocity S-wave (km/s) = 3.31949 3.87046 3.60552
# Velocity P-wave (km/s) = 5.53743 6.88192 6.24596
#
# Compressibility (1/GPa) = 0.02535169
#
# Stress axis : x y z
#
# Youngs Moduli (GPa) = 88.06995 43.94826 79.78327
#
# Poissons Ratio (x) = 0.17360 0.14538
# Poissons Ratio (y) = 0.34788 0.38880
# Poissons Ratio (z) = 0.16048 0.21417
#
# Static dielectric constant tensor:
#      x y z
#    x 1.982680 0.010560 -0.000340 
#    y 0.010560 2.043020 -0.097020 
#    z -0.000340 -0.097020 2.021460 
# 
# From -- ./inp_files/433116.got.cif
#   From: 2010.05.17/outbox.cif.g08.bks.cpg/sg2_217_cif.got.tgz:433116.got - 2010.06.03 11:33:40.
