data_PCOD9072939
_publ_section_title
;
Structure prediction by ZEFSAII (Michael W. Deem and Ramdas Pophale) SiO2 
 PCOD9072939
Probable space group: P -1
;
_chemical_formula_sum "Si O2"
_cell_formula_units_Z 14
_cell_length_a 8.582893
_cell_length_b 9.521681
_cell_length_c 13.933301
_cell_angle_alpha 121.204492
_cell_angle_beta 107.638123
_cell_angle_gamma 99.851478
_cell_volume 849.652370
_symmetry_space_group_name_H-M "P -1"
_symmetry_group_IT_number 2
_symmetry_cell_setting 'triclinic'
loop_
_space_group_symop_operation_xyz
x,y,z
-x,-y,-z
loop_
_atom_site_type_symbol
_atom_site_label
_atom_site_fract_x
_atom_site_fract_y
_atom_site_fract_z
Si Si1 0.959402 0.485401 0.829742
Si Si2 0.611897 0.400247 0.373845
Si Si3 0.758026 0.886891 0.818478
Si Si4 0.036897 0.244585 0.908106
Si Si5 0.286799 0.712817 0.836353
Si Si6 0.306076 0.098520 0.964969
Si Si7 0.286425 0.491678 0.361932
O O1 0.992981 0.328458 0.834538
O O2 0.134504 0.608941 0.846779
O O3 0.797126 0.423947 0.702374
O O4 0.923004 0.606290 0.948101
O O5 0.453021 0.199598 0.276677
O O6 0.717470 0.407381 0.299313
O O7 0.491648 0.518553 0.389088
O O8 0.719693 0.448070 0.509347
O O9 0.815857 0.725082 0.744117
O O10 0.769453 0.910252 0.943475
O O11 0.870227 0.068443 0.850171
O O12 0.201813 0.185708 0.911510
O O13 0.274836 0.896120 0.863179
O O14 0.483024 0.780530 0.945365
#
# Coordination Sequence:
#
# PCOD9072939 Si02
#       7
#     2   2   2   2   2   2   2
#     4  11  21  30  49  76 106 133 158 201 248 303
#     4   8  18  33  58  74  93 127 173 209 239 279
#     4   9  15  31  55  73  92 125 169 207 232 283
#     4  11  20  32  48  75 106 134 161 194 253 299
#     4  10  19  31  51  77 100 125 164 209 249 284
#     4  10  18  31  52  75 100 126 164 211 245 289
#     4   9  17  35  55  75  94 129 173 203 239 288
#
# _framework density 16.477326000000001
#
# number of rings (size 3 to 8) (size 9 to 14) (size 15 to 20)
#    0.857    1.429    2.857    1.286    0.000    1.143 
#    0.000    0.714    0.000    1.714    0.000    0.000 
#    0.000    0.000    0.000    0.000    0.000    0.000 
#
# Total GULP energy -77951.543485 kJ/mol
# GULP energy per Si atom -5567.967392 kJ/mol
# Density = 1.643982 g / cm^3
# Si number density = 16.477326 Si / 1000 Ang^3
#
#
#
# Elastic Constant Matrix: (Units=GPa)
#
#
# Indices 1 2 3 4 5 6 
#
# 1 51.7234 23.4310 16.2489 -16.9099 6.6046 -13.1994
# 2 23.4310 72.1365 24.2464 -22.2154 11.8284 -23.7633
# 3 16.2489 24.2464 57.8594 -23.0740 2.1757 -8.1630
# 4 -16.9099 -22.2154 -23.0740 22.3740 -7.7053 5.8725
# 5 6.6046 11.8284 2.1757 -7.7053 19.1858 -3.8635
# 6 -13.1994 -23.7633 -8.1630 5.8725 -3.8635 18.5364
#
#
#
# Elastic Compliance Matrix: (Units=1/GPa)
#
#
# Indices 1 2 3 4 5 6 
#
# 1 0.029381 0.002462 0.002179 0.022411 0.000766 0.018097
# 2 0.002462 0.032620 0.000250 0.023759 -0.004347 0.035249
# 3 0.002179 0.000250 0.031808 0.036987 0.011671 0.006595
# 4 0.022411 0.023759 0.036987 0.126054 0.029909 0.029003
# 5 0.000766 -0.004347 0.011671 0.029909 0.066116 0.004418
# 6 0.018097 0.035249 0.006595 0.029003 0.004418 0.106659
#
#
# Mechanical properties :
#
#
# Convention : Reuss Voigt Hill
#
# Bulk Modulus (GPa) = 9.65332 34.39687 22.02510
# Shear Modulus (GPa) = 11.97928 19.87210 15.92569
#
# Velocity S-wave (km/s) = 2.69925 3.47656 3.11227
# Velocity P-wave (km/s) = 3.94789 6.08571 5.12941
#
# Compressibility (1/GPa) = 0.10359129
#
# Stress axis : x y z
#
# Youngs Moduli (GPa) = 34.03557 30.65597 31.43841
#
# Poissons Ratio (x) = -0.07547 -0.06850
# Poissons Ratio (y) = -0.08379 -0.00787
# Poissons Ratio (z) = -0.07416 -0.00767
#
# Static dielectric constant tensor:
#      x y z
#    x 1.596420 -0.020950 0.013350 
#    y -0.020950 1.526930 0.012770 
#    z 0.013350 0.012770 1.563370 
# 
# From -- ./inp_files/181561.got.cif
#   From: 2010.05.17/outbox.cif.g08.bks.cpg/sg2_91_cif.got.tgz:181561.got - 2010.06.03 11:33:40.
