data_PCOD9072900
_publ_section_title
;
Structure prediction by ZEFSAII (Michael W. Deem and Ramdas Pophale) SiO2 
 PCOD9072900
Probable space group: P -1
;
_chemical_formula_sum "Si O2"
_cell_formula_units_Z 14
_cell_length_a 18.000000
_cell_length_b 9.000000
_cell_length_c 15.000000
_cell_angle_alpha 70.000000
_cell_angle_beta 160.000000
_cell_angle_gamma 100.000000
_cell_volume 693.573286
_symmetry_space_group_name_H-M "P -1"
_symmetry_group_IT_number 2
_symmetry_cell_setting 'triclinic'
loop_
_space_group_symop_operation_xyz
x,y,z
-x,-y,-z
loop_
_atom_site_type_symbol
_atom_site_label
_atom_site_fract_x
_atom_site_fract_y
_atom_site_fract_z
Si Si1 0.031197 0.309862 0.765833
Si Si2 0.340402 0.750074 0.087300
Si Si3 0.908425 0.379690 0.307285
Si Si4 0.897043 0.429575 0.783138
Si Si5 0.457207 0.652373 0.850101
Si Si6 0.787697 0.363211 0.857568
Si Si7 0.705352 0.871853 0.066363
O O1 0.961028 0.510900 0.610998
O O2 0.255395 0.180874 0.983444
O O3 0.027225 0.316527 0.865925
O O4 0.815757 0.265171 0.506662
O O5 0.611769 0.579934 0.420073
O O6 0.221763 0.764518 0.049035
O O7 0.154785 0.726022 0.816270
O O8 0.361131 0.924314 0.046278
O O9 0.050596 0.257440 0.576403
O O10 0.652066 0.536272 0.019198
O O11 0.886796 0.310462 0.879208
O O12 0.055380 0.535085 0.958235
O O13 0.500000 0.500000 0.000000
O O14 0.516259 0.812197 0.908446
O O15 0.500000 0.500000 0.500000
#
# Coordination Sequence:
#
# PCOD9072900 Si02
#       7
#     2   2   2   2   2   2   2
#     4  11  20  37  60  81 111 157 198 228 273 341
#     4  11  22  37  56  89 121 145 185 245 290 325
#     4  11  20  36  57  83 116 160 194 224 275 344
#     4  10  20  38  64  86 105 152 197 228 284 348
#     4  11  19  37  56  77 115 161 201 226 265 339
#     4   9  20  38  63  86 111 141 193 241 282 340
#     4  11  24  34  54  88 124 151 186 238 284 323
#
# _framework density 20.185321999999999
#
# number of rings (size 3 to 8) (size 9 to 14) (size 15 to 20)
#    0.000    1.429    5.714    1.286    0.000    1.143 
#    0.000    2.143    0.000    8.571    0.000    0.000 
#    0.000    0.000    0.000    0.000    0.000    0.000 
#
# Total GULP energy -77946.172008 kJ/mol
# GULP energy per Si atom -5567.583715 kJ/mol
# Density = 2.013938 g / cm^3
# Si number density = 20.185322 Si / 1000 Ang^3
#
#
#
# Elastic Constant Matrix: (Units=GPa)
#
#
# Indices 1 2 3 4 5 6 
#
# 1 92.4212 14.2529 8.7273 11.0108 -6.6218 7.8134
# 2 14.2529 97.2002 15.0085 14.3377 -8.8170 20.2790
# 3 8.7273 15.0085 22.4306 24.3186 7.3673 3.2445
# 4 11.0108 14.3377 24.3186 18.3703 3.3696 4.6817
# 5 -6.6218 -8.8170 7.3673 3.3696 16.6415 5.0148
# 6 7.8134 20.2790 3.2445 4.6817 5.0148 28.5438
#
#
#
# Elastic Compliance Matrix: (Units=1/GPa)
#
#
# Indices 1 2 3 4 5 6 
#
# 1 0.012572 0.001228 -0.003690 -0.004120 0.009599 -0.004905
# 2 0.001228 0.015920 0.000910 -0.014039 0.015005 -0.012084
# 3 -0.003690 0.000910 -0.091300 0.122172 0.018475 -0.012543
# 4 -0.004120 -0.014039 0.122172 -0.089800 -0.051296 0.020956
# 5 0.009599 0.015005 0.018475 -0.051296 0.080428 -0.021105
# 6 -0.004905 -0.012084 -0.012543 0.020956 -0.021105 0.046658
#
#
# Mechanical properties :
#
#
# Convention : Reuss Voigt Hill
#
# Bulk Modulus (GPa) = -15.17198 32.00326 8.41564
# Shear Modulus (GPa) = -112.64347 24.31533 -44.16407
#
# Velocity S-wave (km/s) = -7.47835 3.47451 -4.68261
# Velocity P-wave (km/s) = 9.06093 5.65556 5.00575
#
# Compressibility (1/GPa) = -0.06591096
#
# Stress axis : x y z
#
# Youngs Moduli (GPa) = 79.53937 62.81221 -10.95288
#
# Poissons Ratio (x) = -0.07714 -0.04042
# Poissons Ratio (y) = -0.09768 0.00997
# Poissons Ratio (z) = 0.29350 -0.05716
#
# Static dielectric constant tensor:
#      x y z
#    x 1.818350 -0.003460 -0.022490 
#    y -0.003460 1.725040 0.037890 
#    z -0.022490 0.037890 1.719480 
# 
# From -- ./inp_files/27562.got.cif
#   From: 2010.05.17/outbox.ucp.g08.bks.cvg/sg2_14_cif.got.tgz:27562.got - 2010.06.11 11:32:03.
