data_PCOD9072376
_publ_section_title
;
Structure prediction by ZEFSAII (Michael W. Deem and Ramdas Pophale) SiO2 
 PCOD9072376
Probable space group: P -1
;
_chemical_formula_sum "Si O2"
_cell_formula_units_Z 16
_cell_length_a 9.000000
_cell_length_b 9.000000
_cell_length_c 21.000000
_cell_angle_alpha 30.000000
_cell_angle_beta 60.000000
_cell_angle_gamma 60.000000
_cell_volume 727.687525
_symmetry_space_group_name_H-M "P -1"
_symmetry_group_IT_number 2
_symmetry_cell_setting 'triclinic'
loop_
_space_group_symop_operation_xyz
x,y,z
-x,-y,-z
loop_
_atom_site_type_symbol
_atom_site_label
_atom_site_fract_x
_atom_site_fract_y
_atom_site_fract_z
Si Si1 0.110970 0.458776 0.564744
Si Si2 0.181663 0.796223 0.108446
Si Si3 0.169108 0.338598 0.830762
Si Si4 0.673209 0.350312 0.658436
Si Si5 0.204397 0.200931 0.076768
Si Si6 0.842149 0.264185 0.192663
Si Si7 0.334043 0.604910 0.578596
Si Si8 0.741803 0.698500 0.626576
O O1 0.148345 0.621855 0.428968
O O2 0.245179 0.559573 0.548657
O O3 0.931055 0.579831 0.597204
O O4 0.160158 0.092591 0.682183
O O5 0.276780 0.496641 0.233425
O O6 0.025555 0.701246 0.134904
O O7 0.142492 0.011243 0.100205
O O8 0.259151 0.025943 0.959758
O O9 0.183970 0.603351 0.779985
O O10 0.249086 0.419472 0.718572
O O11 0.530306 0.445949 0.600815
O O12 0.625822 0.602390 0.630005
O O13 0.682614 0.040320 0.811080
O O14 0.037542 0.306653 0.116509
O O15 0.267832 0.493822 0.922547
O O16 0.296638 0.954781 0.476412
#
# Coordination Sequence:
#
# PCOD9072376 Si02
#       8
#     2   2   2   2   2   2   2   2
#     4  12  23  41  61  89 120 160 209 245 289 354
#     4   9  18  37  59  91 116 150 199 258 283 348
#     4  10  20  34  61  91 118 153 198 244 305 346
#     4  11  24  41  61  88 124 159 196 250 306 355
#     4   9  19  37  60  88 118 151 199 247 298 347
#     4  10  19  35  63  89 113 154 203 250 285 351
#     4  12  25  40  58  90 128 158 194 252 305 354
#     4  11  22  41  63  89 118 157 209 247 290 353
#
# _framework density 21.987459999999999
#
# number of rings (size 3 to 8) (size 9 to 14) (size 15 to 20)
#    0.000    1.500    3.750    2.250    1.750    0.000 
#    0.000    7.500    0.000    0.000    0.000    0.000 
#    0.000    0.000    0.000    0.000    0.000    0.000 
#
# Total GULP energy -89136.051247 kJ/mol
# GULP energy per Si atom -5571.003203 kJ/mol
# Density = 2.193742 g / cm^3
# Si number density = 21.987460 Si / 1000 Ang^3
#
#
#
# Elastic Constant Matrix: (Units=GPa)
#
#
# Indices 1 2 3 4 5 6 
#
# 1 9.8329 6.7617 -10.0078 -8.5573 18.6314 -6.7364
# 2 6.7617 61.6093 39.8963 -9.4748 10.6600 9.4538
# 3 -10.0078 39.8963 112.2087 -7.2510 35.2899 -9.4306
# 4 -8.5573 -9.4748 -7.2510 11.7017 11.1936 31.9264
# 5 18.6314 10.6600 35.2899 11.1936 21.1680 3.6517
# 6 -6.7364 9.4538 -9.4306 31.9264 3.6517 -10.4583
#
#
#
# Elastic Compliance Matrix: (Units=1/GPa)
#
#
# Indices 1 2 3 4 5 6 
#
# 1 -0.004394 0.003353 -0.014847 -0.014099 0.036305 -0.011116
# 2 0.003353 0.017491 -0.002984 -0.001687 -0.007379 0.008617
# 3 -0.014847 -0.002984 0.005364 -0.003364 0.008327 -0.005333
# 4 -0.014099 -0.001687 -0.003364 0.001631 0.014449 0.020615
# 5 0.036305 -0.007379 0.008327 0.014449 -0.003441 0.005343
# 6 -0.011116 0.008617 -0.005333 0.020615 0.005343 -0.011062
#
#
# Mechanical properties :
#
#
# Convention : Reuss Voigt Hill
#
# Bulk Modulus (GPa) = -95.27179 28.55014 -33.36082
# Shear Modulus (GPa) = 161.04762 14.28233 87.66498
#
# Velocity S-wave (km/s) = 8.56763 2.55143 6.32115
# Velocity P-wave (km/s) = 7.37890 4.65753 6.17012
#
# Compressibility (1/GPa) = -0.01049629
#
# Stress axis : x y z
#
# Youngs Moduli (GPa) = -227.58054 57.17285 186.41762
#
# Poissons Ratio (x) = -0.19168 2.76780
# Poissons Ratio (y) = 0.76299 0.55627
# Poissons Ratio (z) = -3.37896 0.17060
#
# Static dielectric constant tensor:
#      x y z
#    x 2.255980 -0.151210 -0.094940 
#    y -0.151210 1.785300 0.027350 
#    z -0.094940 0.027350 1.866210 
# 
# From -- ./inp_files/225837.got.cif
#   From: 2010.05.17/outbox.ucp.g08.bks.cvg/sg2_113_cif.got.tgz:225837.got - 2010.06.11 11:32:03.
