data_PCOD9072662
_publ_section_title
;
Structure prediction by ZEFSAII (Michael W. Deem and Ramdas Pophale) SiO2 
 PCOD9072662
Probable space group: P -1
;
_chemical_formula_sum "Si O2"
_cell_formula_units_Z 12
_cell_length_a 15.000000
_cell_length_b 9.000000
_cell_length_c 12.000000
_cell_angle_alpha 70.000000
_cell_angle_beta 30.000000
_cell_angle_gamma 90.000000
_cell_volume 590.849827
_symmetry_space_group_name_H-M "P -1"
_symmetry_group_IT_number 2
_symmetry_cell_setting 'triclinic'
loop_
_space_group_symop_operation_xyz
x,y,z
-x,-y,-z
loop_
_atom_site_type_symbol
_atom_site_label
_atom_site_fract_x
_atom_site_fract_y
_atom_site_fract_z
Si Si1 0.932863 0.782951 0.112981
Si Si2 0.043012 0.209081 0.153931
Si Si3 0.109014 0.655979 0.149939
Si Si4 0.542660 0.332121 0.375591
Si Si5 0.308361 0.801827 0.327977
Si Si6 0.352227 0.076922 0.870261
O O1 0.657767 0.652988 0.438143
O O2 0.023190 0.718558 0.125063
O O3 0.058445 0.822019 0.850647
O O4 0.000000 0.000000 0.000000
O O5 0.857281 0.155322 0.456471
O O6 0.247960 0.448197 0.864171
O O7 0.161308 0.108572 0.076818
O O8 0.878200 0.418628 0.475465
O O9 0.335543 0.687916 0.854316
O O10 0.209992 0.832623 0.087322
O O11 0.458643 0.169452 0.607472
O O12 0.450964 0.805633 0.277578
O O13 0.500000 0.000000 0.000000
#
# Coordination Sequence:
#
# PCOD9072662 Si02
#       6
#     2   2   2   2   2   2
#     4  11  19  32  60  93 123 140 178 233 301 363
#     4  10  21  38  59  87 119 154 188 236 297 350
#     4  11  22  37  61  90 118 154 191 234 295 352
#     4  10  20  34  58  92 124 148 179 234 302 364
#     4  11  26  43  58  80 116 161 209 245 273 325
#     4  11  21  37  62  85 119 150 192 239 296 347
#
# _framework density 20.309729000000001
#
# number of rings (size 3 to 8) (size 9 to 14) (size 15 to 20)
#    0.000    1.333    3.333    5.500    2.333    4.000 
#    0.000    0.833    0.000    0.000    0.000    0.000 
#    0.000    0.000    0.000    0.000    0.000    0.000 
#
# Total GULP energy -66816.770664 kJ/mol
# GULP energy per Si atom -5568.064222 kJ/mol
# Density = 2.026350 g / cm^3
# Si number density = 20.309729 Si / 1000 Ang^3
#
#
#
# Elastic Constant Matrix: (Units=GPa)
#
#
# Indices 1 2 3 4 5 6 
#
# 1 26.3608 -2.5489 7.7500 3.4020 -8.3006 -5.1450
# 2 -2.5489 74.8727 39.6360 -16.2443 4.0217 -2.0592
# 3 7.7500 39.6360 135.2725 -11.4191 -1.6457 1.7542
# 4 3.4020 -16.2443 -11.4191 19.0728 -10.6754 -16.6303
# 5 -8.3006 4.0217 -1.6457 -10.6754 16.2458 -5.0308
# 6 -5.1450 -2.0592 1.7542 -16.6303 -5.0308 21.5325
#
#
#
# Elastic Compliance Matrix: (Units=1/GPa)
#
#
# Indices 1 2 3 4 5 6 
#
# 1 0.036645 -0.004114 -0.003532 -0.032954 -0.008056 -0.018683
# 2 -0.004114 0.013637 -0.004901 -0.012916 -0.018679 -0.013619
# 3 -0.003532 -0.004901 0.009084 0.000359 0.000016 -0.001772
# 4 -0.032954 -0.012916 0.000359 -0.063326 -0.078900 -0.076482
# 5 -0.008056 -0.018679 0.000016 -0.078900 -0.010567 -0.067119
# 6 -0.018683 -0.013619 -0.001772 -0.076482 -0.067119 -0.033932
#
#
# Mechanical properties :
#
#
# Convention : Reuss Voigt Hill
#
# Bulk Modulus (GPa) = 29.17679 36.24223 32.70951
# Shear Modulus (GPa) = -418.70870 24.14816 -197.28027
#
# Velocity S-wave (km/s) = -14.37391 3.45192 -9.86644
# Velocity P-wave (km/s) = 16.15803 5.81130 10.66092
#
# Compressibility (1/GPa) = 0.03427381
#
# Stress axis : x y z
#
# Youngs Moduli (GPa) = 27.28865 73.33060 110.07975
#
# Poissons Ratio (x) = 0.30165 0.38877
# Poissons Ratio (y) = 0.11225 0.53950
# Poissons Ratio (z) = 0.09638 0.35940
#
# Static dielectric constant tensor:
#      x y z
#    x 1.772110 0.077640 -0.018990 
#    y 0.077640 1.879540 0.110050 
#    z -0.018990 0.110050 1.936540 
# 
# From -- ./inp_files/144862.got.cif
#   From: 2010.05.17/outbox.ucp.g08.bks.cvg/sg2_73_cif.got.tgz:144862.got - 2010.06.11 11:32:03.
