data_PCOD9072194
_publ_section_title
;
Structure prediction by ZEFSAII (Michael W. Deem and Ramdas Pophale) SiO2 
 PCOD9072194
Probable space group: P -1
;
_chemical_formula_sum "Si O2"
_cell_formula_units_Z 16
_cell_length_a 27.000000
_cell_length_b 15.000000
_cell_length_c 24.000000
_cell_angle_alpha 150.000000
_cell_angle_beta 170.000000
_cell_angle_gamma 30.000000
_cell_volume 834.184372
_symmetry_space_group_name_H-M "P -1"
_symmetry_group_IT_number 2
_symmetry_cell_setting 'triclinic'
loop_
_space_group_symop_operation_xyz
x,y,z
-x,-y,-z
loop_
_atom_site_type_symbol
_atom_site_label
_atom_site_fract_x
_atom_site_fract_y
_atom_site_fract_z
Si Si1 0.580892 0.382898 0.239393
Si Si2 0.520272 0.071390 0.936757
Si Si3 0.663948 0.083601 0.673880
Si Si4 0.145915 0.526499 0.920412
Si Si5 0.152980 0.864974 0.499525
Si Si6 0.669498 0.136733 0.481751
Si Si7 0.665569 0.832189 0.758449
Si Si8 0.587759 0.415767 0.446017
O O1 0.744113 0.238453 0.385926
O O2 0.805254 0.526082 0.554224
O O3 0.537895 0.277944 0.078906
O O4 0.268360 0.424962 0.945308
O O5 0.374964 0.986290 0.783384
O O6 0.338719 0.026557 0.658475
O O7 0.842684 0.974020 0.227926
O O8 0.499354 0.069374 0.424842
O O9 0.500000 0.000000 0.500000
O O10 0.710423 0.293872 0.835572
O O11 0.000000 0.000000 0.000000
O O12 0.310579 0.432327 0.106458
O O13 0.158886 0.710613 0.375084
O O14 0.487637 0.109135 0.320594
O O15 0.553257 0.315386 0.411846
O O16 0.001014 0.148458 0.868208
O O17 0.652681 0.617565 0.630002
#
# Coordination Sequence:
#
# PCOD9072194 Si02
#       8
#     2   2   2   2   2   2   2   2
#     4  11  19  33  51  77 111 146 187 235 264 308
#     4  11  21  32  48  73 111 158 194 222 256 300
#     4  11  23  43  65  87 109 132 171 235 294 339
#     4  10  22  35  57  86 109 141 186 226 280 329
#     4  10  19  31  47  73 108 155 198 227 258 302
#     4  11  21  34  50  80 115 154 187 210 249 321
#     4  11  23  36  56  81 108 145 183 220 273 328
#     4   9  20  34  51  77 117 151 181 221 259 319
#
# _framework density 19.180412
#
# number of rings (size 3 to 8) (size 9 to 14) (size 15 to 20)
#    0.000    1.500    0.000    7.500    0.000    8.000 
#    0.000    0.000    0.000    0.000    0.000   17.500 
#    0.000    0.000    0.000    0.000    0.000    0.000 
#
# Total GULP energy -89132.810502 kJ/mol
# GULP energy per Si atom -5570.800656 kJ/mol
# Density = 1.913676 g / cm^3
# Si number density = 19.180412 Si / 1000 Ang^3
#
#
#
# Elastic Constant Matrix: (Units=GPa)
#
#
# Indices 1 2 3 4 5 6 
#
# 1 99.0449 27.2722 30.5156 2.1021 7.5455 20.6302
# 2 27.2722 24.1887 9.2080 -0.4298 -5.8298 9.2297
# 3 30.5156 9.2080 47.6342 8.2254 35.9845 8.6482
# 4 2.1021 -0.4298 8.2254 26.2691 -3.4842 0.0898
# 5 7.5455 -5.8298 35.9845 -3.4842 28.9824 3.4534
# 6 20.6302 9.2297 8.6482 0.0898 3.4534 29.7582
#
#
#
# Elastic Compliance Matrix: (Units=1/GPa)
#
#
# Indices 1 2 3 4 5 6 
#
# 1 0.017151 -0.018809 -0.000839 -0.002314 -0.006888 -0.005006
# 2 -0.018809 0.032379 0.050261 -0.020692 -0.052837 -0.005416
# 3 -0.000839 0.050261 -0.061933 0.032519 0.092063 -0.007790
# 4 -0.002314 -0.020692 0.032519 0.022194 -0.041666 0.003340
# 5 -0.006888 -0.052837 0.092063 -0.041666 -0.094297 0.005477
# 6 -0.005006 -0.005416 -0.007790 0.003340 0.005477 0.040373
#
#
# Mechanical properties :
#
#
# Convention : Reuss Voigt Hill
#
# Bulk Modulus (GPa) = 20.48193 33.87328 27.17761
# Shear Modulus (GPa) = -56.12509 23.92672 -16.09918
#
# Velocity S-wave (km/s) = -5.41527 3.53577 -2.90031
# Velocity P-wave (km/s) = 5.32902 5.86238 1.72758
#
# Compressibility (1/GPa) = 0.04882351
#
# Stress axis : x y z
#
# Youngs Moduli (GPa) = 58.30726 30.88395 -16.14640
#
# Poissons Ratio (x) = 0.58088 -0.01355
# Poissons Ratio (y) = 1.09668 0.81154
# Poissons Ratio (z) = 0.04892 -1.55226
#
# Static dielectric constant tensor:
#      x y z
#    x 1.678980 -0.058190 -0.029350 
#    y -0.058190 1.913290 0.004970 
#    z -0.029350 0.004970 1.698830 
# 
# From -- ./inp_files/369375.got.cif
#   From: 2010.05.17/outbox.ucp.g08.bks.cvg/sg2_185_cif.got.tgz:369375.got - 2010.06.11 11:32:03.
