data_PCOD9072300
_publ_section_title
;
Structure prediction by ZEFSAII (Michael W. Deem and Ramdas Pophale) SiO2 
 PCOD9072300
Probable space group: P -1
;
_chemical_formula_sum "Si O2"
_cell_formula_units_Z 16
_cell_length_a 15.000000
_cell_length_b 12.000000
_cell_length_c 15.000000
_cell_angle_alpha 30.000000
_cell_angle_beta 50.000000
_cell_angle_gamma 40.000000
_cell_volume 865.974363
_symmetry_space_group_name_H-M "P -1"
_symmetry_group_IT_number 2
_symmetry_cell_setting 'triclinic'
loop_
_space_group_symop_operation_xyz
x,y,z
-x,-y,-z
loop_
_atom_site_type_symbol
_atom_site_label
_atom_site_fract_x
_atom_site_fract_y
_atom_site_fract_z
Si Si1 0.853402 0.349296 0.936100
Si Si2 0.363181 0.704173 0.170376
Si Si3 0.340202 0.673366 0.584538
Si Si4 0.170850 0.066626 0.879841
Si Si5 0.323757 0.420582 0.931382
Si Si6 0.352451 0.095884 0.410166
Si Si7 0.354865 0.861277 0.263133
Si Si8 0.338777 0.188607 0.557818
O O1 0.762183 0.619463 0.751577
O O2 0.015731 0.248194 0.895001
O O3 0.783368 0.423690 0.027345
O O4 0.836886 0.128435 0.051067
O O5 0.525340 0.617701 0.120081
O O6 0.306490 0.854459 0.198430
O O7 0.347282 0.449922 0.358712
O O8 0.276992 0.891135 0.012845
O O9 0.265567 0.583719 0.762935
O O10 0.285868 0.805692 0.430615
O O11 0.486229 0.395011 0.664450
O O12 0.358640 0.875483 0.493759
O O13 0.228148 0.216970 0.681647
O O14 0.349659 0.129707 0.101726
O O15 0.319502 0.097449 0.535559
O O16 0.507057 0.038406 0.350250
#
# Coordination Sequence:
#
# PCOD9072300 Si02
#       8
#     2   2   2   2   2   2   2   2
#     4  11  24  43  60  90 120 170 203 238 302 369
#     4  11  22  40  61  97 120 155 201 253 306 353
#     4  10  19  34  57  94 121 149 189 255 298 357
#     4  11  26  42  60  85 131 163 199 245 301 366
#     4  11  21  38  66  91 118 157 203 251 298 352
#     4  11  20  38  64  93 124 146 203 252 304 355
#     4  10  21  35  60  94 123 152 196 251 309 351
#     4  11  23  38  63  97 120 155 194 260 309 353
#
# _framework density 18.476298
#
# number of rings (size 3 to 8) (size 9 to 14) (size 15 to 20)
#    0.000    1.250    5.000    3.000    1.750    2.500 
#    2.250    0.625    0.000    1.500    0.000    0.000 
#    0.000    0.000    0.000    0.000    0.000    0.000 
#
# Total GULP energy -89253.791634 kJ/mol
# GULP energy per Si atom -5578.361977 kJ/mol
# Density = 1.843424 g / cm^3
# Si number density = 18.476298 Si / 1000 Ang^3
#
#
#
# Elastic Constant Matrix: (Units=GPa)
#
#
# Indices 1 2 3 4 5 6 
#
# 1 49.9005 47.6170 28.3787 18.7989 3.3698 12.0506
# 2 47.6170 138.6901 60.6872 21.2402 1.6172 16.6294
# 3 28.3787 60.6872 106.1881 19.6323 -2.0567 0.5366
# 4 18.7989 21.2402 19.6323 36.3623 12.6850 1.1689
# 5 3.3698 1.6172 -2.0567 12.6850 26.5713 -0.8140
# 6 12.0506 16.6294 0.5366 1.1689 -0.8140 36.8220
#
#
#
# Elastic Compliance Matrix: (Units=1/GPa)
#
#
# Indices 1 2 3 4 5 6 
#
# 1 0.035951 -0.008505 -0.002335 -0.012677 0.001601 -0.007453
# 2 -0.008505 0.012655 -0.004901 -0.000242 -0.000043 -0.002853
# 3 -0.002335 -0.004901 0.013816 -0.004918 0.004104 0.003023
# 4 -0.012677 -0.000242 -0.004918 0.043566 -0.019480 0.002516
# 5 0.001601 -0.000043 0.004104 -0.019480 0.047085 0.001095
# 6 -0.007453 -0.002853 0.003023 0.002516 0.001095 0.030786
#
#
# Mechanical properties :
#
#
# Convention : Reuss Voigt Hill
#
# Bulk Modulus (GPa) = 32.32102 63.12716 47.72409
# Shear Modulus (GPa) = 22.15796 30.49083 26.32439
#
# Velocity S-wave (km/s) = 3.46680 4.06676 3.77870
# Velocity P-wave (km/s) = 5.79276 7.50280 6.70254
#
# Compressibility (1/GPa) = 0.03093962
#
# Stress axis : x y z
#
# Youngs Moduli (GPa) = 27.81570 79.02246 72.38187
#
# Poissons Ratio (x) = 0.67210 0.16899
# Poissons Ratio (y) = 0.23658 0.35473
# Poissons Ratio (z) = 0.06494 0.38727
#
# Static dielectric constant tensor:
#      x y z
#    x 1.634720 0.019900 0.008070 
#    y 0.019900 1.632130 0.013640 
#    z 0.008070 0.013640 1.677540 
# 
# From -- ./inp_files/306335.got.cif
#   From: 2010.05.17/outbox.ucp.g08.bks.cvg/sg2_154_cif.got.tgz:306335.got - 2010.06.11 11:32:03.
