data_PCOD9072026
_publ_section_title
;
Structure prediction by ZEFSAII (Michael W. Deem and Ramdas Pophale) SiO2 
 PCOD9072026
Probable space group: P -1
;
_chemical_formula_sum "Si O2"
_cell_formula_units_Z 16
_cell_length_a 12.000000
_cell_length_b 9.000000
_cell_length_c 18.000000
_cell_angle_alpha 130.000000
_cell_angle_beta 140.000000
_cell_angle_gamma 40.000000
_cell_volume 795.812006
_symmetry_space_group_name_H-M "P -1"
_symmetry_group_IT_number 2
_symmetry_cell_setting 'triclinic'
loop_
_space_group_symop_operation_xyz
x,y,z
-x,-y,-z
loop_
_atom_site_type_symbol
_atom_site_label
_atom_site_fract_x
_atom_site_fract_y
_atom_site_fract_z
Si Si1 0.761728 0.511087 0.861896
Si Si2 0.054099 0.956947 0.828803
Si Si3 0.146749 0.085473 0.621241
Si Si4 0.240592 0.433133 0.960498
Si Si5 0.759291 0.151846 0.952583
Si Si6 0.381210 0.189533 0.266806
Si Si7 0.674944 0.051983 0.170550
Si Si8 0.949378 0.600390 0.718048
O O1 0.865799 0.233039 0.821475
O O2 0.868594 0.519593 0.998163
O O3 0.728225 0.628131 0.800259
O O4 0.526893 0.693319 0.832425
O O5 0.967809 0.791194 0.743604
O O6 0.190145 0.932279 0.819482
O O7 0.213049 0.877049 0.954141
O O8 0.040091 0.361305 0.643018
O O9 0.372683 0.927084 0.647775
O O10 0.188325 0.042019 0.715999
O O11 0.000000 0.000000 0.500000
O O12 0.336229 0.590430 0.047581
O O13 0.369796 0.152796 0.929442
O O14 0.087337 0.531872 0.842524
O O15 0.651811 0.020891 0.830394
O O16 0.000000 0.000000 0.000000
O O17 0.274993 0.301115 0.327575
#
# Coordination Sequence:
#
# PCOD9072026 Si02
#       8
#     2   2   2   2   2   2   2   2
#     4  11  20  33  54  84 123 158 193 223 283 346
#     4  11  21  35  59  86 129 160 179 237 279 351
#     4  10  24  45  65  83 108 148 205 260 297 337
#     4  10  18  34  53  82 128 157 188 228 267 350
#     4  11  19  34  56  91 128 162 193 220 279 355
#     4  11  21  37  62  87 118 157 192 240 290 347
#     4  10  23  37  57  87 114 156 202 238 291 343
#     4  10  21  38  58  90 117 152 200 232 289 351
#
# _framework density 20.105250999999999
#
# number of rings (size 3 to 8) (size 9 to 14) (size 15 to 20)
#    0.000    1.500    3.750    2.625    0.000    6.000 
#    0.000    8.125    0.000    3.750    0.000    0.000 
#    0.000    0.000    0.000    0.000    0.000    0.000 
#
# Total GULP energy -89178.363160 kJ/mol
# GULP energy per Si atom -5573.647698 kJ/mol
# Density = 2.005949 g / cm^3
# Si number density = 20.105251 Si / 1000 Ang^3
#
#
#
# Elastic Constant Matrix: (Units=GPa)
#
#
# Indices 1 2 3 4 5 6 
#
# 1 95.1469 56.4600 -19.5798 -12.7728 14.2939 -4.3611
# 2 56.4600 173.0649 34.2818 8.8156 18.0700 9.6416
# 3 -19.5798 34.2818 22.6824 -1.6310 27.9336 -4.4837
# 4 -12.7728 8.8156 -1.6310 11.4722 1.6868 0.6293
# 5 14.2939 18.0700 27.9336 1.6868 27.8284 -0.9344
# 6 -4.3611 9.6416 -4.4837 0.6293 -0.9344 32.6015
#
#
#
# Elastic Compliance Matrix: (Units=1/GPa)
#
#
# Indices 1 2 3 4 5 6 
#
# 1 0.003618 0.000929 -0.018028 -0.001453 0.015662 -0.001793
# 2 0.000929 0.005010 0.009246 0.000445 -0.013055 -0.000468
# 3 -0.018028 0.009246 -0.019682 -0.033267 0.024811 -0.006500
# 4 -0.001453 0.000445 -0.033267 0.076515 0.029027 -0.005546
# 5 0.015662 -0.013055 0.024811 0.029027 0.010007 0.009095
# 6 -0.001793 -0.000468 -0.006500 -0.005546 0.009095 0.030046
#
#
# Mechanical properties :
#
#
# Convention : Reuss Voigt Hill
#
# Bulk Modulus (GPa) = -37.37018 48.13537 5.38260
# Shear Modulus (GPa) = 44.52386 29.02924 36.77655
#
# Velocity S-wave (km/s) = 4.71099 3.80394 4.28156
# Velocity P-wave (km/s) = 3.31114 6.57928 5.20820
#
# Compressibility (1/GPa) = -0.02675931
#
# Stress axis : x y z
#
# Youngs Moduli (GPa) = 276.36000 199.60390 -50.80684
#
# Poissons Ratio (x) = -0.18549 -0.91596
# Poissons Ratio (y) = -0.25681 0.46978
# Poissons Ratio (z) = 4.98231 -1.84562
#
# Static dielectric constant tensor:
#      x y z
#    x 1.760970 -0.037390 0.001940 
#    y -0.037390 1.755170 -0.014360 
#    z 0.001940 -0.014360 1.795030 
# 
# From -- ./inp_files/565545.got.cif
#   From: 2010.05.17/outbox.ucp.g08.bks.cvg/sg2_283_cif.got.tgz:565545.got - 2010.06.11 11:32:03.
