data_PCOD9072880
_publ_section_title
;
Structure prediction by ZEFSAII (Michael W. Deem and Ramdas Pophale) SiO2 
 PCOD9072880
Probable space group: P -1
;
_chemical_formula_sum "Si O2"
_cell_formula_units_Z 16
_cell_length_a 15.000000
_cell_length_b 15.000000
_cell_length_c 15.000000
_cell_angle_alpha 50.000000
_cell_angle_beta 30.000000
_cell_angle_gamma 30.000000
_cell_volume 762.223433
_symmetry_space_group_name_H-M "P -1"
_symmetry_group_IT_number 2
_symmetry_cell_setting 'triclinic'
loop_
_space_group_symop_operation_xyz
x,y,z
-x,-y,-z
loop_
_atom_site_type_symbol
_atom_site_label
_atom_site_fract_x
_atom_site_fract_y
_atom_site_fract_z
Si Si1 0.129501 0.913276 0.609928
Si Si2 0.160047 0.319135 0.707200
Si Si3 0.149317 0.984152 0.738453
Si Si4 0.244264 0.118943 0.069954
Si Si5 0.227014 0.715353 0.969488
Si Si6 0.902842 0.456353 0.537915
Si Si7 0.807860 0.858949 0.642004
Si Si8 0.828785 0.484092 0.303792
O O1 0.017986 0.017517 0.735708
O O2 0.465157 0.679818 0.482352
O O3 0.912705 0.924093 0.759175
O O4 0.148174 0.024425 0.467672
O O5 0.528202 0.119892 0.496512
O O6 0.096249 0.452955 0.603516
O O7 0.101571 0.421111 0.784191
O O8 0.942613 0.318758 0.888740
O O9 0.172638 0.847287 0.858890
O O10 0.939106 0.168445 0.867957
O O11 0.995931 0.349204 0.157369
O O12 0.500000 0.000000 0.000000
O O13 0.454735 0.019569 0.864807
O O14 0.590857 0.549517 0.771292
O O15 0.000000 0.500000 0.500000
O O16 0.117241 0.240462 0.453963
O O17 0.036320 0.676003 0.633782
#
# Coordination Sequence:
#
# PCOD9072880 Si02
#       8
#     2   2   2   2   2   2   2   2
#     4  11  23  41  69  96 126 172 216 261 330 392
#     4   9  19  38  61  85 122 167 207 258 320 380
#     4   9  21  37  58  96 123 156 222 263 311 386
#     4  10  23  43  67  96 132 167 214 275 320 383
#     4  10  20  38  62  86 125 177 205 262 325 366
#     4  10  23  37  55  88 130 165 212 263 308 383
#     4  10  24  43  63  93 131 167 215 269 320 376
#     4   9  21  44  64  95 131 165 217 272 319 381
#
# _framework density 20.991219999999998
#
# number of rings (size 3 to 8) (size 9 to 14) (size 15 to 20)
#    0.000    2.250    0.000    1.500    3.500    8.000 
#    2.250    6.250    0.000    0.000    0.000    0.000 
#    0.000    0.000    0.000    0.000    0.000    0.000 
#
# Total GULP energy -89071.877365 kJ/mol
# GULP energy per Si atom -5566.992335 kJ/mol
# Density = 2.094344 g / cm^3
# Si number density = 20.991220 Si / 1000 Ang^3
#
#
#
# Elastic Constant Matrix: (Units=GPa)
#
#
# Indices 1 2 3 4 5 6 
#
# 1 103.2564 42.7978 65.0900 5.0124 -26.0859 37.6416
# 2 42.7978 106.8773 64.7892 -4.1457 -8.5999 23.2166
# 3 65.0900 64.7892 160.5458 -8.6716 -27.3785 44.2536
# 4 5.0124 -4.1457 -8.6716 21.4674 16.2204 2.4954
# 5 -26.0859 -8.5999 -27.3785 16.2204 45.3868 -8.1148
# 6 37.6416 23.2166 44.2536 2.4954 -8.1148 43.0968
#
#
#
# Elastic Compliance Matrix: (Units=1/GPa)
#
#
# Indices 1 2 3 4 5 6 
#
# 1 0.020779 -0.004139 -0.002609 -0.015733 0.013456 -0.009795
# 2 -0.004139 0.013443 -0.004023 0.005195 -0.004221 -0.000591
# 3 -0.002609 -0.004023 0.011418 0.003751 0.002013 -0.007116
# 4 -0.015733 0.005195 0.003751 0.079714 -0.035020 -0.004118
# 5 0.013456 -0.004221 0.002013 -0.035020 0.042423 -0.001530
# 6 -0.009795 -0.000591 -0.007116 -0.004118 -0.001530 0.039334
#
#
# Mechanical properties :
#
#
# Convention : Reuss Voigt Hill
#
# Bulk Modulus (GPa) = 41.49926 79.55928 60.52927
# Shear Modulus (GPa) = 21.12513 35.19037 28.15775
#
# Velocity S-wave (km/s) = 3.17579 4.09887 3.66649
# Velocity P-wave (km/s) = 5.76717 7.77074 6.84269
#
# Compressibility (1/GPa) = 0.02409682
#
# Stress axis : x y z
#
# Youngs Moduli (GPa) = 48.12630 74.38785 87.58479
#
# Poissons Ratio (x) = 0.30786 0.22854
# Poissons Ratio (y) = 0.19918 0.35238
# Poissons Ratio (z) = 0.12558 0.29928
#
# Static dielectric constant tensor:
#      x y z
#    x 1.856360 -0.043720 0.060110 
#    y -0.043720 1.805460 0.027970 
#    z 0.060110 0.027970 1.764860 
# 
# From -- ./inp_files/534319.got.cif
#   From: 2010.05.17/outbox.ucp.g08.bks.cvg/sg2_268_cif.got.tgz:534319.got - 2010.06.11 11:32:03.
