data_PCOD9072183
_publ_section_title
;
Structure prediction by ZEFSAII (Michael W. Deem and Ramdas Pophale) SiO2 
 PCOD9072183
Probable space group: P -1
;
_chemical_formula_sum "Si O2"
_cell_formula_units_Z 16
_cell_length_a 28.476140
_cell_length_b 25.588214
_cell_length_c 11.289253
_cell_angle_alpha 142.485385
_cell_angle_beta 145.499190
_cell_angle_gamma 8.681801
_cell_volume 680.759342
_symmetry_space_group_name_H-M "P -1"
_symmetry_group_IT_number 2
_symmetry_cell_setting 'triclinic'
loop_
_space_group_symop_operation_xyz
x,y,z
-x,-y,-z
loop_
_atom_site_type_symbol
_atom_site_label
_atom_site_fract_x
_atom_site_fract_y
_atom_site_fract_z
Si Si1 0.612048 0.725532 0.743758
Si Si2 0.392177 0.969060 0.980089
Si Si3 0.246714 0.578479 0.662892
Si Si4 0.020055 0.730955 0.940821
Si Si5 0.250103 0.779521 0.231314
Si Si6 0.669292 0.788621 0.766882
Si Si7 0.268365 0.434639 0.671305
Si Si8 0.142364 0.925704 0.866884
O O1 0.380536 0.958917 0.797852
O O2 0.637538 0.607405 0.525451
O O3 0.499535 0.906868 0.735305
O O4 0.010605 0.348448 0.924336
O O5 0.650167 0.642086 0.984248
O O6 0.522999 0.936235 0.193976
O O7 0.190160 0.586188 0.683303
O O8 0.564146 0.324778 0.889656
O O9 0.898883 0.976546 0.617233
O O10 0.041560 0.677205 0.752097
O O11 0.670489 0.047028 0.840746
O O12 0.992810 0.861444 0.113541
O O13 0.644476 0.365650 0.274232
O O14 0.000000 0.000000 0.000000
O O15 0.159396 0.809429 0.205717
O O16 0.748832 0.639354 0.562839
O O17 0.000000 0.500000 0.000000
#
# Coordination Sequence:
#
# PCOD9072183 Si02
#       8
#     2   2   2   2   2   2   2   2
#     4  10  22  37  58  82 108 141 179 227 272 314
#     4  11  23  38  58  78 107 150 184 218 264 321
#     4   9  19  34  56  84 111 135 178 225 275 324
#     4  11  22  38  55  79 112 146 185 217 261 322
#     4  10  18  30  52  81 109 137 171 218 276 322
#     4   9  21  39  59  84 112 139 178 225 274 318
#     4  10  22  36  57  83 111 143 175 225 271 313
#     4  10  20  32  52  80 110 140 171 221 272 317
#
# _framework density 23.503164999999999
#
# number of rings (size 3 to 8) (size 9 to 14) (size 15 to 20)
#    0.000    2.000    0.000    4.875    0.000   16.000 
#    0.000    0.000    0.000    4.500    0.000    0.000 
#    0.000    0.000    0.000    0.000    0.000    0.000 
#
# Total GULP energy -89503.353822 kJ/mol
# GULP energy per Si atom -5593.959614 kJ/mol
# Density = 2.344967 g / cm^3
# Si number density = 23.503165 Si / 1000 Ang^3
#
#
#
# Elastic Constant Matrix: (Units=GPa)
#
#
# Indices 1 2 3 4 5 6 
#
# 1 42.6782 20.1722 7.0705 4.7563 -0.9759 3.6309
# 2 20.1722 84.7961 -13.6239 4.0881 7.5039 14.8033
# 3 7.0705 -13.6239 29.9617 15.6955 5.2676 -1.0467
# 4 4.7563 4.0881 15.6955 25.3225 -2.8308 1.9692
# 5 -0.9759 7.5039 5.2676 -2.8308 18.6135 11.5808
# 6 3.6309 14.8033 -1.0467 1.9692 11.5808 41.4287
#
#
#
# Elastic Compliance Matrix: (Units=1/GPa)
#
#
# Indices 1 2 3 4 5 6 
#
# 1 0.033130 -0.013351 -0.024573 0.013668 0.019104 -0.004744
# 2 -0.013351 0.022185 0.027912 -0.020819 -0.021256 0.000880
# 3 -0.024573 0.027912 0.099386 -0.069414 -0.060495 0.014901
# 4 0.013668 -0.020819 -0.069414 0.090136 0.051249 -0.014123
# 5 0.019104 -0.021256 -0.060495 0.051249 0.105307 -0.027481
# 6 -0.004744 0.000880 0.014901 -0.014123 -0.027481 0.032969
#
#
# Mechanical properties :
#
#
# Convention : Reuss Voigt Hill
#
# Bulk Modulus (GPa) = 7.42520 20.51929 13.97225
# Shear Modulus (GPa) = 11.16000 26.66075 18.91038
#
# Velocity S-wave (km/s) = 2.18142 3.37166 2.83960
# Velocity P-wave (km/s) = 3.08397 4.88946 4.08765
#
# Compressibility (1/GPa) = 0.13467648
#
# Stress axis : x y z
#
# Youngs Moduli (GPa) = 30.18432 45.07597 10.06180
#
# Poissons Ratio (x) = 0.60180 0.24725
# Poissons Ratio (y) = 0.40298 -0.28085
# Poissons Ratio (z) = 0.74173 -1.25817
#
# Static dielectric constant tensor:
#      x y z
#    x 1.887740 0.028120 0.023790 
#    y 0.028120 1.926820 -0.018040 
#    z 0.023790 -0.018040 1.924870 
# 
# From -- ./inp_files/477115.got.cif
#   From: 2010.05.17/outbox.cif.g08.bks.cpg/sg2_239_cif.got.tgz:477115.got - 2010.06.03 11:33:40.
