data_PCOD9072365
_publ_section_title
;
Structure prediction by ZEFSAII (Michael W. Deem and Ramdas Pophale) SiO2 
 PCOD9072365
Probable space group: P -1
;
_chemical_formula_sum "Si O2"
_cell_formula_units_Z 16
_cell_length_a 12.000000
_cell_length_b 9.000000
_cell_length_c 18.000000
_cell_angle_alpha 120.000000
_cell_angle_beta 130.000000
_cell_angle_gamma 30.000000
_cell_volume 736.400153
_symmetry_space_group_name_H-M "P -1"
_symmetry_group_IT_number 2
_symmetry_cell_setting 'triclinic'
loop_
_space_group_symop_operation_xyz
x,y,z
-x,-y,-z
loop_
_atom_site_type_symbol
_atom_site_label
_atom_site_fract_x
_atom_site_fract_y
_atom_site_fract_z
Si Si1 0.034915 0.709479 0.752074
Si Si2 0.448640 0.285397 0.600947
Si Si3 0.128521 0.223251 0.151774
Si Si4 0.736615 0.855864 0.965922
Si Si5 0.621748 0.207066 0.504269
Si Si6 0.153902 0.822272 0.700685
Si Si7 0.337768 0.162900 0.653417
Si Si8 0.272203 0.082814 0.856462
O O1 0.181407 0.710444 0.766471
O O2 0.156488 0.413594 0.701835
O O3 0.015649 0.754027 0.843447
O O4 0.744715 0.980740 0.669251
O O5 0.440040 0.294014 0.510535
O O6 0.362642 0.548705 0.664924
O O7 0.293930 0.298195 0.587791
O O8 0.218346 0.075664 0.071696
O O9 0.939796 0.565497 0.146754
O O10 0.382920 0.048629 0.255087
O O11 0.516572 0.925545 0.880420
O O12 0.667006 0.010648 0.053343
O O13 0.000000 0.500000 0.000000
O O14 0.500000 0.500000 0.500000
O O15 0.671942 0.027272 0.414397
O O16 0.888706 0.004943 0.603415
O O17 0.169333 0.009506 0.759080
#
# Coordination Sequence:
#
# PCOD9072365 Si02
#       8
#     2   2   2   2   2   2   2   2
#     4   9  20  37  58  83 112 150 194 234 278 332
#     4   9  21  37  54  77 112 155 194 231 276 330
#     4  10  19  35  61  87 112 146 192 236 275 332
#     4   9  20  36  59  86 112 147 188 229 283 344
#     4  11  23  36  54  85 117 149 191 234 277 329
#     4  10  22  38  57  83 118 152 185 233 288 333
#     4  10  20  36  58  81 113 155 192 228 276 331
#     4  10  20  37  60  86 116 147 185 233 285 342
#
# _framework density 21.727318
#
# number of rings (size 3 to 8) (size 9 to 14) (size 15 to 20)
#    0.000    2.250    0.000    1.875    0.000   13.000 
#    0.000    0.625    0.000   19.500    0.000    0.000 
#    0.000    0.000    0.000    0.000    0.000    0.000 
#
# Total GULP energy -89211.752735 kJ/mol
# GULP energy per Si atom -5575.734546 kJ/mol
# Density = 2.167787 g / cm^3
# Si number density = 21.727318 Si / 1000 Ang^3
#
#
#
# Elastic Constant Matrix: (Units=GPa)
#
#
# Indices 1 2 3 4 5 6 
#
# 1 31.1395 22.8788 -3.9351 -11.6203 -26.9111 -31.6476
# 2 22.8788 65.7356 3.7949 -14.0711 -1.8543 -15.8453
# 3 -3.9351 3.7949 6.0819 -20.1434 -7.7463 -13.2679
# 4 -11.6203 -14.0711 -20.1434 7.5290 -0.0001 -5.6003
# 5 -26.9111 -1.8543 -7.7463 -0.0001 34.6480 3.2359
# 6 -31.6476 -15.8453 -13.2679 -5.6003 3.2359 29.5696
#
#
#
# Elastic Compliance Matrix: (Units=1/GPa)
#
#
# Indices 1 2 3 4 5 6 
#
# 1 0.097581 -0.040231 -0.069179 -0.088022 0.055453 0.029099
# 2 -0.040231 0.032771 0.015748 0.034477 -0.025118 -0.009153
# 3 -0.069179 0.015748 0.046584 0.020047 -0.039053 -0.036629
# 4 -0.088022 0.034477 0.020047 0.081596 -0.057841 -0.044954
# 5 0.055453 -0.025118 -0.039053 -0.057841 0.060852 0.010753
# 6 0.029099 -0.009153 -0.036629 -0.044954 0.010753 0.033932
#
#
# Mechanical properties :
#
#
# Convention : Reuss Voigt Hill
#
# Bulk Modulus (GPa) = -96.25065 16.49271 -39.87897
# Shear Modulus (GPa) = 9.30791 19.69721 14.50256
#
# Velocity S-wave (km/s) = 2.07202 3.01419 2.58637
# Velocity P-wave (km/s) = 6.21862 4.44084 3.07816
#
# Compressibility (1/GPa) = -0.01038954
#
# Stress axis : x y z
#
# Youngs Moduli (GPa) = 10.24794 30.51521 21.46647
#
# Poissons Ratio (x) = 1.22767 1.48504
# Poissons Ratio (y) = 0.41229 -0.33806
# Poissons Ratio (z) = 0.70895 -0.48057
#
# Static dielectric constant tensor:
#      x y z
#    x 1.867870 0.003130 -0.071600 
#    y 0.003130 1.821850 -0.056420 
#    z -0.071600 -0.056420 1.853220 
# 
# From -- ./inp_files/46527.got.cif
#   From: 2010.05.17/outbox.ucp.g08.bks.cvg/sg2_24_cif.got.tgz:46527.got - 2010.06.11 11:32:03.
