data_PCOD9072817
_publ_section_title
;
Structure prediction by ZEFSAII (Michael W. Deem and Ramdas Pophale) SiO2 
 PCOD9072817
Probable space group: P -1
;
_chemical_formula_sum "Si O2"
_cell_formula_units_Z 16
_cell_length_a 18.327731
_cell_length_b 9.166631
_cell_length_c 7.839435
_cell_angle_alpha 91.985587
_cell_angle_beta 130.438354
_cell_angle_gamma 53.385920
_cell_volume 657.429193
_symmetry_space_group_name_H-M "P -1"
_symmetry_group_IT_number 2
_symmetry_cell_setting 'triclinic'
loop_
_space_group_symop_operation_xyz
x,y,z
-x,-y,-z
loop_
_atom_site_type_symbol
_atom_site_label
_atom_site_fract_x
_atom_site_fract_y
_atom_site_fract_z
Si Si1 0.060319 0.230573 0.111422
Si Si2 0.064130 0.084242 0.618375
Si Si3 0.483429 0.684509 0.688731
Si Si4 0.237110 0.537176 0.394966
Si Si5 0.268616 0.723697 0.151995
Si Si6 0.728753 0.200715 0.385747
Si Si7 0.688356 0.847241 0.656228
Si Si8 0.096276 0.490867 0.767632
O O1 0.178370 0.209240 0.221687
O O2 0.990487 0.379533 0.183332
O O3 0.145887 0.989546 0.295149
O O4 0.920063 0.349101 0.792303
O O5 0.197456 0.945030 0.679569
O O6 0.925217 0.340451 0.370022
O O7 0.148038 0.978394 0.919604
O O8 0.000000 0.000000 0.500000
O O9 0.386418 0.684082 0.429636
O O10 0.646872 0.447290 0.886458
O O11 0.415235 0.724282 0.772339
O O12 0.446725 0.888316 0.571202
O O13 0.219441 0.647290 0.194625
O O14 0.287008 0.606289 0.604240
O O15 0.329819 0.286100 0.476262
O O16 0.747550 0.744552 0.934466
O O17 0.000000 0.500000 0.500000
#
# Coordination Sequence:
#
# PCOD9072817 Si02
#       8
#     2   2   2   2   2   2   2   2
#     4   9  18  32  49  72 102 135 171 206 249 306
#     4  11  22  34  51  79 109 134 164 210 263 308
#     4   9  20  37  56  75  97 138 181 212 248 295
#     4  10  18  31  51  75 100 133 173 212 251 298
#     4  10  20  36  55  75 103 136 176 214 248 301
#     4   9  19  33  51  73 100 135 174 208 249 304
#     4  10  19  33  52  75 103 133 170 211 254 305
#     4  10  19  30  47  74 104 130 159 203 259 304
#
# _framework density 24.337219999999999
#
# number of rings (size 3 to 8) (size 9 to 14) (size 15 to 20)
#    0.000    2.250    0.000    4.875    0.000    5.000 
#    0.000    0.000    0.000    0.750    0.000    0.000 
#    0.000    0.000    0.000    0.000    0.000    0.000 
#
# Total GULP energy -89210.142903 kJ/mol
# GULP energy per Si atom -5575.633931 kJ/mol
# Density = 2.428183 g / cm^3
# Si number density = 24.337220 Si / 1000 Ang^3
#
#
#
# Elastic Constant Matrix: (Units=GPa)
#
#
# Indices 1 2 3 4 5 6 
#
# 1 54.9400 13.3355 5.1537 -3.4520 0.2034 -3.7744
# 2 13.3355 120.2261 11.3097 -18.7475 2.0428 24.5080
# 3 5.1537 11.3097 69.8565 -11.5451 -3.5281 8.6676
# 4 -3.4520 -18.7475 -11.5451 33.3887 7.9637 -3.0407
# 5 0.2034 2.0428 -3.5281 7.9637 22.3253 -7.1856
# 6 -3.7744 24.5080 8.6676 -3.0407 -7.1856 47.6352
#
#
#
# Elastic Compliance Matrix: (Units=1/GPa)
#
#
# Indices 1 2 3 4 5 6 
#
# 1 0.019203 -0.002669 -0.001327 0.000118 0.000872 0.003275
# 2 -0.002669 0.011013 0.000015 0.006621 -0.005360 -0.006266
# 3 -0.001327 0.000015 0.015566 0.005056 -0.000186 -0.002650
# 4 0.000118 0.006621 0.005056 0.038609 -0.014900 -0.004100
# 5 0.000872 -0.005360 -0.000186 -0.014900 0.053786 0.010023
# 6 0.003275 -0.006266 -0.002650 -0.004100 0.010023 0.026209
#
#
# Mechanical properties :
#
#
# Convention : Reuss Voigt Hill
#
# Bulk Modulus (GPa) = 26.44203 33.84671 30.14437
# Shear Modulus (GPa) = 27.03349 35.01808 31.02578
#
# Velocity S-wave (km/s) = 3.33646 3.79736 3.57435
# Velocity P-wave (km/s) = 5.07258 5.75883 5.42657
#
# Compressibility (1/GPa) = 0.03781857
#
# Stress axis : x y z
#
# Youngs Moduli (GPa) = 52.07430 90.80041 64.24370
#
# Poissons Ratio (x) = 0.24237 0.08528
# Poissons Ratio (y) = 0.13900 -0.00096
# Poissons Ratio (z) = 0.06913 -0.00135
#
# Static dielectric constant tensor:
#      x y z
#    x 2.001090 -0.060160 -0.048100 
#    y -0.060160 1.977540 0.107420 
#    z -0.048100 0.107420 1.911400 
# 
# From -- ./inp_files/342771.got.cif
#   From: 2010.05.17/outbox.cif.g08.bks.cpg/sg2_172_cif.got.tgz:342771.got - 2010.06.03 11:33:40.
