data_PCOD9072390
_publ_section_title
;
Structure prediction by ZEFSAII (Michael W. Deem and Ramdas Pophale) SiO2 
 PCOD9072390
Probable space group: P -1
;
_chemical_formula_sum "Si O2"
_cell_formula_units_Z 16
_cell_length_a 12.000000
_cell_length_b 12.000000
_cell_length_c 12.000000
_cell_angle_alpha 70.000000
_cell_angle_beta 40.000000
_cell_angle_gamma 100.000000
_cell_volume 722.981415
_symmetry_space_group_name_H-M "P -1"
_symmetry_group_IT_number 2
_symmetry_cell_setting 'triclinic'
loop_
_space_group_symop_operation_xyz
x,y,z
-x,-y,-z
loop_
_atom_site_type_symbol
_atom_site_label
_atom_site_fract_x
_atom_site_fract_y
_atom_site_fract_z
Si Si1 0.627265 0.502161 0.653111
Si Si2 0.281583 0.624639 0.186097
Si Si3 0.042585 0.123152 0.669338
Si Si4 0.882127 0.343252 0.906204
Si Si5 0.286262 0.806383 0.681240
Si Si6 0.956672 0.822162 0.792050
Si Si7 0.423654 0.045098 0.800198
Si Si8 0.258489 0.952478 0.293392
O O1 0.641108 0.455259 0.783357
O O2 0.730178 0.686678 0.524453
O O3 0.836144 0.546142 0.394001
O O4 0.339478 0.331680 0.904393
O O5 0.223554 0.602018 0.107034
O O6 0.000000 0.500000 0.500000
O O7 0.517378 0.835003 0.952550
O O8 0.897961 0.115382 0.678435
O O9 0.101145 0.017560 0.634555
O O10 0.816934 0.998305 0.972191
O O11 0.832665 0.327917 0.081111
O O12 0.707180 0.144248 0.072028
O O13 0.418796 0.817693 0.466192
O O14 0.077041 0.784817 0.792849
O O15 0.500000 0.000000 0.500000
O O16 0.040921 0.849096 0.589615
O O17 0.592336 0.091690 0.762594
#
# Coordination Sequence:
#
# PCOD9072390 Si02
#       8
#     2   2   2   2   2   2   2   2
#     4  10  21  36  56  93 124 149 197 242 301 351
#     4   9  17  33  58  88 119 152 196 238 286 360
#     4  11  21  36  60  91 122 155 193 247 297 353
#     4   8  16  33  58  84 114 161 197 238 289 351
#     4   9  18  38  64  83 112 163 203 239 299 350
#     4  11  23  38  61  91 119 158 196 245 298 356
#     4   8  17  32  57  85 114 153 202 241 284 351
#     4  10  19  36  57  85 124 159 194 234 299 359
#
# _framework density 22.130583000000001
#
# number of rings (size 3 to 8) (size 9 to 14) (size 15 to 20)
#    0.000    2.500    1.250    2.250    0.000    1.000 
#    0.000    5.625    0.000    1.500    0.000    0.000 
#    0.000    0.000    0.000    0.000    0.000    0.000 
#
# Total GULP energy -89102.177353 kJ/mol
# GULP energy per Si atom -5568.886085 kJ/mol
# Density = 2.208021 g / cm^3
# Si number density = 22.130583 Si / 1000 Ang^3
#
#
#
# Elastic Constant Matrix: (Units=GPa)
#
#
# Indices 1 2 3 4 5 6 
#
# 1 68.1440 -0.7337 40.2383 6.5022 34.4568 9.8387
# 2 -0.7337 25.1015 12.5485 -7.2415 3.7184 4.9153
# 3 40.2383 12.5485 135.2597 -17.2520 24.3972 -5.4885
# 4 6.5022 -7.2415 -17.2520 23.1231 15.0014 -8.1188
# 5 34.4568 3.7184 24.3972 15.0014 34.3784 2.5810
# 6 9.8387 4.9153 -5.4885 -8.1188 2.5810 -0.2507
#
#
#
# Elastic Compliance Matrix: (Units=1/GPa)
#
#
# Indices 1 2 3 4 5 6 
#
# 1 0.039286 0.018487 0.002514 0.037798 -0.060118 0.006201
# 2 0.018487 0.058974 0.002330 0.042448 -0.044744 -0.004526
# 3 0.002514 0.002330 0.006268 -0.000639 -0.005093 -0.024613
# 4 0.037798 0.042448 -0.000639 0.055406 -0.060007 -0.082477
# 5 -0.060118 -0.044744 -0.005093 -0.060007 0.119976 0.053361
# 6 0.006201 -0.004526 -0.024613 -0.082477 0.053361 -0.075000
#
#
# Mechanical properties :
#
#
# Convention : Reuss Voigt Hill
#
# Bulk Modulus (GPa) = 6.61422 36.95684 21.78553
# Shear Modulus (GPa) = 23.96433 23.21364 23.58899
#
# Velocity S-wave (km/s) = 3.29425 3.24225 3.26835
# Velocity P-wave (km/s) = 4.17908 5.54544 4.91002
#
# Compressibility (1/GPa) = 0.15118945
#
# Stress axis : x y z
#
# Youngs Moduli (GPa) = 25.45435 16.95673 159.55061
#
# Poissons Ratio (x) = -0.31348 -0.40113
# Poissons Ratio (y) = -0.47057 -0.37177
# Poissons Ratio (z) = -0.06399 -0.03951
#
# Static dielectric constant tensor:
#      x y z
#    x 1.815400 0.016860 -0.008890 
#    y 0.016860 1.874530 0.058780 
#    z -0.008890 0.058780 1.845420 
# 
# From -- ./inp_files/427962.got.cif
#   From: 2010.05.17/outbox.ucp.g08.bks.cvg/sg2_214_cif.got.tgz:427962.got - 2010.06.11 11:32:03.
