data_PCOD9073859
_publ_section_title
;
Structure prediction by ZEFSAII (Michael W. Deem and Ramdas Pophale) SiO2 
 PCOD9073859
Probable space group: P -1
;
_chemical_formula_sum "Si O2"
_cell_formula_units_Z 16
_cell_length_a 12.584744
_cell_length_b 12.169822
_cell_length_c 11.309991
_cell_angle_alpha 50.319284
_cell_angle_beta 115.681049
_cell_angle_gamma 74.426364
_cell_volume 742.710727
_symmetry_space_group_name_H-M "P -1"
_symmetry_group_IT_number 2
_symmetry_cell_setting 'triclinic'
loop_
_space_group_symop_operation_xyz
x,y,z
-x,-y,-z
loop_
_atom_site_type_symbol
_atom_site_label
_atom_site_fract_x
_atom_site_fract_y
_atom_site_fract_z
Si Si1 0.342444 0.453470 0.315401
Si Si2 0.567395 0.857561 0.817671
Si Si3 0.035985 0.744042 0.141484
Si Si4 0.225299 0.886684 0.907188
Si Si5 0.218915 0.323788 0.191219
Si Si6 0.497524 0.609931 0.030555
Si Si7 0.156729 0.818810 0.363902
Si Si8 0.321953 0.999660 0.080133
O O1 0.296113 0.664681 0.142161
O O2 0.285912 0.421110 0.192689
O O3 0.553849 0.221579 0.622083
O O4 0.202860 0.515906 0.303880
O O5 0.726620 0.747343 0.871473
O O6 0.365596 0.086259 0.500457
O O7 0.590718 0.930042 0.897269
O O8 0.576861 0.684935 0.974751
O O9 0.133062 0.763207 0.265170
O O10 0.906911 0.957912 0.840813
O O11 0.894409 0.788690 0.122353
O O12 0.295181 0.827308 0.847590
O O13 0.316234 0.928311 0.999826
O O14 0.000153 0.098590 0.679232
O O15 0.000000 0.500000 0.000000
O O16 0.635910 0.407325 0.332865
O O17 0.500000 0.500000 0.000000
#
# Coordination Sequence:
#
# PCOD9073859 Si02
#       8
#     2   2   2   2   2   2   2   2
#     4  10  18  31  58  88 111 142 188 233 282 337
#     4  10  24  39  55  84 113 148 195 231 280 346
#     4   9  17  34  60  88 114 142 185 241 282 324
#     4  10  21  36  57  84 111 147 187 229 282 336
#     4  10  21  39  60  82 113 151 190 236 282 331
#     4  12  25  40  57  80 118 158 188 231 282 336
#     4   9  20  36  57  87 116 146 190 232 279 336
#     4  10  19  35  57  82 113 144 183 239 287 328
#
# _framework density 21.542707
#
# number of rings (size 3 to 8) (size 9 to 14) (size 15 to 20)
#    0.000    2.000    0.000    4.125    0.000    6.000 
#    0.000    2.500    0.000    0.000    0.000    0.000 
#    0.000    0.000    0.000    0.000    0.000    0.000 
#
# Total GULP energy -89312.795393 kJ/mol
# GULP energy per Si atom -5582.049712 kJ/mol
# Density = 2.149368 g / cm^3
# Si number density = 21.542707 Si / 1000 Ang^3
#
#
#
# Elastic Constant Matrix: (Units=GPa)
#
#
# Indices 1 2 3 4 5 6 
#
# 1 47.2256 15.6370 9.6080 -9.3466 3.7505 -11.5773
# 2 15.6370 113.2588 -0.9894 -5.7413 -1.2838 2.2442
# 3 9.6080 -0.9894 37.1406 -11.8803 14.2568 -9.4052
# 4 -9.3466 -5.7413 -11.8803 16.2024 -6.9933 6.1679
# 5 3.7505 -1.2838 14.2568 -6.9933 23.3566 -10.8358
# 6 -11.5773 2.2442 -9.4052 6.1679 -10.8358 31.7792
#
#
#
# Elastic Compliance Matrix: (Units=1/GPa)
#
#
# Indices 1 2 3 4 5 6 
#
# 1 0.026757 -0.003299 -0.003219 0.010657 0.004641 0.008542
# 2 -0.003299 0.009520 0.001664 0.003525 0.000160 -0.002011
# 3 -0.003219 0.001664 0.041757 0.021218 -0.018178 0.000751
# 4 0.010657 0.003525 0.021218 0.090901 0.010884 -0.004018
# 5 0.004641 0.000160 -0.018178 0.010884 0.063834 0.015953
# 6 0.008542 -0.002011 0.000751 -0.004018 0.015953 0.041163
#
#
# Mechanical properties :
#
#
# Convention : Reuss Voigt Hill
#
# Bulk Modulus (GPa) = 14.63574 27.34848 20.99211
# Shear Modulus (GPa) = 16.31776 25.82560 21.07168
#
# Velocity S-wave (km/s) = 2.75519 3.46614 3.13091
# Velocity P-wave (km/s) = 4.11461 5.36110 4.77867
#
# Compressibility (1/GPa) = 0.06832591
#
# Stress axis : x y z
#
# Youngs Moduli (GPa) = 37.37369 105.04582 23.94792
#
# Poissons Ratio (x) = 0.34651 0.07709
# Poissons Ratio (y) = 0.12328 -0.03985
# Poissons Ratio (z) = 0.12031 -0.17478
#
# Static dielectric constant tensor:
#      x y z
#    x 1.841650 -0.020980 0.014640 
#    y -0.020980 1.811280 0.009150 
#    z 0.014640 0.009150 1.751170 
# 
# From -- ./inp_files/427631.got.cif
#   From: 2010.05.17/outbox.cif.g08.bks.cpg/sg2_214_cif.got.tgz:427631.got - 2010.06.03 11:33:40.
