data_PCOD9073697
_publ_section_title
;
Structure prediction by ZEFSAII (Michael W. Deem and Ramdas Pophale) SiO2 
 PCOD9073697
Probable space group: P -1
;
_chemical_formula_sum "Si O2"
_cell_formula_units_Z 16
_cell_length_a 24.000000
_cell_length_b 9.000000
_cell_length_c 6.000000
_cell_angle_alpha 120.000000
_cell_angle_beta 130.000000
_cell_angle_gamma 50.000000
_cell_volume 752.153660
_symmetry_space_group_name_H-M "P -1"
_symmetry_group_IT_number 2
_symmetry_cell_setting 'triclinic'
loop_
_space_group_symop_operation_xyz
x,y,z
-x,-y,-z
loop_
_atom_site_type_symbol
_atom_site_label
_atom_site_fract_x
_atom_site_fract_y
_atom_site_fract_z
Si Si1 0.118343 0.730953 0.706423
Si Si2 0.390318 0.435312 0.144705
Si Si3 0.871622 0.883247 0.860101
Si Si4 0.761601 0.330344 0.396020
Si Si5 0.723428 0.015179 0.295353
Si Si6 0.044510 0.278962 0.548496
Si Si7 0.543200 0.344069 0.192477
Si Si8 0.268176 0.371794 0.066243
O O1 0.149104 0.719559 0.519324
O O2 0.029428 0.761959 0.582405
O O3 0.187579 0.525726 0.834415
O O4 0.126601 0.915260 0.949690
O O5 0.470403 0.316508 0.103209
O O6 0.419868 0.555040 0.469895
O O7 0.351670 0.324994 0.107942
O O8 0.310336 0.589393 0.914941
O O9 0.912567 0.817257 0.659246
O O10 0.776844 0.935025 0.601421
O O11 0.905219 0.766751 0.106128
O O12 0.756727 0.149517 0.361745
O O13 0.735254 0.505833 0.634114
O O14 0.624911 0.149734 0.178931
O O15 0.737781 0.823147 0.054747
O O16 0.000000 0.500000 0.500000
O O17 0.500000 0.500000 0.000000
#
# Coordination Sequence:
#
# PCOD9073697 Si02
#       8
#     2   2   2   2   2   2   2   2
#     4  11  25  46  75 105 149 199 245 308 370 453
#     4  10  21  42  69 103 139 196 239 313 376 445
#     4  12  26  49  76 109 151 206 248 303 390 446
#     4  11  22  48  71 102 154 190 248 308 373 449
#     4  12  24  46  74 108 144 203 247 309 380 448
#     4  12  28  50  77 115 154 192 257 316 370 453
#     4  11  21  42  75  99 144 191 250 304 383 448
#     4  11  24  44  70 107 148 189 252 305 379 439
#
# _framework density 21.272248999999999
#
# number of rings (size 3 to 8) (size 9 to 14) (size 15 to 20)
#    0.000    0.750    3.750    3.375    1.750    0.500 
#   20.250    2.500    0.000    0.000    0.000    0.000 
#    0.000    0.000    0.000    0.000    0.000    0.000 
#
# Total GULP energy -89172.728178 kJ/mol
# GULP energy per Si atom -5573.295511 kJ/mol
# Density = 2.122383 g / cm^3
# Si number density = 21.272249 Si / 1000 Ang^3
#
#
#
# Elastic Constant Matrix: (Units=GPa)
#
#
# Indices 1 2 3 4 5 6 
#
# 1 118.2440 38.9871 36.4526 -2.4341 -18.9094 -13.2023
# 2 38.9871 129.3695 51.7410 11.6186 -9.6436 -0.9468
# 3 36.4526 51.7410 98.8572 -7.6320 -11.5113 10.3330
# 4 -2.4341 11.6186 -7.6320 35.8344 -0.4181 5.7020
# 5 -18.9094 -9.6436 -11.5113 -0.4181 35.0463 -1.0541
# 6 -13.2023 -0.9468 10.3330 5.7020 -1.0541 33.9405
#
#
#
# Elastic Compliance Matrix: (Units=1/GPa)
#
#
# Indices 1 2 3 4 5 6 
#
# 1 0.011440 -0.001671 -0.003396 -0.000244 0.004763 0.005626
# 2 -0.001671 0.011064 -0.005798 -0.005302 0.000245 0.002322
# 3 -0.003396 -0.005798 0.015833 0.006201 0.001627 -0.007294
# 4 -0.000244 -0.005302 0.006201 0.032132 0.000604 -0.007510
# 5 0.004763 0.000245 0.001627 0.000604 0.031781 0.002250
# 6 0.005626 0.002322 -0.007294 -0.007510 0.002250 0.035269
#
#
# Mechanical properties :
#
#
# Convention : Reuss Voigt Hill
#
# Bulk Modulus (GPa) = 60.21701 66.75912 63.48806
# Shear Modulus (GPa) = 30.34284 35.58356 32.96320
#
# Velocity S-wave (km/s) = 3.78087 4.09439 3.94075
# Velocity P-wave (km/s) = 6.88689 7.33508 7.11451
#
# Compressibility (1/GPa) = 0.01660660
#
# Stress axis : x y z
#
# Youngs Moduli (GPa) = 87.41303 90.38513 63.15890
#
# Poissons Ratio (x) = 0.15105 0.21448
# Poissons Ratio (y) = 0.14609 0.36619
# Poissons Ratio (z) = 0.29684 0.52405
#
# Static dielectric constant tensor:
#      x y z
#    x 1.829100 -0.042040 -0.026230 
#    y -0.042040 1.794240 -0.020910 
#    z -0.026230 -0.020910 1.805440 
# 
# From -- ./inp_files/83117.got.cif
#   From: 2010.05.17/outbox.ucp.g08.bks.cvg/sg2_42_cif.got.tgz:83117.got - 2010.06.11 11:32:03.
