data_PCOD9073547
_publ_section_title
;
Structure prediction by ZEFSAII (Michael W. Deem and Ramdas Pophale) SiO2 
 PCOD9073547
Probable space group: P -1
;
_chemical_formula_sum "Si O2"
_cell_formula_units_Z 16
_cell_length_a 15.000000
_cell_length_b 6.000000
_cell_length_c 18.000000
_cell_angle_alpha 80.000000
_cell_angle_beta 150.000000
_cell_angle_gamma 90.000000
_cell_volume 759.581896
_symmetry_space_group_name_H-M "P -1"
_symmetry_group_IT_number 2
_symmetry_cell_setting 'triclinic'
loop_
_space_group_symop_operation_xyz
x,y,z
-x,-y,-z
loop_
_atom_site_type_symbol
_atom_site_label
_atom_site_fract_x
_atom_site_fract_y
_atom_site_fract_z
Si Si1 0.951216 0.865783 0.901238
Si Si2 0.023853 0.236469 0.832097
Si Si3 0.869572 0.450036 0.471336
Si Si4 0.613975 0.884264 0.192537
Si Si5 0.915817 0.685335 0.641514
Si Si6 0.747378 0.637259 0.876655
Si Si7 0.639584 0.124816 0.349868
Si Si8 0.211514 0.971792 0.834020
O O1 0.792148 0.757600 0.825485
O O2 0.917332 0.056185 0.798314
O O3 0.130671 0.639505 0.024063
O O4 0.000000 0.000000 0.000000
O O5 0.910917 0.510303 0.715879
O O6 0.124222 0.136474 0.832742
O O7 0.168195 0.250508 0.000119
O O8 0.933269 0.533527 0.588412
O O9 0.821630 0.210099 0.462863
O O10 0.000000 0.500000 0.500000
O O11 0.676621 0.636103 0.295163
O O12 0.584550 0.067780 0.229879
O O13 0.764403 0.924736 0.237700
O O14 0.429271 0.878705 0.017434
O O15 0.094922 0.783563 0.763987
O O16 0.723933 0.896359 0.476748
O O17 0.530768 0.694393 0.739194
#
# Coordination Sequence:
#
# PCOD9073547 Si02
#       8
#     2   2   2   2   2   2   2   2
#     4   9  21  39  66  95 126 156 208 264 324 384
#     4  11  21  38  65  93 126 167 208 264 316 377
#     4  11  23  39  58  86 129 181 215 258 312 374
#     4  10  23  38  61  92 126 170 219 267 308 366
#     4  11  24  38  60  90 130 171 211 256 320 374
#     4  10  21  40  67  97 122 162 212 263 321 379
#     4  11  23  41  63  93 130 172 214 261 313 382
#     4  11  22  39  61  93 129 167 218 266 310 369
#
# _framework density 21.064219999999999
#
# number of rings (size 3 to 8) (size 9 to 14) (size 15 to 20)
#    0.000    1.500    1.250    3.750    3.500    3.000 
#    0.000    3.750    0.000   12.750    0.000    0.000 
#    0.000    0.000    0.000    0.000    0.000    0.000 
#
# Total GULP energy -89129.120862 kJ/mol
# GULP energy per Si atom -5570.570054 kJ/mol
# Density = 2.101628 g / cm^3
# Si number density = 21.064220 Si / 1000 Ang^3
#
#
#
# Elastic Constant Matrix: (Units=GPa)
#
#
# Indices 1 2 3 4 5 6 
#
# 1 119.6850 20.5596 43.4981 -35.4038 -4.2834 20.9327
# 2 20.5596 47.0418 27.1986 -13.7670 -19.7638 28.3309
# 3 43.4981 27.1986 71.6724 5.0796 -8.0338 17.3566
# 4 -35.4038 -13.7670 5.0796 11.9492 4.6128 -8.8526
# 5 -4.2834 -19.7638 -8.0338 4.6128 20.7199 -3.1852
# 6 20.9327 28.3309 17.3566 -8.8526 -3.1852 34.8608
#
#
#
# Elastic Compliance Matrix: (Units=1/GPa)
#
#
# Indices 1 2 3 4 5 6 
#
# 1 -0.004812 -0.022730 0.012230 -0.038927 -0.008559 0.004605
# 2 -0.022730 0.074920 0.013675 -0.063073 0.076410 -0.063081
# 3 0.012230 0.013675 0.000289 0.045107 0.004608 -0.006726
# 4 -0.038927 -0.063073 0.045107 -0.094406 -0.025728 0.025850
# 5 -0.008559 0.076410 0.004608 -0.025728 0.118443 -0.054964
# 6 0.004605 -0.063081 -0.006726 0.025850 -0.054964 0.082077
#
#
# Mechanical properties :
#
#
# Convention : Reuss Voigt Hill
#
# Bulk Modulus (GPa) = 13.02975 46.76800 29.89887
# Shear Modulus (GPa) = 25.54386 23.31551 24.42969
#
# Velocity S-wave (km/s) = 3.48611 3.33059 3.40924
# Velocity P-wave (km/s) = 4.73319 6.08615 5.45180
#
# Compressibility (1/GPa) = 0.07674744
#
# Stress axis : x y z
#
# Youngs Moduli (GPa) = -207.82545 13.34762 3460.98299
#
# Poissons Ratio (x) = 0.30339 -42.32798
# Poissons Ratio (y) = -4.72383 -47.32896
# Poissons Ratio (z) = 2.54171 -0.18253
#
# Static dielectric constant tensor:
#      x y z
#    x 1.703040 -0.036570 -0.023550 
#    y -0.036570 1.791700 -0.087100 
#    z -0.023550 -0.087100 1.802590 
# 
# From -- ./inp_files/37577.got.cif
#   From: 2010.05.17/outbox.ucp.g08.bks.cvg/sg2_19_cif.got.tgz:37577.got - 2010.06.11 11:32:03.
