data_PCOD9073128
_publ_section_title
;
Structure prediction by ZEFSAII (Michael W. Deem and Ramdas Pophale) SiO2 
 PCOD9073128
Probable space group: P -1
;
_chemical_formula_sum "Si O2"
_cell_formula_units_Z 16
_cell_length_a 12.000000
_cell_length_b 12.000000
_cell_length_c 9.000000
_cell_angle_alpha 90.000000
_cell_angle_beta 120.000000
_cell_angle_gamma 130.000000
_cell_volume 752.153660
_symmetry_space_group_name_H-M "P -1"
_symmetry_group_IT_number 2
_symmetry_cell_setting 'triclinic'
loop_
_space_group_symop_operation_xyz
x,y,z
-x,-y,-z
loop_
_atom_site_type_symbol
_atom_site_label
_atom_site_fract_x
_atom_site_fract_y
_atom_site_fract_z
Si Si1 0.964320 0.245736 0.202372
Si Si2 0.280381 0.904928 0.458336
Si Si3 0.325357 0.534981 0.257688
Si Si4 0.286056 0.773816 0.182597
Si Si5 0.291443 0.156319 0.316053
Si Si6 0.139237 0.062709 0.893654
Si Si7 0.037843 0.392127 0.554285
Si Si8 0.297232 0.403743 0.926089
O O1 0.141345 0.356678 0.206163
O O2 0.069125 0.362944 0.413835
O O3 0.856321 0.060229 0.169374
O O4 0.818453 0.239328 0.027549
O O5 0.204133 0.769147 0.283090
O O6 0.150644 0.791726 0.510553
O O7 0.498660 0.038652 0.660044
O O8 0.275602 0.022110 0.375741
O O9 0.282367 0.637734 0.189233
O O10 0.518725 0.665034 0.487657
O O11 0.345509 0.479896 0.120957
O O12 0.281621 0.147519 0.130825
O O13 0.086791 0.078303 0.218085
O O14 0.179645 0.209939 0.846777
O O15 0.199193 0.443505 0.771105
O O16 0.000000 0.500000 0.500000
O O17 0.500000 0.500000 0.000000
#
# Coordination Sequence:
#
# PCOD9073128 Si02
#       8
#     2   2   2   2   2   2   2   2
#     4  12  25  41  71 106 136 186 233 284 349 419
#     4  10  20  42  69 100 139 176 231 284 349 408
#     4  11  24  43  73  99 141 180 239 281 346 419
#     4  10  21  40  72 102 130 181 236 288 338 414
#     4  10  21  41  71 101 130 184 224 288 337 409
#     4  11  24  42  69  96 141 175 232 282 345 411
#     4  12  27  46  70 101 147 185 230 294 353 409
#     4  12  29  48  69 103 146 186 228 294 353 415
#
# _framework density 21.272248999999999
#
# number of rings (size 3 to 8) (size 9 to 14) (size 15 to 20)
#    0.000    1.000    2.500    4.125    3.500    5.000 
#    0.000    0.000    0.000    0.000    0.000    0.000 
#    0.000    0.000    0.000    0.000    0.000    0.000 
#
# Total GULP energy -89198.880993 kJ/mol
# GULP energy per Si atom -5574.930062 kJ/mol
# Density = 2.122383 g / cm^3
# Si number density = 21.272249 Si / 1000 Ang^3
#
#
#
# Elastic Constant Matrix: (Units=GPa)
#
#
# Indices 1 2 3 4 5 6 
#
# 1 64.0150 29.7650 23.4755 -3.2314 -7.1307 -10.1382
# 2 29.7650 94.2234 14.9730 -0.3858 10.6681 -30.2559
# 3 23.4755 14.9730 102.0537 -3.5875 20.5506 -6.5014
# 4 -3.2314 -0.3858 -3.5875 27.8150 -3.0980 -3.8974
# 5 -7.1307 10.6681 20.5506 -3.0980 31.4300 1.4684
# 6 -10.1382 -30.2559 -6.5014 -3.8974 1.4684 33.4225
#
#
#
# Elastic Compliance Matrix: (Units=1/GPa)
#
#
# Indices 1 2 3 4 5 6 
#
# 1 0.023253 -0.008397 -0.006752 0.002860 0.012920 -0.002095
# 2 -0.008397 0.019174 0.002276 0.000618 -0.010578 0.015790
# 3 -0.006752 0.002276 0.013491 0.000175 -0.011256 0.003152
# 4 0.002860 0.000618 0.000175 0.037529 0.003758 0.005672
# 5 0.012920 -0.010578 -0.011256 0.003758 0.046510 -0.009452
# 6 -0.002095 0.015790 0.003152 0.005672 -0.009452 0.045269
#
#
# Mechanical properties :
#
#
# Convention : Reuss Voigt Hill
#
# Bulk Modulus (GPa) = 33.14023 44.07991 38.61007
# Shear Modulus (GPa) = 22.62147 31.33873 26.98010
#
# Velocity S-wave (km/s) = 3.26456 3.84242 3.56522
# Velocity P-wave (km/s) = 5.46102 6.36022 5.92769
#
# Compressibility (1/GPa) = 0.03017480
#
# Stress axis : x y z
#
# Youngs Moduli (GPa) = 43.00495 52.15263 74.12121
#
# Poissons Ratio (x) = 0.43790 0.50044
# Poissons Ratio (y) = 0.36109 -0.16870
# Poissons Ratio (z) = 0.29035 -0.11870
#
# Static dielectric constant tensor:
#      x y z
#    x 1.919620 0.061170 -0.045470 
#    y 0.061170 1.819930 -0.055530 
#    z -0.045470 -0.055530 1.776090 
# 
# From -- ./inp_files/262581.got.cif
#   From: 2010.05.17/outbox.ucp.g08.bks.cvg/sg2_132_cif.got.tgz:262581.got - 2010.06.11 11:32:03.
