data_PCOD9073683
_publ_section_title
;
Structure prediction by ZEFSAII (Michael W. Deem and Ramdas Pophale) SiO2 
 PCOD9073683
Probable space group: P -1
;
_chemical_formula_sum "Si O2"
_cell_formula_units_Z 16
_cell_length_a 12.000000
_cell_length_b 18.000000
_cell_length_c 21.000000
_cell_angle_alpha 160.000000
_cell_angle_beta 140.000000
_cell_angle_gamma 30.000000
_cell_volume 744.844803
_symmetry_space_group_name_H-M "P -1"
_symmetry_group_IT_number 2
_symmetry_cell_setting 'triclinic'
loop_
_space_group_symop_operation_xyz
x,y,z
-x,-y,-z
loop_
_atom_site_type_symbol
_atom_site_label
_atom_site_fract_x
_atom_site_fract_y
_atom_site_fract_z
Si Si1 0.286022 0.272350 0.265998
Si Si2 0.503108 0.171829 0.696547
Si Si3 0.011700 0.073590 0.322435
Si Si4 0.793312 0.647982 0.948289
Si Si5 0.319816 0.656084 0.910774
Si Si6 0.981903 0.412816 0.125034
Si Si7 0.018730 0.310399 0.298627
Si Si8 0.815520 0.340429 0.822994
O O1 0.100804 0.342272 0.188811
O O2 0.203548 0.239457 0.270144
O O3 0.216754 0.585717 0.496903
O O4 0.546168 0.976428 0.120764
O O5 0.405605 0.473257 0.865349
O O6 0.296210 0.296892 0.757976
O O7 0.500000 0.000000 0.500000
O O8 0.781025 0.978787 0.668851
O O9 0.097904 0.944756 0.329221
O O10 0.984961 0.862654 0.106864
O O11 0.861437 0.574408 0.844674
O O12 0.804317 0.409069 0.798298
O O13 0.006004 0.623909 0.045852
O O14 0.548748 0.577655 0.919288
O O15 0.215464 0.564625 0.741701
O O16 0.122062 0.994344 0.112067
O O17 0.000000 0.500000 0.500000
#
# Coordination Sequence:
#
# PCOD9073683 Si02
#       8
#     2   2   2   2   2   2   2   2
#     4  12  23  44  65  98 138 166 221 275 320 399
#     4  11  20  41  64  94 133 165 216 277 328 385
#     4  10  23  39  70  97 128 172 217 273 334 380
#     4  10  22  43  69  92 133 183 219 263 326 390
#     4  10  21  42  67  92 132 167 220 275 328 385
#     4  11  23  40  66  98 128 180 215 263 335 390
#     4  11  24  40  66 100 132 175 213 274 343 390
#     4   9  20  43  65  92 127 174 218 271 314 382
#
# _framework density 21.480985
#
# number of rings (size 3 to 8) (size 9 to 14) (size 15 to 20)
#    0.000    1.500    3.750    0.750    1.750    2.000 
#    6.750    0.625    0.000    0.000    0.000    0.000 
#    0.000    0.000    0.000    0.000    0.000    0.000 
#
# Total GULP energy -89230.240093 kJ/mol
# GULP energy per Si atom -5576.890006 kJ/mol
# Density = 2.143209 g / cm^3
# Si number density = 21.480985 Si / 1000 Ang^3
#
#
#
# Elastic Constant Matrix: (Units=GPa)
#
#
# Indices 1 2 3 4 5 6 
#
# 1 134.8694 21.6282 21.0212 10.6067 -21.8985 -3.1552
# 2 21.6282 63.9010 10.2648 0.2790 -6.4913 -10.9393
# 3 21.0212 10.2648 85.3184 -1.3267 -14.1936 9.4663
# 4 10.6067 0.2790 -1.3267 36.0975 2.8561 0.3632
# 5 -21.8985 -6.4913 -14.1936 2.8561 31.0562 3.2890
# 6 -3.1552 -10.9393 9.4663 0.3632 3.2890 41.5136
#
#
#
# Elastic Compliance Matrix: (Units=1/GPa)
#
#
# Indices 1 2 3 4 5 6 
#
# 1 0.009137 -0.002344 -0.001044 -0.003161 0.005779 -0.000115
# 2 -0.002344 0.017653 -0.001985 0.000384 0.000578 0.004877
# 3 -0.001044 -0.001985 0.013591 0.000431 0.005459 -0.004138
# 4 -0.003161 0.000384 0.000431 0.029010 -0.004606 -0.000126
# 5 0.005779 0.000578 0.005459 -0.004606 0.039712 -0.003759
# 6 -0.000115 0.004877 -0.004138 -0.000126 -0.003759 0.026607
#
#
# Mechanical properties :
#
#
# Convention : Reuss Voigt Hill
#
# Bulk Modulus (GPa) = 33.74445 43.32411 38.53428
# Shear Modulus (GPa) = 31.98227 37.14510 34.56369
#
# Velocity S-wave (km/s) = 3.86277 4.16289 4.01563
# Velocity P-wave (km/s) = 5.96973 6.58168 6.28316
#
# Compressibility (1/GPa) = 0.02963450
#
# Stress axis : x y z
#
# Youngs Moduli (GPa) = 109.44011 56.64629 73.57856
#
# Poissons Ratio (x) = 0.13277 0.07684
# Poissons Ratio (y) = 0.25651 0.14609
# Poissons Ratio (z) = 0.11429 0.11247
#
# Static dielectric constant tensor:
#      x y z
#    x 1.867830 0.055510 0.041100 
#    y 0.055510 1.822740 -0.002170 
#    z 0.041100 -0.002170 1.803670 
# 
# From -- ./inp_files/596069.got.cif
#   From: 2010.05.17/outbox.ucp.g08.bks.cvg/sg2_299_cif.got.tgz:596069.got - 2010.06.11 11:32:03.
