data_PCOD9073285
_publ_section_title
;
Structure prediction by ZEFSAII (Michael W. Deem and Ramdas Pophale) SiO2 
 PCOD9073285
Probable space group: P -1
;
_chemical_formula_sum "Si O2"
_cell_formula_units_Z 16
_cell_length_a 9.000000
_cell_length_b 27.000000
_cell_length_c 27.000000
_cell_angle_alpha 170.000000
_cell_angle_beta 140.000000
_cell_angle_gamma 40.000000
_cell_volume 728.340053
_symmetry_space_group_name_H-M "P -1"
_symmetry_group_IT_number 2
_symmetry_cell_setting 'triclinic'
loop_
_space_group_symop_operation_xyz
x,y,z
-x,-y,-z
loop_
_atom_site_type_symbol
_atom_site_label
_atom_site_fract_x
_atom_site_fract_y
_atom_site_fract_z
Si Si1 0.485928 0.173218 0.946281
Si Si2 0.719163 0.311461 0.750263
Si Si3 0.318497 0.273700 0.223489
Si Si4 0.990654 0.454026 0.229306
Si Si5 0.323765 0.030090 0.313056
Si Si6 0.040856 0.730721 0.780339
Si Si7 0.095606 0.263091 0.719007
Si Si8 0.151400 0.696653 0.404384
O O1 0.567513 0.062041 0.803120
O O2 0.306219 0.959782 0.711590
O O3 0.707292 0.238545 0.100089
O O4 0.329443 0.471051 0.198923
O O5 0.502287 0.168892 0.531678
O O6 0.867837 0.390517 0.817999
O O7 0.863109 0.062046 0.572630
O O8 0.701256 0.570963 0.040762
O O9 0.500000 0.500000 0.500000
O O10 0.190641 0.301701 0.165238
O O11 0.134509 0.282593 0.230839
O O12 0.500000 0.000000 0.000000
O O13 0.070852 0.575502 0.316957
O O14 0.882582 0.715917 0.493990
O O15 0.793751 0.238429 0.959351
O O16 0.000000 0.500000 0.500000
O O17 0.000000 0.000000 0.000000
O O18 0.054284 0.257047 0.643605
#
# Coordination Sequence:
#
# PCOD9073285 Si02
#       8
#     2   2   2   2   2   2   2   2
#     4  12  26  45  74 100 138 180 241 283 333 406
#     4  10  21  37  68  99 137 178 228 283 342 395
#     4  12  28  48  72 100 140 184 223 274 357 420
#     4  12  28  47  70  99 146 180 230 281 349 419
#     4  12  24  47  71 102 134 191 231 282 338 413
#     4  12  28  47  71 105 137 173 231 290 338 404
#     4  10  21  38  63 105 137 174 228 289 334 400
#     4  12  26  45  71 105 140 184 230 288 342 404
#
# _framework density 21.967760999999999
#
# number of rings (size 3 to 8) (size 9 to 14) (size 15 to 20)
#    0.000    0.500    2.500    5.250   10.500    0.000 
#    0.000    3.750    0.000    0.000    0.000    0.000 
#    0.000    0.000    0.000    0.000    0.000    0.000 
#
# Total GULP energy -89308.684923 kJ/mol
# GULP energy per Si atom -5581.792808 kJ/mol
# Density = 2.191776 g / cm^3
# Si number density = 21.967761 Si / 1000 Ang^3
#
#
#
# Elastic Constant Matrix: (Units=GPa)
#
#
# Indices 1 2 3 4 5 6 
#
# 1 3.6951 35.0642 -29.6345 -34.0992 3.6756 27.4810
# 2 35.0642 129.3098 35.4020 -23.8234 10.6005 26.4163
# 3 -29.6345 35.4020 124.2762 -33.5982 4.2443 1.5974
# 4 -34.0992 -23.8234 -33.5982 43.9315 -16.4799 0.0998
# 5 3.6756 10.6005 4.2443 -16.4799 37.0820 -0.1599
# 6 27.4810 26.4163 1.5974 0.0998 -0.1599 33.2977
#
#
#
# Elastic Compliance Matrix: (Units=1/GPa)
#
#
# Indices 1 2 3 4 5 6 
#
# 1 -0.011718 0.000669 -0.007362 -0.016428 -0.005447 0.009516
# 2 0.000669 0.010775 -0.001414 0.005001 -0.000801 -0.009051
# 3 -0.007362 -0.001414 0.006076 -0.002009 -0.000425 0.006911
# 4 -0.016428 0.005001 -0.002009 0.013610 0.006519 0.009678
# 5 -0.005447 -0.000801 -0.000425 0.006519 0.030705 0.005279
# 6 0.009516 -0.009051 0.006911 0.009678 0.005279 0.029024
#
#
# Mechanical properties :
#
#
# Convention : Reuss Voigt Hill
#
# Bulk Modulus (GPa) = -90.24302 37.66050 -26.29126
# Shear Modulus (GPa) = 54.94810 37.29218 46.12014
#
# Velocity S-wave (km/s) = 5.00673 4.12465 4.58694
# Velocity P-wave (km/s) = 2.78312 6.31382 4.00741
#
# Compressibility (1/GPa) = -0.01108119
#
# Stress axis : x y z
#
# Youngs Moduli (GPa) = -85.34199 92.80469 164.57158
#
# Poissons Ratio (x) = -0.06208 1.21161
# Poissons Ratio (y) = 0.05708 0.23276
# Poissons Ratio (z) = -0.62831 0.13126
#
# Static dielectric constant tensor:
#      x y z
#    x 1.758570 -0.053500 0.002680 
#    y -0.053500 1.759350 0.126720 
#    z 0.002680 0.126720 1.748590 
# 
# From -- ./inp_files/617719.got.cif
#   From: 2010.05.17/outbox.ucp.g08.bks.cvg/sg2_309_cif.got.tgz:617719.got - 2010.06.11 11:32:03.
