data_PCOD9073141
_publ_section_title
;
Structure prediction by ZEFSAII (Michael W. Deem and Ramdas Pophale) SiO2 
 PCOD9073141
Probable space group: P -1
;
_chemical_formula_sum "Si O2"
_cell_formula_units_Z 16
_cell_length_a 12.000000
_cell_length_b 9.000000
_cell_length_c 9.000000
_cell_angle_alpha 90.000000
_cell_angle_beta 90.000000
_cell_angle_gamma 50.000000
_cell_volume 744.595199
_symmetry_space_group_name_H-M "P -1"
_symmetry_group_IT_number 2
_symmetry_cell_setting 'triclinic'
loop_
_space_group_symop_operation_xyz
x,y,z
-x,-y,-z
loop_
_atom_site_type_symbol
_atom_site_label
_atom_site_fract_x
_atom_site_fract_y
_atom_site_fract_z
Si Si1 0.110193 0.546404 0.518442
Si Si2 0.828874 0.276157 0.242442
Si Si3 0.517978 0.452069 0.266051
Si Si4 0.338373 0.890349 0.322604
Si Si5 0.896990 0.154778 0.686127
Si Si6 0.558176 0.763380 0.570135
Si Si7 0.704193 0.484747 0.930267
Si Si8 0.610713 0.878113 0.864777
O O1 0.120972 0.613932 0.679670
O O2 0.074773 0.728381 0.422825
O O3 0.275378 0.351786 0.479953
O O4 0.000000 0.500000 0.500000
O O5 0.685781 0.319836 0.309487
O O6 0.762185 0.379104 0.085303
O O7 0.957776 0.046698 0.252137
O O8 0.455520 0.671002 0.262179
O O9 0.444457 0.409778 0.389201
O O10 0.461351 0.419232 0.115525
O O11 0.201647 0.903045 0.366456
O O12 0.425354 0.894950 0.456700
O O13 0.312843 0.037710 0.196792
O O14 0.803095 0.312384 0.813799
O O15 0.529410 0.878913 0.720611
O O16 0.715238 0.652649 0.911859
O O17 0.500000 0.000000 0.000000
#
# Coordination Sequence:
#
# PCOD9073141 Si02
#       8
#     2   2   2   2   2   2   2   2
#     4  12  26  47  69 100 146 184 225 289 348 408
#     4  12  24  42  73 106 134 185 238 274 348 415
#     4  10  20  42  76  98 137 171 231 292 337 403
#     4  11  21  42  75 100 136 182 230 284 341 410
#     4  11  25  47  70 103 139 181 233 287 344 409
#     4  11  22  45  71  98 138 182 230 284 351 400
#     4  10  23  47  69  98 145 179 226 287 348 402
#     4  11  24  41  67 104 140 174 229 286 344 407
#
# _framework density 21.488185999999999
#
# number of rings (size 3 to 8) (size 9 to 14) (size 15 to 20)
#    0.000    1.000    5.000    3.375    1.750    3.000 
#    4.500    5.000    0.000    0.000    0.000    0.000 
#    0.000    0.000    0.000    0.000    0.000    0.000 
#
# Total GULP energy -89259.495348 kJ/mol
# GULP energy per Si atom -5578.718459 kJ/mol
# Density = 2.143928 g / cm^3
# Si number density = 21.488186 Si / 1000 Ang^3
#
#
#
# Elastic Constant Matrix: (Units=GPa)
#
#
# Indices 1 2 3 4 5 6 
#
# 1 157.4312 53.7681 31.6140 -10.7003 -2.9560 4.1319
# 2 53.7681 123.7495 28.7106 -7.9418 2.0972 3.0503
# 3 31.6140 28.7106 92.0321 -4.2234 3.6751 11.4244
# 4 -10.7003 -7.9418 -4.2234 39.5246 5.1208 -0.6164
# 5 -2.9560 2.0972 3.6751 5.1208 24.4680 -7.2589
# 6 4.1319 3.0503 11.4244 -0.6164 -7.2589 37.6540
#
#
#
# Elastic Compliance Matrix: (Units=1/GPa)
#
#
# Indices 1 2 3 4 5 6 
#
# 1 0.007811 -0.002929 -0.001790 0.001173 0.001274 0.000188
# 2 -0.002929 0.009907 -0.001974 0.001137 -0.001171 -0.000089
# 3 -0.001790 -0.001974 0.012787 0.000858 -0.003382 -0.004161
# 4 0.001173 0.001137 0.000858 0.026701 -0.006031 -0.001207
# 5 0.001274 -0.001171 -0.003382 -0.006031 0.045774 0.009707
# 6 0.000188 -0.000089 -0.004161 -0.001207 0.009707 0.029658
#
#
# Mechanical properties :
#
#
# Convention : Reuss Voigt Hill
#
# Bulk Modulus (GPa) = 58.41710 66.82204 62.61957
# Shear Modulus (GPa) = 32.95335 37.60400 35.27867
#
# Velocity S-wave (km/s) = 3.92031 4.18782 4.05627
# Velocity P-wave (km/s) = 6.90916 7.38569 7.15140
#
# Compressibility (1/GPa) = 0.01711828
#
# Stress axis : x y z
#
# Youngs Moduli (GPa) = 128.03264 100.94210 78.20208
#
# Poissons Ratio (x) = 0.29570 0.13994
# Poissons Ratio (y) = 0.37506 0.15439
# Poissons Ratio (z) = 0.22912 0.19928
#
# Static dielectric constant tensor:
#      x y z
#    x 1.803570 0.004500 -0.037080 
#    y 0.004500 1.785250 -0.004660 
#    z -0.037080 -0.004660 1.900550 
# 
# From -- ./inp_files/244037.got.cif
#   From: 2010.05.17/outbox.ucp.g08.bks.cvg/sg2_123_cif.got.tgz:244037.got - 2010.06.11 11:32:03.
