data_PCOD9073069
_publ_section_title
;
Structure prediction by ZEFSAII (Michael W. Deem and Ramdas Pophale) SiO2 
 PCOD9073069
Probable space group: P -1
;
_chemical_formula_sum "Si O2"
_cell_formula_units_Z 15
_cell_length_a 9.000000
_cell_length_b 9.000000
_cell_length_c 18.000000
_cell_angle_alpha 60.000000
_cell_angle_beta 130.000000
_cell_angle_gamma 80.000000
_cell_volume 643.920384
_symmetry_space_group_name_H-M "P -1"
_symmetry_group_IT_number 2
_symmetry_cell_setting 'triclinic'
loop_
_space_group_symop_operation_xyz
x,y,z
-x,-y,-z
loop_
_atom_site_type_symbol
_atom_site_label
_atom_site_fract_x
_atom_site_fract_y
_atom_site_fract_z
Si Si1 0.237908 0.993681 0.796559
Si Si2 0.812162 0.111746 0.987976
Si Si3 0.772717 0.699856 0.688117
Si Si4 0.877908 0.946943 0.752507
Si Si5 0.802615 0.574800 0.571370
Si Si6 0.182756 0.095161 0.598825
Si Si7 0.500000 0.000000 0.000000
Si Si8 0.582491 0.337207 0.333107
O O1 0.359068 0.966530 0.763044
O O2 0.000503 0.288723 0.678490
O O3 0.482747 0.856378 0.970280
O O4 0.081022 0.915004 0.767989
O O5 0.553921 0.418330 0.817338
O O6 0.675258 0.018061 0.989851
O O7 0.005406 0.065909 0.127663
O O8 0.000000 0.000000 0.000000
O O9 0.897885 0.734696 0.786529
O O10 0.926123 0.559342 0.693932
O O11 0.646474 0.603435 0.701424
O O12 0.500000 0.000000 0.500000
O O13 0.539357 0.230704 0.573002
O O14 0.827952 0.709217 0.486415
O O15 0.865822 0.235002 0.486385
O O16 0.306157 0.888312 0.627833
#
# Coordination Sequence:
#
# PCOD9073069 Si02
#       8
#     2   2   2   2   2   2   1   2
#     4  11  24  41  67  94 135 178 223 286 341 406
#     4  11  27  46  71  98 142 184 231 288 345 414
#     4  10  20  41  64  97 137 165 228 279 329 414
#     4  10  23  42  62  99 131 175 231 278 343 409
#     4  11  22  39  68 100 128 178 225 283 341 395
#     4  11  23  40  68  96 137 170 227 285 336 415
#     4  10  26  50  60 104 138 176 232 278 352 404
#     4  11  24  42  66 103 133 181 225 278 353 404
#
# _framework density 23.294805
#
# number of rings (size 3 to 8) (size 9 to 14) (size 15 to 20)
#    0.000    1.333    2.667    3.200    9.333    0.533 
#    2.400    1.333    0.000    0.000    0.000    0.000 
#    0.000    0.000    0.000    0.000    0.000    0.000 
#
# Total GULP energy -83547.480106 kJ/mol
# GULP energy per Si atom -5569.832007 kJ/mol
# Density = 2.324179 g / cm^3
# Si number density = 23.294805 Si / 1000 Ang^3
#
#
#
# Elastic Constant Matrix: (Units=GPa)
#
#
# Indices 1 2 3 4 5 6 
#
# 1 145.1918 6.0946 7.3091 20.9866 -15.0757 15.5330
# 2 6.0946 25.6898 -12.8923 20.9674 -2.2950 11.4805
# 3 7.3091 -12.8923 64.5517 16.3845 -5.5742 1.6218
# 4 20.9866 20.9674 16.3845 21.6620 7.4020 -16.6669
# 5 -15.0757 -2.2950 -5.5742 7.4020 21.4210 7.4418
# 6 15.5330 11.4805 1.6218 -16.6669 7.4418 31.7515
#
#
#
# Elastic Compliance Matrix: (Units=1/GPa)
#
#
# Indices 1 2 3 4 5 6 
#
# 1 0.006645 -0.007515 -0.003332 0.004380 0.000891 0.001727
# 2 -0.007515 0.008824 -0.005576 0.023627 -0.020178 0.017902
# 3 -0.003332 -0.005576 0.011650 0.009158 -0.006320 0.009339
# 4 0.004380 0.023627 0.009158 -0.010821 0.019143 -0.021320
# 5 0.000891 -0.020178 -0.006320 0.019143 0.033642 0.009346
# 6 0.001727 0.017902 0.009339 -0.021320 0.009346 0.010318
#
#
# Mechanical properties :
#
#
# Convention : Reuss Voigt Hill
#
# Bulk Modulus (GPa) = -174.63570 26.27288 -74.18141
# Shear Modulus (GPa) = 54.82756 30.62836 42.72796
#
# Velocity S-wave (km/s) = 4.85669 3.62997 4.28743
# Velocity P-wave (km/s) = 6.60912 5.37325 2.72108
#
# Compressibility (1/GPa) = -0.00572621
#
# Stress axis : x y z
#
# Youngs Moduli (GPa) = 150.48117 113.32998 85.83580
#
# Poissons Ratio (x) = 0.85170 0.28596
# Poissons Ratio (y) = 1.13090 0.47862
# Poissons Ratio (z) = 0.50133 0.63193
#
# Static dielectric constant tensor:
#      x y z
#    x 1.895400 -0.005640 0.023560 
#    y -0.005640 1.886730 0.087600 
#    z 0.023560 0.087600 2.025680 
# 
# From -- ./inp_files/557036.got.cif
#   From: 2010.05.17/outbox.ucp.g08.bks.cvg/sg2_279_cif.got.tgz:557036.got - 2010.06.11 11:32:03.
