data_PCOD9073559
_publ_section_title
;
Structure prediction by ZEFSAII (Michael W. Deem and Ramdas Pophale) SiO2 
 PCOD9073559
Probable space group: P -1
;
_chemical_formula_sum "Si O2"
_cell_formula_units_Z 14
_cell_length_a 9.000000
_cell_length_b 9.000000
_cell_length_c 18.000000
_cell_angle_alpha 60.000000
_cell_angle_beta 150.000000
_cell_angle_gamma 120.000000
_cell_volume 623.732165
_symmetry_space_group_name_H-M "P -1"
_symmetry_group_IT_number 2
_symmetry_cell_setting 'triclinic'
loop_
_space_group_symop_operation_xyz
x,y,z
-x,-y,-z
loop_
_atom_site_type_symbol
_atom_site_label
_atom_site_fract_x
_atom_site_fract_y
_atom_site_fract_z
Si Si1 0.206899 0.173412 0.108951
Si Si2 0.755969 0.037603 0.321648
Si Si3 0.941313 0.479198 0.890961
Si Si4 0.616920 0.408253 0.329631
Si Si5 0.971616 0.781406 0.364822
Si Si6 0.360406 0.674878 0.906288
Si Si7 0.801791 0.951906 0.105089
O O1 0.413787 0.038146 0.201936
O O2 0.458061 0.328415 0.207153
O O3 0.002301 0.286859 0.944863
O O4 0.008942 0.096759 0.112022
O O5 0.811943 0.226091 0.255656
O O6 0.780728 0.892036 0.306483
O O7 0.000000 0.000000 0.500000
O O8 0.145415 0.626801 0.895807
O O9 0.601883 0.513043 0.728349
O O10 0.000000 0.500000 0.000000
O O11 0.836582 0.577449 0.354616
O O12 0.724857 0.241451 0.455843
O O13 0.983850 0.869710 0.268378
O O14 0.500000 0.500000 0.000000
O O15 0.653500 0.810578 0.018149
O O16 0.500000 0.000000 0.000000
#
# Coordination Sequence:
#
# PCOD9073559 Si02
#       7
#     2   2   2   2   2   2   2
#     4  11  23  42  70  98 140 177 228 285 340 413
#     4  12  26  45  68 104 141 182 226 286 349 403
#     4  10  21  40  68  97 131 177 231 276 334 410
#     4  10  22  41  67  99 128 184 224 278 343 404
#     4  11  24  42  72  94 140 178 228 285 343 407
#     4  12  26  45  70  99 142 183 223 287 343 411
#     4  12  24  42  67 106 130 175 236 284 337 404
#
# _framework density 22.445532
#
# number of rings (size 3 to 8) (size 9 to 14) (size 15 to 20)
#    0.000    0.857    4.286    4.286    0.000    3.429 
#    0.000    0.000    0.000    4.286    0.000    0.000 
#    0.000    0.000    0.000    0.000    0.000    0.000 
#
# Total GULP energy -77987.307599 kJ/mol
# GULP energy per Si atom -5570.521971 kJ/mol
# Density = 2.239444 g / cm^3
# Si number density = 22.445532 Si / 1000 Ang^3
#
#
#
# Elastic Constant Matrix: (Units=GPa)
#
#
# Indices 1 2 3 4 5 6 
#
# 1 116.4748 28.8409 23.2275 -27.2042 5.9128 18.4704
# 2 28.8409 89.3468 27.9617 -26.1386 -9.6992 -1.4779
# 3 23.2275 27.9617 39.2311 -51.2234 6.0907 -21.2181
# 4 -27.2042 -26.1386 -51.2234 47.7587 -5.0690 -1.8674
# 5 5.9128 -9.6992 6.0907 -5.0690 34.0850 -12.9282
# 6 18.4704 -1.4779 -21.2181 -1.8674 -12.9282 42.9203
#
#
#
# Elastic Compliance Matrix: (Units=1/GPa)
#
#
# Indices 1 2 3 4 5 6 
#
# 1 0.011381 -0.002934 0.002462 0.006910 -0.003999 -0.004685
# 2 -0.002934 0.015127 -0.002727 0.004535 0.007017 0.002747
# 3 0.002462 -0.002727 -0.032826 -0.037113 -0.009102 -0.021738
# 4 0.006910 0.004535 -0.037113 -0.013776 -0.004042 -0.022982
# 5 -0.003999 0.007017 -0.009102 -0.004042 0.036156 0.008178
# 6 -0.004685 0.002747 -0.021738 -0.022982 0.008178 0.016127
#
#
# Mechanical properties :
#
#
# Convention : Reuss Voigt Hill
#
# Bulk Modulus (GPa) = -78.64239 45.01253 -16.81493
# Shear Modulus (GPa) = 145.56885 35.95432 90.76158
#
# Velocity S-wave (km/s) = 8.06195 4.00665 6.36586
# Velocity P-wave (km/s) = 7.17963 6.44220 6.82089
#
# Compressibility (1/GPa) = -0.01271579
#
# Stress axis : x y z
#
# Youngs Moduli (GPa) = 87.86535 66.10772 -30.46383
#
# Poissons Ratio (x) = 0.19398 0.07501
# Poissons Ratio (y) = 0.25783 -0.08307
# Poissons Ratio (z) = -0.21635 0.18027
#
# Static dielectric constant tensor:
#      x y z
#    x 1.915520 -0.064140 0.003730 
#    y -0.064140 1.899030 0.021720 
#    z 0.003730 0.021720 1.982780 
# 
# From -- ./inp_files/316160.got.cif
#   From: 2010.05.17/outbox.ucp.g08.bks.cvg/sg2_159_cif.got.tgz:316160.got - 2010.06.11 11:32:03.
