data_PCOD9073383
_publ_section_title
;
Structure prediction by ZEFSAII (Michael W. Deem and Ramdas Pophale) SiO2 
 PCOD9073383
Probable space group: P -1
;
_chemical_formula_sum "Si O2"
_cell_formula_units_Z 16
_cell_length_a 15.000000
_cell_length_b 9.000000
_cell_length_c 9.000000
_cell_angle_alpha 110.000000
_cell_angle_beta 100.000000
_cell_angle_gamma 130.000000
_cell_volume 732.374747
_symmetry_space_group_name_H-M "P -1"
_symmetry_group_IT_number 2
_symmetry_cell_setting 'triclinic'
loop_
_space_group_symop_operation_xyz
x,y,z
-x,-y,-z
loop_
_atom_site_type_symbol
_atom_site_label
_atom_site_fract_x
_atom_site_fract_y
_atom_site_fract_z
Si Si1 0.864716 0.056145 0.490039
Si Si2 0.302393 0.483313 0.755091
Si Si3 0.841819 0.567184 0.839154
Si Si4 0.414626 0.787405 0.589851
Si Si5 0.414638 0.121196 0.590435
Si Si6 0.891493 0.158272 0.185016
Si Si7 0.330537 0.386878 0.043551
Si Si8 0.131794 0.532736 0.876025
O O1 0.919919 0.172919 0.377459
O O2 0.984506 0.253626 0.708292
O O3 0.815293 0.807881 0.411005
O O4 0.734398 0.998263 0.468430
O O5 0.382531 0.648223 0.684851
O O6 0.241656 0.563879 0.836232
O O7 0.369629 0.482560 0.917384
O O8 0.721451 0.393681 0.619874
O O9 0.790299 0.652185 0.946689
O O10 0.986003 0.756936 0.852683
O O11 0.845390 0.439505 0.928679
O O12 0.542677 0.887841 0.563633
O O13 0.439694 0.010251 0.677502
O O14 0.531924 0.406631 0.752320
O O15 0.875417 0.311150 0.161340
O O16 0.741657 0.875444 0.040297
#
# Coordination Sequence:
#
# PCOD9073383 Si02
#       8
#     2   2   2   2   2   2   2   2
#     4  11  23  39  60  88 122 154 192 240 293 351
#     4  10  22  39  61  88 116 153 196 243 293 343
#     4  10  21  39  61  89 118 151 197 243 293 342
#     4  10  21  41  65  85 116 156 195 242 291 345
#     4  10  22  41  60  84 120 157 194 237 290 349
#     4  11  21  36  61  88 119 155 192 241 292 344
#     4   9  22  40  60  88 120 154 193 240 289 347
#     4  11  22  38  61  90 120 151 195 244 293 345
#
# _framework density 21.846738999999999
#
# number of rings (size 3 to 8) (size 9 to 14) (size 15 to 20)
#    0.000    1.750    0.000    3.750    0.000    7.000 
#    0.000    8.750    0.000    0.000    0.000    0.000 
#    0.000    0.000    0.000    0.000    0.000    0.000 
#
# Total GULP energy -89330.150698 kJ/mol
# GULP energy per Si atom -5583.134419 kJ/mol
# Density = 2.179701 g / cm^3
# Si number density = 21.846739 Si / 1000 Ang^3
#
#
#
# Elastic Constant Matrix: (Units=GPa)
#
#
# Indices 1 2 3 4 5 6 
#
# 1 49.8826 18.6348 -7.3110 -22.8027 -13.3327 19.8452
# 2 18.6348 138.8488 21.3774 -33.2364 -14.3333 18.2654
# 3 -7.3110 21.3774 61.8271 -4.0846 -5.2014 14.6829
# 4 -22.8027 -33.2364 -4.0846 39.3294 1.6768 -12.5444
# 5 -13.3327 -14.3333 -5.2014 1.6768 18.6483 2.1340
# 6 19.8452 18.2654 14.6829 -12.5444 2.1340 36.8838
#
#
#
# Elastic Compliance Matrix: (Units=1/GPa)
#
#
# Indices 1 2 3 4 5 6 
#
# 1 0.070176 0.007056 0.023705 0.032551 0.064240 -0.043334
# 2 0.007056 0.011016 0.000415 0.010792 0.013404 -0.006522
# 3 0.023705 0.000415 0.026928 0.008655 0.026548 -0.022272
# 4 0.032551 0.010792 0.008655 0.049404 0.030831 -0.011285
# 5 0.064240 0.013404 0.026548 0.030831 0.120006 -0.048227
# 6 -0.043334 -0.006522 -0.022272 -0.011285 -0.048227 0.061476
#
#
# Mechanical properties :
#
#
# Convention : Reuss Voigt Hill
#
# Bulk Modulus (GPa) = 5.86612 35.10677 20.48644
# Shear Modulus (GPa) = 14.99346 33.49610 24.24478
#
# Velocity S-wave (km/s) = 2.62258 3.91990 3.33493
# Velocity P-wave (km/s) = 3.44405 6.04913 4.92206
#
# Compressibility (1/GPa) = 0.17047054
#
# Stress axis : x y z
#
# Youngs Moduli (GPa) = 14.24999 90.77627 37.13591
#
# Poissons Ratio (x) = -0.64052 -0.88029
# Poissons Ratio (y) = -0.10055 -0.01541
# Poissons Ratio (z) = -0.33779 -0.03766
#
# Static dielectric constant tensor:
#      x y z
#    x 1.821270 -0.015120 -0.036300 
#    y -0.015120 1.759050 0.039700 
#    z -0.036300 0.039700 1.856980 
# 
# From -- ./inp_files/244651.got.cif
#   From: 2010.05.17/outbox.ucp.g08.bks.cvg/sg2_123_cif.got.tgz:244651.got - 2010.06.11 11:32:03.
