data_PCOD9073637
_publ_section_title
;
Structure prediction by ZEFSAII (Michael W. Deem and Ramdas Pophale) SiO2 
 PCOD9073637
Probable space group: P -1
;
_chemical_formula_sum "Si O2"
_cell_formula_units_Z 16
_cell_length_a 12.000000
_cell_length_b 12.000000
_cell_length_c 9.000000
_cell_angle_alpha 130.000000
_cell_angle_beta 60.000000
_cell_angle_gamma 90.000000
_cell_volume 752.153660
_symmetry_space_group_name_H-M "P -1"
_symmetry_group_IT_number 2
_symmetry_cell_setting 'triclinic'
loop_
_space_group_symop_operation_xyz
x,y,z
-x,-y,-z
loop_
_atom_site_type_symbol
_atom_site_label
_atom_site_fract_x
_atom_site_fract_y
_atom_site_fract_z
Si Si1 0.491765 0.769469 0.255306
Si Si2 0.638256 0.289071 0.421119
Si Si3 0.571910 0.362564 0.103297
Si Si4 0.846702 0.706096 0.370748
Si Si5 0.040105 0.830196 0.916415
Si Si6 0.254288 0.154834 0.775581
Si Si7 0.363454 0.961998 0.041550
Si Si8 0.143931 0.628460 0.971341
O O1 0.468962 0.705768 0.373407
O O2 0.640360 0.784402 0.163663
O O3 0.354896 0.958240 0.506894
O O4 0.479813 0.652345 0.039256
O O5 0.553750 0.480835 0.590252
O O6 0.795142 0.271094 0.348295
O O7 0.655402 0.132129 0.173634
O O8 0.718848 0.376428 0.040955
O O9 0.607063 0.183058 0.987459
O O10 0.787394 0.763349 0.290551
O O11 0.825072 0.545247 0.278443
O O12 0.771001 0.859934 0.667098
O O13 0.017421 0.654954 0.195670
O O14 0.085652 0.779265 0.018002
O O15 0.891123 0.812086 0.004254
O O16 0.000000 0.000000 0.000000
O O17 0.500000 0.000000 0.000000
#
# Coordination Sequence:
#
# PCOD9073637 Si02
#       8
#     2   2   2   2   2   2   2   2
#     4  11  23  42  69  95 134 186 227 281 335 416
#     4  12  26  44  68 102 141 179 228 295 344 404
#     4  12  25  43  69 102 135 181 235 278 341 412
#     4  10  22  44  70 100 136 181 232 279 346 411
#     4  11  23  42  70  97 137 180 219 282 356 402
#     4  10  21  41  68  96 133 179 232 274 340 414
#     4  12  25  39  67 102 138 175 226 286 345 409
#     4  10  23  44  72 103 138 177 227 292 335 412
#
# _framework density 21.272248999999999
#
# number of rings (size 3 to 8) (size 9 to 14) (size 15 to 20)
#    0.000    1.000    3.750    3.000    3.500    1.500 
#    0.000    0.625    0.000    0.000    0.000    0.000 
#    0.000    0.000    0.000    0.000    0.000    0.000 
#
# Total GULP energy -89102.794444 kJ/mol
# GULP energy per Si atom -5568.924653 kJ/mol
# Density = 2.122383 g / cm^3
# Si number density = 21.272249 Si / 1000 Ang^3
#
#
#
# Elastic Constant Matrix: (Units=GPa)
#
#
# Indices 1 2 3 4 5 6 
#
# 1 140.4689 45.5277 59.3879 12.8714 -18.8525 30.7548
# 2 45.5277 76.9774 41.2469 -11.6276 15.5690 22.5332
# 3 59.3879 41.2469 117.9982 33.1588 0.2715 10.5064
# 4 12.8714 -11.6276 33.1588 16.1137 11.9976 3.3091
# 5 -18.8525 15.5690 0.2715 11.9976 34.3562 -12.0957
# 6 30.7548 22.5332 10.5064 3.3091 -12.0957 39.7612
#
#
#
# Elastic Compliance Matrix: (Units=1/GPa)
#
#
# Indices 1 2 3 4 5 6 
#
# 1 0.010966 0.000596 -0.007223 0.007657 0.000529 -0.007388
# 2 0.000596 -0.002174 0.009392 -0.033700 0.014998 0.005656
# 3 -0.007223 0.009392 0.005091 0.015765 -0.016360 -0.007370
# 4 0.007657 -0.033700 0.015765 -0.035929 0.040453 0.024306
# 5 0.000529 0.014998 -0.016360 0.040453 0.006499 -0.005976
# 6 -0.007388 0.005656 -0.007370 0.024306 -0.005976 0.025766
#
#
# Mechanical properties :
#
#
# Convention : Reuss Voigt Hill
#
# Bulk Modulus (GPa) = 51.51047 69.75219 60.63133
# Shear Modulus (GPa) = 448.01921 30.66500 239.34210
#
# Velocity S-wave (km/s) = 14.52822 3.80089 10.61876
# Velocity P-wave (km/s) = 17.48408 7.21968 13.37567
#
# Compressibility (1/GPa) = 0.01941353
#
# Stress axis : x y z
#
# Youngs Moduli (GPa) = 91.18743 -459.97528 196.44066
#
# Poissons Ratio (x) = 0.27437 1.41888
# Poissons Ratio (y) = -0.05439 -1.84492
# Poissons Ratio (z) = 0.65864 4.31997
#
# Static dielectric constant tensor:
#      x y z
#    x 1.828180 -0.072880 -0.042330 
#    y -0.072880 1.874000 0.005950 
#    z -0.042330 0.005950 1.798580 
# 
# From -- ./inp_files/263326.got.cif
#   From: 2010.05.17/outbox.ucp.g08.bks.cvg/sg2_132_cif.got.tgz:263326.got - 2010.06.11 11:32:03.
