data_PCOD9073625
_publ_section_title
;
Structure prediction by ZEFSAII (Michael W. Deem and Ramdas Pophale) SiO2 
 PCOD9073625
Probable space group: P -1
;
_chemical_formula_sum "Si O2"
_cell_formula_units_Z 16
_cell_length_a 15.000000
_cell_length_b 9.000000
_cell_length_c 12.000000
_cell_angle_alpha 90.000000
_cell_angle_beta 150.000000
_cell_angle_gamma 80.000000
_cell_volume 759.581896
_symmetry_space_group_name_H-M "P -1"
_symmetry_group_IT_number 2
_symmetry_cell_setting 'triclinic'
loop_
_space_group_symop_operation_xyz
x,y,z
-x,-y,-z
loop_
_atom_site_type_symbol
_atom_site_label
_atom_site_fract_x
_atom_site_fract_y
_atom_site_fract_z
Si Si1 0.975638 0.831768 0.982986
Si Si2 0.512823 0.559332 0.388283
Si Si3 0.904581 0.807217 0.305331
Si Si4 0.437287 0.103586 0.548720
Si Si5 0.905435 0.385663 0.688925
Si Si6 0.516082 0.055238 0.149902
Si Si7 0.050900 0.074525 0.405757
Si Si8 0.887939 0.361771 0.064820
O O1 0.786384 0.837685 0.715335
O O2 0.129629 0.697143 0.079079
O O3 0.985908 0.769939 0.119411
O O4 0.000000 0.000000 0.000000
O O5 0.500000 0.500000 0.500000
O O6 0.502730 0.741672 0.386248
O O7 0.694001 0.459465 0.509952
O O8 0.324859 0.555729 0.122751
O O9 0.953775 0.824451 0.487171
O O10 0.054315 0.669936 0.395393
O O11 0.912135 0.974463 0.266482
O O12 0.689976 0.806372 0.063913
O O13 0.479365 0.029731 0.720858
O O14 0.500000 0.000000 0.500000
O O15 0.001153 0.516974 0.813607
O O16 0.734271 0.049341 0.381160
O O17 0.500000 0.000000 0.000000
O O18 0.988961 0.203335 0.242992
#
# Coordination Sequence:
#
# PCOD9073625 Si02
#       8
#     2   2   2   2   2   2   2   2
#     4  12  23  40  64  92 127 167 211 271 328 386
#     4  12  25  42  65  91 134 181 214 268 342 393
#     4  10  23  40  65  97 128 168 220 276 320 398
#     4  12  24  40  66 103 131 169 230 277 329 402
#     4  12  25  43  61  95 135 168 220 270 333 401
#     4  10  21  41  67  96 131 169 217 275 334 391
#     4  10  21  42  68  92 127 172 220 270 332 383
#     4  12  23  42  64  90 130 172 213 267 328 396
#
# _framework density 21.064219999999999
#
# number of rings (size 3 to 8) (size 9 to 14) (size 15 to 20)
#    0.000    0.750    3.750    4.125    0.000    1.500 
#    0.000    0.625    0.000    0.000    0.000    0.000 
#    0.000    0.000    0.000    0.000    0.000    0.000 
#
# Total GULP energy -89111.454802 kJ/mol
# GULP energy per Si atom -5569.465925 kJ/mol
# Density = 2.101628 g / cm^3
# Si number density = 21.064220 Si / 1000 Ang^3
#
#
#
# Elastic Constant Matrix: (Units=GPa)
#
#
# Indices 1 2 3 4 5 6 
#
# 1 123.0689 4.2817 23.5502 -2.9136 8.8560 -29.8158
# 2 4.2817 11.6374 -14.2360 5.4867 10.3169 -17.5802
# 3 23.5502 -14.2360 85.0056 -2.0303 32.4315 -9.3933
# 4 -2.9136 5.4867 -2.0303 17.8411 0.9202 3.5701
# 5 8.8560 10.3169 32.4315 0.9202 42.3441 -1.0794
# 6 -29.8158 -17.5802 -9.3933 3.5701 -1.0794 41.2310
#
#
#
# Elastic Compliance Matrix: (Units=1/GPa)
#
#
# Indices 1 2 3 4 5 6 
#
# 1 0.009926 -0.004817 -0.003869 0.001722 0.002129 0.004150
# 2 -0.004817 -0.084662 -0.035473 0.028579 0.046936 -0.048909
# 3 -0.003869 -0.035473 0.002667 0.013909 0.006640 -0.018346
# 4 0.001722 0.028579 0.013909 0.047693 -0.018708 0.011980
# 5 0.002129 0.046936 0.006640 -0.018708 0.007690 0.024887
# 6 0.004150 -0.048909 -0.018346 0.011980 0.024887 0.001835
#
#
# Mechanical properties :
#
#
# Convention : Reuss Voigt Hill
#
# Bulk Modulus (GPa) = -6.23491 27.43374 10.59942
# Shear Modulus (GPa) = 249.92956 34.02429 141.97693
#
# Velocity S-wave (km/s) = 10.90453 4.02340 8.21878
# Velocity P-wave (km/s) = 12.47312 5.88521 9.75229
#
# Compressibility (1/GPa) = -0.16038729
#
# Stress axis : x y z
#
# Youngs Moduli (GPa) = 100.74154 -11.81167 374.96858
#
# Poissons Ratio (x) = -0.05689 1.45092
# Poissons Ratio (y) = 0.48522 13.30137
# Poissons Ratio (z) = 0.38981 -0.41900
#
# Static dielectric constant tensor:
#      x y z
#    x 2.085300 -0.916560 0.390080 
#    y -0.916560 5.422190 -1.459750 
#    z 0.390080 -1.459750 2.363660 
# 
# From -- ./inp_files/307550.got.cif
#   From: 2010.05.17/outbox.ucp.g08.bks.cvg/sg2_154_cif.got.tgz:307550.got - 2010.06.11 11:32:03.
