data_PCOD9073343
_publ_section_title
;
Structure prediction by ZEFSAII (Michael W. Deem and Ramdas Pophale) SiO2 
 PCOD9073343
Probable space group: P -1
;
_chemical_formula_sum "Si O2"
_cell_formula_units_Z 16
_cell_length_a 8.460466
_cell_length_b 12.317195
_cell_length_c 16.481562
_cell_angle_alpha 44.386767
_cell_angle_beta 148.528038
_cell_angle_gamma 124.860807
_cell_volume 623.842328
_symmetry_space_group_name_H-M "P -1"
_symmetry_group_IT_number 2
_symmetry_cell_setting 'triclinic'
loop_
_space_group_symop_operation_xyz
x,y,z
-x,-y,-z
loop_
_atom_site_type_symbol
_atom_site_label
_atom_site_fract_x
_atom_site_fract_y
_atom_site_fract_z
Si Si1 0.675352 0.021474 0.924208
Si Si2 0.439701 0.762017 0.664621
Si Si3 0.346343 0.725218 0.348193
Si Si4 0.889015 0.998476 0.734121
Si Si5 0.046304 0.431405 0.394227
Si Si6 0.695421 0.233888 0.078934
Si Si7 0.742860 0.612774 0.725705
Si Si8 0.564131 0.676380 0.242533
O O1 0.758784 0.122124 0.830656
O O2 0.494052 0.152544 0.834643
O O3 0.470972 0.888838 0.877374
O O4 0.924212 0.948381 0.136516
O O5 0.635504 0.894163 0.715051
O O6 0.655565 0.646747 0.763031
O O7 0.248758 0.660881 0.694207
O O8 0.229326 0.867726 0.452008
O O9 0.083563 0.608715 0.292707
O O10 0.657890 0.655207 0.475356
O O11 0.495006 0.719472 0.506104
O O12 0.090755 0.875217 0.831235
O O13 0.134481 0.406588 0.540671
O O14 0.919815 0.339747 0.165364
O O15 0.458899 0.321554 0.865309
O O16 0.695775 0.433360 0.784390
#
# Coordination Sequence:
#
# PCOD9073343 Si02
#       8
#     2   2   2   2   2   2   2   2
#     4  10  18  33  55  74 101 142 179 208 245 308
#     4  10  19  33  54  78 106 133 170 215 263 307
#     4   9  19  33  51  75 104 135 175 211 248 303
#     4   9  18  32  52  77 102 137 177 212 250 308
#     4   9  17  33  54  74 100 141 175 205 249 310
#     4  10  18  31  54  80 104 133 174 218 257 296
#     4  10  21  33  51  83 111 130 161 221 270 298
#     4   9  17  31  53  78 102 128 173 222 253 288
#
# _framework density 25.647507000000001
#
# number of rings (size 3 to 8) (size 9 to 14) (size 15 to 20)
#    0.000    2.500    0.000    4.875    0.000    2.500 
#    0.000    1.250    0.000    1.500    0.000    0.000 
#    0.000    0.000    0.000    0.000    0.000    0.000 
#
# Total GULP energy -89393.341927 kJ/mol
# GULP energy per Si atom -5587.083870 kJ/mol
# Density = 2.558913 g / cm^3
# Si number density = 25.647507 Si / 1000 Ang^3
#
#
#
# Elastic Constant Matrix: (Units=GPa)
#
#
# Indices 1 2 3 4 5 6 
#
# 1 55.5718 11.7353 -10.1287 2.1139 9.2515 6.1830
# 2 11.7353 217.5112 32.2119 17.6909 -0.8024 57.1447
# 3 -10.1287 32.2119 59.7908 -11.5813 -2.9480 13.8205
# 4 2.1139 17.6909 -11.5813 33.3492 4.1794 0.7691
# 5 9.2515 -0.8024 -2.9480 4.1794 21.1783 -2.8524
# 6 6.1830 57.1447 13.8205 0.7691 -2.8524 40.6613
#
#
#
# Elastic Compliance Matrix: (Units=1/GPa)
#
#
# Indices 1 2 3 4 5 6 
#
# 1 0.021105 -0.000987 0.005051 0.002237 -0.009568 -0.004253
# 2 -0.000987 0.008244 -0.003252 -0.005196 -0.000063 -0.010237
# 3 0.005051 -0.003252 0.021974 0.009334 -0.001646 -0.003959
# 4 0.002237 -0.005196 0.009334 0.036627 -0.006750 0.002624
# 5 -0.009568 -0.000063 -0.001646 -0.006750 0.053302 0.005969
# 6 -0.004253 -0.010237 -0.003959 0.002624 0.005969 0.041342
#
#
# Mechanical properties :
#
#
# Convention : Reuss Voigt Hill
#
# Bulk Modulus (GPa) = 18.88608 44.50120 31.69364
# Shear Modulus (GPa) = 25.17394 38.97478 32.07436
#
# Velocity S-wave (km/s) = 3.13635 3.90248 3.54020
# Velocity P-wave (km/s) = 4.52717 6.13958 5.39397
#
# Compressibility (1/GPa) = 0.05294904
#
# Stress axis : x y z
#
# Youngs Moduli (GPa) = 47.38280 121.29867 45.50738
#
# Poissons Ratio (x) = 0.11967 -0.22987
# Poissons Ratio (y) = 0.04675 0.14799
# Poissons Ratio (z) = -0.23935 0.39445
#
# Static dielectric constant tensor:
#      x y z
#    x 2.085840 -0.011250 0.059700 
#    y -0.011250 2.020930 -0.002950 
#    z 0.059700 -0.002950 2.073410 
# 
# From -- ./inp_files/258938.got.cif
#   From: 2010.05.17/outbox.cif.g08.bks.cpg/sg2_130_cif.got.tgz:258938.got - 2010.06.03 11:33:40.
