data_PCOD9073329
_publ_section_title
;
Structure prediction by ZEFSAII (Michael W. Deem and Ramdas Pophale) SiO2 
 PCOD9073329
Probable space group: P -1
;
_chemical_formula_sum "Si O2"
_cell_formula_units_Z 14
_cell_length_a 12.000000
_cell_length_b 15.000000
_cell_length_c 12.000000
_cell_angle_alpha 150.000000
_cell_angle_beta 130.000000
_cell_angle_gamma 40.000000
_cell_volume 692.779491
_symmetry_space_group_name_H-M "P -1"
_symmetry_group_IT_number 2
_symmetry_cell_setting 'triclinic'
loop_
_space_group_symop_operation_xyz
x,y,z
-x,-y,-z
loop_
_atom_site_type_symbol
_atom_site_label
_atom_site_fract_x
_atom_site_fract_y
_atom_site_fract_z
Si Si1 0.815433 0.571551 0.124309
Si Si2 0.558721 0.317830 0.931222
Si Si3 0.186967 0.781932 0.392175
Si Si4 0.917666 0.703318 0.797016
Si Si5 0.217261 0.993038 0.441902
Si Si6 0.812455 0.386502 0.321808
Si Si7 0.159664 0.870371 0.715940
O O1 0.613550 0.665642 0.121210
O O2 0.828409 0.769238 0.309337
O O3 0.941845 0.450057 0.181774
O O4 0.846692 0.397650 0.863578
O O5 0.668163 0.100267 0.696253
O O6 0.500000 0.500000 0.000000
O O7 0.669715 0.361336 0.137357
O O8 0.249488 0.753930 0.530252
O O9 0.291234 0.831370 0.420686
O O10 0.000000 0.000000 0.500000
O O11 0.804259 0.604568 0.583620
O O12 0.023818 0.709750 0.764345
O O13 0.806659 0.946162 0.032444
O O14 0.044500 0.002907 0.306795
O O15 0.824009 0.273798 0.324938
#
# Coordination Sequence:
#
# PCOD9073329 Si02
#       7
#     2   2   2   2   2   2   2
#     4  12  22  40  64  94 121 159 207 244 303 362
#     4  12  22  42  63  87 127 162 194 253 309 359
#     4  10  21  38  62  91 123 159 203 255 291 348
#     4  11  21  37  62  91 121 156 197 256 300 351
#     4  11  22  38  63  91 123 158 204 251 297 357
#     4  11  23  37  61  89 124 157 197 253 305 358
#     4  11  21  38  61  92 123 157 203 249 302 347
#
# _framework density 20.208449999999999
#
# number of rings (size 3 to 8) (size 9 to 14) (size 15 to 20)
#    0.000    0.857    8.571    0.857    0.000    3.429 
#    2.571    0.714    0.000    1.714    0.000    0.000 
#    0.000    0.000    0.000    0.000    0.000    0.000 
#
# Total GULP energy -78021.163701 kJ/mol
# GULP energy per Si atom -5572.940264 kJ/mol
# Density = 2.016246 g / cm^3
# Si number density = 20.208450 Si / 1000 Ang^3
#
#
#
# Elastic Constant Matrix: (Units=GPa)
#
#
# Indices 1 2 3 4 5 6 
#
# 1 58.5510 24.1474 26.5702 -9.5396 -2.9169 18.6637
# 2 24.1474 49.1900 16.2866 -14.7979 -7.0418 32.6083
# 3 26.5702 16.2866 171.6887 0.2984 3.4813 18.7350
# 4 -9.5396 -14.7979 0.2984 31.0541 7.4426 -3.8650
# 5 -2.9169 -7.0418 3.4813 7.4426 36.8962 -0.7791
# 6 18.6637 32.6083 18.7350 -3.8650 -0.7791 42.5940
#
#
#
# Elastic Compliance Matrix: (Units=1/GPa)
#
#
# Indices 1 2 3 4 5 6 
#
# 1 0.022717 -0.007568 -0.002497 0.003072 -0.000091 -0.002785
# 2 -0.007568 0.054511 -0.000143 0.017784 0.005458 -0.036639
# 3 -0.002497 -0.000143 0.006428 -0.000949 -0.000676 -0.001722
# 4 0.003072 0.017784 -0.000949 0.041441 -0.004862 -0.010872
# 5 -0.000091 0.005458 -0.000676 -0.004862 0.029103 -0.003750
# 6 -0.002785 -0.036639 -0.001722 -0.010872 -0.003750 0.052450
#
#
# Mechanical properties :
#
#
# Convention : Reuss Voigt Hill
#
# Bulk Modulus (GPa) = 15.81292 45.93757 30.87525
# Shear Modulus (GPa) = 20.14934 36.27056 28.20995
#
# Velocity S-wave (km/s) = 3.16108 4.24113 3.74029
# Velocity P-wave (km/s) = 4.60055 6.83843 5.82792
#
# Compressibility (1/GPa) = 0.06323942
#
# Stress axis : x y z
#
# Youngs Moduli (GPa) = 44.01962 18.34477 155.57369
#
# Poissons Ratio (x) = 0.13883 0.38852
# Poissons Ratio (y) = 0.33313 0.02229
# Poissons Ratio (z) = 0.10993 0.00263
#
# Static dielectric constant tensor:
#      x y z
#    x 1.943660 -0.070820 -0.081210 
#    y -0.070820 1.787490 0.001790 
#    z -0.081210 0.001790 1.773560 
# 
# From -- ./inp_files/398087.got.cif
#   From: 2010.05.17/outbox.ucp.g08.bks.cvg/sg2_200_cif.got.tgz:398087.got - 2010.06.11 11:32:03.
