data_PCOD9073707
_publ_section_title
;
Structure prediction by ZEFSAII (Michael W. Deem and Ramdas Pophale) SiO2 
 PCOD9073707
Probable space group: P -1
;
_chemical_formula_sum "Si O2"
_cell_formula_units_Z 16
_cell_length_a 9.000000
_cell_length_b 9.000000
_cell_length_c 21.000000
_cell_angle_alpha 130.000000
_cell_angle_beta 120.000000
_cell_angle_gamma 100.000000
_cell_volume 751.240448
_symmetry_space_group_name_H-M "P -1"
_symmetry_group_IT_number 2
_symmetry_cell_setting 'triclinic'
loop_
_space_group_symop_operation_xyz
x,y,z
-x,-y,-z
loop_
_atom_site_type_symbol
_atom_site_label
_atom_site_fract_x
_atom_site_fract_y
_atom_site_fract_z
Si Si1 0.291730 0.163300 0.099218
Si Si2 0.804489 0.156884 0.493138
Si Si3 0.128463 0.253864 0.831291
Si Si4 0.631460 0.794221 0.024922
Si Si5 0.622271 0.673983 0.411776
Si Si6 0.306541 0.791589 0.765619
Si Si7 0.529304 0.738392 0.540630
Si Si8 0.895654 0.128977 0.370564
O O1 0.452907 0.440706 0.255954
O O2 0.404643 0.051768 0.120869
O O3 0.353257 0.209830 0.049148
O O4 0.000000 0.000000 0.000000
O O5 0.655443 0.236587 0.477177
O O6 0.748751 0.008413 0.372552
O O7 0.106060 0.454628 0.645930
O O8 0.754639 0.968909 0.487893
O O9 0.225261 0.265896 0.925166
O O10 0.161001 0.093660 0.749662
O O11 0.342498 0.567399 0.930258
O O12 0.827089 0.052431 0.705367
O O13 0.751107 0.089936 0.162108
O O14 0.469340 0.640225 0.427499
O O15 0.812929 0.680461 0.490268
O O16 0.203286 0.776868 0.669389
O O17 0.500000 0.500000 0.500000
#
# Coordination Sequence:
#
# PCOD9073707 Si02
#       8
#     2   2   2   2   2   2   2   2
#     4  12  28  42  66  94 141 179 220 280 333 405
#     4  12  23  39  70 103 133 170 222 287 339 392
#     4   9  21  41  72  93 135 177 226 272 334 397
#     4  10  22  45  64  97 133 187 223 264 329 413
#     4  11  25  44  65 100 133 173 225 281 343 391
#     4  11  25  42  69 100 132 179 230 270 335 407
#     4  11  25  41  69 102 136 174 222 290 335 394
#     4  10  21  42  70  99 127 173 226 281 332 387
#
# _framework density 21.298107999999999
#
# number of rings (size 3 to 8) (size 9 to 14) (size 15 to 20)
#    0.000    1.250    1.250    4.500    8.750    1.000 
#    0.000    0.000    0.000    6.000    0.000    0.000 
#    0.000    0.000    0.000    0.000    0.000    0.000 
#
# Total GULP energy -89075.214968 kJ/mol
# GULP energy per Si atom -5567.200935 kJ/mol
# Density = 2.124963 g / cm^3
# Si number density = 21.298108 Si / 1000 Ang^3
#
#
#
# Elastic Constant Matrix: (Units=GPa)
#
#
# Indices 1 2 3 4 5 6 
#
# 1 89.6854 21.9846 22.9657 -24.0997 23.1810 -8.5575
# 2 21.9846 100.0533 38.9242 -28.1243 3.4746 9.7457
# 3 22.9657 38.9242 97.3172 -20.4236 5.0849 1.4931
# 4 -24.0997 -28.1243 -20.4236 34.3821 5.1880 -5.0342
# 5 23.1810 3.4746 5.0849 5.1880 28.4838 -17.8813
# 6 -8.5575 9.7457 1.4931 -5.0342 -17.8813 35.6876
#
#
#
# Elastic Compliance Matrix: (Units=1/GPa)
#
#
# Indices 1 2 3 4 5 6 
#
# 1 0.022106 0.002378 -0.000557 0.020148 -0.024994 -0.005007
# 2 0.002378 0.015332 -0.003437 0.012661 -0.009566 -0.006480
# 3 -0.000557 -0.003437 0.012927 0.004810 -0.002509 -0.000314
# 4 0.020148 0.012661 0.004810 0.060527 -0.034617 -0.007634
# 5 -0.024994 -0.009566 -0.002509 -0.034617 0.084975 0.034418
# 6 -0.005007 -0.006480 -0.000314 -0.007634 0.034418 0.044771
#
#
# Mechanical properties :
#
#
# Convention : Reuss Voigt Hill
#
# Bulk Modulus (GPa) = 21.21609 50.53387 35.87498
# Shear Modulus (GPa) = 19.26182 33.25613 26.25898
#
# Velocity S-wave (km/s) = 3.01057 3.95582 3.51511
# Velocity P-wave (km/s) = 4.69764 6.68155 5.77542
#
# Compressibility (1/GPa) = 0.04713404
#
# Stress axis : x y z
#
# Youngs Moduli (GPa) = 45.23582 65.22493 77.35691
#
# Poissons Ratio (x) = -0.15513 0.04308
# Poissons Ratio (y) = -0.10759 0.26588
# Poissons Ratio (z) = 0.02519 0.22418
#
# Static dielectric constant tensor:
#      x y z
#    x 1.798070 -0.011840 -0.003160 
#    y -0.011840 1.870590 0.047690 
#    z -0.003160 0.047690 1.839430 
# 
# From -- ./inp_files/588137.got.cif
#   From: 2010.05.17/outbox.ucp.g08.bks.cvg/sg2_295_cif.got.tgz:588137.got - 2010.06.11 11:32:03.
