data_PCOD9073994
_publ_section_title
;
Structure prediction by ZEFSAII (Michael W. Deem and Ramdas Pophale) SiO2 
 PCOD9073994
Probable space group: P -1
;
_chemical_formula_sum "Si O2"
_cell_formula_units_Z 16
_cell_length_a 12.000000
_cell_length_b 9.000000
_cell_length_c 12.000000
_cell_angle_alpha 60.000000
_cell_angle_beta 130.000000
_cell_angle_gamma 90.000000
_cell_volume 752.153660
_symmetry_space_group_name_H-M "P -1"
_symmetry_group_IT_number 2
_symmetry_cell_setting 'triclinic'
loop_
_space_group_symop_operation_xyz
x,y,z
-x,-y,-z
loop_
_atom_site_type_symbol
_atom_site_label
_atom_site_fract_x
_atom_site_fract_y
_atom_site_fract_z
Si Si1 0.699733 0.886347 0.420057
Si Si2 0.818586 0.996741 0.228830
Si Si3 0.505597 0.593346 0.086953
Si Si4 0.664318 0.835345 0.006342
Si Si5 0.191518 0.864426 0.205675
Si Si6 0.210583 0.827204 0.489397
Si Si7 0.805430 0.733551 0.905542
Si Si8 0.796811 0.501820 0.770405
O O1 0.751232 0.672540 0.584159
O O2 0.790826 0.900996 0.360096
O O3 0.732425 0.017429 0.485038
O O4 0.506711 0.993272 0.219847
O O5 0.762117 0.919891 0.111602
O O6 0.683644 0.235335 0.062321
O O7 0.018064 0.919060 0.377142
O O8 0.602260 0.718499 0.090297
O O9 0.635210 0.390375 0.305647
O O10 0.500000 0.500000 0.000000
O O11 0.765666 0.694179 0.020660
O O12 0.192942 0.805550 0.355318
O O13 0.257492 0.665049 0.242566
O O14 0.255666 0.029273 0.204630
O O15 0.000000 0.000000 0.000000
O O16 0.743910 0.632601 0.805740
O O17 0.002708 0.630076 0.047915
#
# Coordination Sequence:
#
# PCOD9073994 Si02
#       8
#     2   2   2   2   2   2   2   2
#     4  11  23  43  66 101 140 179 230 292 351 423
#     4  11  25  43  68 101 145 184 231 289 356 425
#     4  11  24  44  66 107 142 178 232 289 353 422
#     4  11  25  45  67  98 145 179 225 302 347 420
#     4  10  22  43  67 101 139 179 244 298 345 422
#     4  12  24  44  73 101 141 193 233 291 358 431
#     4  10  22  45  65  96 137 180 238 291 348 417
#     4  10  22  40  69  97 132 186 236 288 351 422
#
# _framework density 21.272248999999999
#
# number of rings (size 3 to 8) (size 9 to 14) (size 15 to 20)
#    0.000    1.250    3.750    3.375    5.250    1.000 
#    2.250    0.625    0.000    0.000    0.000    0.000 
#    0.000    0.000    0.000    0.000    0.000    0.000 
#
# Total GULP energy -89076.889041 kJ/mol
# GULP energy per Si atom -5567.305565 kJ/mol
# Density = 2.122383 g / cm^3
# Si number density = 21.272249 Si / 1000 Ang^3
#
#
#
# Elastic Constant Matrix: (Units=GPa)
#
#
# Indices 1 2 3 4 5 6 
#
# 1 18.8206 -2.8106 -5.8860 -4.6521 -2.9056 -14.0272
# 2 -2.8106 165.5420 32.3923 -6.2751 -12.8775 -10.4044
# 3 -5.8860 32.3923 109.9928 -3.4656 -14.5574 -1.4902
# 4 -4.6521 -6.2751 -3.4656 52.3166 -7.8765 -8.3866
# 5 -2.9056 -12.8775 -14.5574 -7.8765 21.5090 4.1882
# 6 -14.0272 -10.4044 -1.4902 -8.3866 4.1882 37.7031
#
#
#
# Elastic Compliance Matrix: (Units=1/GPa)
#
#
# Indices 1 2 3 4 5 6 
#
# 1 0.091464 0.004700 0.007147 0.018090 0.019332 0.037485
# 2 0.004700 0.006993 -0.001123 0.002412 0.004224 0.003701
# 3 0.007147 -0.001123 0.011032 0.002887 0.008330 0.002502
# 4 0.018090 0.002412 0.002887 0.024987 0.012722 0.011655
# 5 0.019332 0.004224 0.008330 0.012722 0.061006 0.004741
# 6 0.037485 0.003701 0.002502 0.011655 0.004741 0.043655
#
#
# Mechanical properties :
#
#
# Convention : Reuss Voigt Hill
#
# Bulk Modulus (GPa) = 7.63727 37.97188 22.80458
# Shear Modulus (GPa) = 19.13255 40.34970 29.74112
#
# Velocity S-wave (km/s) = 3.00228 4.35998 3.74320
# Velocity P-wave (km/s) = 3.95174 6.57534 5.42454
#
# Compressibility (1/GPa) = 0.13093676
#
# Stress axis : x y z
#
# Youngs Moduli (GPa) = 10.93327 143.00290 90.64666
#
# Poissons Ratio (x) = -0.67210 -0.64783
# Poissons Ratio (y) = -0.05139 0.10177
# Poissons Ratio (z) = -0.07814 0.16054
#
# Static dielectric constant tensor:
#      x y z
#    x 1.862260 0.026520 -0.073090 
#    y 0.026520 1.807770 -0.005410 
#    z -0.073090 -0.005410 1.731510 
# 
# From -- ./inp_files/176738.got.cif
#   From: 2010.05.17/outbox.ucp.g08.bks.cvg/sg2_89_cif.got.tgz:176738.got - 2010.06.11 11:32:03.
