data_PCOD9073362
_publ_section_title
;
Structure prediction by ZEFSAII (Michael W. Deem and Ramdas Pophale) SiO2 
 PCOD9073362
Probable space group: P -1
;
_chemical_formula_sum "Si O2"
_cell_formula_units_Z 16
_cell_length_a 12.000000
_cell_length_b 18.000000
_cell_length_c 9.000000
_cell_angle_alpha 130.000000
_cell_angle_beta 60.000000
_cell_angle_gamma 150.000000
_cell_volume 736.400153
_symmetry_space_group_name_H-M "P -1"
_symmetry_group_IT_number 2
_symmetry_cell_setting 'triclinic'
loop_
_space_group_symop_operation_xyz
x,y,z
-x,-y,-z
loop_
_atom_site_type_symbol
_atom_site_label
_atom_site_fract_x
_atom_site_fract_y
_atom_site_fract_z
Si Si1 0.010620 0.269238 0.114377
Si Si2 0.179448 0.159594 0.373726
Si Si3 0.672517 0.399219 0.827047
Si Si4 0.242849 0.226686 0.759763
Si Si5 0.590933 0.947642 0.380819
Si Si6 0.082011 0.286986 0.444479
Si Si7 0.803846 0.444384 0.127132
Si Si8 0.601941 0.903130 0.970494
O O1 0.106875 0.428811 0.188775
O O2 0.060880 0.284436 0.276584
O O3 0.133579 0.258970 0.928786
O O4 0.744146 0.078919 0.032481
O O5 0.268497 0.239838 0.581785
O O6 0.215908 0.273144 0.385836
O O7 0.291134 0.132450 0.196795
O O8 0.923945 0.963649 0.321925
O O9 0.478508 0.350860 0.838450
O O10 0.574434 0.228752 0.650529
O O11 0.700128 0.423962 0.017532
O O12 0.500000 0.000000 0.500000
O O13 0.615721 0.923534 0.165428
O O14 0.849142 0.120433 0.475662
O O15 0.151901 0.435070 0.647194
O O16 0.660419 0.279012 0.107669
O O17 0.000000 0.500000 0.000000
#
# Coordination Sequence:
#
# PCOD9073362 Si02
#       8
#     2   2   2   2   2   2   2   2
#     4  10  23  38  64 101 137 166 209 262 333 394
#     4  10  21  38  67 100 135 167 214 266 327 394
#     4  11  22  42  66  92 129 174 213 261 328 383
#     4  10  21  39  63  99 138 176 202 258 336 398
#     4  10  21  41  67  90 122 176 226 263 316 378
#     4  11  22  38  65  97 130 168 221 268 319 380
#     4  11  25  45  66  89 124 175 228 271 314 386
#     4   9  22  41  65  90 133 163 216 268 327 375
#
# _framework density 21.727318
#
# number of rings (size 3 to 8) (size 9 to 14) (size 15 to 20)
#    0.000    1.750    1.250    2.625    5.250    2.000 
#    0.000    6.250    0.000    0.000    0.000    0.000 
#    0.000    0.000    0.000    0.000    0.000    0.000 
#
# Total GULP energy -89191.873683 kJ/mol
# GULP energy per Si atom -5574.492105 kJ/mol
# Density = 2.167787 g / cm^3
# Si number density = 21.727318 Si / 1000 Ang^3
#
#
#
# Elastic Constant Matrix: (Units=GPa)
#
#
# Indices 1 2 3 4 5 6 
#
# 1 24.0888 44.6680 2.9612 1.8665 9.8513 -3.8708
# 2 44.6680 127.6017 68.8062 11.7110 -50.7892 -41.7488
# 3 2.9612 68.8062 59.0915 1.7680 46.9587 12.5319
# 4 1.8665 11.7110 1.7680 30.9716 -8.7057 -8.5437
# 5 9.8513 -50.7892 46.9587 -8.7057 -24.1955 -14.0313
# 6 -3.8708 -41.7488 12.5319 -8.5437 -14.0313 26.9813
#
#
#
# Elastic Compliance Matrix: (Units=1/GPa)
#
#
# Indices 1 2 3 4 5 6 
#
# 1 0.049979 -0.006287 -0.007129 0.005750 0.012407 0.009026
# 2 -0.006287 0.005736 0.001653 -0.004565 -0.010057 0.000530
# 3 -0.007129 0.001653 0.008490 0.002209 0.007915 0.002407
# 4 0.005750 -0.004565 0.002209 0.035048 0.001058 0.004383
# 5 0.012407 -0.010057 0.007915 0.001058 0.007486 -0.013230
# 6 0.009026 0.000530 0.002407 0.004383 -0.013230 0.032567
#
#
# Mechanical properties :
#
#
# Convention : Reuss Voigt Hill
#
# Bulk Modulus (GPa) = 24.58422 49.29475 36.93949
# Shear Modulus (GPa) = 28.34591 13.04125 20.69358
#
# Velocity S-wave (km/s) = 3.61587 2.45260 3.08948
# Velocity P-wave (km/s) = 5.36397 5.54595 5.45572
#
# Compressibility (1/GPa) = 0.04067649
#
# Stress axis : x y z
#
# Youngs Moduli (GPa) = 20.00840 174.34165 117.78924
#
# Poissons Ratio (x) = 1.09615 0.83977
# Poissons Ratio (y) = 0.12580 -0.19467
# Poissons Ratio (z) = 0.14265 -0.28814
#
# Static dielectric constant tensor:
#      x y z
#    x 1.827060 0.067050 0.045230 
#    y 0.067050 1.943430 0.070080 
#    z 0.045230 0.070080 1.759970 
# 
# From -- ./inp_files/224401.got.cif
#   From: 2010.05.17/outbox.ucp.g08.bks.cvg/sg2_113_cif.got.tgz:224401.got - 2010.06.11 11:32:03.
