data_PCOD9073565
_publ_section_title
;
Structure prediction by ZEFSAII (Michael W. Deem and Ramdas Pophale) SiO2 
 PCOD9073565
Probable space group: P -1
;
_chemical_formula_sum "Si O2"
_cell_formula_units_Z 16
_cell_length_a 15.000000
_cell_length_b 15.000000
_cell_length_c 15.000000
_cell_angle_alpha 140.000000
_cell_angle_beta 40.000000
_cell_angle_gamma 160.000000
_cell_volume 725.414092
_symmetry_space_group_name_H-M "P -1"
_symmetry_group_IT_number 2
_symmetry_cell_setting 'triclinic'
loop_
_space_group_symop_operation_xyz
x,y,z
-x,-y,-z
loop_
_atom_site_type_symbol
_atom_site_label
_atom_site_fract_x
_atom_site_fract_y
_atom_site_fract_z
Si Si1 0.508715 0.605402 0.206580
Si Si2 0.572913 0.092261 0.793945
Si Si3 0.946920 0.166162 0.571069
Si Si4 0.662407 0.449044 0.886271
Si Si5 0.778077 0.402535 0.044976
Si Si6 0.934257 0.900151 0.738617
Si Si7 0.473052 0.643038 0.637530
Si Si8 0.084937 0.815113 0.972918
O O1 0.413468 0.624003 0.214481
O O2 0.283234 0.399262 0.295795
O O3 0.509465 0.452071 0.044535
O O4 0.797858 0.879794 0.237551
O O5 0.760210 0.129434 0.646672
O O6 0.612775 0.264647 0.835935
O O7 0.626255 0.166737 0.915133
O O8 0.254557 0.820308 0.830868
O O9 0.988504 0.075190 0.401393
O O10 0.228460 0.462970 0.618311
O O11 0.759120 0.948826 0.626856
O O12 0.961095 0.741071 0.913879
O O13 0.614777 0.356136 0.203910
O O14 0.890081 0.604957 0.040775
O O15 0.000000 0.500000 0.000000
O O16 0.814612 0.952138 0.886011
O O17 0.500000 0.500000 0.500000
#
# Coordination Sequence:
#
# PCOD9073565 Si02
#       8
#     2   2   2   2   2   2   2   2
#     4  10  21  40  69  97 128 163 218 263 309 381
#     4  11  23  40  64  93 132 169 205 268 323 378
#     4  12  27  44  64  92 134 168 211 264 327 374
#     4   9  21  38  65 101 126 163 211 267 317 373
#     4  11  23  41  62  94 126 167 216 261 319 377
#     4  11  23  42  64  95 125 172 210 263 317 375
#     4  12  27  45  67  93 125 172 219 269 311 378
#     4  10  22  37  66  91 126 165 212 264 318 377
#
# _framework density 22.056367999999999
#
# number of rings (size 3 to 8) (size 9 to 14) (size 15 to 20)
#    0.000    1.250    2.500    2.625    7.000    2.500 
#    0.000    1.250    0.000    0.000    0.000    0.000 
#    0.000    0.000    0.000    0.000    0.000    0.000 
#
# Total GULP energy -89198.992969 kJ/mol
# GULP energy per Si atom -5574.937061 kJ/mol
# Density = 2.200617 g / cm^3
# Si number density = 22.056368 Si / 1000 Ang^3
#
#
#
# Elastic Constant Matrix: (Units=GPa)
#
#
# Indices 1 2 3 4 5 6 
#
# 1 76.7297 11.8305 -0.4340 -5.9740 -10.8522 3.7856
# 2 11.8305 37.6915 1.6840 -13.2343 -0.5527 9.5793
# 3 -0.4340 1.6840 46.7307 -9.1550 -22.4992 1.9162
# 4 -5.9740 -13.2343 -9.1550 27.0056 3.2571 -4.2302
# 5 -10.8522 -0.5527 -22.4992 3.2571 27.6632 7.2611
# 6 3.7856 9.5793 1.9162 -4.2302 7.2611 19.0706
#
#
#
# Elastic Compliance Matrix: (Units=1/GPa)
#
#
# Indices 1 2 3 4 5 6 
#
# 1 0.016062 -0.002471 0.007964 0.002062 0.014540 -0.007826
# 2 -0.002471 0.037475 0.006315 0.016136 0.007839 -0.018373
# 3 0.007964 0.006315 0.046857 0.011268 0.046509 -0.024670
# 4 0.002062 0.016136 0.011268 0.048529 0.004765 -0.000696
# 5 0.014540 0.007839 0.046509 0.004765 0.091123 -0.045135
# 6 -0.007826 -0.018373 -0.024670 -0.000696 -0.045135 0.082728
#
#
# Mechanical properties :
#
#
# Convention : Reuss Voigt Hill
#
# Bulk Modulus (GPa) = 8.06387 20.81251 14.43819
# Shear Modulus (GPa) = 14.68450 24.61931 19.65191
#
# Velocity S-wave (km/s) = 2.58305 3.34458 2.98818
# Velocity P-wave (km/s) = 3.54404 4.93675 4.29719
#
# Compressibility (1/GPa) = 0.12400990
#
# Stress axis : x y z
#
# Youngs Moduli (GPa) = 62.25902 26.68462 21.34144
#
# Poissons Ratio (x) = 0.06593 -0.16996
# Poissons Ratio (y) = 0.15383 -0.13477
# Poissons Ratio (z) = -0.49581 -0.16852
#
# Static dielectric constant tensor:
#      x y z
#    x 1.854100 0.034090 -0.025610 
#    y 0.034090 2.015570 -0.033830 
#    z -0.025610 -0.033830 1.775090 
# 
# From -- ./inp_files/38126.got.cif
#   From: 2010.05.17/outbox.ucp.g08.bks.cvg/sg2_20_cif.got.tgz:38126.got - 2010.06.11 11:32:03.
