data_PCOD9073842
_publ_section_title
;
Structure prediction by ZEFSAII (Michael W. Deem and Ramdas Pophale) SiO2 
 PCOD9073842
Probable space group: P -1
;
_chemical_formula_sum "Si O2"
_cell_formula_units_Z 16
_cell_length_a 10.076314
_cell_length_b 11.361085
_cell_length_c 13.395487
_cell_angle_alpha 145.027664
_cell_angle_beta 58.036109
_cell_angle_gamma 136.896982
_cell_volume 591.240674
_symmetry_space_group_name_H-M "P -1"
_symmetry_group_IT_number 2
_symmetry_cell_setting 'triclinic'
loop_
_space_group_symop_operation_xyz
x,y,z
-x,-y,-z
loop_
_atom_site_type_symbol
_atom_site_label
_atom_site_fract_x
_atom_site_fract_y
_atom_site_fract_z
Si Si1 0.825861 0.046291 0.715429
Si Si2 0.427274 0.772160 0.465852
Si Si3 0.762854 0.651632 0.590412
Si Si4 0.039794 0.114908 0.951849
Si Si5 0.592150 0.212338 0.022592
Si Si6 0.345459 0.066697 0.819988
Si Si7 0.238216 0.220083 0.647796
Si Si8 0.005177 0.465063 0.316587
O O1 0.045963 0.152791 0.732989
O O2 0.686312 0.764620 0.626420
O O3 0.820382 0.988897 0.560761
O O4 0.757835 0.208712 0.897317
O O5 0.385656 0.606136 0.467286
O O6 0.476534 0.037407 0.672265
O O7 0.603437 0.783898 0.355682
O O8 0.225499 0.627395 0.384232
O O9 0.913310 0.616403 0.450522
O O10 0.882726 0.875074 0.780733
O O11 0.262198 0.214766 0.915929
O O12 0.005601 0.330300 0.122267
O O13 0.000000 0.000000 0.000000
O O14 0.668275 0.490659 0.226424
O O15 0.500000 0.000000 0.000000
O O16 0.441047 0.147388 0.947626
O O17 0.146033 0.767112 0.706702
#
# Coordination Sequence:
#
# PCOD9073842 Si02
#       8
#     2   2   2   2   2   2   2   2
#     4  11  27  46  61  89 132 178 216 254 314 385
#     4  11  18  38  66  92 121 162 212 264 314 371
#     4  11  21  36  61  94 123 155 212 270 305 369
#     4  10  18  31  57  91 127 157 187 251 335 365
#     4  12  26  40  69 102 123 159 219 275 315 372
#     4  10  19  35  58  97 127 154 196 265 328 366
#     4  11  26  46  65  85 131 182 210 256 321 380
#     4  10  20  33  59  96 125 158 192 263 331 361
#
# _framework density 27.061737999999998
#
# number of rings (size 3 to 8) (size 9 to 14) (size 15 to 20)
#    0.000    1.250    5.000    2.625    8.750    1.000 
#    0.000    0.625    0.000    1.500    0.000    0.000 
#    0.000    0.000    0.000    0.000    0.000    0.000 
#
# Total GULP energy -89578.821143 kJ/mol
# GULP energy per Si atom -5598.676321 kJ/mol
# Density = 2.700014 g / cm^3
# Si number density = 27.061738 Si / 1000 Ang^3
#
#
#
# Elastic Constant Matrix: (Units=GPa)
#
#
# Indices 1 2 3 4 5 6 
#
# 1 81.6486 18.8551 36.5543 -14.6347 -15.4608 18.6721
# 2 18.8551 78.7910 11.5790 -15.9681 -2.8135 4.7879
# 3 36.5543 11.5790 166.6524 -20.3213 -46.4875 14.4695
# 4 -14.6347 -15.9681 -20.3213 28.4781 10.1048 -10.8646
# 5 -15.4608 -2.8135 -46.4875 10.1048 51.3332 -9.5628
# 6 18.6721 4.7879 14.4695 -10.8646 -9.5628 46.5738
#
#
#
# Elastic Compliance Matrix: (Units=1/GPa)
#
#
# Indices 1 2 3 4 5 6 
#
# 1 0.015548 -0.002495 -0.002165 0.002956 0.001189 -0.004370
# 2 -0.002495 0.014770 0.000038 0.007875 -0.001262 0.001048
# 3 -0.002165 0.000038 0.008659 0.002793 0.006679 0.000197
# 4 0.002956 0.007875 0.002793 0.047291 -0.004092 0.007329
# 5 0.001189 -0.001262 0.006679 -0.004092 0.027028 0.002173
# 6 -0.004370 0.001048 0.000197 0.007329 0.002173 0.025210
#
#
# Mechanical properties :
#
#
# Convention : Reuss Voigt Hill
#
# Bulk Modulus (GPa) = 33.63298 51.22991 42.43144
# Shear Modulus (GPa) = 31.71333 42.61726 37.16530
#
# Velocity S-wave (km/s) = 3.42700 3.97270 3.70990
# Velocity P-wave (km/s) = 5.30229 6.32574 5.83649
#
# Compressibility (1/GPa) = 0.02973272
#
# Stress axis : x y z
#
# Youngs Moduli (GPa) = 64.31804 67.70262 115.48250
#
# Poissons Ratio (x) = 0.16894 0.25006
# Poissons Ratio (y) = 0.16049 -0.00441
# Poissons Ratio (z) = 0.13927 -0.00259
#
# Static dielectric constant tensor:
#      x y z
#    x 2.160090 0.032530 -0.013110 
#    y 0.032530 2.219410 -0.031400 
#    z -0.013110 -0.031400 2.141640 
# 
# From -- ./inp_files/521895.got.cif
#   From: 2010.05.17/outbox.cif.g08.bks.cpg/sg2_261_cif.got.tgz:521895.got - 2010.06.03 11:33:40.
