data_PCOD9073753
_publ_section_title
;
Structure prediction by ZEFSAII (Michael W. Deem and Ramdas Pophale) SiO2 
 PCOD9073753
Probable space group: P -1
;
_chemical_formula_sum "Si O2"
_cell_formula_units_Z 16
_cell_length_a 12.000000
_cell_length_b 9.000000
_cell_length_c 12.000000
_cell_angle_alpha 130.000000
_cell_angle_beta 90.000000
_cell_angle_gamma 60.000000
_cell_volume 752.153660
_symmetry_space_group_name_H-M "P -1"
_symmetry_group_IT_number 2
_symmetry_cell_setting 'triclinic'
loop_
_space_group_symop_operation_xyz
x,y,z
-x,-y,-z
loop_
_atom_site_type_symbol
_atom_site_label
_atom_site_fract_x
_atom_site_fract_y
_atom_site_fract_z
Si Si1 0.902954 0.397089 0.674761
Si Si2 0.569126 0.630263 0.538296
Si Si3 0.384735 0.104116 0.146183
Si Si4 0.186693 0.669330 0.121690
Si Si5 0.910123 0.225329 0.340114
Si Si6 0.629440 0.786793 0.265497
Si Si7 0.368186 0.854207 0.222391
Si Si8 0.157727 0.358936 0.606512
O O1 0.778913 0.701166 0.806150
O O2 0.855328 0.331593 0.751242
O O3 0.912508 0.277669 0.497451
O O4 0.058259 0.322318 0.656849
O O5 0.500000 0.500000 0.500000
O O6 0.594958 0.730829 0.696382
O O7 0.738017 0.389253 0.385443
O O8 0.459849 0.906749 0.605554
O O9 0.408749 0.888308 0.116989
O O10 0.500000 0.000000 0.000000
O O11 0.303513 0.713892 0.149067
O O12 0.261208 0.404845 0.927670
O O13 0.037259 0.918854 0.182135
O O14 0.941440 0.373316 0.331082
O O15 0.507331 0.753625 0.250322
O O16 0.724339 0.689534 0.330609
O O17 0.241591 0.141319 0.406807
#
# Coordination Sequence:
#
# PCOD9073753 Si02
#       8
#     2   2   2   2   2   2   2   2
#     4  11  22  40  70 100 131 185 230 282 329 410
#     4  10  23  44  69  95 136 180 225 277 336 414
#     4  10  21  43  69 101 133 174 234 278 341 398
#     4  12  26  43  70 105 143 173 232 286 349 395
#     4  11  23  44  66 102 131 182 237 273 338 412
#     4  11  26  45  66 106 137 182 222 287 350 398
#     4  11  22  45  71  97 138 184 228 280 333 419
#     4  12  23  43  73  95 142 181 235 277 335 415
#
# _framework density 21.272248999999999
#
# number of rings (size 3 to 8) (size 9 to 14) (size 15 to 20)
#    0.000    1.000    5.000    3.750    1.750    2.000 
#    4.500    0.000    0.000    0.000    0.000    0.000 
#    0.000    0.000    0.000    0.000    0.000    0.000 
#
# Total GULP energy -89307.383282 kJ/mol
# GULP energy per Si atom -5581.711455 kJ/mol
# Density = 2.122383 g / cm^3
# Si number density = 21.272249 Si / 1000 Ang^3
#
#
#
# Elastic Constant Matrix: (Units=GPa)
#
#
# Indices 1 2 3 4 5 6 
#
# 1 122.5203 54.3545 28.2655 -3.2267 -15.2616 17.8753
# 2 54.3545 123.4468 43.5006 3.4554 2.2515 -3.8529
# 3 28.2655 43.5006 63.3414 10.5708 -18.2071 6.3539
# 4 -3.2267 3.4554 10.5708 35.9509 0.4367 -12.8838
# 5 -15.2616 2.2515 -18.2071 0.4367 28.1089 2.6162
# 6 17.8753 -3.8529 6.3539 -12.8838 2.6162 38.5282
#
#
#
# Elastic Compliance Matrix: (Units=1/GPa)
#
#
# Indices 1 2 3 4 5 6 
#
# 1 0.013365 -0.007709 0.003979 -0.002701 0.011359 -0.009302
# 2 -0.007709 0.017460 -0.015577 0.006421 -0.016814 0.011180
# 3 0.003979 -0.015577 0.037455 -0.015528 0.029472 -0.016775
# 4 -0.002701 0.006421 -0.015528 0.038222 -0.014328 0.018210
# 5 0.011359 -0.016814 0.029472 -0.014328 0.064354 -0.020973
# 6 -0.009302 0.011180 -0.016775 0.018210 -0.020973 0.041669
#
#
# Mechanical properties :
#
#
# Convention : Reuss Voigt Hill
#
# Bulk Modulus (GPa) = 33.70808 62.39442 48.05125
# Shear Modulus (GPa) = 19.15514 32.73014 25.94264
#
# Velocity S-wave (km/s) = 3.00405 3.92679 3.49600
# Velocity P-wave (km/s) = 5.28326 7.06786 6.23969
#
# Compressibility (1/GPa) = 0.02966648
#
# Stress axis : x y z
#
# Youngs Moduli (GPa) = 74.82416 57.27459 26.69862
#
# Poissons Ratio (x) = 0.44151 -0.10624
# Poissons Ratio (y) = 0.57679 0.41588
# Poissons Ratio (z) = -0.29773 0.89217
#
# Static dielectric constant tensor:
#      x y z
#    x 1.809150 0.001090 -0.044300 
#    y 0.001090 1.786490 0.015760 
#    z -0.044300 0.015760 1.782520 
# 
# From -- ./inp_files/420018.got.cif
#   From: 2010.05.17/outbox.ucp.g08.bks.cvg/sg2_211_cif.got.tgz:420018.got - 2010.06.11 11:32:03.
