data_PCOD9073024
_publ_section_title
;
Structure prediction by ZEFSAII (Michael W. Deem and Ramdas Pophale) SiO2 
 PCOD9073024
Probable space group: P -1
;
_chemical_formula_sum "Si O2"
_cell_formula_units_Z 16
_cell_length_a 8.421519
_cell_length_b 7.837517
_cell_length_c 21.176918
_cell_angle_alpha 43.728001
_cell_angle_beta 144.025833
_cell_angle_gamma 129.848720
_cell_volume 562.139403
_symmetry_space_group_name_H-M "P -1"
_symmetry_group_IT_number 2
_symmetry_cell_setting 'triclinic'
loop_
_space_group_symop_operation_xyz
x,y,z
-x,-y,-z
loop_
_atom_site_type_symbol
_atom_site_label
_atom_site_fract_x
_atom_site_fract_y
_atom_site_fract_z
Si Si1 0.825065 0.221570 0.515266
Si Si2 0.248594 0.811143 0.765649
Si Si3 0.858504 0.375253 0.359218
Si Si4 0.787453 0.094746 0.668555
Si Si5 0.766372 0.128996 0.981728
Si Si6 0.546658 0.684886 0.407855
Si Si7 0.212361 0.748820 0.905454
Si Si8 0.794012 0.201484 0.832381
O O1 0.000000 0.500000 0.500000
O O2 0.674984 0.264625 0.389349
O O3 0.657138 0.171020 0.540128
O O4 0.025986 0.007627 0.642845
O O5 0.232756 0.637971 0.869704
O O6 0.214720 0.683710 0.720683
O O7 0.546946 0.970630 0.819285
O O8 0.130192 0.254769 0.501017
O O9 0.961743 0.670729 0.312137
O O10 0.605883 0.100538 0.670175
O O11 0.929833 0.854495 0.780156
O O12 0.776435 0.302345 0.001372
O O13 0.845986 0.275112 0.902729
O O14 0.963741 0.910801 0.096311
O O15 0.464157 0.977150 0.922423
O O16 0.500000 0.500000 0.500000
O O17 0.364810 0.607184 0.309100
#
# Coordination Sequence:
#
# PCOD9073024 Si02
#       8
#     2   2   2   2   2   2   2   2
#     4   9  17  29  46  70 101 138 172 201 241 301
#     4  10  19  31  51  76 107 136 168 211 257 315
#     4  10  19  32  50  74 108 142 168 201 259 313
#     4   9  18  32  50  73 102 135 172 214 246 301
#     4   9  18  31  54  78  96 131 173 230 253 289
#     4  10  19  31  49  77 109 135 168 210 249 310
#     4   9  17  33  53  78 100 124 175 219 263 295
#     4  10  18  31  52  80 101 129 175 217 256 300
#
# _framework density 28.462691
#
# number of rings (size 3 to 8) (size 9 to 14) (size 15 to 20)
#    0.000    2.500    2.500    0.375    0.000    0.000 
#    0.000    3.750    0.000    7.500    0.000    0.000 
#    0.000    0.000    0.000    0.000    0.000    0.000 
#
# Total GULP energy -89210.099309 kJ/mol
# GULP energy per Si atom -5575.631207 kJ/mol
# Density = 2.839791 g / cm^3
# Si number density = 28.462691 Si / 1000 Ang^3
#
#
#
# Elastic Constant Matrix: (Units=GPa)
#
#
# Indices 1 2 3 4 5 6 
#
# 1 129.3694 11.7014 46.0531 12.0318 -28.9014 -16.1909
# 2 11.7014 62.9165 30.5841 8.1455 -25.7347 -25.8430
# 3 46.0531 30.5841 138.0141 19.4583 -16.1424 -19.4384
# 4 12.0318 8.1455 19.4583 35.5982 -22.9583 -20.0566
# 5 -28.9014 -25.7347 -16.1424 -22.9583 80.7539 11.8184
# 6 -16.1909 -25.8430 -19.4384 -20.0566 11.8184 44.7493
#
#
#
# Elastic Compliance Matrix: (Units=1/GPa)
#
#
# Indices 1 2 3 4 5 6 
#
# 1 0.009709 0.002452 -0.003166 0.002350 0.003763 0.003614
# 2 0.002452 0.027150 -0.004938 0.011192 0.009237 0.016998
# 3 -0.003166 -0.004938 0.009678 -0.005338 -0.002049 -0.001645
# 4 0.002350 0.011192 -0.005338 0.050133 0.014120 0.023736
# 5 0.003763 0.009237 -0.002049 0.014120 0.019246 0.007051
# 6 0.003614 0.016998 -0.001645 0.023736 0.007051 0.041532
#
#
# Mechanical properties :
#
#
# Convention : Reuss Voigt Hill
#
# Bulk Modulus (GPa) = 28.38218 56.33079 42.35649
# Shear Modulus (GPa) = 27.70146 48.35105 38.02625
#
# Velocity S-wave (km/s) = 3.12309 4.12606 3.65910
# Velocity P-wave (km/s) = 4.79565 6.52175 5.72414
#
# Compressibility (1/GPa) = 0.03523337
#
# Stress axis : x y z
#
# Youngs Moduli (GPa) = 102.99533 36.83285 103.33214
#
# Poissons Ratio (x) = -0.09032 0.32710
# Poissons Ratio (y) = -0.25257 0.51028
# Poissons Ratio (z) = 0.32603 0.18189
#
# Static dielectric constant tensor:
#      x y z
#    x 2.534900 -0.008410 -0.055670 
#    y -0.008410 2.708370 0.073670 
#    z -0.055670 0.073670 2.266740 
# 
# From -- ./inp_files/326461.got.cif
#   From: 2010.05.17/outbox.cif.g08.bks.cpg/sg2_164_cif.got.tgz:326461.got - 2010.06.03 11:33:40.
