data_PCOD9073605
_publ_section_title
;
Structure prediction by ZEFSAII (Michael W. Deem and Ramdas Pophale) SiO2 
 PCOD9073605
Probable space group: P -1
;
_chemical_formula_sum "Si O2"
_cell_formula_units_Z 15
_cell_length_a 16.877711
_cell_length_b 8.428732
_cell_length_c 7.249445
_cell_angle_alpha 73.765737
_cell_angle_beta 74.230977
_cell_angle_gamma 36.299711
_cell_volume 584.228175
_symmetry_space_group_name_H-M "P -1"
_symmetry_group_IT_number 2
_symmetry_cell_setting 'triclinic'
loop_
_space_group_symop_operation_xyz
x,y,z
-x,-y,-z
loop_
_atom_site_type_symbol
_atom_site_label
_atom_site_fract_x
_atom_site_fract_y
_atom_site_fract_z
Si Si1 0.500000 0.000000 0.000000
Si Si2 0.189603 0.511067 0.912425
Si Si3 0.690275 0.223298 0.706766
Si Si4 0.018956 0.294419 0.305924
Si Si5 0.992096 0.314368 0.744105
Si Si6 0.393748 0.421622 0.659211
Si Si7 0.699361 0.104011 0.340439
Si Si8 0.405270 0.897178 0.924667
O O1 0.494948 0.125288 0.763018
O O2 0.454076 0.245296 0.068882
O O3 0.096635 0.563711 0.809253
O O4 0.248399 0.576963 0.754386
O O5 0.096572 0.676925 0.094690
O O6 0.325356 0.185193 0.976446
O O7 0.616628 0.496686 0.571292
O O8 0.702334 0.079327 0.567483
O O9 0.632262 0.212637 0.916405
O O10 0.844863 0.019731 0.719286
O O11 0.972781 0.335185 0.530911
O O12 0.054584 0.432393 0.232777
O O13 0.152080 0.073033 0.753325
O O14 0.402990 0.580603 0.710281
O O15 0.650778 0.033734 0.266351
#
# Coordination Sequence:
#
# PCOD9073605 Si02
#       8
#     1   2   2   2   2   2   2   2
#     4  10  24  42  66  84 104 148 194 250 300 326
#     4  11  20  33  56  87 121 158 184 227 276 330
#     4   9  20  38  57  86 117 149 190 228 274 349
#     4  10  18  31  55  87 120 156 188 218 272 343
#     4  10  18  31  55  87 120 156 188 218 272 343
#     4   9  23  42  54  86 119 141 199 243 278 336
#     4   9  20  38  57  86 117 149 190 228 274 349
#     4  11  20  38  66  80 112 153 190 236 286 333
#
# _framework density 25.674900000000001
#
# number of rings (size 3 to 8) (size 9 to 14) (size 15 to 20)
#    0.800    1.333    2.667    1.200    0.000    2.133 
#    2.400    0.667    2.933    0.000    0.000    0.000 
#    0.000    0.000    0.000    0.000    0.000    0.000 
#
# Total GULP energy -83571.315323 kJ/mol
# GULP energy per Si atom -5571.421022 kJ/mol
# Density = 2.561646 g / cm^3
# Si number density = 25.674900 Si / 1000 Ang^3
#
#
#
# Elastic Constant Matrix: (Units=GPa)
#
#
# Indices 1 2 3 4 5 6 
#
# 1 72.6884 21.1910 52.3693 6.9863 -4.1500 -14.8224
# 2 21.1910 75.2125 31.5547 -13.7433 -3.9175 -18.4569
# 3 52.3693 31.5547 91.9857 -8.8989 -4.0167 -14.5754
# 4 6.9863 -13.7433 -8.8989 45.7024 -3.7281 -5.4813
# 5 -4.1500 -3.9175 -4.0167 -3.7281 51.7642 0.1216
# 6 -14.8224 -18.4569 -14.5754 -5.4813 0.1216 28.8451
#
#
#
# Elastic Compliance Matrix: (Units=1/GPa)
#
#
# Indices 1 2 3 4 5 6 
#
# 1 0.025935 -0.001605 -0.014245 -0.006733 0.000359 0.003821
# 2 -0.001605 0.019131 -0.003159 0.006842 0.001541 0.011114
# 3 -0.014245 -0.003159 0.021012 0.005654 0.000651 0.002348
# 4 -0.006733 0.006842 0.005654 0.027336 0.002364 0.008959
# 5 0.000359 0.001541 0.000651 0.002364 0.019680 0.001865
# 6 0.003821 0.011114 0.002348 0.008959 0.001865 0.046624
#
#
# Mechanical properties :
#
#
# Convention : Reuss Voigt Hill
#
# Bulk Modulus (GPa) = 35.63689 50.01295 42.82492
# Shear Modulus (GPa) = 24.14426 34.24713 29.19569
#
# Velocity S-wave (km/s) = 3.06989 3.65619 3.37579
# Velocity P-wave (km/s) = 5.14547 6.11107 5.64894
#
# Compressibility (1/GPa) = 0.02806081
#
# Stress axis : x y z
#
# Youngs Moduli (GPa) = 38.55775 52.27186 47.59121
#
# Poissons Ratio (x) = 0.08388 0.67794
# Poissons Ratio (y) = 0.06187 0.15033
# Poissons Ratio (z) = 0.54926 0.16512
#
# Static dielectric constant tensor:
#      x y z
#    x 2.195600 -0.095460 0.077720 
#    y -0.095460 2.148180 -0.003780 
#    z 0.077720 -0.003780 2.056650 
# 
# From -- ./inp_files/291866.got.cif
#   From: 2010.05.17/outbox.cif.g08.bks.cpg/sg2_146_cif.got.tgz:291866.got - 2010.06.03 11:33:40.
