data_PCOD9073961
_publ_section_title
;
Structure prediction by ZEFSAII (Michael W. Deem and Ramdas Pophale) SiO2 
 PCOD9073961
Probable space group: P -1
;
_chemical_formula_sum "Si O2"
_cell_formula_units_Z 16
_cell_length_a 24.000000
_cell_length_b 6.000000
_cell_length_c 15.000000
_cell_angle_alpha 80.000000
_cell_angle_beta 160.000000
_cell_angle_gamma 100.000000
_cell_volume 727.188304
_symmetry_space_group_name_H-M "P -1"
_symmetry_group_IT_number 2
_symmetry_cell_setting 'triclinic'
loop_
_space_group_symop_operation_xyz
x,y,z
-x,-y,-z
loop_
_atom_site_type_symbol
_atom_site_label
_atom_site_fract_x
_atom_site_fract_y
_atom_site_fract_z
Si Si1 0.675193 0.620104 0.724125
Si Si2 0.490884 0.232207 0.137419
Si Si3 0.106745 0.332768 0.113266
Si Si4 0.176905 0.198724 0.891008
Si Si5 0.170480 0.979378 0.590520
Si Si6 0.533668 0.078464 0.710700
Si Si7 0.315883 0.575688 0.944628
Si Si8 0.824494 0.036760 0.610640
O O1 0.500000 0.500000 0.500000
O O2 0.770511 0.541586 0.782770
O O3 0.613921 0.857896 0.577607
O O4 0.796831 0.655742 0.988329
O O5 0.658154 0.178600 0.344661
O O6 0.512617 0.103733 0.272222
O O7 0.459074 0.483718 0.103991
O O8 0.321773 0.139634 0.843135
O O9 0.190154 0.169249 0.324331
O O10 0.000000 0.500000 0.000000
O O11 0.978307 0.184686 0.869853
O O12 0.207318 0.370493 0.840697
O O13 0.015843 0.036908 0.653066
O O14 0.324873 0.029050 0.125469
O O15 0.221809 0.736000 0.724663
O O16 0.151619 0.023434 0.453369
O O17 0.606964 0.287439 0.865266
#
# Coordination Sequence:
#
# PCOD9073961 Si02
#       8
#     2   2   2   2   2   2   2   2
#     4  12  23  44  70 101 133 177 225 274 344 408
#     4  10  23  41  67  90 131 179 218 269 329 392
#     4  11  27  45  71 103 137 172 221 286 339 400
#     4  11  23  41  64  95 134 173 215 278 334 397
#     4  11  24  41  64  96 132 173 229 269 327 395
#     4  10  22  40  65  93 131 172 218 272 333 400
#     4  10  23  41  62  97 131 176 218 272 327 396
#     4  11  24  46  68  95 134 176 223 272 337 399
#
# _framework density 22.002554
#
# number of rings (size 3 to 8) (size 9 to 14) (size 15 to 20)
#    0.000    1.250    3.750    1.125    1.750    8.000 
#    0.000    0.000    0.000    0.000    0.000    0.000 
#    0.000    0.000    0.000    0.000    0.000    0.000 
#
# Total GULP energy -89230.498347 kJ/mol
# GULP energy per Si atom -5576.906147 kJ/mol
# Density = 2.195248 g / cm^3
# Si number density = 22.002554 Si / 1000 Ang^3
#
#
#
# Elastic Constant Matrix: (Units=GPa)
#
#
# Indices 1 2 3 4 5 6 
#
# 1 95.8269 15.9336 14.1683 -9.8429 0.8191 -0.5863
# 2 15.9336 17.0399 -1.0247 -2.1968 -5.4963 -9.7363
# 3 14.1683 -1.0247 59.5806 -5.7463 -10.2699 4.8495
# 4 -9.8429 -2.1968 -5.7463 25.2580 3.6034 7.4869
# 5 0.8191 -5.4963 -10.2699 3.6034 50.7756 -5.3118
# 6 -0.5863 -9.7363 4.8495 7.4869 -5.3118 22.6317
#
#
#
# Elastic Compliance Matrix: (Units=1/GPa)
#
#
# Indices 1 2 3 4 5 6 
#
# 1 0.015350 -0.022175 -0.003180 0.007675 -0.005112 -0.012200
# 2 -0.022175 0.119207 0.004337 -0.018489 0.021834 0.061021
# 3 -0.003180 0.004337 0.018830 0.003639 0.003803 -0.002563
# 4 0.007675 -0.018489 0.003639 0.051002 -0.007860 -0.027252
# 5 -0.005112 0.021834 0.003803 -0.007860 0.025243 0.016971
# 6 -0.012200 0.061021 -0.002563 -0.027252 0.016971 0.083669
#
#
# Mechanical properties :
#
#
# Convention : Reuss Voigt Hill
#
# Bulk Modulus (GPa) = 8.98055 25.62245 17.30150
# Shear Modulus (GPa) = 12.74041 29.29107 21.01574
#
# Velocity S-wave (km/s) = 2.40894 3.65260 3.09390
# Velocity P-wave (km/s) = 3.43915 5.42763 4.54351
#
# Compressibility (1/GPa) = 0.11135179
#
# Stress axis : x y z
#
# Youngs Moduli (GPa) = 65.14601 8.38879 53.10744
#
# Poissons Ratio (x) = 0.18602 0.16886
# Poissons Ratio (y) = 1.44460 -0.23032
# Poissons Ratio (z) = 0.20714 -0.03638
#
# Static dielectric constant tensor:
#      x y z
#    x 1.833090 -0.016940 0.052700 
#    y -0.016940 1.856960 -0.021720 
#    z 0.052700 -0.021720 1.854570 
# 
# From -- ./inp_files/72371.got.cif
#   From: 2010.05.17/outbox.ucp.g08.bks.cvg/sg2_37_cif.got.tgz:72371.got - 2010.06.11 11:32:03.
