data_PCOD9073678
_publ_section_title
;
Structure prediction by ZEFSAII (Michael W. Deem and Ramdas Pophale) SiO2 
 PCOD9073678
Probable space group: P -1
;
_chemical_formula_sum "Si O2"
_cell_formula_units_Z 16
_cell_length_a 12.000000
_cell_length_b 9.000000
_cell_length_c 15.000000
_cell_angle_alpha 140.000000
_cell_angle_beta 50.000000
_cell_angle_gamma 110.000000
_cell_volume 759.581896
_symmetry_space_group_name_H-M "P -1"
_symmetry_group_IT_number 2
_symmetry_cell_setting 'triclinic'
loop_
_space_group_symop_operation_xyz
x,y,z
-x,-y,-z
loop_
_atom_site_type_symbol
_atom_site_label
_atom_site_fract_x
_atom_site_fract_y
_atom_site_fract_z
Si Si1 0.834853 0.374822 0.430933
Si Si2 0.187276 0.911957 0.862472
Si Si3 0.811234 0.327216 0.776866
Si Si4 0.163835 0.005739 0.120267
Si Si5 0.010484 0.308333 0.827557
Si Si6 0.443995 0.174359 0.842724
Si Si7 0.735023 0.152690 0.557479
Si Si8 0.687901 0.946363 0.762455
O O1 0.786549 0.281864 0.319426
O O2 0.750525 0.290833 0.520629
O O3 0.775546 0.662325 0.583809
O O4 0.021355 0.256123 0.292123
O O5 0.305651 0.060376 0.841924
O O6 0.216359 0.882141 0.940664
O O7 0.000000 0.000000 0.000000
O O8 0.831735 0.251396 0.627769
O O9 0.931916 0.397939 0.812615
O O10 0.787730 0.092949 0.728698
O O11 0.653587 0.546634 0.961823
O O12 0.304793 0.007967 0.113341
O O13 0.078588 0.854965 0.152896
O O14 0.178297 0.130067 0.637393
O O15 0.000000 0.500000 0.000000
O O16 0.571536 0.169454 0.697346
O O17 0.534514 0.041447 0.824177
#
# Coordination Sequence:
#
# PCOD9073678 Si02
#       8
#     2   2   2   2   2   2   2   2
#     4  10  22  41  68  98 137 175 226 279 341 402
#     4  10  24  45  66  94 135 181 226 274 349 407
#     4  10  23  44  67  99 141 181 230 275 338 404
#     4   9  21  41  64  99 132 178 228 278 335 398
#     4  10  22  41  70 103 135 181 230 277 341 408
#     4  11  25  45  70  98 140 182 226 284 343 399
#     4  10  22  43  67 105 134 174 230 282 342 394
#     4  10  21  42  66  99 133 172 232 275 332 403
#
# _framework density 21.064219999999999
#
# number of rings (size 3 to 8) (size 9 to 14) (size 15 to 20)
#    0.000    2.000    0.000    2.250    7.000    4.500 
#   13.500    0.000    0.000    0.000    0.000    0.000 
#    0.000    0.000    0.000    0.000    0.000    0.000 
#
# Total GULP energy -89083.910078 kJ/mol
# GULP energy per Si atom -5567.744380 kJ/mol
# Density = 2.101628 g / cm^3
# Si number density = 21.064220 Si / 1000 Ang^3
#
#
#
# Elastic Constant Matrix: (Units=GPa)
#
#
# Indices 1 2 3 4 5 6 
#
# 1 106.5051 38.4762 52.6431 11.7364 16.0184 -10.6289
# 2 38.4762 53.1355 35.0091 2.0177 -0.5585 -18.0471
# 3 52.6431 35.0091 123.2672 4.2362 17.0846 -18.7291
# 4 11.7364 2.0177 4.2362 39.7973 -10.2134 -1.3359
# 5 16.0184 -0.5585 17.0846 -10.2134 46.3511 -9.9549
# 6 -10.6289 -18.0471 -18.7291 -1.3359 -9.9549 41.5547
#
#
#
# Elastic Compliance Matrix: (Units=1/GPa)
#
#
# Indices 1 2 3 4 5 6 
#
# 1 0.016084 -0.010563 -0.003339 -0.005644 -0.006497 -0.003716
# 2 -0.010563 0.033594 -0.004646 0.004737 0.009433 0.012206
# 3 -0.003339 -0.004646 0.011536 -0.000716 -0.002970 0.001593
# 4 -0.005644 0.004737 -0.000716 0.029170 0.009449 0.003492
# 5 -0.006497 0.009433 -0.002970 0.009449 0.028898 0.008323
# 6 -0.003716 0.012206 0.001593 0.003492 0.008323 0.031240
#
#
# Mechanical properties :
#
#
# Convention : Reuss Voigt Hill
#
# Bulk Modulus (GPa) = 41.46044 59.46273 50.46159
# Shear Modulus (GPa) = 25.55498 35.99258 30.77378
#
# Velocity S-wave (km/s) = 3.48687 4.13814 3.82638
# Velocity P-wave (km/s) = 5.99472 7.15002 6.59770
#
# Compressibility (1/GPa) = 0.02411938
#
# Stress axis : x y z
#
# Youngs Moduli (GPa) = 62.17446 29.76691 86.68326
#
# Poissons Ratio (x) = 0.31442 0.28945
# Poissons Ratio (y) = 0.65672 0.40271
# Poissons Ratio (z) = 0.20761 0.13829
#
# Static dielectric constant tensor:
#      x y z
#    x 1.851970 0.034400 0.035310 
#    y 0.034400 1.778290 0.026300 
#    z 0.035310 0.026300 1.794340 
# 
# From -- ./inp_files/516352.got.cif
#   From: 2010.05.17/outbox.ucp.g08.bks.cvg/sg2_259_cif.got.tgz:516352.got - 2010.06.11 11:32:03.
