data_PCOD9073712
_publ_section_title
;
Structure prediction by ZEFSAII (Michael W. Deem and Ramdas Pophale) SiO2 
 PCOD9073712
Probable space group: P -1
;
_chemical_formula_sum "Si O2"
_cell_formula_units_Z 16
_cell_length_a 15.000000
_cell_length_b 15.000000
_cell_length_c 15.000000
_cell_angle_alpha 150.000000
_cell_angle_beta 130.000000
_cell_angle_gamma 30.000000
_cell_volume 762.223433
_symmetry_space_group_name_H-M "P -1"
_symmetry_group_IT_number 2
_symmetry_cell_setting 'triclinic'
loop_
_space_group_symop_operation_xyz
x,y,z
-x,-y,-z
loop_
_atom_site_type_symbol
_atom_site_label
_atom_site_fract_x
_atom_site_fract_y
_atom_site_fract_z
Si Si1 0.717664 0.298000 0.429945
Si Si2 0.970047 0.646776 0.986842
Si Si3 0.666397 0.429392 0.007784
Si Si4 0.296848 0.355881 0.150585
Si Si5 0.892529 0.325432 0.209464
Si Si6 0.090942 0.731430 0.630360
Si Si7 0.396348 0.266361 0.942402
Si Si8 0.141894 0.296390 0.233647
O O1 0.500000 0.500000 0.500000
O O2 0.758222 0.420198 0.622936
O O3 0.762340 0.324351 0.381551
O O4 0.869520 0.943544 0.226642
O O5 0.873180 0.585569 0.910778
O O6 0.893132 0.749760 0.924402
O O7 0.209258 0.363765 0.891226
O O8 0.716195 0.515741 0.190291
O O9 0.604675 0.593318 0.017200
O O10 0.500000 0.500000 0.000000
O O11 0.880396 0.081699 0.820019
O O12 0.342411 0.392337 0.117026
O O13 0.500000 0.000000 0.000000
O O14 0.826161 0.433740 0.362640
O O15 0.045951 0.284167 0.235565
O O16 0.000000 0.000000 0.000000
O O17 0.037846 0.616324 0.444773
O O18 0.628032 0.932445 0.806925
#
# Coordination Sequence:
#
# PCOD9073712 Si02
#       8
#     2   2   2   2   2   2   2   2
#     4  12  23  41  74 102 142 193 240 284 364 431
#     4  12  24  46  70 101 146 186 239 301 354 428
#     4  11  24  45  70 105 144 182 244 300 356 437
#     4  12  24  45  69 103 145 190 240 300 357 431
#     4  10  21  42  71  98 139 185 231 293 362 425
#     4  11  23  45  69 102 143 188 237 299 362 429
#     4  12  24  44  74 101 140 194 234 297 367 418
#     4  12  23  45  75 100 144 188 237 299 365 427
#
# _framework density 20.991219999999998
#
# number of rings (size 3 to 8) (size 9 to 14) (size 15 to 20)
#    0.000    0.500    6.250    3.000    0.000    1.500 
#    2.250    1.250    2.750    0.000    0.000    0.000 
#    0.000    0.000    0.000    0.000    0.000    0.000 
#
# Total GULP energy -89261.952402 kJ/mol
# GULP energy per Si atom -5578.872025 kJ/mol
# Density = 2.094344 g / cm^3
# Si number density = 20.991220 Si / 1000 Ang^3
#
#
#
# Elastic Constant Matrix: (Units=GPa)
#
#
# Indices 1 2 3 4 5 6 
#
# 1 195.2639 25.5165 14.9924 -15.2054 -23.5367 -12.7877
# 2 25.5165 83.3341 17.6327 -5.4323 -15.6753 -11.8820
# 3 14.9924 17.6327 88.3120 -24.6131 -3.9614 -1.4614
# 4 -15.2054 -5.4323 -24.6131 17.7002 -4.0386 -6.5258
# 5 -23.5367 -15.6753 -3.9614 -4.0386 37.4220 -5.6865
# 6 -12.7877 -11.8820 -1.4614 -6.5258 -5.6865 56.7947
#
#
#
# Elastic Compliance Matrix: (Units=1/GPa)
#
#
# Indices 1 2 3 4 5 6 
#
# 1 0.006928 -0.000128 0.002680 0.012480 0.006495 0.003687
# 2 -0.000128 0.014668 -0.000533 0.007043 0.007464 0.004583
# 3 0.002680 -0.000533 0.021603 0.036386 0.008601 0.006090
# 4 0.012480 0.007043 0.036386 0.136442 0.033055 0.024207
# 5 0.006495 0.007464 0.008601 0.033055 0.040092 0.011057
# 6 0.003687 0.004583 0.006090 0.024207 0.011057 0.023441
#
#
# Mechanical properties :
#
#
# Convention : Reuss Voigt Hill
#
# Bulk Modulus (GPa) = 21.16978 53.68813 37.42895
# Shear Modulus (GPa) = 19.61691 42.96795 31.29243
#
# Velocity S-wave (km/s) = 3.06032 4.52923 3.86520
# Velocity P-wave (km/s) = 4.75336 7.27900 6.14729
#
# Compressibility (1/GPa) = 0.04723715
#
# Stress axis : x y z
#
# Youngs Moduli (GPa) = 144.33419 68.17385 46.29088
#
# Poissons Ratio (x) = 0.00870 -0.12406
# Poissons Ratio (y) = 0.01841 0.02470
# Poissons Ratio (z) = -0.38682 0.03637
#
# Static dielectric constant tensor:
#      x y z
#    x 1.751130 0.045820 -0.011680 
#    y 0.045820 1.859790 -0.016100 
#    z -0.011680 -0.016100 1.800100 
# 
# From -- ./inp_files/534598.got.cif
#   From: 2010.05.17/outbox.ucp.g08.bks.cvg/sg2_268_cif.got.tgz:534598.got - 2010.06.11 11:32:03.
