data_PCOD9073231
_publ_section_title
;
Structure prediction by ZEFSAII (Michael W. Deem and Ramdas Pophale) SiO2 
 PCOD9073231
Probable space group: P -1
;
_chemical_formula_sum "Si O2"
_cell_formula_units_Z 16
_cell_length_a 15.000000
_cell_length_b 12.000000
_cell_length_c 9.000000
_cell_angle_alpha 70.000000
_cell_angle_beta 80.000000
_cell_angle_gamma 30.000000
_cell_volume 734.803614
_symmetry_space_group_name_H-M "P -1"
_symmetry_group_IT_number 2
_symmetry_cell_setting 'triclinic'
loop_
_space_group_symop_operation_xyz
x,y,z
-x,-y,-z
loop_
_atom_site_type_symbol
_atom_site_label
_atom_site_fract_x
_atom_site_fract_y
_atom_site_fract_z
Si Si1 0.479639 0.404884 0.348665
Si Si2 0.130263 0.160414 0.865277
Si Si3 0.035866 0.125429 0.303627
Si Si4 0.714439 0.344991 0.394539
Si Si5 0.822226 0.139256 0.930725
Si Si6 0.658088 0.968371 0.386264
Si Si7 0.835247 0.774212 0.874199
Si Si8 0.714960 0.715718 0.734689
O O1 0.563685 0.442156 0.305474
O O2 0.378392 0.507712 0.491201
O O3 0.331645 0.586923 0.177657
O O4 0.610926 0.142718 0.410205
O O5 0.907797 0.424144 0.832089
O O6 0.182160 0.183379 0.704411
O O7 0.231417 0.092897 0.014199
O O8 0.206611 0.940916 0.919036
O O9 0.082082 0.211835 0.253646
O O10 0.824335 0.325233 0.292696
O O11 0.143111 0.925046 0.485878
O O12 0.119516 0.983433 0.189114
O O13 0.000000 0.000000 0.000000
O O14 0.466579 0.156018 0.273202
O O15 0.714196 0.790576 0.547285
O O16 0.699837 0.840414 0.799996
O O17 0.000000 0.500000 0.000000
#
# Coordination Sequence:
#
# PCOD9073231 Si02
#       8
#     2   2   2   2   2   2   2   2
#     4  10  21  38  57  90 126 150 192 254 298 360
#     4  10  22  41  62  87 120 163 201 244 302 360
#     4   9  18  36  61  86 112 158 203 240 298 359
#     4   9  19  37  60  88 117 153 200 246 301 358
#     4  10  21  37  57  85 125 156 193 240 301 369
#     4  11  23  39  63  92 121 157 201 252 307 352
#     4   9  19  39  60  85 118 155 202 249 289 357
#     4  10  22  43  62  86 123 156 208 255 292 353
#
# _framework density 21.774525000000001
#
# number of rings (size 3 to 8) (size 9 to 14) (size 15 to 20)
#    0.000    2.250    0.000    1.875    1.750    2.000 
#   22.500    0.000    0.000    0.000    0.000    0.000 
#    0.000    0.000    0.000    0.000    0.000    0.000 
#
# Total GULP energy -89194.634309 kJ/mol
# GULP energy per Si atom -5574.664644 kJ/mol
# Density = 2.172497 g / cm^3
# Si number density = 21.774525 Si / 1000 Ang^3
#
#
#
# Elastic Constant Matrix: (Units=GPa)
#
#
# Indices 1 2 3 4 5 6 
#
# 1 69.2821 15.6841 9.8766 -8.6088 2.5467 15.7698
# 2 15.6841 36.6370 -3.0369 0.6318 -1.4740 -2.9888
# 3 9.8766 -3.0369 32.4303 -17.6305 1.5182 -1.0466
# 4 -8.6088 0.6318 -17.6305 8.5877 -3.3116 -0.7151
# 5 2.5467 -1.4740 1.5182 -3.3116 19.5896 -12.6570
# 6 15.7698 -2.9888 -1.0466 -0.7151 -12.6570 17.6208
#
#
#
# Elastic Compliance Matrix: (Units=1/GPa)
#
#
# Indices 1 2 3 4 5 6 
#
# 1 0.041626 -0.024001 0.023348 0.070898 -0.039161 -0.065189
# 2 -0.024001 0.040702 -0.026776 -0.070168 0.022144 0.039852
# 3 0.023348 -0.026776 -0.081170 -0.190584 -0.103611 -0.112417
# 4 0.070898 -0.070168 -0.190584 -0.302197 -0.214101 -0.252726
# 5 -0.039161 0.022144 -0.103611 -0.214101 0.084196 0.084438
# 6 -0.065189 0.039852 -0.112417 -0.252726 0.084438 0.165570
#
#
# Mechanical properties :
#
#
# Convention : Reuss Voigt Hill
#
# Bulk Modulus (GPa) = -18.62205 20.37744 0.87770
# Shear Modulus (GPa) = -349.29476 16.88131 -166.20672
#
# Velocity S-wave (km/s) = -12.67922 2.78740 -8.74623
# Velocity P-wave (km/s) = 14.93054 4.44277 10.07926
#
# Compressibility (1/GPa) = -0.05369978
#
# Stress axis : x y z
#
# Youngs Moduli (GPa) = 24.02342 24.56880 -12.31986
#
# Poissons Ratio (x) = 0.58967 0.28764
# Poissons Ratio (y) = 0.57658 -0.32988
# Poissons Ratio (z) = -0.56090 0.65786
#
# Static dielectric constant tensor:
#      x y z
#    x 1.844870 -0.020940 0.032960 
#    y -0.020940 1.796850 -0.016340 
#    z 0.032960 -0.016340 1.853040 
# 
# From -- ./inp_files/307028.got.cif
#   From: 2010.05.17/outbox.ucp.g08.bks.cvg/sg2_154_cif.got.tgz:307028.got - 2010.06.11 11:32:03.
