data_PCOD9073590
_publ_section_title
;
Structure prediction by ZEFSAII (Michael W. Deem and Ramdas Pophale) SiO2 
 PCOD9073590
Probable space group: P -1
;
_chemical_formula_sum "Si O2"
_cell_formula_units_Z 16
_cell_length_a 15.000000
_cell_length_b 24.000000
_cell_length_c 18.000000
_cell_angle_alpha 160.000000
_cell_angle_beta 30.000000
_cell_angle_gamma 160.000000
_cell_volume 749.971719
_symmetry_space_group_name_H-M "P -1"
_symmetry_group_IT_number 2
_symmetry_cell_setting 'triclinic'
loop_
_space_group_symop_operation_xyz
x,y,z
-x,-y,-z
loop_
_atom_site_type_symbol
_atom_site_label
_atom_site_fract_x
_atom_site_fract_y
_atom_site_fract_z
Si Si1 0.086062 0.451087 0.042220
Si Si2 0.906229 0.884063 0.621211
Si Si3 0.306653 0.102635 0.723320
Si Si4 0.213655 0.773314 0.492835
Si Si5 0.194523 0.583567 0.531683
Si Si6 0.622364 0.637592 0.211237
Si Si7 0.738025 0.434861 0.100939
Si Si8 0.472969 0.110752 0.022738
O O1 0.156573 0.315253 0.844456
O O2 0.284032 0.598295 0.013269
O O3 0.140828 0.609243 0.269113
O O4 0.777458 0.274419 0.027712
O O5 0.801249 0.660866 0.368528
O O6 0.682165 0.868407 0.783982
O O7 0.021213 0.904049 0.642528
O O8 0.180971 0.136189 0.703300
O O9 0.512207 0.130799 0.562142
O O10 0.270710 0.986960 0.683222
O O11 0.432906 0.368211 0.975023
O O12 0.989140 0.615767 0.520175
O O13 0.429540 0.625664 0.383005
O O14 0.000000 0.500000 0.500000
O O15 0.317370 0.836157 0.788404
O O16 0.508916 0.211801 0.040334
O O17 0.000000 0.500000 0.000000
#
# Coordination Sequence:
#
# PCOD9073590 Si02
#       8
#     2   2   2   2   2   2   2   2
#     4  10  23  43  62  93 127 163 215 256 312 373
#     4  12  23  40  65  94 127 167 212 254 311 373
#     4  10  21  41  64  91 124 163 210 251 311 375
#     4  10  23  41  66  91 124 168 202 260 315 366
#     4  12  26  43  64  94 127 162 211 259 313 375
#     4  11  24  39  64  92 125 168 206 261 313 366
#     4  10  22  40  64  92 127 167 207 258 309 366
#     4  11  24  41  65  93 127 169 206 259 313 368
#
# _framework density 21.334137999999999
#
# number of rings (size 3 to 8) (size 9 to 14) (size 15 to 20)
#    0.000    1.250    0.000    6.750    0.000    9.500 
#    0.000    0.000    0.000    0.000    0.000    0.000 
#    0.000    0.000    0.000    0.000    0.000    0.000 
#
# Total GULP energy -89308.226811 kJ/mol
# GULP energy per Si atom -5581.764176 kJ/mol
# Density = 2.128558 g / cm^3
# Si number density = 21.334138 Si / 1000 Ang^3
#
#
#
# Elastic Constant Matrix: (Units=GPa)
#
#
# Indices 1 2 3 4 5 6 
#
# 1 79.4789 35.2740 17.0414 -8.3866 -1.0328 -1.0073
# 2 35.2740 156.6394 46.4878 -26.7775 -4.2058 -17.9711
# 3 17.0414 46.4878 113.9981 -24.8976 -5.2682 -4.0085
# 4 -8.3866 -26.7775 -24.8976 48.0146 -1.7067 -6.4362
# 5 -1.0328 -4.2058 -5.2682 -1.7067 26.7694 1.5819
# 6 -1.0073 -17.9711 -4.0085 -6.4362 1.5819 50.9225
#
#
#
# Elastic Compliance Matrix: (Units=1/GPa)
#
#
# Indices 1 2 3 4 5 6 
#
# 1 0.014102 -0.002967 -0.000874 0.000246 -0.000031 -0.000805
# 2 -0.002967 0.008725 -0.002149 0.003706 0.000875 0.003292
# 3 -0.000874 -0.002149 0.010860 0.004429 0.002014 0.000576
# 4 0.000246 0.003706 0.004429 0.025985 0.002833 0.004858
# 5 -0.000031 0.000875 0.002014 0.002833 0.038091 -0.000358
# 6 -0.000805 0.003292 0.000576 0.004858 -0.000358 0.021454
#
#
# Mechanical properties :
#
#
# Convention : Reuss Voigt Hill
#
# Bulk Modulus (GPa) = 46.07044 60.85809 53.46426
# Shear Modulus (GPa) = 36.11898 41.89551 39.00724
#
# Velocity S-wave (km/s) = 4.11909 4.43626 4.28061
# Velocity P-wave (km/s) = 6.65313 7.40464 7.03892
#
# Compressibility (1/GPa) = 0.02170589
#
# Stress axis : x y z
#
# Youngs Moduli (GPa) = 70.91366 114.61654 92.08392
#
# Poissons Ratio (x) = 0.34011 0.08048
# Poissons Ratio (y) = 0.21042 0.19787
# Poissons Ratio (z) = 0.06198 0.24629
#
# Static dielectric constant tensor:
#      x y z
#    x 1.999380 -0.021310 -0.033060 
#    y -0.021310 1.751090 0.029090 
#    z -0.033060 0.029090 1.769280 
# 
# From -- ./inp_files/574427.got.cif
#   From: 2010.05.17/outbox.ucp.g08.bks.cvg/sg2_288_cif.got.tgz:574427.got - 2010.06.11 11:32:03.
