data_PCOD9073282
_publ_section_title
;
Structure prediction by ZEFSAII (Michael W. Deem and Ramdas Pophale) SiO2 
 PCOD9073282
Probable space group: P -1
;
_chemical_formula_sum "Si O2"
_cell_formula_units_Z 12
_cell_length_a 18.000000
_cell_length_b 15.000000
_cell_length_c 12.000000
_cell_angle_alpha 150.000000
_cell_angle_beta 20.000000
_cell_angle_gamma 150.000000
_cell_volume 527.600048
_symmetry_space_group_name_H-M "P -1"
_symmetry_group_IT_number 2
_symmetry_cell_setting 'triclinic'
loop_
_space_group_symop_operation_xyz
x,y,z
-x,-y,-z
loop_
_atom_site_type_symbol
_atom_site_label
_atom_site_fract_x
_atom_site_fract_y
_atom_site_fract_z
Si Si1 0.998809 0.394560 0.269181
Si Si2 0.475833 0.925021 0.099320
Si Si3 0.018650 0.017397 0.123695
Si Si4 0.729636 0.299022 0.062880
Si Si5 0.515571 0.573495 0.766683
Si Si6 0.215942 0.390864 0.364321
O O1 0.000000 0.500000 0.500000
O O2 0.843304 0.466639 0.482799
O O3 0.270519 0.464775 0.942184
O O4 0.934392 0.172303 0.112577
O O5 0.230636 0.960657 0.477549
O O6 0.660127 0.127976 0.063171
O O7 0.451023 0.796423 0.884122
O O8 0.526539 0.789894 0.974509
O O9 0.201618 0.202025 0.112866
O O10 0.000000 0.000000 0.000000
O O11 0.689157 0.489503 0.365262
O O12 0.988819 0.334408 0.700533
O O13 0.566490 0.538258 0.785786
#
# Coordination Sequence:
#
# PCOD9073282 Si02
#       6
#     2   2   2   2   2   2
#     4  12  24  45  68  88 128 170 212 265 319 374
#     4  10  21  37  66  94 126 175 207 251 324 370
#     4  11  21  44  65  88 128 168 212 262 314 375
#     4  10  21  39  62  97 132 167 210 253 316 381
#     4  12  23  41  67  96 133 162 213 266 308 377
#     4  11  26  40  65 102 122 170 217 254 322 375
#
# _framework density 22.744501
#
# number of rings (size 3 to 8) (size 9 to 14) (size 15 to 20)
#    0.000    1.000    6.667    1.000    0.000    2.667 
#    0.000    1.667    0.000    0.000    0.000    0.000 
#    0.000    0.000    0.000    0.000    0.000    0.000 
#
# Total GULP energy -66940.995159 kJ/mol
# GULP energy per Si atom -5578.416263 kJ/mol
# Density = 2.269273 g / cm^3
# Si number density = 22.744501 Si / 1000 Ang^3
#
#
#
# Elastic Constant Matrix: (Units=GPa)
#
#
# Indices 1 2 3 4 5 6 
#
# 1 94.2963 18.3529 27.5095 22.9881 -19.9646 -26.5923
# 2 18.3529 77.8800 38.6047 38.3752 -15.2594 -27.9103
# 3 27.5095 38.6047 67.4435 26.9019 3.0708 1.9635
# 4 22.9881 38.3752 26.9019 48.2812 -6.4098 -11.6950
# 5 -19.9646 -15.2594 3.0708 -6.4098 31.4175 19.4794
# 6 -26.5923 -27.9103 1.9635 -11.6950 19.4794 11.4352
#
#
#
# Elastic Compliance Matrix: (Units=1/GPa)
#
#
# Indices 1 2 3 4 5 6 
#
# 1 0.009780 -0.005169 0.000392 -0.003847 0.016308 -0.021657
# 2 -0.005169 0.010679 0.001192 -0.012847 0.022603 -0.037803
# 3 0.000392 0.001192 0.016390 -0.005868 -0.020039 0.029141
# 4 -0.003847 -0.012847 -0.005868 0.037125 -0.005081 0.007330
# 5 0.016308 0.022603 -0.020039 -0.005081 0.045167 0.014397
# 6 -0.021657 -0.037803 0.029141 0.007330 0.014397 -0.077211
#
#
# Mechanical properties :
#
#
# Convention : Reuss Voigt Hill
#
# Bulk Modulus (GPa) = 33.69530 45.39490 39.54510
# Shear Modulus (GPa) = 84.75618 28.57028 56.66323
#
# Velocity S-wave (km/s) = 6.11109 3.54805 4.99670
# Velocity P-wave (km/s) = 8.03994 6.06522 7.12136
#
# Compressibility (1/GPa) = 0.02967773
#
# Stress axis : x y z
#
# Youngs Moduli (GPa) = 102.25080 93.64128 61.01406
#
# Poissons Ratio (x) = 0.48407 -0.02394
# Poissons Ratio (y) = 0.52858 -0.07271
# Poissons Ratio (z) = -0.04012 -0.11159
#
# Static dielectric constant tensor:
#      x y z
#    x 1.958000 -0.046690 0.226940 
#    y -0.046690 1.899160 -0.082970 
#    z 0.226940 -0.082970 1.914590 
# 
# From -- ./inp_files/168227.got.cif
#   From: 2010.05.17/outbox.ucp.g08.bks.cvg/sg2_85_cif.got.tgz:168227.got - 2010.06.11 11:32:03.
