data_PCOD9073865
_publ_section_title
;
Structure prediction by ZEFSAII (Michael W. Deem and Ramdas Pophale) SiO2 
 PCOD9073865
Probable space group: P -1
;
_chemical_formula_sum "Si O2"
_cell_formula_units_Z 14
_cell_length_a 19.249488
_cell_length_b 7.690004
_cell_length_c 7.551770
_cell_angle_alpha 65.288426
_cell_angle_beta 40.805309
_cell_angle_gamma 65.790716
_cell_volume 655.317798
_symmetry_space_group_name_H-M "P -1"
_symmetry_group_IT_number 2
_symmetry_cell_setting 'triclinic'
loop_
_space_group_symop_operation_xyz
x,y,z
-x,-y,-z
loop_
_atom_site_type_symbol
_atom_site_label
_atom_site_fract_x
_atom_site_fract_y
_atom_site_fract_z
Si Si1 0.613009 0.479777 0.692878
Si Si2 0.175009 0.712365 0.540173
Si Si3 0.825732 0.979055 0.302117
Si Si4 0.042788 0.170757 0.232485
Si Si5 0.413027 0.888047 0.309629
Si Si6 0.207994 0.124987 0.214888
Si Si7 0.439407 0.190879 0.633844
O O1 0.728081 0.466817 0.572817
O O2 0.621883 0.264503 0.691986
O O3 0.596107 0.641666 0.508024
O O4 0.500000 0.500000 0.000000
O O5 0.062292 0.680771 0.686669
O O6 0.155622 0.815137 0.729776
O O7 0.211080 0.892265 0.283797
O O8 0.837793 0.842242 0.511621
O O9 0.701652 0.988063 0.472527
O O10 0.902073 0.916703 0.017613
O O11 0.132195 0.234575 0.163145
O O12 0.000000 0.000000 0.500000
O O13 0.473817 0.771527 0.404306
O O14 0.500000 0.000000 0.000000
O O15 0.329962 0.158105 0.954107
O O16 0.500000 0.000000 0.500000
#
# Coordination Sequence:
#
# PCOD9073865 Si02
#       7
#     2   2   2   2   2   2   2
#     4  11  23  38  59  89 124 158 200 256 304 365
#     4   8  18  35  54  82 117 152 194 253 303 348
#     4   9  18  32  56  86 118 150 198 249 303 354
#     4  10  18  31  58  89 113 154 207 247 302 362
#     4  11  20  39  62  89 122 159 199 251 311 362
#     4   9  19  34  55  84 113 155 204 240 300 358
#     4  12  22  37  60  86 120 162 210 251 303 370
#
# _framework density 21.363682000000001
#
# number of rings (size 3 to 8) (size 9 to 14) (size 15 to 20)
#    0.857    1.143    1.429    3.429    0.000    1.143 
#    0.000    0.714    0.000    0.857    0.000    0.000 
#    0.000    0.000    0.000    0.000    0.000    0.000 
#
# Total GULP energy -77992.534484 kJ/mol
# GULP energy per Si atom -5570.895320 kJ/mol
# Density = 2.131506 g / cm^3
# Si number density = 21.363682 Si / 1000 Ang^3
#
#
#
# Elastic Constant Matrix: (Units=GPa)
#
#
# Indices 1 2 3 4 5 6 
#
# 1 139.3531 15.2284 42.8383 22.8825 -23.7558 -46.6821
# 2 15.2284 43.9981 21.0758 2.9755 -4.7769 -25.6583
# 3 42.8383 21.0758 121.0188 18.8118 8.3841 -17.1205
# 4 22.8825 2.9755 18.8118 24.3384 -9.0458 -7.4658
# 5 -23.7558 -4.7769 8.3841 -9.0458 32.3785 7.6397
# 6 -46.6821 -25.6583 -17.1205 -7.4658 7.6397 36.1970
#
#
#
# Elastic Compliance Matrix: (Units=1/GPa)
#
#
# Indices 1 2 3 4 5 6 
#
# 1 0.019720 0.015028 -0.005474 -0.002989 0.010008 0.030767
# 2 0.015028 0.052491 -0.008860 0.006015 0.010617 0.051398
# 3 -0.005474 -0.008860 0.012870 -0.009494 -0.009613 -0.007182
# 4 -0.002989 0.006015 -0.009494 0.057912 0.016287 0.004425
# 5 0.010008 0.010617 -0.009613 0.016287 0.044509 0.009852
# 6 0.030767 0.051398 -0.007182 0.004425 0.009852 0.099175
#
#
# Mechanical properties :
#
#
# Convention : Reuss Voigt Hill
#
# Bulk Modulus (GPa) = 11.56499 51.40609 31.48554
# Shear Modulus (GPa) = 15.91791 33.59794 24.75792
#
# Velocity S-wave (km/s) = 2.73260 3.96999 3.40792
# Velocity P-wave (km/s) = 3.92190 6.71781 5.50047
#
# Compressibility (1/GPa) = 0.08646790
#
# Stress axis : x y z
#
# Youngs Moduli (GPa) = 50.70949 19.05102 77.70277
#
# Poissons Ratio (x) = -0.28629 0.42533
# Poissons Ratio (y) = -0.76205 0.68846
# Poissons Ratio (z) = 0.27757 0.16879
#
# Static dielectric constant tensor:
#      x y z
#    x 2.611150 -0.257970 -0.419140 
#    y -0.257970 1.870180 0.150420 
#    z -0.419140 0.150420 2.016020 
# 
# From -- ./inp_files/340943.got.cif
#   From: 2010.05.17/outbox.cif.g08.bks.cpg/sg2_171_cif.got.tgz:340943.got - 2010.06.03 11:33:40.
