data_PCOD9073669
_publ_section_title
;
Structure prediction by ZEFSAII (Michael W. Deem and Ramdas Pophale) SiO2 
 PCOD9073669
Probable space group: P -1
;
_chemical_formula_sum "Si O2"
_cell_formula_units_Z 14
_cell_length_a 15.000000
_cell_length_b 15.000000
_cell_length_c 9.000000
_cell_angle_alpha 130.000000
_cell_angle_beta 70.000000
_cell_angle_gamma 150.000000
_cell_volume 642.379314
_symmetry_space_group_name_H-M "P -1"
_symmetry_group_IT_number 2
_symmetry_cell_setting 'triclinic'
loop_
_space_group_symop_operation_xyz
x,y,z
-x,-y,-z
loop_
_atom_site_type_symbol
_atom_site_label
_atom_site_fract_x
_atom_site_fract_y
_atom_site_fract_z
Si Si1 0.282720 0.438007 0.076183
Si Si2 0.368849 0.943150 0.909416
Si Si3 0.535598 0.626681 0.396003
Si Si4 0.823802 0.171839 0.833092
Si Si5 0.230590 0.477402 0.825447
Si Si6 0.158246 0.185072 0.374944
Si Si7 0.449745 0.871287 0.537425
O O1 0.452338 0.545291 0.186597
O O2 0.321792 0.609731 0.307368
O O3 0.305005 0.491466 0.946489
O O4 0.047698 0.118852 0.876758
O O5 0.313948 0.806247 0.651734
O O6 0.177823 0.778585 0.946142
O O7 0.500000 0.000000 0.000000
O O8 0.550174 0.235546 0.067694
O O9 0.321002 0.377463 0.350668
O O10 0.704347 0.720160 0.466510
O O11 0.665601 0.887384 0.632587
O O12 0.055463 0.382945 0.870608
O O13 0.682863 0.097188 0.722167
O O14 0.105769 0.254395 0.544369
O O15 0.500000 0.000000 0.500000
#
# Coordination Sequence:
#
# PCOD9073669 Si02
#       7
#     2   2   2   2   2   2   2
#     4  11  23  40  66 101 135 169 230 273 327 408
#     4  10  22  43  69  90 132 176 218 274 334 390
#     4  10  22  42  68  96 136 180 213 277 341 388
#     4  10  22  42  69  96 129 174 224 268 338 399
#     4  12  23  42  70 101 130 176 225 273 335 401
#     4  11  23  43  68  98 137 175 223 272 337 404
#     4  10  21  42  65  95 131 173 218 281 328 385
#
# _framework density 21.793977000000002
#
# number of rings (size 3 to 8) (size 9 to 14) (size 15 to 20)
#    0.000    1.429    4.286    0.857    0.000    2.857 
#    2.571    2.143    0.000    0.000    0.000    0.000 
#    0.000    0.000    0.000    0.000    0.000    0.000 
#
# Total GULP energy -78142.257405 kJ/mol
# GULP energy per Si atom -5581.589815 kJ/mol
# Density = 2.174437 g / cm^3
# Si number density = 21.793977 Si / 1000 Ang^3
#
#
#
# Elastic Constant Matrix: (Units=GPa)
#
#
# Indices 1 2 3 4 5 6 
#
# 1 74.5910 23.8883 23.9360 -17.9319 3.7144 -7.1437
# 2 23.8883 26.2875 30.8510 -14.8840 -21.6710 -12.5024
# 3 23.9360 30.8510 132.5962 -9.7538 -22.8748 2.7031
# 4 -17.9319 -14.8840 -9.7538 35.9424 -4.0565 -11.9564
# 5 3.7144 -21.6710 -22.8748 -4.0565 40.8865 -1.3061
# 6 -7.1437 -12.5024 2.7031 -11.9564 -1.3061 33.2417
#
#
#
# Elastic Compliance Matrix: (Units=1/GPa)
#
#
# Indices 1 2 3 4 5 6 
#
# 1 0.015683 0.015958 -0.004195 0.019801 0.007198 0.017118
# 2 0.015958 -0.128331 0.010220 -0.075972 -0.073713 -0.075890
# 3 -0.004195 0.010220 0.008322 0.007478 0.011368 0.005402
# 4 0.019801 -0.075972 0.007478 -0.005654 -0.039354 -0.028506
# 5 0.007198 -0.073713 0.011368 -0.039354 -0.014146 -0.041812
# 6 0.017118 -0.075890 0.005402 -0.028506 -0.041812 -0.007116
#
#
# Mechanical properties :
#
#
# Convention : Reuss Voigt Hill
#
# Bulk Modulus (GPa) = -16.56747 43.42503 13.42878
# Shear Modulus (GPa) = -25.59776 32.33408 3.36816
#
# Velocity S-wave (km/s) = -3.43087 3.85596 1.24451
# Velocity P-wave (km/s) = 4.82833 6.30818 2.87057
#
# Compressibility (1/GPa) = -0.06035923
#
# Stress axis : x y z
#
# Youngs Moduli (GPa) = 63.76313 -7.79233 120.16033
#
# Poissons Ratio (x) = 0.12435 0.50403
# Poissons Ratio (y) = -1.01754 -1.22803
# Poissons Ratio (z) = 0.26746 0.07964
#
# Static dielectric constant tensor:
#      x y z
#    x 1.989910 -4.128370 2.406550 
#    y -4.128370 118.461310 -69.345080 
#    z 2.406550 -69.345080 42.972580 
# 
# From -- ./inp_files/314702.got.cif
#   From: 2010.05.17/outbox.ucp.g08.bks.cvg/sg2_158_cif.got.tgz:314702.got - 2010.06.11 11:32:03.
