data_PCOD9073252
_publ_section_title
;
Structure prediction by ZEFSAII (Michael W. Deem and Ramdas Pophale) SiO2 
 PCOD9073252
Probable space group: P -1
;
_chemical_formula_sum "Si O2"
_cell_formula_units_Z 16
_cell_length_a 15.620324
_cell_length_b 7.505845
_cell_length_c 7.731646
_cell_angle_alpha 115.440805
_cell_angle_beta 62.960767
_cell_angle_gamma 75.577907
_cell_volume 607.745851
_symmetry_space_group_name_H-M "P -1"
_symmetry_group_IT_number 2
_symmetry_cell_setting 'triclinic'
loop_
_space_group_symop_operation_xyz
x,y,z
-x,-y,-z
loop_
_atom_site_type_symbol
_atom_site_label
_atom_site_fract_x
_atom_site_fract_y
_atom_site_fract_z
Si Si1 0.082205 0.113645 0.341920
Si Si2 0.303741 0.682802 0.481788
Si Si3 0.661812 0.778035 0.223821
Si Si4 0.389546 0.190811 0.076140
Si Si5 0.511141 0.668236 0.294967
Si Si6 0.674958 0.180158 0.090077
Si Si7 0.073031 0.404977 0.129884
Si Si8 0.046112 0.059875 0.813120
O O1 0.085186 0.252753 0.226502
O O2 0.018216 0.322920 0.625938
O O3 0.014171 0.995266 0.303574
O O4 0.213611 0.902422 0.164352
O O5 0.316084 0.432581 0.346283
O O6 0.407067 0.671179 0.278830
O O7 0.302219 0.763149 0.714504
O O8 0.181928 0.878381 0.596564
O O9 0.614945 0.659029 0.334934
O O10 0.586432 0.053478 0.439835
O O11 0.593543 0.726318 0.098759
O O12 0.797734 0.654161 0.046036
O O13 0.500000 0.000000 0.000000
O O14 0.330835 0.055250 0.010338
O O15 0.558955 0.398005 0.208500
O O16 0.029084 0.305134 0.982586
O O17 0.000000 0.000000 0.000000
#
# Coordination Sequence:
#
# PCOD9073252 Si02
#       8
#     2   2   2   2   2   2   2   2
#     4  10  20  32  60  87 116 151 198 248 297 341
#     4  12  21  37  63  89 123 153 200 253 291 356
#     4  11  22  42  60  90 120 162 203 238 303 365
#     4  12  23  36  62  89 118 153 199 246 299 351
#     4  11  23  39  64  84 125 168 189 243 310 356
#     4  12  22  41  57  93 126 153 199 252 299 351
#     4  10  18  35  57  84 117 151 196 251 284 353
#     4  10  18  31  53  91 110 146 195 246 292 330
#
# _framework density 26.326795000000001
#
# number of rings (size 3 to 8) (size 9 to 14) (size 15 to 20)
#    0.000    1.000    7.500    1.875    3.500    0.500 
#    0.000    0.625    0.000    0.750    0.000    0.000 
#    0.000    0.000    0.000    0.000    0.000    0.000 
#
# Total GULP energy -89179.033862 kJ/mol
# GULP energy per Si atom -5573.689616 kJ/mol
# Density = 2.626687 g / cm^3
# Si number density = 26.326795 Si / 1000 Ang^3
#
#
#
# Elastic Constant Matrix: (Units=GPa)
#
#
# Indices 1 2 3 4 5 6 
#
# 1 138.7730 28.7553 78.5972 -14.8449 5.2813 42.8755
# 2 28.7553 94.5494 44.4313 9.0571 12.6056 26.4917
# 3 78.5972 44.4313 180.8033 18.7517 16.9681 19.7886
# 4 -14.8449 9.0571 18.7517 31.1674 8.4454 15.5905
# 5 5.2813 12.6056 16.9681 8.4454 50.8126 -4.1159
# 6 42.8755 26.4917 19.7886 15.5905 -4.1159 33.5045
#
#
#
# Elastic Compliance Matrix: (Units=1/GPa)
#
#
# Indices 1 2 3 4 5 6 
#
# 1 -0.064995 -0.029398 0.028246 -0.126344 0.038024 0.153197
# 2 -0.029398 0.002590 0.010363 -0.051764 0.012012 0.055014
# 3 0.028246 0.010363 -0.005668 0.052500 -0.017817 -0.067611
# 4 -0.126344 -0.051764 0.052500 -0.197456 0.063232 0.271251
# 5 0.038024 0.012012 -0.017817 0.063232 0.001966 -0.076817
# 6 0.153197 0.055014 -0.067611 0.271251 -0.076817 -0.305421
#
#
# Mechanical properties :
#
#
# Convention : Reuss Voigt Hill
#
# Bulk Modulus (GPa) = -20.14129 79.74370 29.80120
# Shear Modulus (GPa) = -8.27874 40.58636 16.15381
#
# Velocity S-wave (km/s) = -1.77523 3.93063 2.47976
# Velocity P-wave (km/s) = 3.44514 7.13831 4.42077
#
# Compressibility (1/GPa) = -0.04964926
#
# Stress axis : x y z
#
# Youngs Moduli (GPa) = -15.38590 386.09299 -176.43964
#
# Poissons Ratio (x) = 11.35024 4.98372
# Poissons Ratio (y) = -0.45231 1.82846
# Poissons Ratio (z) = 0.43459 -4.00112
#
# Static dielectric constant tensor:
#      x y z
#    x 2.152810 0.297600 0.018300 
#    y 0.297600 3.696050 -0.272280 
#    z 0.018300 -0.272280 2.079950 
# 
# From -- ./inp_files/299623.got.cif
#   From: 2010.05.17/outbox.cif.g08.bks.cpg/sg2_150_cif.got.tgz:299623.got - 2010.06.03 11:33:40.
