data_PCOD9073247
_publ_section_title
;
Structure prediction by ZEFSAII (Michael W. Deem and Ramdas Pophale) SiO2 
 PCOD9073247
Probable space group: P -1
;
_chemical_formula_sum "Si O2"
_cell_formula_units_Z 16
_cell_length_a 12.000000
_cell_length_b 15.000000
_cell_length_c 6.000000
_cell_angle_alpha 70.000000
_cell_angle_beta 90.000000
_cell_angle_gamma 130.000000
_cell_volume 740.289630
_symmetry_space_group_name_H-M "P -1"
_symmetry_group_IT_number 2
_symmetry_cell_setting 'triclinic'
loop_
_space_group_symop_operation_xyz
x,y,z
-x,-y,-z
loop_
_atom_site_type_symbol
_atom_site_label
_atom_site_fract_x
_atom_site_fract_y
_atom_site_fract_z
Si Si1 0.692715 0.655785 0.217746
Si Si2 0.622354 0.948339 0.503670
Si Si3 0.123955 0.902608 0.273731
Si Si4 0.638513 0.489758 0.756520
Si Si5 0.397263 0.751264 0.020581
Si Si6 0.918457 0.738389 0.797024
Si Si7 0.186289 0.799647 0.988558
Si Si8 0.688036 0.857047 0.221106
O O1 0.678410 0.553168 0.454959
O O2 0.536127 0.579179 0.144402
O O3 0.683073 0.742375 0.300408
O O4 0.850684 0.752608 0.999359
O O5 0.461411 0.829834 0.716864
O O6 0.687308 0.890175 0.445579
O O7 0.725999 0.034261 0.637868
O O8 0.667599 0.052582 0.228118
O O9 0.992162 0.840393 0.507351
O O10 0.110677 0.804220 0.199611
O O11 0.169285 0.017132 0.020952
O O12 0.764190 0.604209 0.820606
O O13 0.652169 0.385784 0.876868
O O14 0.258809 0.740422 0.090244
O O15 0.537555 0.819683 0.139747
O O16 0.049752 0.738542 0.863408
#
# Coordination Sequence:
#
# PCOD9073247 Si02
#       8
#     2   2   2   2   2   2   2   2
#     4  10  22  41  61  84 115 149 191 245 287 330
#     4   9  19  36  60  90 117 148 190 234 288 344
#     4   9  20  38  58  87 119 151 189 233 288 343
#     4  10  23  40  60  85 111 150 198 240 283 334
#     4  10  21  37  60  88 117 152 192 235 284 339
#     4  11  22  39  60  82 117 157 192 230 285 345
#     4  10  21  38  59  87 122 151 184 236 289 340
#     4   9  20  37  60  89 117 147 190 240 288 336
#
# _framework density 21.613161999999999
#
# number of rings (size 3 to 8) (size 9 to 14) (size 15 to 20)
#    0.000    2.250    0.000    1.500    0.000   13.500 
#    0.000   11.250    0.000    0.000    0.000    0.000 
#    0.000    0.000    0.000    0.000    0.000    0.000 
#
# Total GULP energy -89122.264205 kJ/mol
# GULP energy per Si atom -5570.141513 kJ/mol
# Density = 2.156397 g / cm^3
# Si number density = 21.613162 Si / 1000 Ang^3
#
#
#
# Elastic Constant Matrix: (Units=GPa)
#
#
# Indices 1 2 3 4 5 6 
#
# 1 79.6609 31.6824 19.7857 -11.8215 -4.2024 3.3106
# 2 31.6824 56.1741 -2.1344 2.2870 1.1033 3.7410
# 3 19.7857 -2.1344 44.3346 -0.5747 -26.3231 -0.6047
# 4 -11.8215 2.2870 -0.5747 19.9816 8.3836 -1.1631
# 5 -4.2024 1.1033 -26.3231 8.3836 19.0230 2.0206
# 6 3.3106 3.7410 -0.6047 -1.1631 2.0206 12.0045
#
#
#
# Elastic Compliance Matrix: (Units=1/GPa)
#
#
# Indices 1 2 3 4 5 6 
#
# 1 0.001616 0.001376 0.042079 -0.029400 0.072935 -0.013880
# 2 0.001376 0.015808 -0.030493 0.020229 -0.052136 0.003894
# 3 0.042079 -0.030493 -0.102877 0.102938 -0.180164 0.033015
# 4 -0.029400 0.020229 0.102938 -0.031223 0.150808 -0.021420
# 5 0.072935 -0.052136 -0.180164 0.150808 -0.248684 0.043528
# 6 -0.013880 0.003894 0.033015 -0.021420 0.043528 0.078178
#
#
# Mechanical properties :
#
#
# Convention : Reuss Voigt Hill
#
# Bulk Modulus (GPa) = -16.79885 30.98189 7.09152
# Shear Modulus (GPa) = -15.01731 18.92423 1.95346
#
# Velocity S-wave (km/s) = -2.63881 2.96224 0.95173
# Velocity P-wave (km/s) = 4.13204 5.10546 2.12037
#
# Compressibility (1/GPa) = -0.05952790
#
# Stress axis : x y z
#
# Youngs Moduli (GPa) = 618.83007 63.25930 -9.72039
#
# Poissons Ratio (x) = -0.08707 0.40902
# Poissons Ratio (y) = -0.85173 -0.29640
# Poissons Ratio (z) = -26.03968 1.92896
#
# Static dielectric constant tensor:
#      x y z
#    x 1.757170 0.013830 -0.029970 
#    y 0.013830 1.858520 0.026090 
#    z -0.029970 0.026090 1.835910 
# 
# From -- ./inp_files/71708.got.cif
#   From: 2010.05.17/outbox.ucp.g08.bks.cvg/sg2_36_cif.got.tgz:71708.got - 2010.06.11 11:32:03.
