data_PCOD9073206
_publ_section_title
;
Structure prediction by ZEFSAII (Michael W. Deem and Ramdas Pophale) SiO2 
 PCOD9073206
Probable space group: P -1
;
_chemical_formula_sum "Si O2"
_cell_formula_units_Z 14
_cell_length_a 6.000000
_cell_length_b 27.000000
_cell_length_c 24.000000
_cell_angle_alpha 170.000000
_cell_angle_beta 70.000000
_cell_angle_gamma 110.000000
_cell_volume 634.106208
_symmetry_space_group_name_H-M "P -1"
_symmetry_group_IT_number 2
_symmetry_cell_setting 'triclinic'
loop_
_space_group_symop_operation_xyz
x,y,z
-x,-y,-z
loop_
_atom_site_type_symbol
_atom_site_label
_atom_site_fract_x
_atom_site_fract_y
_atom_site_fract_z
Si Si1 0.917134 0.567873 0.346334
Si Si2 0.970025 0.382195 0.310750
Si Si3 0.387999 0.317186 0.859047
Si Si4 0.128291 0.670106 0.036867
Si Si5 0.402080 0.179152 0.527073
Si Si6 0.316773 0.180543 0.255420
Si Si7 0.790906 0.850659 0.063393
O O1 0.687968 0.636856 0.482185
O O2 0.889598 0.392091 0.096765
O O3 0.039064 0.868445 0.649401
O O4 0.092600 0.377287 0.157546
O O5 0.810532 0.601182 0.533102
O O6 0.000000 0.500000 0.500000
O O7 0.203158 0.314002 0.179148
O O8 0.843962 0.080850 0.998744
O O9 0.106086 0.265987 0.836417
O O10 0.500000 0.000000 0.500000
O O11 0.500000 0.500000 0.000000
O O12 0.445270 0.552625 0.163554
O O13 0.295090 0.962057 0.343144
O O14 0.213200 0.367004 0.718255
O O15 0.555611 0.982293 0.254974
O O16 0.500000 0.000000 0.000000
#
# Coordination Sequence:
#
# PCOD9073206 Si02
#       7
#     2   2   2   2   2   2   2
#     4  10  21  40  64  89 130 176 217 269 332 386
#     4  10  21  36  58  88 126 172 213 267 322 379
#     4  12  28  48  72  98 140 176 208 278 340 386
#     4  12  26  43  72 103 130 174 228 268 327 401
#     4  12  26  43  72 103 130 174 228 268 327 401
#     4  10  21  36  58  88 126 172 213 267 322 379
#     4  10  21  40  64  89 130 176 217 269 332 386
#
# _framework density 22.078320000000001
#
# number of rings (size 3 to 8) (size 9 to 14) (size 15 to 20)
#    0.000    1.143    1.429    4.286    2.000    5.714 
#    0.000    0.000    0.000    0.000    0.000    0.000 
#    0.000    0.000    0.000    0.000    0.000    0.000 
#
# Total GULP energy -77945.567536 kJ/mol
# GULP energy per Si atom -5567.540538 kJ/mol
# Density = 2.202807 g / cm^3
# Si number density = 22.078320 Si / 1000 Ang^3
#
#
#
# Elastic Constant Matrix: (Units=GPa)
#
#
# Indices 1 2 3 4 5 6 
#
# 1 50.0233 47.8021 41.7978 -3.0591 -31.2600 33.4448
# 2 47.8021 130.5853 48.8812 1.8729 -25.8938 30.6381
# 3 41.7978 48.8812 156.1925 7.8456 -44.8752 21.9119
# 4 -3.0591 1.8729 7.8456 66.1974 6.7771 -7.1618
# 5 -31.2600 -25.8938 -44.8752 6.7771 53.7073 -10.1838
# 6 33.4448 30.6381 21.9119 -7.1618 -10.1838 48.7277
#
#
#
# Elastic Compliance Matrix: (Units=1/GPa)
#
#
# Indices 1 2 3 4 5 6 
#
# 1 0.080649 -0.012864 -0.002841 -0.003084 0.031184 -0.039924
# 2 -0.012864 0.012053 -0.001156 -0.000426 -0.002358 0.001215
# 3 -0.002841 -0.001156 0.009345 -0.001857 0.005717 -0.000603
# 4 -0.003084 -0.000426 -0.001857 0.016178 -0.004719 0.004611
# 5 0.031184 -0.002358 0.005717 -0.004719 0.038120 -0.015219
# 6 -0.039924 0.001215 -0.000603 0.004611 -0.015219 0.044929
#
#
# Mechanical properties :
#
#
# Convention : Reuss Voigt Hill
#
# Bulk Modulus (GPa) = 14.63605 68.19591 41.41598
# Shear Modulus (GPa) = 19.39714 46.94782 33.17248
#
# Velocity S-wave (km/s) = 2.96727 4.61632 3.88040
# Velocity P-wave (km/s) = 4.28755 7.70513 6.23507
#
# Compressibility (1/GPa) = 0.06832447
#
# Stress axis : x y z
#
# Youngs Moduli (GPa) = 12.39947 82.96735 107.01028
#
# Poissons Ratio (x) = 1.06729 0.30399
# Poissons Ratio (y) = 0.15951 0.12373
# Poissons Ratio (z) = 0.03522 0.09593
#
# Static dielectric constant tensor:
#      x y z
#    x 2.001770 -0.050480 0.121690 
#    y -0.050480 1.843010 -0.093100 
#    z 0.121690 -0.093100 1.852000 
# 
# From -- ./inp_files/114104.got.cif
#   From: 2010.05.17/outbox.ucp.g08.bks.cvg/sg2_58_cif.got.tgz:114104.got - 2010.06.11 11:32:03.
