data_PCOD9073751
_publ_section_title
;
Structure prediction by ZEFSAII (Michael W. Deem and Ramdas Pophale) SiO2 
 PCOD9073751
Probable space group: P -1
;
_chemical_formula_sum "Si O2"
_cell_formula_units_Z 16
_cell_length_a 21.683293
_cell_length_b 11.490325
_cell_length_c 7.335337
_cell_angle_alpha 68.579675
_cell_angle_beta 55.728880
_cell_angle_gamma 27.924781
_cell_volume 664.647977
_symmetry_space_group_name_H-M "P -1"
_symmetry_group_IT_number 2
_symmetry_cell_setting 'triclinic'
loop_
_space_group_symop_operation_xyz
x,y,z
-x,-y,-z
loop_
_atom_site_type_symbol
_atom_site_label
_atom_site_fract_x
_atom_site_fract_y
_atom_site_fract_z
Si Si1 0.447642 0.423904 0.395266
Si Si2 0.034073 0.578709 0.502626
Si Si3 0.780447 0.250222 0.091408
Si Si4 0.690188 0.122269 0.762148
Si Si5 0.094538 0.668254 0.011012
Si Si6 0.679839 0.976528 0.518424
Si Si7 0.442065 0.294599 0.036284
Si Si8 0.349753 0.297224 0.511149
O O1 0.362102 0.581867 0.639524
O O2 0.405622 0.608187 0.245287
O O3 0.359968 0.429786 0.467013
O O4 0.619623 0.123522 0.346395
O O5 0.173985 0.334497 0.548162
O O6 0.000000 0.500000 0.500000
O O7 0.089370 0.588750 0.242896
O O8 0.865733 0.873144 0.694505
O O9 0.844246 0.289257 0.037118
O O10 0.699674 0.400898 0.948106
O O11 0.923777 0.944497 0.048919
O O12 0.719942 0.030943 0.557053
O O13 0.578966 0.171374 0.985726
O O14 0.206365 0.460093 0.778783
O O15 0.531744 0.132593 0.788217
O O16 0.371150 0.281967 0.267145
O O17 0.500000 0.000000 0.500000
#
# Coordination Sequence:
#
# PCOD9073751 Si02
#       8
#     2   2   2   2   2   2   2   2
#     4  10  18  35  58  83 111 145 184 237 270 322
#     4  10  18  31  56  88 111 136 177 238 280 318
#     4   9  19  35  58  87 104 139 192 240 269 321
#     4   9  18  32  61  84 113 136 188 234 279 322
#     4  10  20  35  59  82 109 143 187 232 283 317
#     4   8  18  31  56  88 108 137 185 230 278 319
#     4   9  20  35  55  82 112 145 185 219 279 332
#     4  11  24  37  52  76 118 156 185 215 281 340
#
# _framework density 24.072892
#
# number of rings (size 3 to 8) (size 9 to 14) (size 15 to 20)
#    0.750    1.750    1.250    1.125    0.000    2.000 
#    0.000    3.750    2.750    0.750    0.000    0.000 
#    0.000    0.000    0.000    0.000    0.000    0.000 
#
# Total GULP energy -89179.691734 kJ/mol
# GULP energy per Si atom -5573.730733 kJ/mol
# Density = 2.401810 g / cm^3
# Si number density = 24.072892 Si / 1000 Ang^3
#
#
#
# Elastic Constant Matrix: (Units=GPa)
#
#
# Indices 1 2 3 4 5 6 
#
# 1 42.4478 21.8233 6.1688 4.4682 -0.2453 7.4864
# 2 21.8233 208.6331 74.4618 8.1758 -6.1183 -17.9778
# 3 6.1688 74.4618 103.3518 4.1849 -15.0360 -1.4590
# 4 4.4682 8.1758 4.1849 17.9577 -1.9771 -12.6558
# 5 -0.2453 -6.1183 -15.0360 -1.9771 23.5163 -2.8293
# 6 7.4864 -17.9778 -1.4590 -12.6558 -2.8293 34.5568
#
#
#
# Elastic Compliance Matrix: (Units=1/GPa)
#
#
# Indices 1 2 3 4 5 6 
#
# 1 0.030027 -0.004363 0.001354 -0.016822 -0.003192 -0.015140
# 2 -0.004363 0.007476 -0.005238 0.002780 -0.000544 0.005587
# 3 0.001354 -0.005238 0.014505 -0.002408 0.007401 -0.002682
# 4 -0.016822 0.002780 -0.002408 0.086946 0.010856 0.037720
# 5 -0.003192 -0.000544 0.007401 0.010856 0.049041 0.008712
# 6 -0.015140 0.005587 -0.002682 0.037720 0.008712 0.049539
#
#
# Mechanical properties :
#
#
# Convention : Reuss Voigt Hill
#
# Bulk Modulus (GPa) = 28.15824 62.14892 45.15358
# Shear Modulus (GPa) = 18.80643 32.00476 25.40559
#
# Velocity S-wave (km/s) = 2.79808 3.65018 3.25216
# Velocity P-wave (km/s) = 4.70760 6.60591 5.73583
#
# Compressibility (1/GPa) = 0.03551358
#
# Stress axis : x y z
#
# Youngs Moduli (GPa) = 33.30319 133.76842 68.94065
#
# Poissons Ratio (x) = 0.58367 -0.09337
# Poissons Ratio (y) = 0.14531 0.36114
# Poissons Ratio (z) = -0.04511 0.70073
#
# Static dielectric constant tensor:
#      x y z
#    x 1.997210 -0.039960 0.020780 
#    y -0.039960 1.944510 0.013650 
#    z 0.020780 0.013650 2.022780 
# 
# From -- ./inp_files/358779.got.cif
#   From: 2010.05.17/outbox.cif.g08.bks.cpg/sg2_180_cif.got.tgz:358779.got - 2010.06.03 11:33:40.
