data_PCOD9073691
_publ_section_title
;
Structure prediction by ZEFSAII (Michael W. Deem and Ramdas Pophale) SiO2 
 PCOD9073691
Probable space group: P -1
;
_chemical_formula_sum "Si O2"
_cell_formula_units_Z 16
_cell_length_a 27.000000
_cell_length_b 9.000000
_cell_length_c 12.000000
_cell_angle_alpha 140.000000
_cell_angle_beta 150.000000
_cell_angle_gamma 30.000000
_cell_volume 727.497153
_symmetry_space_group_name_H-M "P -1"
_symmetry_group_IT_number 2
_symmetry_cell_setting 'triclinic'
loop_
_space_group_symop_operation_xyz
x,y,z
-x,-y,-z
loop_
_atom_site_type_symbol
_atom_site_label
_atom_site_fract_x
_atom_site_fract_y
_atom_site_fract_z
Si Si1 0.025098 0.225880 0.586921
Si Si2 0.873730 0.140202 0.070853
Si Si3 0.422177 0.130860 0.811929
Si Si4 0.825070 0.699491 0.647588
Si Si5 0.273701 0.781404 0.967054
Si Si6 0.526467 0.191069 0.844445
Si Si7 0.289356 0.285838 0.339714
Si Si8 0.810166 0.593236 0.017384
O O1 0.981893 0.111208 0.340311
O O2 0.912571 0.444910 0.581209
O O3 0.143571 0.987617 0.760963
O O4 0.075042 0.395449 0.733251
O O5 0.757915 0.291506 0.019484
O O6 0.832985 0.354935 0.010958
O O7 0.888269 0.851128 0.893330
O O8 0.315207 0.092011 0.563582
O O9 0.359183 0.478267 0.893000
O O10 0.509115 0.028345 0.815432
O O11 0.500000 0.000000 0.000000
O O12 0.792826 0.605034 0.643681
O O13 0.324322 0.962584 0.200475
O O14 0.413791 0.265794 0.584204
O O15 0.676077 0.930888 0.961196
O O16 0.500000 0.500000 0.000000
O O17 0.201140 0.480810 0.174576
#
# Coordination Sequence:
#
# PCOD9073691 Si02
#       8
#     2   2   2   2   2   2   2   2
#     4  11  23  45  67  95 135 171 224 265 321 397
#     4  11  23  41  66  99 134 170 210 277 330 382
#     4  11  23  42  68 100 130 163 221 278 323 380
#     4  10  24  43  69 100 124 174 228 263 325 384
#     4  10  21  42  68  96 125 175 218 272 323 379
#     4  11  23  41  63  95 131 176 219 265 323 398
#     4   9  22  42  65  93 128 175 224 265 317 397
#     4  11  24  42  62  96 136 174 212 270 337 383
#
# _framework density 21.993213000000001
#
# number of rings (size 3 to 8) (size 9 to 14) (size 15 to 20)
#    0.000    1.500    1.250    3.375    0.000    7.000 
#    9.000    3.750    0.000    0.000    0.000    0.000 
#    0.000    0.000    0.000    0.000    0.000    0.000 
#
# Total GULP energy -89290.128814 kJ/mol
# GULP energy per Si atom -5580.633051 kJ/mol
# Density = 2.194316 g / cm^3
# Si number density = 21.993213 Si / 1000 Ang^3
#
#
#
# Elastic Constant Matrix: (Units=GPa)
#
#
# Indices 1 2 3 4 5 6 
#
# 1 87.8712 30.2530 39.8672 -11.1285 0.4334 15.3154
# 2 30.2530 48.1809 28.2857 3.9386 -1.0598 -0.1336
# 3 39.8672 28.2857 200.9527 13.0968 -5.1330 1.0713
# 4 -11.1285 3.9386 13.0968 32.9323 5.9398 -0.2960
# 5 0.4334 -1.0598 -5.1330 5.9398 41.2764 -6.0759
# 6 15.3154 -0.1336 1.0713 -0.2960 -6.0759 31.3171
#
#
#
# Elastic Compliance Matrix: (Units=1/GPa)
#
#
# Indices 1 2 3 4 5 6 
#
# 1 0.019774 -0.011586 -0.002976 0.009845 -0.003802 -0.010262
# 2 -0.011586 0.029493 -0.001339 -0.007339 0.002694 0.006291
# 3 -0.002976 -0.001339 0.006012 -0.003488 0.001467 0.001496
# 4 0.009845 -0.007339 -0.003488 0.037152 -0.006913 -0.005717
# 5 -0.003802 0.002694 0.001467 -0.006913 0.026529 0.006903
# 6 -0.010262 0.006291 0.001496 -0.005717 0.006903 0.038211
#
#
# Mechanical properties :
#
#
# Convention : Reuss Voigt Hill
#
# Bulk Modulus (GPa) = 42.59618 59.31297 50.95457
# Shear Modulus (GPa) = 25.40676 37.01175 31.20925
#
# Velocity S-wave (km/s) = 3.40252 4.10673 3.77110
# Velocity P-wave (km/s) = 5.90306 7.03664 6.49463
#
# Compressibility (1/GPa) = 0.02347628
#
# Stress axis : x y z
#
# Youngs Moduli (GPa) = 50.57263 33.90677 166.33315
#
# Poissons Ratio (x) = 0.39283 0.49503
# Poissons Ratio (y) = 0.58591 0.22276
# Poissons Ratio (z) = 0.15051 0.04541
#
# Static dielectric constant tensor:
#      x y z
#    x 1.910470 -0.031880 0.017250 
#    y -0.031880 1.823080 0.000580 
#    z 0.017250 0.000580 1.793030 
# 
# From -- ./inp_files/464522.got.cif
#   From: 2010.05.17/outbox.ucp.g08.bks.cvg/sg2_233_cif.got.tgz:464522.got - 2010.06.11 11:32:03.
