data_PCOD9073382
_publ_section_title
;
Structure prediction by ZEFSAII (Michael W. Deem and Ramdas Pophale) SiO2 
 PCOD9073382
Probable space group: P -1
;
_chemical_formula_sum "Si O2"
_cell_formula_units_Z 16
_cell_length_a 15.000000
_cell_length_b 9.000000
_cell_length_c 12.000000
_cell_angle_alpha 140.000000
_cell_angle_beta 100.000000
_cell_angle_gamma 60.000000
_cell_volume 835.587839
_symmetry_space_group_name_H-M "P -1"
_symmetry_group_IT_number 2
_symmetry_cell_setting 'triclinic'
loop_
_space_group_symop_operation_xyz
x,y,z
-x,-y,-z
loop_
_atom_site_type_symbol
_atom_site_label
_atom_site_fract_x
_atom_site_fract_y
_atom_site_fract_z
Si Si1 0.050205 0.682621 0.588794
Si Si2 0.048449 0.751739 0.238845
Si Si3 0.168450 0.205227 0.797368
Si Si4 0.195025 0.339743 0.223575
Si Si5 0.593232 0.931276 0.309029
Si Si6 0.459464 0.938938 0.068571
Si Si7 0.433067 0.440278 0.733585
Si Si8 0.809608 0.126971 0.167885
O O1 0.151083 0.466728 0.407343
O O2 0.103903 0.785198 0.750520
O O3 0.000000 0.500000 0.500000
O O4 0.972987 0.965078 0.657226
O O5 0.137277 0.594876 0.267402
O O6 0.932276 0.800092 0.282348
O O7 0.100960 0.519211 0.017269
O O8 0.282513 0.141818 0.730685
O O9 0.200848 0.986415 0.780313
O O10 0.326618 0.167883 0.164255
O O11 0.159773 0.131242 0.057338
O O12 0.526268 0.961519 0.198257
O O13 0.588507 0.702188 0.249698
O O14 0.523245 0.210437 0.532679
O O15 0.470542 0.641731 0.896557
O O16 0.500000 0.000000 0.000000
O O17 0.313540 0.620531 0.750303
#
# Coordination Sequence:
#
# PCOD9073382 Si02
#       8
#     2   2   2   2   2   2   2   2
#     4  11  23  36  58  88 118 154 193 239 292 351
#     4   9  19  38  58  86 117 148 200 243 285 349
#     4   9  19  37  64  84 112 159 196 245 293 338
#     4  10  21  39  61  83 114 155 194 243 293 340
#     4  11  22  39  62  90 122 156 197 244 301 353
#     4  11  23  40  64  90 118 156 202 247 296 351
#     4  10  23  39  59  90 124 157 194 243 298 359
#     4   9  20  40  58  82 119 153 197 243 290 350
#
# _framework density 19.148195999999999
#
# number of rings (size 3 to 8) (size 9 to 14) (size 15 to 20)
#    0.000    2.000    0.000    4.500    0.000    7.500 
#    0.000    7.500    0.000    0.000    0.000    0.000 
#    0.000    0.000    0.000    0.000    0.000    0.000 
#
# Total GULP energy -89125.958993 kJ/mol
# GULP energy per Si atom -5570.372437 kJ/mol
# Density = 1.910461 g / cm^3
# Si number density = 19.148196 Si / 1000 Ang^3
#
#
#
# Elastic Constant Matrix: (Units=GPa)
#
#
# Indices 1 2 3 4 5 6 
#
# 1 126.7399 49.2770 51.7203 19.2529 12.1835 4.9318
# 2 49.2770 88.7039 40.0555 14.4377 -4.6202 -0.2100
# 3 51.7203 40.0555 76.9904 5.1543 -0.4880 -1.8396
# 4 19.2529 14.4377 5.1543 22.2112 2.3887 2.5727
# 5 12.1835 -4.6202 -0.4880 2.3887 23.7443 6.7168
# 6 4.9318 -0.2100 -1.8396 2.5727 6.7168 31.7772
#
#
#
# Elastic Compliance Matrix: (Units=1/GPa)
#
#
# Indices 1 2 3 4 5 6 
#
# 1 0.014063 -0.003844 -0.007021 -0.007226 -0.007240 -0.000499
# 2 -0.003844 0.017675 -0.006090 -0.007364 0.006123 -0.000337
# 3 -0.007021 -0.006090 0.020593 0.004891 0.001943 0.001435
# 4 -0.007226 -0.007364 0.004891 0.055505 -0.002469 -0.002616
# 5 -0.007240 0.006123 0.001943 -0.002469 0.049874 -0.009065
# 6 -0.000499 -0.000337 0.001435 -0.002616 -0.009065 0.033755
#
#
# Mechanical properties :
#
#
# Convention : Reuss Voigt Hill
#
# Bulk Modulus (GPa) = 54.28616 63.83774 59.06195
# Shear Modulus (GPa) = 21.59660 25.63864 23.61762
#
# Velocity S-wave (km/s) = 3.36202 3.66315 3.51581
# Velocity P-wave (km/s) = 6.59416 7.16259 6.88424
#
# Compressibility (1/GPa) = 0.01842090
#
# Stress axis : x y z
#
# Youngs Moduli (GPa) = 71.10807 56.57551 48.56008
#
# Poissons Ratio (x) = 0.21748 0.34096
# Poissons Ratio (y) = 0.27334 0.29573
# Poissons Ratio (z) = 0.49928 0.34454
#
# Static dielectric constant tensor:
#      x y z
#    x 1.667890 -0.006450 0.012070 
#    y -0.006450 1.694130 0.009620 
#    z 0.012070 0.009620 1.717010 
# 
# From -- ./inp_files/448367.got.cif
#   From: 2010.05.17/outbox.ucp.g08.bks.cvg/sg2_225_cif.got.tgz:448367.got - 2010.06.11 11:32:03.
