data_PCOD9073919
_publ_section_title
;
Structure prediction by ZEFSAII (Michael W. Deem and Ramdas Pophale) SiO2 
 PCOD9073919
Probable space group: P -1
;
_chemical_formula_sum "Si O2"
_cell_formula_units_Z 14
_cell_length_a 12.000000
_cell_length_b 18.000000
_cell_length_c 12.000000
_cell_angle_alpha 140.000000
_cell_angle_beta 120.000000
_cell_angle_gamma 30.000000
_cell_volume 717.332707
_symmetry_space_group_name_H-M "P -1"
_symmetry_group_IT_number 2
_symmetry_cell_setting 'triclinic'
loop_
_space_group_symop_operation_xyz
x,y,z
-x,-y,-z
loop_
_atom_site_type_symbol
_atom_site_label
_atom_site_fract_x
_atom_site_fract_y
_atom_site_fract_z
Si Si1 0.776597 0.857716 0.950844
Si Si2 0.084770 0.998586 0.703602
Si Si3 0.342430 0.832437 0.188082
Si Si4 0.255352 0.316624 0.644262
Si Si5 0.778063 0.335205 0.722330
Si Si6 0.089755 0.527013 0.163231
Si Si7 0.349912 0.012584 0.209184
O O1 0.810842 0.847415 0.823341
O O2 0.021684 0.586213 0.799396
O O3 0.798989 0.973576 0.147097
O O4 0.500000 0.000000 0.000000
O O5 0.872510 0.083626 0.763634
O O6 0.950789 0.157963 0.709567
O O7 0.269528 0.747274 0.465554
O O8 0.524090 0.771482 0.291291
O O9 0.254145 0.995703 0.237032
O O10 0.529577 0.593905 0.946246
O O11 0.375168 0.125009 0.400245
O O12 0.105193 0.348493 0.691453
O O13 0.911677 0.337992 0.723232
O O14 0.000000 0.500000 0.000000
O O15 0.386390 0.253842 0.011433
#
# Coordination Sequence:
#
# PCOD9073919 Si02
#       7
#     2   2   2   2   2   2   2
#     4  12  26  46  64  92 134 172 214 264 321 392
#     4  11  24  42  64  94 130 168 212 263 325 375
#     4  11  23  41  68  98 126 160 218 267 313 379
#     4  12  23  41  69  97 127 170 217 265 318 374
#     4  10  22  39  66  97 124 166 209 269 314 367
#     4  11  20  39  66  99 132 161 219 265 309 376
#     4  11  25  40  66  98 130 172 210 264 324 380
#
# _framework density 19.516746000000001
#
# number of rings (size 3 to 8) (size 9 to 14) (size 15 to 20)
#    0.000    0.857    5.714    2.143    2.000    1.714 
#    2.571    2.857    0.000    0.000    0.000    0.000 
#    0.000    0.000    0.000    0.000    0.000    0.000 
#
# Total GULP energy -77947.636520 kJ/mol
# GULP energy per Si atom -5567.688323 kJ/mol
# Density = 1.947232 g / cm^3
# Si number density = 19.516746 Si / 1000 Ang^3
#
#
#
# Elastic Constant Matrix: (Units=GPa)
#
#
# Indices 1 2 3 4 5 6 
#
# 1 143.6683 49.5237 40.9631 -9.5432 30.9100 -1.4586
# 2 49.5237 75.8811 26.4304 -12.2418 9.0032 9.4818
# 3 40.9631 26.4304 144.3901 -16.9421 40.5049 -5.1945
# 4 -9.5432 -12.2418 -16.9421 32.7732 -4.1374 6.8199
# 5 30.9100 9.0032 40.5049 -4.1374 48.9473 1.7889
# 6 -1.4586 9.4818 -5.1945 6.8199 1.7889 38.3020
#
#
#
# Elastic Compliance Matrix: (Units=1/GPa)
#
#
# Indices 1 2 3 4 5 6 
#
# 1 0.010377 -0.006449 -0.000279 -0.000681 -0.005278 0.002322
# 2 -0.006449 0.019578 -0.002111 0.006093 0.002975 -0.006602
# 3 -0.000279 -0.002111 0.009880 0.002952 -0.007423 0.001673
# 4 -0.000681 0.006093 0.002952 0.035697 0.000157 -0.007497
# 5 -0.005278 0.002975 -0.007423 0.000157 0.029495 -0.003350
# 6 0.002322 -0.006602 0.001673 -0.007497 -0.003350 0.029549
#
#
# Mechanical properties :
#
#
# Convention : Reuss Voigt Hill
#
# Bulk Modulus (GPa) = 45.13374 66.41932 55.77653
# Shear Modulus (GPa) = 31.32041 40.47265 35.89653
#
# Velocity S-wave (km/s) = 4.01034 4.55877 4.29332
# Velocity P-wave (km/s) = 6.67979 7.86230 7.29504
#
# Compressibility (1/GPa) = 0.02215637
#
# Stress axis : x y z
#
# Youngs Moduli (GPa) = 96.36648 51.07808 101.21132
#
# Poissons Ratio (x) = 0.32940 0.02826
# Poissons Ratio (y) = 0.62147 0.21368
# Poissons Ratio (z) = 0.02690 0.10784
#
# Static dielectric constant tensor:
#      x y z
#    x 1.710050 -0.000910 -0.072270 
#    y -0.000910 1.770510 0.026070 
#    z -0.072270 0.026070 1.821160 
# 
# From -- ./inp_files/279772.got.cif
#   From: 2010.05.17/outbox.ucp.g08.bks.cvg/sg2_140_cif.got.tgz:279772.got - 2010.06.11 11:32:03.
