data_PCOD9073546
_publ_section_title
;
Structure prediction by ZEFSAII (Michael W. Deem and Ramdas Pophale) SiO2 
 PCOD9073546
Probable space group: P -1
;
_chemical_formula_sum "Si O2"
_cell_formula_units_Z 16
_cell_length_a 10.477445
_cell_length_b 8.932877
_cell_length_c 11.772517
_cell_angle_alpha 121.231949
_cell_angle_beta 120.865426
_cell_angle_gamma 42.721987
_cell_volume 622.401161
_symmetry_space_group_name_H-M "P -1"
_symmetry_group_IT_number 2
_symmetry_cell_setting 'triclinic'
loop_
_space_group_symop_operation_xyz
x,y,z
-x,-y,-z
loop_
_atom_site_type_symbol
_atom_site_label
_atom_site_fract_x
_atom_site_fract_y
_atom_site_fract_z
Si Si1 0.258054 0.832912 0.667930
Si Si2 0.789237 0.151662 0.601774
Si Si3 0.281235 0.186605 0.904475
Si Si4 0.125380 0.571857 0.156617
Si Si5 0.828950 0.812663 0.654710
Si Si6 0.588387 0.626802 0.108985
Si Si7 0.726388 0.553715 0.381045
Si Si8 0.992947 0.801096 0.945784
O O1 0.296806 0.833863 0.553047
O O2 0.326138 0.593288 0.647331
O O3 0.326555 0.947676 0.817384
O O4 0.023461 0.991613 0.633116
O O5 0.740647 0.386457 0.707899
O O6 0.753166 0.034635 0.634805
O O7 0.440175 0.182854 0.909147
O O8 0.055150 0.355210 0.820325
O O9 0.240368 0.325843 0.056221
O O10 0.013875 0.753345 0.071185
O O11 0.724904 0.712955 0.531468
O O12 0.052506 0.624862 0.637196
O O13 0.832852 0.845821 0.804395
O O14 0.589888 0.683795 0.261734
O O15 0.807489 0.422504 0.095850
O O16 0.500000 0.500000 0.000000
O O17 0.000000 0.000000 0.000000
#
# Coordination Sequence:
#
# PCOD9073546 Si02
#       8
#     2   2   2   2   2   2   2   2
#     4   9  17  27  45  69 104 137 176 215 264 316
#     4   9  15  25  43  70 106 134 164 213 274 322
#     4   9  18  31  48  72 102 137 174 217 264 319
#     4   9  17  28  48  77 108 136 170 219 275 317
#     4   9  16  27  48  77 105 132 172 222 273 303
#     4  10  21  36  54  76 109 146 178 218 271 328
#     4   9  18  30  48  73 103 137 177 223 261 315
#     4  10  18  31  55  83 111 135 176 225 270 317
#
# _framework density 25.706893000000001
#
# number of rings (size 3 to 8) (size 9 to 14) (size 15 to 20)
#    0.000    2.750    1.250    0.750    1.750   11.000 
#    0.000    0.625    0.000    0.750    0.000    4.375 
#    0.000    0.000    0.000    0.000    0.000    0.000 
#
# Total GULP energy -89347.486189 kJ/mol
# GULP energy per Si atom -5584.217887 kJ/mol
# Density = 2.564838 g / cm^3
# Si number density = 25.706893 Si / 1000 Ang^3
#
#
#
# Elastic Constant Matrix: (Units=GPa)
#
#
# Indices 1 2 3 4 5 6 
#
# 1 102.4166 34.0563 39.6754 0.2057 11.4591 19.2980
# 2 34.0563 86.3321 56.2912 17.9772 13.4055 27.0305
# 3 39.6754 56.2912 172.2779 26.6453 4.4500 17.9800
# 4 0.2057 17.9772 26.6453 49.4452 11.9390 9.4564
# 5 11.4591 13.4055 4.4500 11.9390 32.9705 3.7487
# 6 19.2980 27.0305 17.9800 9.4564 3.7487 30.4585
#
#
#
# Elastic Compliance Matrix: (Units=1/GPa)
#
#
# Indices 1 2 3 4 5 6 
#
# 1 0.012824 -0.001999 -0.002204 0.003961 -0.004125 -0.005772
# 2 -0.001999 0.020534 -0.004541 -0.001247 -0.005082 -0.013263
# 3 -0.002204 -0.004541 0.008142 -0.003645 0.002671 0.001422
# 4 0.003961 -0.001247 -0.003645 0.026007 -0.009090 -0.006207
# 5 -0.004125 -0.005082 0.002671 -0.009090 0.036318 0.003899
# 6 -0.005772 -0.013263 0.001422 -0.006207 0.003899 0.048867
#
#
# Mechanical properties :
#
#
# Convention : Reuss Voigt Hill
#
# Bulk Modulus (GPa) = 41.64428 69.00806 55.32617
# Shear Modulus (GPa) = 28.06119 37.97508 33.01814
#
# Velocity S-wave (km/s) = 3.30749 3.84765 3.58775
# Velocity P-wave (km/s) = 5.55165 6.82947 6.22344
#
# Compressibility (1/GPa) = 0.02401290
#
# Stress axis : x y z
#
# Youngs Moduli (GPa) = 77.98127 48.70022 122.81977
#
# Poissons Ratio (x) = 0.09734 0.27067
# Poissons Ratio (y) = 0.15586 0.55769
# Poissons Ratio (z) = 0.17186 0.22113
#
# Static dielectric constant tensor:
#      x y z
#    x 2.272590 0.490940 -0.039290 
#    y 0.490940 3.371920 -0.085420 
#    z -0.039290 -0.085420 2.005970 
# 
# From -- ./inp_files/419815.got.cif
#   From: 2010.05.17/outbox.cif.g08.bks.cpg/sg2_210_cif.got.tgz:419815.got - 2010.06.03 11:33:40.
