data_PCOD9073086
_publ_section_title
;
Structure prediction by ZEFSAII (Michael W. Deem and Ramdas Pophale) SiO2 
 PCOD9073086
Probable space group: P -1
;
_chemical_formula_sum "Si O2"
_cell_formula_units_Z 14
_cell_length_a 9.000000
_cell_length_b 9.000000
_cell_length_c 12.000000
_cell_angle_alpha 120.000000
_cell_angle_beta 120.000000
_cell_angle_gamma 50.000000
_cell_volume 621.029576
_symmetry_space_group_name_H-M "P -1"
_symmetry_group_IT_number 2
_symmetry_cell_setting 'triclinic'
loop_
_space_group_symop_operation_xyz
x,y,z
-x,-y,-z
loop_
_atom_site_type_symbol
_atom_site_label
_atom_site_fract_x
_atom_site_fract_y
_atom_site_fract_z
Si Si1 0.919498 0.874822 0.767488
Si Si2 0.410668 0.538308 0.308430
Si Si3 0.321010 0.985657 0.479122
Si Si4 0.693540 0.916801 0.915088
Si Si5 0.010041 0.801344 0.162317
Si Si6 0.629189 0.352479 0.091050
Si Si7 0.332493 0.898360 0.697918
O O1 0.772480 0.867874 0.799327
O O2 0.140701 0.710533 0.829575
O O3 0.862634 0.865228 0.614949
O O4 0.897929 0.095451 0.843614
O O5 0.381470 0.753868 0.403480
O O6 0.519538 0.460751 0.202940
O O7 0.555112 0.344136 0.366312
O O8 0.177546 0.609472 0.221504
O O9 0.293713 0.017028 0.612315
O O10 0.500000 0.000000 0.500000
O O11 0.493628 0.912059 0.839641
O O12 0.862009 0.776987 0.015919
O O13 0.642555 0.141681 0.001644
O O14 0.873463 0.981737 0.265661
O O15 0.500000 0.500000 0.000000
#
# Coordination Sequence:
#
# PCOD9073086 Si02
#       7
#     2   2   2   2   2   2   2
#     4  10  20  41  67  95 129 180 216 268 331 383
#     4  11  24  43  67  98 130 176 223 268 334 388
#     4  11  24  46  68  92 134 178 225 271 322 394
#     4  11  21  40  67  98 138 167 215 278 333 388
#     4  10  22  41  67  97 130 173 217 271 336 387
#     4  11  21  39  69 100 133 171 222 272 328 400
#     4  12  24  44  67  97 138 174 215 277 328 391
#
# _framework density 22.543209999999998
#
# number of rings (size 3 to 8) (size 9 to 14) (size 15 to 20)
#    0.000    1.143    4.286    5.143    0.000    2.857 
#    5.143    0.714    0.000    0.000    0.000    0.000 
#    0.000    0.000    0.000    0.000    0.000    0.000 
#
# Total GULP energy -78122.738886 kJ/mol
# GULP energy per Si atom -5580.195635 kJ/mol
# Density = 2.249190 g / cm^3
# Si number density = 22.543210 Si / 1000 Ang^3
#
#
#
# Elastic Constant Matrix: (Units=GPa)
#
#
# Indices 1 2 3 4 5 6 
#
# 1 85.3847 13.1613 14.4254 -21.2608 -8.9767 -4.2585
# 2 13.1613 76.6772 -0.6392 -33.0983 -14.3736 -11.9823
# 3 14.4254 -0.6392 57.4085 -32.5416 -13.2854 10.2099
# 4 -21.2608 -33.0983 -32.5416 36.9678 13.5841 -3.0440
# 5 -8.9767 -14.3736 -13.2854 13.5841 29.7598 -5.4394
# 6 -4.2585 -11.9823 10.2099 -3.0440 -5.4394 26.6211
#
#
#
# Elastic Compliance Matrix: (Units=1/GPa)
#
#
# Indices 1 2 3 4 5 6 
#
# 1 0.016575 0.015060 0.016091 0.036235 0.004436 0.008308
# 2 0.015060 0.088641 0.086705 0.160040 0.018709 0.031176
# 3 0.016091 0.086705 0.122521 0.189565 0.018569 0.020081
# 4 0.036235 0.160040 0.189565 0.354795 0.020003 0.049785
# 5 0.004436 0.018709 0.018569 0.020003 0.045624 0.013618
# 6 0.008308 0.031176 0.020081 0.049785 0.013618 0.053699
#
#
# Mechanical properties :
#
#
# Convention : Reuss Voigt Hill
#
# Bulk Modulus (GPa) = 2.15773 30.37395 16.26584
# Shear Modulus (GPa) = 8.32466 31.50459 19.91463
#
# Velocity S-wave (km/s) = 1.92374 3.74240 2.97543
# Velocity P-wave (km/s) = 2.42767 5.67247 4.36294
#
# Compressibility (1/GPa) = 0.46344940
#
# Stress axis : x y z
#
# Youngs Moduli (GPa) = 60.33187 11.28150 8.16189
#
# Poissons Ratio (x) = -0.16990 -0.13133
# Poissons Ratio (y) = -0.90860 -0.70768
# Poissons Ratio (z) = -0.97081 -0.97817
#
# Static dielectric constant tensor:
#      x y z
#    x 1.847060 -0.015240 0.040820 
#    y -0.015240 1.848340 -0.018300 
#    z 0.040820 -0.018300 1.916250 
# 
# From -- ./inp_files/176960.got.cif
#   From: 2010.05.17/outbox.ucp.g08.bks.cvg/sg2_89_cif.got.tgz:176960.got - 2010.06.11 11:32:03.
