data_PCOD9073615
_publ_section_title
;
Structure prediction by ZEFSAII (Michael W. Deem and Ramdas Pophale) SiO2 
 PCOD9073615
Probable space group: P -1
;
_chemical_formula_sum "Si O2"
_cell_formula_units_Z 16
_cell_length_a 12.245061
_cell_length_b 11.482289
_cell_length_c 20.163325
_cell_angle_alpha 143.283564
_cell_angle_beta 29.003137
_cell_angle_gamma 128.124652
_cell_volume 786.785339
_symmetry_space_group_name_H-M "P -1"
_symmetry_group_IT_number 2
_symmetry_cell_setting 'triclinic'
loop_
_space_group_symop_operation_xyz
x,y,z
-x,-y,-z
loop_
_atom_site_type_symbol
_atom_site_label
_atom_site_fract_x
_atom_site_fract_y
_atom_site_fract_z
Si Si1 0.381604 0.676178 0.053319
Si Si2 0.160854 0.180513 0.891790
Si Si3 0.235585 0.316504 0.046743
Si Si4 0.384153 0.676977 0.315427
Si Si5 0.313260 0.463176 0.675641
Si Si6 0.377561 0.847344 0.530504
Si Si7 0.756768 0.606083 0.465063
Si Si8 0.032891 0.071732 0.440553
O O1 0.287669 0.508595 0.067092
O O2 0.168091 0.869328 0.236745
O O3 0.550240 0.752425 0.048323
O O4 0.539359 0.556064 0.854997
O O5 0.371716 0.265129 0.792629
O O6 0.183560 0.980459 0.745187
O O7 0.216201 0.150579 0.927306
O O8 0.917417 0.359047 0.099807
O O9 0.986023 0.409326 0.256925
O O10 0.290632 0.730555 0.463833
O O11 0.203875 0.807071 0.416053
O O12 0.419229 0.305834 0.605020
O O13 0.519206 0.561499 0.592117
O O14 0.263001 0.351164 0.584339
O O15 0.500000 0.000000 0.500000
O O16 0.813303 0.774611 0.557846
O O17 0.000000 0.000000 0.500000
#
# Coordination Sequence:
#
# PCOD9073615 Si02
#       8
#     2   2   2   2   2   2   2   2
#     4  10  18  31  55  88 120 148 183 250 297 344
#     4   9  20  36  60  87 117 156 199 245 291 353
#     4   9  16  33  54  87 121 144 190 241 305 338
#     4  10  22  36  55  93 119 147 199 247 303 338
#     4  10  23  42  58  86 126 160 196 240 297 357
#     4  10  23  39  63  85 116 162 203 247 286 350
#     4  10  21  39  60  88 126 159 189 245 303 351
#     4  12  21  33  62  91 119 152 196 250 294 351
#
# _framework density 20.335916000000001
#
# number of rings (size 3 to 8) (size 9 to 14) (size 15 to 20)
#    0.000    2.000    2.500    1.500    5.250    3.000 
#    2.250    2.500    0.000    1.500    0.000    0.000 
#    0.000    0.000    0.000    0.000    0.000    0.000 
#
# Total GULP energy -89258.995983 kJ/mol
# GULP energy per Si atom -5578.687249 kJ/mol
# Density = 2.028963 g / cm^3
# Si number density = 20.335916 Si / 1000 Ang^3
#
#
#
# Elastic Constant Matrix: (Units=GPa)
#
#
# Indices 1 2 3 4 5 6 
#
# 1 90.6949 31.3547 74.6634 -4.1540 7.4835 -6.7117
# 2 31.3547 26.4838 23.4751 -2.6531 -3.4617 1.4024
# 3 74.6634 23.4751 154.6243 9.9868 14.1389 7.1154
# 4 -4.1540 -2.6531 9.9868 6.3657 11.3630 -4.3344
# 5 7.4835 -3.4617 14.1389 11.3630 37.9183 5.1561
# 6 -6.7117 1.4024 7.1154 -4.3344 5.1561 2.3852
#
#
#
# Elastic Compliance Matrix: (Units=1/GPa)
#
#
# Indices 1 2 3 4 5 6 
#
# 1 0.013117 -0.014335 -0.001761 -0.031338 0.009935 -0.027833
# 2 -0.014335 0.062209 -0.005285 0.037494 -0.002417 0.012212
# 3 -0.001761 -0.005285 0.007385 0.011903 -0.008710 0.016583
# 4 -0.031338 0.037494 0.011903 0.029316 0.012687 -0.119889
# 5 0.009935 -0.002417 -0.008710 0.012687 0.018376 0.038694
# 6 -0.027833 0.012212 0.016583 -0.119889 0.038694 -0.017227
#
#
# Mechanical properties :
#
#
# Convention : Reuss Voigt Hill
#
# Bulk Modulus (GPa) = 25.03280 58.97659 42.00470
# Shear Modulus (GPa) = 29.54161 18.82117 24.18139
#
# Velocity S-wave (km/s) = 3.81554 3.04553 3.45207
# Velocity P-wave (km/s) = 5.63449 6.43670 6.04891
#
# Compressibility (1/GPa) = 0.03994759
#
# Stress axis : x y z
#
# Youngs Moduli (GPa) = 76.23814 16.07491 135.41788
#
# Poissons Ratio (x) = 0.23044 0.23846
# Poissons Ratio (y) = 1.09289 0.71570
# Poissons Ratio (z) = 0.13425 0.08496
#
# Static dielectric constant tensor:
#      x y z
#    x 1.751930 0.006580 0.066390 
#    y 0.006580 1.724500 0.011510 
#    z 0.066390 0.011510 1.752870 
# 
# From -- ./inp_files/595120.got.cif
#   From: 2010.05.17/outbox.cif.g08.bks.cpg/sg2_298_cif.got.tgz:595120.got - 2010.06.03 11:33:40.
