data_PCOD9073862
_publ_section_title
;
Structure prediction by ZEFSAII (Michael W. Deem and Ramdas Pophale) SiO2 
 PCOD9073862
Probable space group: P -1
;
_chemical_formula_sum "Si O2"
_cell_formula_units_Z 16
_cell_length_a 7.754477
_cell_length_b 12.607860
_cell_length_c 8.197573
_cell_angle_alpha 93.906546
_cell_angle_beta 101.306494
_cell_angle_gamma 116.768045
_cell_volume 690.390374
_symmetry_space_group_name_H-M "P -1"
_symmetry_group_IT_number 2
_symmetry_cell_setting 'triclinic'
loop_
_space_group_symop_operation_xyz
x,y,z
-x,-y,-z
loop_
_atom_site_type_symbol
_atom_site_label
_atom_site_fract_x
_atom_site_fract_y
_atom_site_fract_z
Si Si1 0.471896 0.829074 0.020280
Si Si2 0.464250 0.226140 0.437835
Si Si3 0.970302 0.247351 0.166527
Si Si4 0.596122 0.673347 0.224272
Si Si5 0.020863 0.152195 0.823846
Si Si6 0.997229 0.061715 0.335924
Si Si7 0.434551 0.010688 0.261299
Si Si8 0.424052 0.427035 0.310284
O O1 0.537768 0.729921 0.067458
O O2 0.508335 0.919503 0.191591
O O3 0.570962 0.916170 0.893918
O O4 0.233718 0.754925 0.927052
O O5 0.480936 0.283453 0.626058
O O6 0.228295 0.149150 0.356354
O O7 0.534121 0.123988 0.417663
O O8 0.515816 0.333896 0.328657
O O9 0.905719 0.149877 0.291484
O O10 0.181309 0.362455 0.260089
O O11 0.030464 0.197643 0.012095
O O12 0.507979 0.530590 0.200693
O O13 0.837430 0.742622 0.262413
O O14 0.088246 0.049223 0.815493
O O15 0.788054 0.080831 0.727972
O O16 0.000000 0.000000 0.500000
O O17 0.500000 0.500000 0.500000
#
# Coordination Sequence:
#
# PCOD9073862 Si02
#       8
#     2   2   2   2   2   2   2   2
#     4  10  23  37  56  91 125 162 183 238 307 374
#     4   9  19  37  60  85 115 154 199 254 289 335
#     4  10  22  39  58  84 124 158 191 245 310 342
#     4  11  22  35  61  89 118 156 207 240 290 352
#     4  10  21  33  58  93 118 153 195 254 287 348
#     4  10  18  31  58  88 112 148 195 245 290 341
#     4   9  21  38  57  86 128 156 190 236 315 350
#     4   9  21  41  63  86 112 153 207 259 289 335
#
# _framework density 23.175291999999999
#
# number of rings (size 3 to 8) (size 9 to 14) (size 15 to 20)
#    0.000    2.250    1.250    0.375   10.500    1.500 
#    0.000    2.500    0.000    1.500    0.000    0.000 
#    0.000    0.000    0.000    0.000    0.000    0.000 
#
# Total GULP energy -89190.683627 kJ/mol
# GULP energy per Si atom -5574.417727 kJ/mol
# Density = 2.312254 g / cm^3
# Si number density = 23.175292 Si / 1000 Ang^3
#
#
#
# Elastic Constant Matrix: (Units=GPa)
#
#
# Indices 1 2 3 4 5 6 
#
# 1 74.0639 31.3164 12.0786 -4.0010 -2.3691 8.7207
# 2 31.3164 154.1184 24.1295 -18.6933 9.6551 17.2400
# 3 12.0786 24.1295 88.5991 2.6099 -3.4361 -1.6709
# 4 -4.0010 -18.6933 2.6099 41.2892 2.4669 1.7463
# 5 -2.3691 9.6551 -3.4361 2.4669 30.6594 -2.6214
# 6 8.7207 17.2400 -1.6709 1.7463 -2.6214 26.0219
#
#
#
# Elastic Compliance Matrix: (Units=1/GPa)
#
#
# Indices 1 2 3 4 5 6 
#
# 1 0.015280 -0.002538 -0.001413 0.000476 0.001492 -0.003412
# 2 -0.002538 0.008838 -0.002461 0.004405 -0.004112 -0.005873
# 3 -0.001413 -0.002461 0.012378 -0.002324 0.002523 0.003309
# 4 0.000476 0.004405 -0.002324 0.026891 -0.004241 -0.005459
# 5 0.001492 -0.004112 0.002523 -0.004241 0.035182 0.006215
# 6 -0.003412 -0.005873 0.003309 -0.005459 0.006215 0.044669
#
#
# Mechanical properties :
#
#
# Convention : Reuss Voigt Hill
#
# Bulk Modulus (GPa) = 42.23984 50.20339 46.22162
# Shear Modulus (GPa) = 30.49649 36.21123 33.35386
#
# Velocity S-wave (km/s) = 3.63148 3.95713 3.79779
# Velocity P-wave (km/s) = 5.98743 6.52594 6.26248
#
# Compressibility (1/GPa) = 0.02367433
#
# Stress axis : x y z
#
# Youngs Moduli (GPa) = 65.44305 113.14271 80.78620
#
# Poissons Ratio (x) = 0.28713 0.11411
# Poissons Ratio (y) = 0.16608 0.19882
# Poissons Ratio (z) = 0.09244 0.27846
#
# Static dielectric constant tensor:
#      x y z
#    x 1.935550 -0.025560 -0.024480 
#    y -0.025560 1.917870 0.000560 
#    z -0.024480 0.000560 1.984720 
# 
# From -- ./inp_files/179269.got.cif
#   From: 2010.05.17/outbox.cif.g08.bks.cpg/sg2_90_cif.got.tgz:179269.got - 2010.06.03 11:33:40.
