data_PCOD9073225
_publ_section_title
;
Structure prediction by ZEFSAII (Michael W. Deem and Ramdas Pophale) SiO2 
 PCOD9073225
Probable space group: P -1
;
_chemical_formula_sum "Si O2"
_cell_formula_units_Z 16
_cell_length_a 12.000000
_cell_length_b 9.000000
_cell_length_c 15.000000
_cell_angle_alpha 60.000000
_cell_angle_beta 40.000000
_cell_angle_gamma 80.000000
_cell_volume 835.587839
_symmetry_space_group_name_H-M "P -1"
_symmetry_group_IT_number 2
_symmetry_cell_setting 'triclinic'
loop_
_space_group_symop_operation_xyz
x,y,z
-x,-y,-z
loop_
_atom_site_type_symbol
_atom_site_label
_atom_site_fract_x
_atom_site_fract_y
_atom_site_fract_z
Si Si1 0.594470 0.860510 0.603288
Si Si2 0.031729 0.995843 0.349226
Si Si3 0.853657 0.790848 0.133162
Si Si4 0.207481 0.270017 0.023610
Si Si5 0.543053 0.525616 0.859681
Si Si6 0.484374 0.204244 0.538103
Si Si7 0.946999 0.689513 0.621539
Si Si8 0.077249 0.562183 0.756953
O O1 0.523065 0.705418 0.770733
O O2 0.570180 0.789320 0.535651
O O3 0.813752 0.954259 0.470016
O O4 0.487744 0.002711 0.622167
O O5 0.061427 0.826595 0.431558
O O6 0.134044 0.065917 0.172951
O O7 0.100725 0.165715 0.327092
O O8 0.666711 0.756850 0.317786
O O9 0.953356 0.649976 0.142937
O O10 0.798237 0.746257 0.075259
O O11 0.000000 0.000000 0.000000
O O12 0.061591 0.365845 0.120390
O O13 0.404468 0.372059 0.924195
O O14 0.762463 0.556869 0.722218
O O15 0.500000 0.500000 0.000000
O O16 0.703477 0.332162 0.382175
O O17 0.039921 0.597507 0.664743
#
# Coordination Sequence:
#
# PCOD9073225 Si02
#       8
#     2   2   2   2   2   2   2   2
#     4  10  21  36  65  93 119 163 215 248 306 383
#     4   9  16  34  59  92 120 150 211 255 297 363
#     4  12  28  41  62  93 135 164 202 267 321 358
#     4  11  22  40  65  96 127 162 210 258 310 373
#     4  11  20  34  62  99 126 154 206 267 308 358
#     4  11  23  41  64  89 124 170 208 257 309 370
#     4   9  18  33  60  95 115 161 205 258 299 364
#     4  11  22  41  65  91 124 165 217 247 306 382
#
# _framework density 19.148195999999999
#
# number of rings (size 3 to 8) (size 9 to 14) (size 15 to 20)
#    0.000    1.500    5.000    2.250    3.500    0.000 
#    0.000    0.000    0.000   18.750    0.000    0.000 
#    0.000    0.000    0.000    0.000    0.000    0.000 
#
# Total GULP energy -89105.144887 kJ/mol
# GULP energy per Si atom -5569.071555 kJ/mol
# Density = 1.910461 g / cm^3
# Si number density = 19.148196 Si / 1000 Ang^3
#
#
#
# Elastic Constant Matrix: (Units=GPa)
#
#
# Indices 1 2 3 4 5 6 
#
# 1 181.6388 48.7056 47.9551 -6.6179 20.0051 11.4124
# 2 48.7056 67.1278 38.7594 -0.1486 13.4833 5.0268
# 3 47.9551 38.7594 71.9515 -7.3704 13.3911 6.1383
# 4 -6.6179 -0.1486 -7.3704 30.2871 -2.3824 3.9076
# 5 20.0051 13.4833 13.3911 -2.3824 57.1161 -12.1026
# 6 11.4124 5.0268 6.1383 3.9076 -12.1026 25.5339
#
#
#
# Elastic Compliance Matrix: (Units=1/GPa)
#
#
# Indices 1 2 3 4 5 6 
#
# 1 0.007519 -0.003453 -0.002395 0.001308 -0.001880 -0.003196
# 2 -0.003453 0.023973 -0.010369 -0.003177 -0.002438 -0.001353
# 3 -0.002395 -0.010369 0.022493 0.005252 -0.002695 -0.004377
# 4 0.001308 -0.003177 0.005252 0.035405 -0.000967 -0.007098
# 5 -0.001880 -0.002438 -0.002695 -0.000967 0.021991 0.012539
# 6 -0.003196 -0.001353 -0.004377 -0.007098 0.012539 0.048940
#
#
# Mechanical properties :
#
#
# Convention : Reuss Voigt Hill
#
# Bulk Modulus (GPa) = 46.39992 65.72871 56.06431
# Shear Modulus (GPa) = 25.00750 34.94062 29.97406
#
# Velocity S-wave (km/s) = 3.61778 4.27634 3.96077
# Velocity P-wave (km/s) = 6.46032 7.66705 7.08941
#
# Compressibility (1/GPa) = 0.02155176
#
# Stress axis : x y z
#
# Youngs Moduli (GPa) = 132.99455 41.71287 44.45801
#
# Poissons Ratio (x) = 0.14404 0.10647
# Poissons Ratio (y) = 0.45923 0.46099
# Poissons Ratio (z) = 0.31850 0.43252
#
# Static dielectric constant tensor:
#      x y z
#    x 1.637080 0.007890 -0.003240 
#    y 0.007890 1.682500 -0.065250 
#    z -0.003240 -0.065250 1.780110 
# 
# From -- ./inp_files/207980.got.cif
#   From: 2010.05.17/outbox.ucp.g08.bks.cvg/sg2_104_cif.got.tgz:207980.got - 2010.06.11 11:32:03.
