data_PCOD9073068
_publ_section_title
;
Structure prediction by ZEFSAII (Michael W. Deem and Ramdas Pophale) SiO2 
 PCOD9073068
Probable space group: P -1
;
_chemical_formula_sum "Si O2"
_cell_formula_units_Z 14
_cell_length_a 12.000000
_cell_length_b 12.000000
_cell_length_c 27.000000
_cell_angle_alpha 160.000000
_cell_angle_beta 30.000000
_cell_angle_gamma 140.000000
_cell_volume 638.438402
_symmetry_space_group_name_H-M "P -1"
_symmetry_group_IT_number 2
_symmetry_cell_setting 'triclinic'
loop_
_space_group_symop_operation_xyz
x,y,z
-x,-y,-z
loop_
_atom_site_type_symbol
_atom_site_label
_atom_site_fract_x
_atom_site_fract_y
_atom_site_fract_z
Si Si1 0.912879 0.696302 0.384693
Si Si2 0.479836 0.212182 0.236574
Si Si3 0.946524 0.138529 0.751486
Si Si4 0.145917 0.177099 0.155237
Si Si5 0.288621 0.330442 0.006811
Si Si6 0.806639 0.010620 0.302682
Si Si7 0.358126 0.790611 0.368006
O O1 0.941837 0.416965 0.299410
O O2 0.095222 0.509526 0.195509
O O3 0.688059 0.916888 0.534986
O O4 0.000000 0.000000 0.500000
O O5 0.361854 0.612466 0.458771
O O6 0.261314 0.047803 0.247411
O O7 0.663348 0.083396 0.064911
O O8 0.614668 0.048553 0.167177
O O9 0.834991 0.527238 0.937763
O O10 0.038072 0.124177 0.765400
O O11 0.165269 0.948034 0.551524
O O12 0.289617 0.443114 0.232514
O O13 0.992853 0.046003 0.201864
O O14 0.500000 0.500000 0.000000
O O15 0.627466 0.773015 0.267742
#
# Coordination Sequence:
#
# PCOD9073068 Si02
#       7
#     2   2   2   2   2   2   2
#     4   8  16  33  60  85 118 163 206 252 311 371
#     4  10  21  41  68  96 124 170 218 268 317 377
#     4  10  20  41  64  92 131 174 210 257 328 389
#     4  10  22  42  64  94 131 168 215 264 323 385
#     4   8  16  32  61  89 118 162 216 252 312 380
#     4  12  24  40  67  98 129 170 213 266 323 381
#     4  10  21  41  65  92 130 175 211 260 324 387
#
# _framework density 21.928505000000001
#
# number of rings (size 3 to 8) (size 9 to 14) (size 15 to 20)
#    0.000    2.286    1.429    0.857    2.000    1.143 
#    2.571    7.143    0.000    0.000    0.000    0.000 
#    0.000    0.000    0.000    0.000    0.000    0.000 
#
# Total GULP energy -78026.068676 kJ/mol
# GULP energy per Si atom -5573.290620 kJ/mol
# Density = 2.187860 g / cm^3
# Si number density = 21.928505 Si / 1000 Ang^3
#
#
#
# Elastic Constant Matrix: (Units=GPa)
#
#
# Indices 1 2 3 4 5 6 
#
# 1 103.4838 33.0183 21.1077 -0.6861 -21.3978 -29.0231
# 2 33.0183 108.1034 24.8999 -27.4915 5.2905 -14.3135
# 3 21.1077 24.8999 86.3555 -5.8824 -7.1597 -11.2243
# 4 -0.6861 -27.4915 -5.8824 24.4527 -4.4693 -1.8639
# 5 -21.3978 5.2905 -7.1597 -4.4693 26.5723 2.0134
# 6 -29.0231 -14.3135 -11.2243 -1.8639 2.0134 45.5285
#
#
#
# Elastic Compliance Matrix: (Units=1/GPa)
#
#
# Indices 1 2 3 4 5 6 
#
# 1 0.016287 -0.005011 -0.000582 -0.002339 0.012957 0.007995
# 2 -0.005011 0.016108 -0.002444 0.016583 -0.005277 0.002179
# 3 -0.000582 -0.002444 0.013061 0.001183 0.003587 0.001970
# 4 -0.002339 0.016583 0.001183 0.061141 0.004940 0.006298
# 5 0.012957 -0.005277 0.003587 0.004940 0.050501 0.005454
# 6 0.007995 0.002179 0.001970 0.006298 0.005454 0.028248
#
#
# Mechanical properties :
#
#
# Convention : Reuss Voigt Hill
#
# Bulk Modulus (GPa) = 34.03545 50.66607 42.35076
# Shear Modulus (GPa) = 23.67267 33.90516 28.78891
#
# Velocity S-wave (km/s) = 3.28920 3.93640 3.62726
# Velocity P-wave (km/s) = 5.47539 6.61934 6.07435
#
# Compressibility (1/GPa) = 0.02938113
#
# Stress axis : x y z
#
# Youngs Moduli (GPa) = 61.40003 62.08184 76.56247
#
# Poissons Ratio (x) = 0.31108 0.04456
# Poissons Ratio (y) = 0.30766 0.18715
# Poissons Ratio (z) = 0.03574 0.15175
#
# Static dielectric constant tensor:
#      x y z
#    x 1.905120 -0.024120 -0.035040 
#    y -0.024120 1.785540 0.030930 
#    z -0.035040 0.030930 1.819600 
# 
# From -- ./inp_files/618462.got.cif
#   From: 2010.05.17/outbox.ucp.g08.bks.cvg/sg2_310_cif.got.tgz:618462.got - 2010.06.11 11:32:03.
