data_PCOD9073307
_publ_section_title
;
Structure prediction by ZEFSAII (Michael W. Deem and Ramdas Pophale) SiO2 
 PCOD9073307
Probable space group: P -1
;
_chemical_formula_sum "Si O2"
_cell_formula_units_Z 16
_cell_length_a 15.000000
_cell_length_b 24.000000
_cell_length_c 6.000000
_cell_angle_alpha 90.000000
_cell_angle_beta 90.000000
_cell_angle_gamma 20.000000
_cell_volume 738.763510
_symmetry_space_group_name_H-M "P -1"
_symmetry_group_IT_number 2
_symmetry_cell_setting 'triclinic'
loop_
_space_group_symop_operation_xyz
x,y,z
-x,-y,-z
loop_
_atom_site_type_symbol
_atom_site_label
_atom_site_fract_x
_atom_site_fract_y
_atom_site_fract_z
Si Si1 0.552785 0.803353 0.828844
Si Si2 0.840982 0.995589 0.810513
Si Si3 0.588155 0.688839 0.485243
Si Si4 0.125370 0.630571 0.411420
Si Si5 0.707373 0.966584 0.538355
Si Si6 0.564106 0.321268 0.194422
Si Si7 0.756565 0.770154 0.148973
Si Si8 0.825718 0.466221 0.190486
O O1 0.669014 0.686553 0.672823
O O2 0.468205 0.902182 0.657018
O O3 0.707482 0.736970 0.045998
O O4 0.290334 0.935080 0.947517
O O5 0.848553 0.933073 0.673543
O O6 0.132987 0.845917 0.835048
O O7 0.641331 0.150106 0.664871
O O8 0.473692 0.702612 0.613897
O O9 0.815227 0.530340 0.327881
O O10 0.384330 0.480448 0.261510
O O11 0.224340 0.557086 0.654862
O O12 0.914525 0.803149 0.428139
O O13 0.968927 0.666766 0.327557
O O14 0.512149 0.055731 0.727736
O O15 0.412102 0.387867 0.979908
O O16 0.901456 0.708588 0.929735
#
# Coordination Sequence:
#
# PCOD9073307 Si02
#       8
#     2   2   2   2   2   2   2   2
#     4  10  22  38  58  86 115 152 193 233 284 338
#     4  10  22  39  60  86 115 150 191 236 286 339
#     4  10  21  39  60  86 116 147 189 238 288 340
#     4  10  22  39  59  86 118 151 190 236 284 336
#     4  10  22  39  59  86 118 151 190 236 284 336
#     4  10  22  39  60  86 115 150 191 236 286 339
#     4  10  21  38  60  86 116 151 192 235 283 339
#     4  10  22  38  58  86 115 152 193 233 284 338
#
# _framework density 21.657810000000001
#
# number of rings (size 3 to 8) (size 9 to 14) (size 15 to 20)
#    0.000    2.000    0.000    2.250    0.000   12.000 
#    0.000   17.500    0.000    0.000    0.000    0.000 
#    0.000    0.000    0.000    0.000    0.000    0.000 
#
# Total GULP energy -89121.818638 kJ/mol
# GULP energy per Si atom -5570.113665 kJ/mol
# Density = 2.160852 g / cm^3
# Si number density = 21.657810 Si / 1000 Ang^3
#
#
#
# Elastic Constant Matrix: (Units=GPa)
#
#
# Indices 1 2 3 4 5 6 
#
# 1 33.1545 14.4018 20.4212 -1.2938 2.1848 5.7832
# 2 14.4018 39.0350 21.6139 6.0157 -0.7957 23.4773
# 3 20.4212 21.6139 87.3249 15.6197 9.0372 13.3447
# 4 -1.2938 6.0157 15.6197 24.3198 2.0547 4.1729
# 5 2.1848 -0.7957 9.0372 2.0547 17.5205 11.7547
# 6 5.7832 23.4773 13.3447 4.1729 11.7547 28.0315
#
#
#
# Elastic Compliance Matrix: (Units=1/GPa)
#
#
# Indices 1 2 3 4 5 6 
#
# 1 0.046380 -0.037157 -0.006124 0.012067 -0.029134 0.034888
# 2 -0.037157 0.152589 -0.015070 -0.012646 0.132664 -0.166706
# 3 -0.006124 -0.015070 0.017892 -0.009021 -0.017524 0.014058
# 4 0.012067 -0.012646 -0.009021 0.049947 -0.009200 0.008819
# 5 -0.029134 0.132664 -0.017524 -0.009200 0.195987 -0.177573
# 6 0.034888 -0.166706 0.014058 0.008819 -0.177573 0.234555
#
#
# Mechanical properties :
#
#
# Convention : Reuss Voigt Hill
#
# Bulk Modulus (GPa) = 9.98418 30.26537 20.12477
# Shear Modulus (GPa) = 5.90014 20.84620 13.37317
#
# Velocity S-wave (km/s) = 1.65232 3.10583 2.48760
# Velocity P-wave (km/s) = 2.87406 5.18326 4.19085
#
# Compressibility (1/GPa) = 0.10015840
#
# Stress axis : x y z
#
# Youngs Moduli (GPa) = 21.56119 6.55357 55.88969
#
# Poissons Ratio (x) = 0.24351 0.34227
# Poissons Ratio (y) = 0.80115 0.84225
# Poissons Ratio (z) = 0.13204 0.09876
#
# Static dielectric constant tensor:
#      x y z
#    x 1.824410 -0.000490 0.006410 
#    y -0.000490 1.779040 0.033410 
#    z 0.006410 0.033410 1.815880 
# 
# From -- ./inp_files/70833.got.cif
#   From: 2010.05.17/outbox.ucp.g08.bks.cvg/sg2_36_cif.got.tgz:70833.got - 2010.06.11 11:32:03.
