data_PCOD9073150
_publ_section_title
;
Structure prediction by ZEFSAII (Michael W. Deem and Ramdas Pophale) SiO2 
 PCOD9073150
Probable space group: P -1
;
_chemical_formula_sum "Si O2"
_cell_formula_units_Z 15
_cell_length_a 27.000000
_cell_length_b 9.000000
_cell_length_c 9.000000
_cell_angle_alpha 130.000000
_cell_angle_beta 40.000000
_cell_angle_gamma 150.000000
_cell_volume 701.439234
_symmetry_space_group_name_H-M "P -1"
_symmetry_group_IT_number 2
_symmetry_cell_setting 'triclinic'
loop_
_space_group_symop_operation_xyz
x,y,z
-x,-y,-z
loop_
_atom_site_type_symbol
_atom_site_label
_atom_site_fract_x
_atom_site_fract_y
_atom_site_fract_z
Si Si1 0.047506 0.777105 0.167354
Si Si2 0.311920 0.894068 0.177696
Si Si3 0.000000 0.000000 0.000000
Si Si4 0.438237 0.096291 0.332636
Si Si5 0.241786 0.184449 0.577482
Si Si6 0.535784 0.193304 0.685257
Si Si7 0.073704 0.255781 0.297125
Si Si8 0.315044 0.249770 0.794066
O O1 0.983602 0.706598 0.425488
O O2 0.029896 0.949934 0.233252
O O3 0.000000 0.500000 0.000000
O O4 0.188762 0.018599 0.017521
O O5 0.214695 0.540033 0.163882
O O6 0.373420 0.981507 0.251300
O O7 0.236271 0.949354 0.383911
O O8 0.418884 0.087663 0.938263
O O9 0.040164 0.221714 0.182495
O O10 0.870841 0.886254 0.209645
O O11 0.374775 0.150528 0.603249
O O12 0.577037 0.405663 0.187374
O O13 0.429933 0.885235 0.309868
O O14 0.349270 0.471341 0.415526
O O15 0.284525 0.239967 0.686062
O O16 0.500000 0.000000 0.500000
#
# Coordination Sequence:
#
# PCOD9073150 Si02
#       8
#     2   2   1   2   2   2   2   2
#     4  11  23  45  74 105 146 191 248 310 352 437
#     4  11  25  48  71 104 143 192 248 303 370 451
#     4  12  26  48  70 102 150 196 250 296 384 432
#     4  10  22  40  74 102 141 190 237 301 374 435
#     4  11  24  44  71 101 151 193 239 310 366 442
#     4  12  23  42  69 105 144 182 240 305 372 438
#     4  11  26  45  74 105 144 196 249 305 368 437
#     4  10  20  43  69 104 143 188 242 296 366 443
#
# _framework density 21.384604
#
# number of rings (size 3 to 8) (size 9 to 14) (size 15 to 20)
#    0.000    1.067    2.667    4.000    0.000    4.800 
#    2.400    0.000    0.000    0.000    0.000    0.000 
#    0.000    0.000    0.000    0.000    0.000    0.000 
#
# Total GULP energy -83520.558605 kJ/mol
# GULP energy per Si atom -5568.037240 kJ/mol
# Density = 2.133593 g / cm^3
# Si number density = 21.384604 Si / 1000 Ang^3
#
#
#
# Elastic Constant Matrix: (Units=GPa)
#
#
# Indices 1 2 3 4 5 6 
#
# 1 32.2772 32.5104 34.9728 -9.9729 -20.4477 14.5102
# 2 32.5104 106.2377 47.3207 -7.6899 -5.0222 2.3430
# 3 34.9728 47.3207 157.9512 -9.9335 -12.1957 -0.1515
# 4 -9.9729 -7.6899 -9.9335 43.7758 4.9724 -5.0152
# 5 -20.4477 -5.0222 -12.1957 4.9724 35.9898 3.9841
# 6 14.5102 2.3430 -0.1515 -5.0152 3.9841 37.0856
#
#
#
# Elastic Compliance Matrix: (Units=1/GPa)
#
#
# Indices 1 2 3 4 5 6 
#
# 1 0.285238 -0.062017 -0.031834 0.015358 0.154032 -0.122285
# 2 -0.062017 0.024423 0.003740 -0.002249 -0.033126 0.025992
# 3 -0.031834 0.003740 0.011047 -0.000777 -0.015241 0.013797
# 4 0.015358 -0.002249 -0.000777 0.024847 0.005053 -0.003053
# 5 0.154032 -0.033126 -0.015241 0.005053 0.112523 -0.069641
# 6 -0.122285 0.025992 0.013797 -0.003053 -0.069641 0.080293
#
#
# Mechanical properties :
#
#
# Convention : Reuss Voigt Hill
#
# Bulk Modulus (GPa) = 7.11821 58.45263 32.78542
# Shear Modulus (GPa) = 6.53235 35.48104 21.00670
#
# Velocity S-wave (km/s) = 1.74967 4.07773 3.13761
# Velocity P-wave (km/s) = 2.72354 7.04016 5.33767
#
# Compressibility (1/GPa) = 0.14048466
#
# Stress axis : x y z
#
# Youngs Moduli (GPa) = 3.50585 40.94493 90.52507
#
# Poissons Ratio (x) = 2.53929 2.88182
# Poissons Ratio (y) = 0.21742 -0.33860
# Poissons Ratio (z) = 0.11161 -0.15315
#
# Static dielectric constant tensor:
#      x y z
#    x 1.786120 -0.033240 0.001050 
#    y -0.033240 1.824820 0.018410 
#    z 0.001050 0.018410 1.821460 
# 
# From -- ./inp_files/356529.got.cif
#   From: 2010.05.17/outbox.ucp.g08.bks.cvg/sg2_179_cif.got.tgz:356529.got - 2010.06.11 11:32:03.
