data_PCOD9073606
_publ_section_title
;
Structure prediction by ZEFSAII (Michael W. Deem and Ramdas Pophale) SiO2 
 PCOD9073606
Probable space group: P -1
;
_chemical_formula_sum "Si O2"
_cell_formula_units_Z 14
_cell_length_a 27.000000
_cell_length_b 12.000000
_cell_length_c 12.000000
_cell_angle_alpha 140.000000
_cell_angle_beta 20.000000
_cell_angle_gamma 150.000000
_cell_volume 638.438402
_symmetry_space_group_name_H-M "P -1"
_symmetry_group_IT_number 2
_symmetry_cell_setting 'triclinic'
loop_
_space_group_symop_operation_xyz
x,y,z
-x,-y,-z
loop_
_atom_site_type_symbol
_atom_site_label
_atom_site_fract_x
_atom_site_fract_y
_atom_site_fract_z
Si Si1 0.093430 0.820209 0.343997
Si Si2 0.833472 0.519799 0.127744
Si Si3 0.785393 0.136601 0.269925
Si Si4 0.913318 0.619481 0.791724
Si Si5 0.375150 0.215137 0.879950
Si Si6 0.504462 0.302010 0.304565
Si Si7 0.313701 0.559379 0.209497
O O1 0.033127 0.823162 0.600578
O O2 0.891705 0.652264 0.575055
O O3 0.161186 0.676129 0.074117
O O4 0.251711 0.061612 0.131628
O O5 0.606321 0.366766 0.515697
O O6 0.903180 0.671532 0.981549
O O7 0.987906 0.674918 0.021769
O O8 0.712480 0.282004 0.542858
O O9 0.722441 0.977826 0.167257
O O10 0.673132 0.944430 0.457791
O O11 0.000000 0.500000 0.500000
O O12 0.697411 0.408202 0.044189
O O13 0.364006 0.415189 0.047042
O O14 0.500000 0.500000 0.500000
O O15 0.539564 0.296716 0.095274
#
# Coordination Sequence:
#
# PCOD9073606 Si02
#       7
#     2   2   2   2   2   2   2
#     4   9  21  38  68  94 136 180 212 273 341 383
#     4  10  21  41  66 102 129 173 231 267 328 400
#     4  11  24  41  70  98 135 174 217 282 331 388
#     4   9  18  37  64  97 129 169 222 266 326 395
#     4  12  22  44  70  96 135 179 216 277 332 392
#     4  11  19  40  67  96 129 174 218 274 330 387
#     4  10  22  39  65 101 129 174 229 261 335 404
#
# _framework density 21.928505000000001
#
# number of rings (size 3 to 8) (size 9 to 14) (size 15 to 20)
#    0.000    1.714    2.857    2.143    0.000    2.286 
#    0.000    7.143    3.143    3.429    0.000    0.000 
#    0.000    0.000    0.000    0.000    0.000    0.000 
#
# Total GULP energy -78092.711227 kJ/mol
# GULP energy per Si atom -5578.050802 kJ/mol
# Density = 2.187860 g / cm^3
# Si number density = 21.928505 Si / 1000 Ang^3
#
#
#
# Elastic Constant Matrix: (Units=GPa)
#
#
# Indices 1 2 3 4 5 6 
#
# 1 38.1790 13.3880 2.2600 -22.8948 4.4875 6.8291
# 2 13.3880 90.9343 26.4406 -8.0946 -8.8457 2.4899
# 3 2.2600 26.4406 17.4829 -32.9362 11.9756 -15.8394
# 4 -22.8948 -8.0946 -32.9362 32.5509 -10.8998 8.9992
# 5 4.4875 -8.8457 11.9756 -10.8998 28.9161 3.6505
# 6 6.8291 2.4899 -15.8394 8.9992 3.6505 29.0319
#
#
#
# Elastic Compliance Matrix: (Units=1/GPa)
#
#
# Indices 1 2 3 4 5 6 
#
# 1 0.037522 0.006342 -0.027995 0.013878 0.016864 -0.031066
# 2 0.006342 0.010541 0.006343 0.017163 0.006727 -0.005101
# 3 -0.027995 0.006343 -0.022193 -0.043259 -0.001785 0.007566
# 4 0.013878 0.017163 -0.043259 0.023810 0.035053 -0.040126
# 5 0.016864 0.006727 -0.001785 0.035053 0.050851 -0.022777
# 6 -0.031066 -0.005101 0.007566 -0.040126 -0.022777 0.061620
#
#
# Mechanical properties :
#
#
# Convention : Reuss Voigt Hill
#
# Bulk Modulus (GPa) = -210.52087 25.64148 -92.43969
# Shear Modulus (GPa) = 26.15238 25.06696 25.60967
#
# Velocity S-wave (km/s) = 3.45718 3.38468 3.42112
# Velocity P-wave (km/s) = 8.95966 5.19551 5.16150
#
# Compressibility (1/GPa) = -0.00475012
#
# Stress axis : x y z
#
# Youngs Moduli (GPa) = 26.65072 94.87134 -45.05833
#
# Poissons Ratio (x) = -0.60169 -1.26142
# Poissons Ratio (y) = -0.16902 0.28581
# Poissons Ratio (z) = 0.74609 -0.60179
#
# Static dielectric constant tensor:
#      x y z
#    x 1.896630 -0.071190 -0.008090 
#    y -0.071190 1.771910 0.020380 
#    z -0.008090 0.020380 1.835940 
# 
# From -- ./inp_files/391502.got.cif
#   From: 2010.05.17/outbox.ucp.g08.bks.cvg/sg2_196_cif.got.tgz:391502.got - 2010.06.11 11:32:03.
