data_PCOD9073311
_publ_section_title
;
Structure prediction by ZEFSAII (Michael W. Deem and Ramdas Pophale) SiO2 
 PCOD9073311
Probable space group: P -1
;
_chemical_formula_sum "Si O2"
_cell_formula_units_Z 16
_cell_length_a 7.820299
_cell_length_b 10.486599
_cell_length_c 9.239463
_cell_angle_alpha 101.611615
_cell_angle_beta 74.239178
_cell_angle_gamma 113.443168
_cell_volume 665.293499
_symmetry_space_group_name_H-M "P -1"
_symmetry_group_IT_number 2
_symmetry_cell_setting 'triclinic'
loop_
_space_group_symop_operation_xyz
x,y,z
-x,-y,-z
loop_
_atom_site_type_symbol
_atom_site_label
_atom_site_fract_x
_atom_site_fract_y
_atom_site_fract_z
Si Si1 0.026332 0.203411 0.915349
Si Si2 0.853009 0.606570 0.334563
Si Si3 0.074411 0.427761 0.178363
Si Si4 0.686599 0.645034 0.666070
Si Si5 0.994695 0.952732 0.705272
Si Si6 0.812332 0.129646 0.589776
Si Si7 0.407364 0.876052 0.104336
Si Si8 0.410187 0.598060 0.960631
O O1 0.811206 0.182187 0.913958
O O2 0.159752 0.316118 0.794797
O O3 0.050230 0.054947 0.854046
O O4 0.046072 0.276874 0.082430
O O5 0.699483 0.614262 0.487654
O O6 0.891851 0.464801 0.266874
O O7 0.055417 0.707887 0.385209
O O8 0.204308 0.440382 0.291836
O O9 0.193051 0.535939 0.051742
O O10 0.812897 0.808102 0.706650
O O11 0.482766 0.606509 0.781307
O O12 0.169389 0.918249 0.587891
O O13 0.928965 0.052219 0.636545
O O14 0.616213 0.094188 0.714119
O O15 0.492113 0.755798 0.037308
O O16 0.500000 0.000000 0.000000
O O17 0.500000 0.500000 0.000000
#
# Coordination Sequence:
#
# PCOD9073311 Si02
#       8
#     2   2   2   2   2   2   2   2
#     4  10  20  32  56  77 104 140 173 218 266 314
#     4   9  17  33  53  76  97 136 182 211 249 311
#     4  11  20  34  52  77 109 141 169 212 270 321
#     4  10  20  32  54  78 102 137 177 220 252 311
#     4   8  15  30  47  76  99 126 173 216 258 297
#     4   8  14  27  51  72  96 129 172 219 249 297
#     4  10  18  31  54  79 101 138 186 222 254 314
#     4  10  20  33  50  79 111 140 170 220 272 315
#
# _framework density 24.049537000000001
#
# number of rings (size 3 to 8) (size 9 to 14) (size 15 to 20)
#    0.000    2.750    2.500    3.000    0.000    0.500 
#    0.000    0.625    2.750    0.000    0.000    6.125 
#    0.000    0.000    0.000    0.000    0.000    0.000 
#
# Total GULP energy -89222.125257 kJ/mol
# GULP energy per Si atom -5576.382829 kJ/mol
# Density = 2.399480 g / cm^3
# Si number density = 24.049537 Si / 1000 Ang^3
#
#
#
# Elastic Constant Matrix: (Units=GPa)
#
#
# Indices 1 2 3 4 5 6 
#
# 1 46.2255 18.1956 22.7029 0.9955 -14.3229 -0.5805
# 2 18.1956 104.8127 41.5162 14.0104 -18.7233 -8.1543
# 3 22.7029 41.5162 139.5752 13.4093 -25.8994 -7.5160
# 4 0.9955 14.0104 13.4093 37.6594 -1.1013 -15.7316
# 5 -14.3229 -18.7233 -25.8994 -1.1013 31.9865 2.0075
# 6 -0.5805 -8.1543 -7.5160 -15.7316 2.0075 24.0564
#
#
#
# Elastic Compliance Matrix: (Units=1/GPa)
#
#
# Indices 1 2 3 4 5 6 
#
# 1 0.026273 -0.002349 -0.002068 0.000727 0.008807 -0.001068
# 2 -0.002349 0.012000 -0.002067 -0.003142 0.004130 0.000966
# 3 -0.002068 -0.002067 0.009333 -0.002236 0.005328 0.000259
# 4 0.000727 -0.003142 -0.002236 0.038235 -0.003485 0.023548
# 5 0.008807 0.004130 0.005328 -0.003485 0.041976 -0.002505
# 6 -0.001068 0.000966 0.000259 0.023548 -0.002505 0.057560
#
#
# Mechanical properties :
#
#
# Convention : Reuss Voigt Hill
#
# Bulk Modulus (GPa) = 28.86947 50.60476 39.73711
# Shear Modulus (GPa) = 23.82193 32.62039 28.22116
#
# Velocity S-wave (km/s) = 3.15069 3.68691 3.42930
# Velocity P-wave (km/s) = 5.02653 6.26194 5.67794
#
# Compressibility (1/GPa) = 0.03463867
#
# Stress axis : x y z
#
# Youngs Moduli (GPa) = 38.06164 83.33109 107.14474
#
# Poissons Ratio (x) = 0.19574 0.22157
# Poissons Ratio (y) = 0.08940 0.22148
# Poissons Ratio (z) = 0.07871 0.17226
#
# Static dielectric constant tensor:
#      x y z
#    x 1.907360 0.072770 -0.001580 
#    y 0.072770 2.044390 0.040560 
#    z -0.001580 0.040560 2.080150 
# 
# From -- ./inp_files/259423.got.cif
#   From: 2010.05.17/outbox.cif.g08.bks.cpg/sg2_130_cif.got.tgz:259423.got - 2010.06.03 11:33:40.
