data_PCOD9073205
_publ_section_title
;
Structure prediction by ZEFSAII (Michael W. Deem and Ramdas Pophale) SiO2 
 PCOD9073205
Probable space group: P -1
;
_chemical_formula_sum "Si O2"
_cell_formula_units_Z 16
_cell_length_a 11.872289
_cell_length_b 26.061859
_cell_length_c 19.928395
_cell_angle_alpha 17.153923
_cell_angle_beta 26.011559
_cell_angle_gamma 28.458417
_cell_volume 787.549527
_symmetry_space_group_name_H-M "P -1"
_symmetry_group_IT_number 2
_symmetry_cell_setting 'triclinic'
loop_
_space_group_symop_operation_xyz
x,y,z
-x,-y,-z
loop_
_atom_site_type_symbol
_atom_site_label
_atom_site_fract_x
_atom_site_fract_y
_atom_site_fract_z
Si Si1 0.206112 0.141797 0.054279
Si Si2 0.701248 0.854955 0.157086
Si Si3 0.328715 0.951094 0.558178
Si Si4 0.296064 0.521810 0.333108
Si Si5 0.892941 0.465826 0.877548
Si Si6 0.004864 0.158649 0.851601
Si Si7 0.600915 0.702223 0.834591
Si Si8 0.616529 0.717694 0.600585
O O1 0.957304 0.046787 0.319732
O O2 0.473402 0.019765 0.080872
O O3 0.203651 0.162523 0.948822
O O4 0.140675 0.324208 0.902540
O O5 0.594720 0.671163 0.457031
O O6 0.924369 0.885707 0.052840
O O7 0.408492 0.785396 0.773637
O O8 0.543254 0.904363 0.444366
O O9 0.344978 0.129905 0.363236
O O10 0.000000 0.500000 0.500000
O O11 0.245774 0.687551 0.204445
O O12 0.457983 0.581128 0.110428
O O13 0.864536 0.600656 0.786438
O O14 0.816041 0.584467 0.704732
O O15 0.650733 0.362443 0.154020
O O16 0.250030 0.247603 0.583081
O O17 0.000000 0.000000 0.000000
#
# Coordination Sequence:
#
# PCOD9073205 Si02
#       8
#     2   2   2   2   2   2   2   2
#     4  10  20  38  55  75 103 143 181 210 260 318
#     4  10  22  37  56  76 104 140 179 214 258 325
#     4   9  18  32  53  77 109 141 169 217 262 308
#     4  10  19  33  54  79 108 140 174 217 263 309
#     4   9  17  31  54  76 102 135 175 221 250 299
#     4  11  21  34  55  81 107 133 168 221 269 304
#     4  10  18  31  53  83 107 134 180 220 261 301
#     4   9  17  30  49  78 103 130 175 213 256 306
#
# _framework density 20.316182000000001
#
# number of rings (size 3 to 8) (size 9 to 14) (size 15 to 20)
#    0.000    2.250    0.000    5.250    0.000    2.000 
#    0.000    7.500    0.000    3.750    0.000    0.000 
#    0.000    0.000    0.000    0.000    0.000    0.000 
#
# Total GULP energy -89172.777183 kJ/mol
# GULP energy per Si atom -5573.298574 kJ/mol
# Density = 2.026994 g / cm^3
# Si number density = 20.316182 Si / 1000 Ang^3
#
#
#
# Elastic Constant Matrix: (Units=GPa)
#
#
# Indices 1 2 3 4 5 6 
#
# 1 30.1707 23.6119 6.5652 -12.2077 0.3363 13.3478
# 2 23.6119 168.3342 29.4094 -26.9905 8.0279 23.7278
# 3 6.5652 29.4094 49.4253 -10.9960 7.3981 7.3736
# 4 -12.2077 -26.9905 -10.9960 34.0494 10.2659 -9.2137
# 5 0.3363 8.0279 7.3981 10.2659 18.8815 -3.3361
# 6 13.3478 23.7278 7.3736 -9.2137 -3.3361 25.2056
#
#
#
# Elastic Compliance Matrix: (Units=1/GPa)
#
#
# Indices 1 2 3 4 5 6 
#
# 1 0.049978 -0.001097 0.003167 0.016424 -0.014531 -0.022280
# 2 -0.001097 0.008597 -0.001470 0.006750 -0.007725 -0.005637
# 3 0.003167 -0.001470 0.027027 0.012455 -0.017854 -0.006010
# 4 0.016424 0.006750 0.012455 0.055347 -0.038769 -0.003595
# 5 -0.014531 -0.007725 -0.017854 -0.038769 0.087694 0.017625
# 6 -0.022280 -0.005637 -0.006010 -0.003595 0.017625 0.059555
#
#
# Mechanical properties :
#
#
# Convention : Reuss Voigt Hill
#
# Bulk Modulus (GPa) = 11.52066 40.78924 26.15495
# Shear Modulus (GPa) = 15.82626 28.18357 22.00492
#
# Velocity S-wave (km/s) = 2.79408 3.72862 3.29465
# Velocity P-wave (km/s) = 4.01151 6.21752 5.23210
#
# Compressibility (1/GPa) = 0.08680055
#
# Stress axis : x y z
#
# Youngs Moduli (GPa) = 20.00879 116.32559 37.00032
#
# Poissons Ratio (x) = 0.12758 -0.11717
# Poissons Ratio (y) = 0.02194 0.05441
# Poissons Ratio (z) = -0.06336 0.17106
#
# Static dielectric constant tensor:
#      x y z
#    x 1.743560 0.046540 -0.024600 
#    y 0.046540 1.774300 -0.046270 
#    z -0.024600 -0.046270 1.770690 
# 
# From -- ./inp_files/392509.got.cif
#   From: 2010.05.17/outbox.cif.g08.bks.cpg/sg2_197_cif.got.tgz:392509.got - 2010.06.03 11:33:40.
