data_PCOD9073197
_publ_section_title
;
Structure prediction by ZEFSAII (Michael W. Deem and Ramdas Pophale) SiO2 
 PCOD9073197
Probable space group: P -1
;
_chemical_formula_sum "Si O2"
_cell_formula_units_Z 14
_cell_length_a 9.369178
_cell_length_b 16.849596
_cell_length_c 5.338424
_cell_angle_alpha 102.195658
_cell_angle_beta 109.646286
_cell_angle_gamma 126.213442
_cell_volume 539.217092
_symmetry_space_group_name_H-M "P -1"
_symmetry_group_IT_number 2
_symmetry_cell_setting 'triclinic'
loop_
_space_group_symop_operation_xyz
x,y,z
-x,-y,-z
loop_
_atom_site_type_symbol
_atom_site_label
_atom_site_fract_x
_atom_site_fract_y
_atom_site_fract_z
Si Si1 0.055230 0.140603 0.201654
Si Si2 0.627918 0.422820 0.084486
Si Si3 0.293835 0.770779 0.786096
Si Si4 0.730457 0.299382 0.776594
Si Si5 0.316437 0.401042 0.521482
Si Si6 0.709640 0.821872 0.113330
Si Si7 0.546913 0.950385 0.705321
O O1 0.138295 0.264230 0.265936
O O2 0.160975 0.149453 0.533442
O O3 0.133637 0.118915 0.992608
O O4 0.796448 0.044721 0.990916
O O5 0.767851 0.546969 0.375340
O O6 0.718907 0.385166 0.938674
O O7 0.458127 0.406603 0.809072
O O8 0.475442 0.319359 0.129068
O O9 0.178542 0.673182 0.432385
O O10 0.356412 0.879029 0.760327
O O11 0.180345 0.719195 0.952102
O O12 0.540750 0.831519 0.027317
O O13 0.508969 0.162863 0.502421
O O14 0.500000 0.500000 0.500000
O O15 0.500000 0.000000 0.500000
#
# Coordination Sequence:
#
# PCOD9073197 Si02
#       7
#     2   2   2   2   2   2   2
#     4  11  23  35  55  86 118 150 184 230 277 343
#     4   9  18  32  52  82 118 146 177 223 281 348
#     4   9  19  36  56  83 109 149 178 235 281 341
#     4   9  20  36  56  81 105 153 190 227 276 327
#     4  10  18  31  53  81 120 149 174 222 286 346
#     4  10  19  35  54  86 118 140 184 223 291 345
#     4  10  25  42  58  79 114 156 198 233 274 326
#
# _framework density 25.963570000000001
#
# number of rings (size 3 to 8) (size 9 to 14) (size 15 to 20)
#    0.857    1.429    1.429    2.571    4.000    1.714 
#    0.000    0.000    0.000    0.857    0.000    7.000 
#    0.000    1.429    0.000    0.000    0.000    0.000 
#
# Total GULP energy -77993.342147 kJ/mol
# GULP energy per Si atom -5570.953010 kJ/mol
# Density = 2.590448 g / cm^3
# Si number density = 25.963570 Si / 1000 Ang^3
#
#
#
# Elastic Constant Matrix: (Units=GPa)
#
#
# Indices 1 2 3 4 5 6 
#
# 1 107.8710 18.5441 51.8313 -0.4475 -13.8806 2.5703
# 2 18.5441 87.4623 29.8642 7.5082 2.2488 -17.7002
# 3 51.8313 29.8642 125.5181 -5.4575 -3.3685 18.7885
# 4 -0.4475 7.5082 -5.4575 57.7413 3.7854 -11.3645
# 5 -13.8806 2.2488 -3.3685 3.7854 41.0632 -5.0609
# 6 2.5703 -17.7002 18.7885 -11.3645 -5.0609 25.1848
#
#
#
# Elastic Compliance Matrix: (Units=1/GPa)
#
#
# Indices 1 2 3 4 5 6 
#
# 1 0.012395 -0.000121 -0.005518 0.000028 0.004188 0.003620
# 2 -0.000121 0.017158 -0.006590 0.000520 0.000567 0.017336
# 3 -0.005518 -0.006590 0.014012 -0.000728 -0.002172 -0.015286
# 4 0.000028 0.000520 -0.000728 0.019072 -0.000681 0.009375
# 5 0.004188 0.000567 -0.002172 -0.000681 0.026435 0.006596
# 6 0.003620 0.017336 -0.015286 0.009375 0.006596 0.068481
#
#
# Mechanical properties :
#
#
# Convention : Reuss Voigt Hill
#
# Bulk Modulus (GPa) = 52.33528 57.92563 55.13045
# Shear Modulus (GPa) = 26.54212 39.50532 33.02372
#
# Velocity S-wave (km/s) = 3.20078 3.90496 3.57028
# Velocity P-wave (km/s) = 5.81902 6.53379 6.18674
#
# Compressibility (1/GPa) = 0.01910757
#
# Stress axis : x y z
#
# Youngs Moduli (GPa) = 80.67630 58.28033 71.36966
#
# Poissons Ratio (x) = 0.00707 0.39381
# Poissons Ratio (y) = 0.00979 0.47029
# Poissons Ratio (z) = 0.44516 0.38404
#
# Static dielectric constant tensor:
#      x y z
#    x 2.192880 0.076650 -0.165630 
#    y 0.076650 1.725920 0.042520 
#    z -0.165630 0.042520 2.104270 
# 
# From -- ./inp_files/81436.got.cif
#   From: 2010.05.17/outbox.cif.g08.bks.cpg/sg2_41_cif.got.tgz:81436.got - 2010.06.03 11:33:40.
