data_PCOD9073438
_publ_section_title
;
Structure prediction by ZEFSAII (Michael W. Deem and Ramdas Pophale) SiO2 
 PCOD9073438
Probable space group: P -1
;
_chemical_formula_sum "Si O2"
_cell_formula_units_Z 16
_cell_length_a 9.000000
_cell_length_b 27.000000
_cell_length_c 27.000000
_cell_angle_alpha 10.000000
_cell_angle_beta 40.000000
_cell_angle_gamma 40.000000
_cell_volume 728.340053
_symmetry_space_group_name_H-M "P -1"
_symmetry_group_IT_number 2
_symmetry_cell_setting 'triclinic'
loop_
_space_group_symop_operation_xyz
x,y,z
-x,-y,-z
loop_
_atom_site_type_symbol
_atom_site_label
_atom_site_fract_x
_atom_site_fract_y
_atom_site_fract_z
Si Si1 0.699594 0.755897 0.874521
Si Si2 0.499451 0.803169 0.308392
Si Si3 0.903445 0.393353 0.463174
Si Si4 0.205069 0.835502 0.718528
Si Si5 0.544895 0.719948 0.834194
Si Si6 0.133726 0.071562 0.990438
Si Si7 0.437195 0.308305 0.426026
Si Si8 0.354691 0.687423 0.171635
O O1 0.632947 0.438528 0.215191
O O2 0.620670 0.802588 0.790103
O O3 0.952700 0.790093 0.802066
O O4 0.517239 0.972733 0.738432
O O5 0.261638 0.710371 0.435722
O O6 0.654358 0.902137 0.126281
O O7 0.638090 0.529332 0.570030
O O8 0.489486 0.064024 0.094154
O O9 0.847361 0.721789 0.170308
O O10 0.181145 0.348997 0.426809
O O11 0.869367 0.232090 0.683041
O O12 0.294891 0.794752 0.794225
O O13 0.266704 0.147708 0.379500
O O14 0.391249 0.619493 0.853535
O O15 0.896208 0.160871 0.932083
O O16 0.433120 0.476230 0.313772
#
# Coordination Sequence:
#
# PCOD9073438 Si02
#       8
#     2   2   2   2   2   2   2   2
#     4  12  22  41  66  90 123 178 210 237 309 369
#     4  12  22  38  64  94 111 155 211 263 329 374
#     4  11  23  41  60  86 125 161 200 264 316 366
#     4  10  21  39  65  99 129 156 196 265 304 356
#     4  10  21  39  65  98 131 152 203 256 312 351
#     4  11  21  39  64  87 120 153 203 262 328 389
#     4  11  25  43  58  82 127 169 209 242 294 375
#     4  11  23  40  59  86 125 158 201 265 314 366
#
# _framework density 21.967760999999999
#
# number of rings (size 3 to 8) (size 9 to 14) (size 15 to 20)
#    0.000    1.000    0.000    9.000    0.000    0.000 
#    6.750    0.000    0.000    0.000    0.000    0.000 
#    0.000    0.000    0.000    0.000    0.000    0.000 
#
# Total GULP energy -89255.596510 kJ/mol
# GULP energy per Si atom -5578.474782 kJ/mol
# Density = 2.191776 g / cm^3
# Si number density = 21.967761 Si / 1000 Ang^3
#
#
#
# Elastic Constant Matrix: (Units=GPa)
#
#
# Indices 1 2 3 4 5 6 
#
# 1 210.9186 34.7249 4.9871 4.8479 -29.4023 -7.3575
# 2 34.7249 37.1374 -14.4240 -6.6609 -9.8489 -4.7477
# 3 4.9871 -14.4240 42.3895 4.8878 -8.8597 -3.5418
# 4 4.8479 -6.6609 4.8878 36.6186 5.5656 -6.7671
# 5 -29.4023 -9.8489 -8.8597 5.5656 48.2257 -0.8762
# 6 -7.3575 -4.7477 -3.5418 -6.7671 -0.8762 25.1800
#
#
#
# Elastic Compliance Matrix: (Units=1/GPa)
#
#
# Indices 1 2 3 4 5 6 
#
# 1 0.006221 -0.006474 -0.002230 -0.002090 0.002299 -0.000198
# 2 -0.006474 0.044703 0.017672 0.007541 0.007764 0.011320
# 3 -0.002230 0.017672 0.032319 -0.000728 0.008404 0.007323
# 4 -0.002090 0.007541 -0.000728 0.031217 -0.003307 0.008983
# 5 0.002299 0.007764 0.008404 -0.003307 0.025709 0.003324
# 6 -0.000198 0.011320 0.007323 0.008983 0.003324 0.045351
#
#
# Mechanical properties :
#
#
# Convention : Reuss Voigt Hill
#
# Bulk Modulus (GPa) = 9.88346 37.89127 23.88737
# Shear Modulus (GPa) = 24.83743 39.68202 32.25972
#
# Velocity S-wave (km/s) = 3.36613 4.25476 3.83626
# Velocity P-wave (km/s) = 4.42907 6.43609 5.52449
#
# Compressibility (1/GPa) = 0.10117916
#
# Stress axis : x y z
#
# Youngs Moduli (GPa) = 160.73898 22.37001 30.94190
#
# Poissons Ratio (x) = 0.14482 0.06900
# Poissons Ratio (y) = 1.04057 -0.54680
# Poissons Ratio (z) = 0.35843 -0.39532
#
# Static dielectric constant tensor:
#      x y z
#    x 1.803820 0.008750 0.009870 
#    y 0.008750 1.806940 0.008590 
#    z 0.009870 0.008590 1.799060 
# 
# From -- ./inp_files/617668.got.cif
#   From: 2010.05.17/outbox.ucp.g08.bks.cvg/sg2_309_cif.got.tgz:617668.got - 2010.06.11 11:32:03.
