data_PCOD9073816
_publ_section_title
;
Structure prediction by ZEFSAII (Michael W. Deem and Ramdas Pophale) SiO2 
 PCOD9073816
Probable space group: P -1
;
_chemical_formula_sum "Si O2"
_cell_formula_units_Z 14
_cell_length_a 19.624831
_cell_length_b 18.399235
_cell_length_c 6.794088
_cell_angle_alpha 41.278056
_cell_angle_beta 50.808161
_cell_angle_gamma 23.252690
_cell_volume 622.576143
_symmetry_space_group_name_H-M "P -1"
_symmetry_group_IT_number 2
_symmetry_cell_setting 'triclinic'
loop_
_space_group_symop_operation_xyz
x,y,z
-x,-y,-z
loop_
_atom_site_type_symbol
_atom_site_label
_atom_site_fract_x
_atom_site_fract_y
_atom_site_fract_z
Si Si1 0.203939 0.491437 0.362063
Si Si2 0.495101 0.882037 0.162254
Si Si3 0.488165 0.867795 0.737813
Si Si4 0.765441 0.004092 0.687316
Si Si5 0.461705 0.424095 0.631922
Si Si6 0.891609 0.704203 0.413390
Si Si7 0.927331 0.186395 0.365273
O O1 0.334793 0.367555 0.555583
O O2 0.338650 0.283382 0.387553
O O3 0.036919 0.598464 0.506930
O O4 0.130093 0.671832 0.000625
O O5 0.318627 0.000186 0.288032
O O6 0.509070 0.868664 0.928510
O O7 0.500000 0.000000 0.000000
O O8 0.297530 0.122037 0.504676
O O9 0.491136 0.730748 0.995285
O O10 0.593547 0.261753 0.539894
O O11 0.929128 0.909856 0.558802
O O12 0.832502 0.861421 0.044267
O O13 0.500000 0.500000 0.500000
O O14 0.252305 0.642919 0.535771
O O15 0.000000 0.500000 0.500000
O O16 0.000000 0.000000 0.500000
#
# Coordination Sequence:
#
# PCOD9073816 Si02
#       7
#     2   2   2   2   2   2   2
#     4  10  20  36  57  81 111 147 190 229 276 338
#     4  10  20  36  58  82 114 151 187 233 280 326
#     4   9  21  36  54  81 113 145 185 233 278 333
#     4   9  19  33  50  79 114 141 182 232 271 333
#     4   9  15  29  55  76 102 141 178 221 277 321
#     4   9  17  31  52  78 106 141 186 228 269 325
#     4  10  18  31  57  84 106 148 186 224 286 330
#
# _framework density 22.487207999999999
#
# number of rings (size 3 to 8) (size 9 to 14) (size 15 to 20)
#    0.000    2.857    1.429    1.714    0.000    2.286 
#    0.000    7.857    0.000   34.286    0.000    0.000 
#    0.000    0.000    0.000    0.000    0.000    0.000 
#
# Total GULP energy -77964.692252 kJ/mol
# GULP energy per Si atom -5568.906589 kJ/mol
# Density = 2.243603 g / cm^3
# Si number density = 22.487208 Si / 1000 Ang^3
#
#
#
# Elastic Constant Matrix: (Units=GPa)
#
#
# Indices 1 2 3 4 5 6 
#
# 1 143.2797 62.7916 42.1136 -11.1480 -14.6844 -34.4831
# 2 62.7916 158.9686 34.0206 -32.5394 -4.9075 -35.8723
# 3 42.1136 34.0206 55.2586 -21.9717 -8.4229 -6.2503
# 4 -11.1480 -32.5394 -21.9717 30.8251 1.9056 3.6048
# 5 -14.6844 -4.9075 -8.4229 1.9056 43.4290 -4.7069
# 6 -34.4831 -35.8723 -6.2503 3.6048 -4.7069 55.1921
#
#
#
# Elastic Compliance Matrix: (Units=1/GPa)
#
#
# Indices 1 2 3 4 5 6 
#
# 1 0.011764 -0.002666 -0.008425 -0.005356 0.002847 0.005256
# 2 -0.002666 0.010264 -0.000038 0.009307 0.000322 0.004421
# 3 -0.008425 -0.000038 0.032691 0.020391 0.002297 -0.002722
# 4 -0.005356 0.009307 0.020391 0.054625 0.000964 0.001527
# 5 0.002847 0.000322 0.002297 0.000964 0.024895 0.004308
# 6 0.005256 0.004421 -0.002722 0.001527 0.004308 0.024235
#
#
# Mechanical properties :
#
#
# Convention : Reuss Voigt Hill
#
# Bulk Modulus (GPa) = 30.80586 70.59542 50.70064
# Shear Modulus (GPa) = 26.10221 40.46131 33.28176
#
# Velocity S-wave (km/s) = 3.41069 4.24642 3.85129
# Velocity P-wave (km/s) = 5.40735 7.45014 6.50938
#
# Compressibility (1/GPa) = 0.03246136
#
# Stress axis : x y z
#
# Youngs Moduli (GPa) = 85.00386 97.42444 30.58914
#
# Poissons Ratio (x) = 0.25974 0.25773
# Poissons Ratio (y) = 0.22663 0.00115
# Poissons Ratio (z) = 0.71620 0.00367
#
# Static dielectric constant tensor:
#      x y z
#    x 1.898440 -0.039840 -0.017830 
#    y -0.039840 1.939840 0.036960 
#    z -0.017830 0.036960 1.862430 
# 
# From -- ./inp_files/349407.got.cif
#   From: 2010.05.17/outbox.cif.g08.bks.cpg/sg2_175_cif.got.tgz:349407.got - 2010.06.03 11:33:40.
