data_PCOD9073183
_publ_section_title
;
Structure prediction by ZEFSAII (Michael W. Deem and Ramdas Pophale) SiO2 
 PCOD9073183
Probable space group: P -1
;
_chemical_formula_sum "Si O2"
_cell_formula_units_Z 16
_cell_length_a 12.000000
_cell_length_b 9.000000
_cell_length_c 9.000000
_cell_angle_alpha 70.000000
_cell_angle_beta 60.000000
_cell_angle_gamma 60.000000
_cell_volume 723.492119
_symmetry_space_group_name_H-M "P -1"
_symmetry_group_IT_number 2
_symmetry_cell_setting 'triclinic'
loop_
_space_group_symop_operation_xyz
x,y,z
-x,-y,-z
loop_
_atom_site_type_symbol
_atom_site_label
_atom_site_fract_x
_atom_site_fract_y
_atom_site_fract_z
Si Si1 0.795773 0.535984 0.612371
Si Si2 0.498485 0.330912 0.401936
Si Si3 0.663480 0.059828 0.151689
Si Si4 0.374363 0.205376 0.118749
Si Si5 0.208529 0.989355 0.358468
Si Si6 0.856287 0.827234 0.335594
Si Si7 0.883263 0.145803 0.781724
Si Si8 0.508521 0.305091 0.717196
O O1 0.651186 0.594057 0.599980
O O2 0.737316 0.630854 0.775616
O O3 0.880465 0.632575 0.436669
O O4 0.856367 0.332365 0.664310
O O5 0.614266 0.191837 0.275182
O O6 0.482222 0.246789 0.594216
O O7 0.542035 0.490891 0.330982
O O8 0.514412 0.096421 0.158844
O O9 0.754290 0.885211 0.240931
O O10 0.757128 0.125448 0.961105
O O11 0.290875 0.087819 0.184703
O O12 0.430448 0.262173 0.917167
O O13 0.087870 0.989990 0.326728
O O14 0.323011 0.791713 0.349556
O O15 0.188483 0.067674 0.511491
O O16 0.988621 0.871111 0.191625
#
# Coordination Sequence:
#
# PCOD9073183 Si02
#       8
#     2   2   2   2   2   2   2   2
#     4  10  22  40  60  86 114 151 194 240 286 338
#     4  10  21  34  61  88 117 147 185 245 294 340
#     4  11  22  38  61  87 119 146 195 238 290 339
#     4  10  22  36  62  89 116 145 186 244 298 337
#     4  11  22  38  59  85 116 149 192 236 287 339
#     4  11  25  40  58  84 118 159 194 233 277 341
#     4  12  23  41  61  82 117 159 197 230 279 344
#     4  11  19  35  56  91 120 145 183 231 304 346
#
# _framework density 22.114961000000001
#
# number of rings (size 3 to 8) (size 9 to 14) (size 15 to 20)
#    0.000    1.250    3.750    2.250    1.750    3.500 
#    0.000    0.000    0.000    0.000    0.000   12.250 
#    0.000    0.000    0.000    0.000    0.000    0.000 
#
# Total GULP energy -89121.002740 kJ/mol
# GULP energy per Si atom -5570.062671 kJ/mol
# Density = 2.206463 g / cm^3
# Si number density = 22.114961 Si / 1000 Ang^3
#
#
#
# Elastic Constant Matrix: (Units=GPa)
#
#
# Indices 1 2 3 4 5 6 
#
# 1 37.8750 26.9230 21.0911 -3.4076 -15.0404 15.6975
# 2 26.9230 40.5725 25.0264 -29.2841 2.5505 22.4494
# 3 21.0911 25.0264 17.0431 -25.0391 11.9684 23.7195
# 4 -3.4076 -29.2841 -25.0391 23.8528 -0.8135 3.8534
# 5 -15.0404 2.5505 11.9684 -0.8135 26.8885 -7.7914
# 6 15.6975 22.4494 23.7195 3.8534 -7.7914 18.8453
#
#
#
# Elastic Compliance Matrix: (Units=1/GPa)
#
#
# Indices 1 2 3 4 5 6 
#
# 1 0.053019 -0.024237 0.020229 0.005407 0.012482 -0.036697
# 2 -0.024237 0.198459 -0.161267 0.074251 0.037955 -0.012737
# 3 0.020229 -0.161267 0.117446 -0.078255 -0.017548 0.036182
# 4 0.005407 0.074251 -0.078255 0.051361 0.035139 0.009566
# 5 0.012482 0.037955 -0.017548 0.035139 0.042774 -0.023026
# 6 -0.036697 -0.012737 0.036182 0.009566 -0.023026 0.041788
#
#
# Mechanical properties :
#
#
# Convention : Reuss Voigt Hill
#
# Bulk Modulus (GPa) = 26.05991 26.84128 26.45059
# Shear Modulus (GPa) = 5.89491 15.41398 10.65444
#
# Velocity S-wave (km/s) = 1.63443 2.64293 2.19732
# Velocity P-wave (km/s) = 3.92062 4.63432 4.29233
#
# Compressibility (1/GPa) = 0.03837312
#
# Stress axis : x y z
#
# Youngs Moduli (GPa) = 18.86111 5.03882 8.51452
#
# Poissons Ratio (x) = 0.12213 -0.17224
# Poissons Ratio (y) = 0.45714 1.37311
# Poissons Ratio (z) = -0.38154 0.81260
#
# Static dielectric constant tensor:
#      x y z
#    x 1.905180 -0.018070 0.013230 
#    y -0.018070 1.874830 0.017620 
#    z 0.013230 0.017620 1.821070 
# 
# From -- ./inp_files/186506.got.cif
#   From: 2010.05.17/outbox.ucp.g08.bks.cvg/sg2_94_cif.got.tgz:186506.got - 2010.06.11 11:32:03.
