data_PCOD9073008
_publ_section_title
;
Structure prediction by ZEFSAII (Michael W. Deem and Ramdas Pophale) SiO2 
 PCOD9073008
Probable space group: P -1
;
_chemical_formula_sum "Si O2"
_cell_formula_units_Z 16
_cell_length_a 9.000000
_cell_length_b 18.000000
_cell_length_c 12.000000
_cell_angle_alpha 120.000000
_cell_angle_beta 130.000000
_cell_angle_gamma 100.000000
_cell_volume 858.560513
_symmetry_space_group_name_H-M "P -1"
_symmetry_group_IT_number 2
_symmetry_cell_setting 'triclinic'
loop_
_space_group_symop_operation_xyz
x,y,z
-x,-y,-z
loop_
_atom_site_type_symbol
_atom_site_label
_atom_site_fract_x
_atom_site_fract_y
_atom_site_fract_z
Si Si1 0.838576 0.843761 0.551285
Si Si2 0.852016 0.224031 0.285246
Si Si3 0.337489 0.587217 0.252027
Si Si4 0.270642 0.131627 0.957066
Si Si5 0.434709 0.261781 0.898094
Si Si6 0.424837 0.495728 0.833449
Si Si7 0.446646 0.359295 0.346135
Si Si8 0.974449 0.645396 0.766734
O O1 0.552640 0.726193 0.398392
O O2 0.765071 0.805107 0.357220
O O3 0.068736 0.846183 0.697794
O O4 0.977233 0.983612 0.735071
O O5 0.082641 0.364027 0.558952
O O6 0.929464 0.265114 0.224180
O O7 0.533673 0.150313 0.106976
O O8 0.415489 0.520944 0.182290
O O9 0.424751 0.611486 0.443638
O O10 0.000000 0.500000 0.000000
O O11 0.290006 0.167771 0.864185
O O12 0.340635 0.236504 0.146949
O O13 0.501162 0.380891 0.057026
O O14 0.734808 0.314118 0.042381
O O15 0.500000 0.500000 0.000000
O O16 0.711148 0.490942 0.503945
O O17 0.178607 0.338920 0.209535
#
# Coordination Sequence:
#
# PCOD9073008 Si02
#       8
#     2   2   2   2   2   2   2   2
#     4  11  22  43  60  89 125 159 206 251 292 365
#     4  10  20  40  61  92 117 157 203 255 296 351
#     4  11  24  40  64  92 125 156 196 257 313 351
#     4  11  25  37  65  88 122 168 203 237 308 363
#     4  11  22  40  65  88 120 157 206 258 297 350
#     4  11  20  37  64  93 118 146 206 256 299 343
#     4  11  22  39  60  90 129 157 199 247 302 371
#     4  10  21  39  61  89 122 156 198 255 306 345
#
# _framework density 18.635843999999999
#
# number of rings (size 3 to 8) (size 9 to 14) (size 15 to 20)
#    0.000    1.250    5.000    3.000    3.500    2.500 
#    0.000    0.625    2.750    0.000    0.000    0.000 
#    0.000    0.000    0.000    0.000    0.000    0.000 
#
# Total GULP energy -89303.662620 kJ/mol
# GULP energy per Si atom -5581.478914 kJ/mol
# Density = 1.859343 g / cm^3
# Si number density = 18.635844 Si / 1000 Ang^3
#
#
#
# Elastic Constant Matrix: (Units=GPa)
#
#
# Indices 1 2 3 4 5 6 
#
# 1 84.0795 44.3956 35.8105 9.0942 2.0976 -0.5536
# 2 44.3956 111.8302 51.0421 14.3067 0.9598 -12.5381
# 3 35.8105 51.0421 53.2504 19.3648 -2.2169 1.8263
# 4 9.0942 14.3067 19.3648 38.0178 0.0036 -7.8918
# 5 2.0976 0.9598 -2.2169 0.0036 32.7136 -0.3382
# 6 -0.5536 -12.5381 1.8263 -7.8918 -0.3382 21.1879
#
#
#
# Elastic Compliance Matrix: (Units=1/GPa)
#
#
# Indices 1 2 3 4 5 6 
#
# 1 0.017330 -0.002395 -0.010216 0.002099 -0.001727 0.000670
# 2 -0.002395 0.020628 -0.021412 0.007169 -0.001731 0.016633
# 3 -0.010216 -0.021412 0.055783 -0.023389 0.004793 -0.026381
# 4 0.002099 0.007169 -0.023389 0.039365 -0.001718 0.020948
# 5 -0.001727 -0.001731 0.004793 -0.001718 0.031038 -0.001627
# 6 0.000670 0.016633 -0.026381 0.020948 -0.001627 0.067107
#
#
# Mechanical properties :
#
#
# Convention : Reuss Voigt Hill
#
# Bulk Modulus (GPa) = 38.91874 56.85073 47.88474
# Shear Modulus (GPa) = 16.24092 26.24468 21.24280
#
# Velocity S-wave (km/s) = 2.95530 3.75679 3.37989
# Velocity P-wave (km/s) = 5.70738 7.02782 6.40174
#
# Compressibility (1/GPa) = 0.02569456
#
# Stress axis : x y z
#
# Youngs Moduli (GPa) = 57.70307 48.47689 17.92654
#
# Poissons Ratio (x) = 0.11612 0.18315
# Poissons Ratio (y) = 0.13822 0.38384
# Poissons Ratio (z) = 0.58952 1.03797
#
# Static dielectric constant tensor:
#      x y z
#    x 1.636190 0.014270 -0.019320 
#    y 0.014270 1.683040 -0.048710 
#    z -0.019320 -0.048710 1.697190 
# 
# From -- ./inp_files/256628.got.cif
#   From: 2010.05.17/outbox.ucp.g08.bks.cvg/sg2_129_cif.got.tgz:256628.got - 2010.06.11 11:32:03.
