data_PCOD9073031
_publ_section_title
;
Structure prediction by ZEFSAII (Michael W. Deem and Ramdas Pophale) SiO2 
 PCOD9073031
Probable space group: P -1
;
_chemical_formula_sum "Si O2"
_cell_formula_units_Z 16
_cell_length_a 11.035407
_cell_length_b 11.762988
_cell_length_c 11.400539
_cell_angle_alpha 132.233393
_cell_angle_beta 65.752181
_cell_angle_gamma 132.476953
_cell_volume 805.623489
_symmetry_space_group_name_H-M "P -1"
_symmetry_group_IT_number 2
_symmetry_cell_setting 'triclinic'
loop_
_space_group_symop_operation_xyz
x,y,z
-x,-y,-z
loop_
_atom_site_type_symbol
_atom_site_label
_atom_site_fract_x
_atom_site_fract_y
_atom_site_fract_z
Si Si1 0.884998 0.792328 0.844735
Si Si2 0.101389 0.547019 0.110509
Si Si3 0.051498 0.052843 0.320577
Si Si4 0.735806 0.229357 0.468603
Si Si5 0.260078 0.336793 0.945831
Si Si6 0.943305 0.410137 0.314351
Si Si7 0.179419 0.943129 0.401211
Si Si8 0.433312 0.187851 0.662316
O O1 0.852257 0.809214 0.733228
O O2 0.987508 0.706012 0.750557
O O3 0.747191 0.681907 0.923238
O O4 0.000000 0.000000 0.000000
O O5 0.960561 0.419484 0.175594
O O6 0.188616 0.767537 0.258261
O O7 0.229269 0.492218 0.028020
O O8 0.000000 0.500000 0.000000
O O9 0.971589 0.115654 0.491032
O O10 0.151209 0.004826 0.330510
O O11 0.899636 0.858383 0.184928
O O12 0.918555 0.373678 0.549483
O O13 0.616471 0.258152 0.609519
O O14 0.768631 0.306720 0.376052
O O15 0.658812 0.007736 0.359434
O O16 0.406003 0.332420 0.833392
O O17 0.337796 0.114387 0.525306
#
# Coordination Sequence:
#
# PCOD9073031 Si02
#       8
#     2   2   2   2   2   2   2   2
#     4   9  17  30  52  81 114 138 175 229 281 315
#     4  11  20  33  53  86 115 144 182 232 276 322
#     4   9  17  29  51  81 106 145 188 228 260 325
#     4  10  20  35  60  83 109 142 186 239 272 323
#     4   9  18  32  52  80 112 144 179 224 275 331
#     4  10  20  34  58  87 106 137 191 236 269 323
#     4  10  18  31  52  80 110 147 189 221 270 337
#     4  10  20  37  57  81 114 149 183 223 285 332
#
# _framework density 19.860392999999998
#
# number of rings (size 3 to 8) (size 9 to 14) (size 15 to 20)
#    0.000    2.250    2.500    2.250    1.750    0.000 
#    0.000    2.500    2.750    5.250    0.000    0.000 
#    0.000    0.000    0.000    0.000    0.000    0.000 
#
# Total GULP energy -89192.990748 kJ/mol
# GULP energy per Si atom -5574.561922 kJ/mol
# Density = 1.981519 g / cm^3
# Si number density = 19.860393 Si / 1000 Ang^3
#
#
#
# Elastic Constant Matrix: (Units=GPa)
#
#
# Indices 1 2 3 4 5 6 
#
# 1 77.0492 60.5181 47.5140 -22.2909 -9.8901 -26.8503
# 2 60.5181 102.4118 55.0509 -20.0212 -1.9416 -14.7273
# 3 47.5140 55.0509 124.3336 -14.4953 -17.9583 -19.9022
# 4 -22.2909 -20.0212 -14.4953 34.8407 -14.8752 7.5779
# 5 -9.8901 -1.9416 -17.9583 -14.8752 39.1734 -4.0495
# 6 -26.8503 -14.7273 -19.9022 7.5779 -4.0495 35.5517
#
#
#
# Elastic Compliance Matrix: (Units=1/GPa)
#
#
# Indices 1 2 3 4 5 6 
#
# 1 0.044883 -0.018652 0.000733 0.022289 0.021719 0.024304
# 2 -0.018652 0.021654 -0.005395 -0.003457 -0.008284 -0.008344
# 3 0.000733 -0.005395 0.012786 0.005048 0.008248 0.005340
# 4 0.022289 -0.003457 0.005048 0.053264 0.029049 0.010183
# 5 0.021719 -0.008284 0.008248 0.029049 0.047145 0.016767
# 6 0.024304 -0.008344 0.005340 0.010183 0.016767 0.045756
#
#
# Mechanical properties :
#
#
# Convention : Reuss Voigt Hill
#
# Bulk Modulus (GPa) = 30.58653 69.99564 50.29109
# Shear Modulus (GPa) = 17.66683 31.29393 24.48038
#
# Velocity S-wave (km/s) = 2.98577 3.97381 3.51468
# Velocity P-wave (km/s) = 5.22691 7.50834 6.46900
#
# Compressibility (1/GPa) = 0.03269413
#
# Stress axis : x y z
#
# Youngs Moduli (GPa) = 22.27991 46.18097 78.20922
#
# Poissons Ratio (x) = 0.86139 -0.05729
# Poissons Ratio (y) = 0.41557 0.42193
# Poissons Ratio (z) = -0.01632 0.24914
#
# Static dielectric constant tensor:
#      x y z
#    x 1.708610 0.002590 0.015570 
#    y 0.002590 1.733900 -0.069570 
#    z 0.015570 -0.069570 1.712330 
# 
# From -- ./inp_files/428900.got.cif
#   From: 2010.05.17/outbox.cif.g08.bks.cpg/sg2_215_cif.got.tgz:428900.got - 2010.06.03 11:33:40.
