data_PCOD9073246
_publ_section_title
;
Structure prediction by ZEFSAII (Michael W. Deem and Ramdas Pophale) SiO2 
 PCOD9073246
Probable space group: P -1
;
_chemical_formula_sum "Si O2"
_cell_formula_units_Z 16
_cell_length_a 12.000000
_cell_length_b 9.000000
_cell_length_c 18.000000
_cell_angle_alpha 50.000000
_cell_angle_beta 40.000000
_cell_angle_gamma 80.000000
_cell_volume 729.599496
_symmetry_space_group_name_H-M "P -1"
_symmetry_group_IT_number 2
_symmetry_cell_setting 'triclinic'
loop_
_space_group_symop_operation_xyz
x,y,z
-x,-y,-z
loop_
_atom_site_type_symbol
_atom_site_label
_atom_site_fract_x
_atom_site_fract_y
_atom_site_fract_z
Si Si1 0.466235 0.258515 0.495603
Si Si2 0.786923 0.964816 0.775081
Si Si3 0.210160 0.427755 0.492694
Si Si4 0.838938 0.319885 0.205445
Si Si5 0.597358 0.187564 0.599508
Si Si6 0.347944 0.827950 0.966553
Si Si7 0.984200 0.250231 0.306637
Si Si8 0.563369 0.848602 0.061642
O O1 0.312070 0.308890 0.518504
O O2 0.700869 0.400536 0.284974
O O3 0.529802 0.300486 0.536989
O O4 0.336422 0.961265 0.648163
O O5 0.597408 0.928238 0.832455
O O6 0.933372 0.909273 0.677112
O O7 0.654419 0.776163 0.974015
O O8 0.964199 0.227716 0.645218
O O9 0.243640 0.608021 0.482773
O O10 0.367049 0.605384 0.286528
O O11 0.962230 0.298458 0.216707
O O12 0.000000 0.500000 0.000000
O O13 0.741398 0.124749 0.506085
O O14 0.382171 0.943460 0.830851
O O15 0.277577 0.949710 0.019397
O O16 0.172283 0.527571 0.156179
O O17 0.500000 0.000000 0.000000
#
# Coordination Sequence:
#
# PCOD9073246 Si02
#       8
#     2   2   2   2   2   2   2   2
#     4  10  21  38  60  91 118 152 202 241 294 358
#     4  11  23  38  61  91 118 156 204 246 294 357
#     4  11  22  39  64  90 120 158 199 246 296 354
#     4  10  21  37  60  86 123 158 189 245 302 349
#     4  10  23  40  60  86 122 158 195 246 299 352
#     4  10  22  40  60  84 120 161 198 244 299 347
#     4  11  22  38  58  88 120 156 199 247 296 352
#     4   9  22  40  60  86 118 158 201 245 293 349
#
# _framework density 21.929839999999999
#
# number of rings (size 3 to 8) (size 9 to 14) (size 15 to 20)
#    0.000    1.750    1.250    2.250    1.750    8.000 
#    0.000    0.000    0.000    8.250    0.000    0.000 
#    0.000    0.000    0.000    0.000    0.000    0.000 
#
# Total GULP energy -89246.456815 kJ/mol
# GULP energy per Si atom -5577.903551 kJ/mol
# Density = 2.187993 g / cm^3
# Si number density = 21.929840 Si / 1000 Ang^3
#
#
#
# Elastic Constant Matrix: (Units=GPa)
#
#
# Indices 1 2 3 4 5 6 
#
# 1 65.2237 1.3306 17.6406 9.8125 0.8797 10.4007
# 2 1.3306 40.8762 7.9761 10.4589 9.3635 -5.9541
# 3 17.6406 7.9761 59.4757 2.0949 17.9361 14.2896
# 4 9.8125 10.4589 2.0949 22.2778 13.9234 -6.9294
# 5 0.8797 9.3635 17.9361 13.9234 37.1605 5.6043
# 6 10.4007 -5.9541 14.2896 -6.9294 5.6043 26.7079
#
#
#
# Elastic Compliance Matrix: (Units=1/GPa)
#
#
# Indices 1 2 3 4 5 6 
#
# 1 0.022261 0.001365 -0.006633 -0.021622 0.012396 -0.013027
# 2 0.001365 0.029509 -0.004884 -0.010776 -0.002021 0.006288
# 3 -0.006633 -0.004884 0.024585 0.008796 -0.012764 -0.006699
# 4 -0.021622 -0.010776 0.008796 0.095973 -0.042269 0.035081
# 5 0.012396 -0.002021 -0.012764 -0.042269 0.052196 -0.020368
# 6 -0.013027 0.006288 -0.006699 0.035081 -0.020368 0.060877
#
#
# Mechanical properties :
#
#
# Convention : Reuss Voigt Hill
#
# Bulk Modulus (GPa) = 17.84088 24.38557 21.11322
# Shear Modulus (GPa) = 15.41365 26.47113 20.94239
#
# Velocity S-wave (km/s) = 2.65403 3.47808 3.09362
# Velocity P-wave (km/s) = 4.18867 5.22239 4.73383
#
# Compressibility (1/GPa) = 0.05605105
#
# Stress axis : x y z
#
# Youngs Moduli (GPa) = 44.92184 33.88805 40.67572
#
# Poissons Ratio (x) = -0.04624 0.26978
# Poissons Ratio (y) = -0.06130 0.19865
# Poissons Ratio (z) = 0.29795 0.16550
#
# Static dielectric constant tensor:
#      x y z
#    x 1.782630 0.025190 -0.011540 
#    y 0.025190 1.887340 0.024450 
#    z -0.011540 0.024450 1.846960 
# 
# From -- ./inp_files/68558.got.cif
#   From: 2010.05.17/outbox.ucp.g08.bks.cvg/sg2_35_cif.got.tgz:68558.got - 2010.06.11 11:32:03.
