data_PCOD9073144
_publ_section_title
;
Structure prediction by ZEFSAII (Michael W. Deem and Ramdas Pophale) SiO2 
 PCOD9073144
Probable space group: P -1
;
_chemical_formula_sum "Si O2"
_cell_formula_units_Z 16
_cell_length_a 15.000000
_cell_length_b 15.000000
_cell_length_c 15.000000
_cell_angle_alpha 150.000000
_cell_angle_beta 50.000000
_cell_angle_gamma 150.000000
_cell_volume 762.223433
_symmetry_space_group_name_H-M "P -1"
_symmetry_group_IT_number 2
_symmetry_cell_setting 'triclinic'
loop_
_space_group_symop_operation_xyz
x,y,z
-x,-y,-z
loop_
_atom_site_type_symbol
_atom_site_label
_atom_site_fract_x
_atom_site_fract_y
_atom_site_fract_z
Si Si1 0.631138 0.579094 0.066281
Si Si2 0.995060 0.284001 0.793149
Si Si3 0.688976 0.609678 0.479764
Si Si4 0.279910 0.113280 0.541903
Si Si5 0.674026 0.424728 0.521129
Si Si6 0.296584 0.941472 0.836623
Si Si7 0.408090 0.653314 0.858452
Si Si8 0.026622 0.942656 0.028528
O O1 0.717015 0.823324 0.299763
O O2 0.824172 0.719413 0.021862
O O3 0.500000 0.500000 0.000000
O O4 0.473094 0.255250 0.938208
O O5 0.208485 0.498171 0.882491
O O6 0.861953 0.962160 0.646265
O O7 0.915325 0.164479 0.635995
O O8 0.000000 0.500000 0.000000
O O9 0.500000 0.500000 0.500000
O O10 0.715128 0.545825 0.500458
O O11 0.626392 0.376958 0.250293
O O12 0.440739 0.156118 0.460743
O O13 0.381145 0.411446 0.689356
O O14 0.742758 0.306253 0.387534
O O15 0.795761 0.719131 0.753553
O O16 0.111349 0.846363 0.880374
O O17 0.394134 0.038798 0.956306
O O18 0.000000 0.000000 0.000000
#
# Coordination Sequence:
#
# PCOD9073144 Si02
#       8
#     2   2   2   2   2   2   2   2
#     4  11  23  48  77  99 137 187 229 296 369 420
#     4  11  23  40  62  98 141 186 242 288 337 425
#     4  11  21  40  63  91 131 187 227 276 351 392
#     4  10  20  43  65  97 141 188 230 293 354 411
#     4  12  24  44  71 100 148 181 235 302 343 421
#     4  11  25  48  69 108 141 185 238 290 357 428
#     4  10  21  40  63  91 143 179 230 282 338 413
#     4  12  25  50  75 101 141 180 233 302 361 426
#
# _framework density 20.991219999999998
#
# number of rings (size 3 to 8) (size 9 to 14) (size 15 to 20)
#    0.000    1.000    6.250    2.250    5.250    1.000 
#    4.500    1.250    0.000    0.000    0.000    0.000 
#    0.000    0.000    0.000    0.000    0.000    0.000 
#
# Total GULP energy -89126.039852 kJ/mol
# GULP energy per Si atom -5570.377491 kJ/mol
# Density = 2.094344 g / cm^3
# Si number density = 20.991220 Si / 1000 Ang^3
#
#
#
# Elastic Constant Matrix: (Units=GPa)
#
#
# Indices 1 2 3 4 5 6 
#
# 1 118.6097 42.2751 27.4346 -13.9268 0.7351 8.6632
# 2 42.2751 90.9504 2.9168 -14.2240 -10.7820 15.0601
# 3 27.4346 2.9168 41.7416 -17.7465 -16.5759 -5.7158
# 4 -13.9268 -14.2240 -17.7465 20.0580 3.7449 4.9349
# 5 0.7351 -10.7820 -16.5759 3.7449 43.6509 -14.5439
# 6 8.6632 15.0601 -5.7158 4.9349 -14.5439 48.1498
#
#
#
# Elastic Compliance Matrix: (Units=1/GPa)
#
#
# Indices 1 2 3 4 5 6 
#
# 1 0.014397 -0.007638 -0.015974 -0.006869 -0.008973 -0.004104
# 2 -0.007638 0.018588 0.015289 0.020480 0.008000 -0.002307
# 3 -0.015974 0.015289 0.068452 0.052624 0.028686 0.009489
# 4 -0.006869 0.020480 0.052624 0.104788 0.014397 -0.005314
# 5 -0.008973 0.008000 0.028686 0.014397 0.038963 0.012811
# 6 -0.004104 -0.002307 0.009489 -0.005314 0.012811 0.027769
#
#
# Mechanical properties :
#
#
# Convention : Reuss Voigt Hill
#
# Bulk Modulus (GPa) = 11.79369 44.06162 27.92766
# Shear Modulus (GPa) = 15.72979 34.28343 25.00661
#
# Velocity S-wave (km/s) = 2.74040 4.04570 3.45525
# Velocity P-wave (km/s) = 3.95520 6.54673 5.40848
#
# Compressibility (1/GPa) = 0.08479107
#
# Stress axis : x y z
#
# Youngs Moduli (GPa) = 69.45792 53.79717 14.60879
#
# Poissons Ratio (x) = 0.41091 0.23337
# Poissons Ratio (y) = 0.53053 -0.22336
# Poissons Ratio (z) = 1.10955 -0.82252
#
# Static dielectric constant tensor:
#      x y z
#    x 1.689150 -0.024520 0.086650 
#    y -0.024520 1.775820 -0.026710 
#    z 0.086650 -0.026710 1.741010 
# 
# From -- ./inp_files/534500.got.cif
#   From: 2010.05.17/outbox.ucp.g08.bks.cvg/sg2_268_cif.got.tgz:534500.got - 2010.06.11 11:32:03.
