data_PCOD9073643
_publ_section_title
;
Structure prediction by ZEFSAII (Michael W. Deem and Ramdas Pophale) SiO2 
 PCOD9073643
Probable space group: P -1
;
_chemical_formula_sum "Si O2"
_cell_formula_units_Z 14
_cell_length_a 9.000000
_cell_length_b 15.000000
_cell_length_c 12.000000
_cell_angle_alpha 30.000000
_cell_angle_beta 50.000000
_cell_angle_gamma 60.000000
_cell_volume 613.666794
_symmetry_space_group_name_H-M "P -1"
_symmetry_group_IT_number 2
_symmetry_cell_setting 'triclinic'
loop_
_space_group_symop_operation_xyz
x,y,z
-x,-y,-z
loop_
_atom_site_type_symbol
_atom_site_label
_atom_site_fract_x
_atom_site_fract_y
_atom_site_fract_z
Si Si1 0.098890 0.316957 0.630806
Si Si2 0.915378 0.556796 0.864376
Si Si3 0.494584 0.549145 0.817332
Si Si4 0.435334 0.256927 0.959390
Si Si5 0.830507 0.953655 0.539327
Si Si6 0.820510 0.225256 0.673251
Si Si7 0.875855 0.851146 0.957093
O O1 0.300115 0.336784 0.440361
O O2 0.131483 0.244511 0.816787
O O3 0.000000 0.500000 0.500000
O O4 0.947667 0.196679 0.752464
O O5 0.844927 0.753501 0.701071
O O6 0.065011 0.606089 0.636050
O O7 0.724825 0.402968 0.120021
O O8 0.000000 0.500000 0.000000
O O9 0.500000 0.500000 0.000000
O O10 0.479041 0.412022 0.864564
O O11 0.372115 0.076399 0.261297
O O12 0.616365 0.260209 0.785557
O O13 0.252427 0.257456 0.961549
O O14 0.000000 0.000000 0.500000
O O15 0.901294 0.091858 0.256864
O O16 0.798156 0.043985 0.805820
#
# Coordination Sequence:
#
# PCOD9073643 Si02
#       7
#     2   2   2   2   2   2   2
#     4  12  25  43  65  94 135 175 217 266 323 392
#     4  10  22  38  66  93 126 167 213 263 317 381
#     4  11  23  44  62  91 138 172 209 270 331 383
#     4  10  21  41  69  96 126 168 222 271 319 388
#     4   8  18  40  59  86 128 156 204 263 317 366
#     4  11  22  42  66  97 135 169 217 266 328 387
#     4  10  23  42  68  93 130 171 215 273 326 381
#
# _framework density 22.813683000000001
#
# number of rings (size 3 to 8) (size 9 to 14) (size 15 to 20)
#    0.000    1.714    2.857    0.857    2.000    4.000 
#    0.000    0.714    0.000    0.000    0.000    0.000 
#    0.000    0.000    0.000    0.000    0.000    0.000 
#
# Total GULP energy -77942.818031 kJ/mol
# GULP energy per Si atom -5567.344145 kJ/mol
# Density = 2.276176 g / cm^3
# Si number density = 22.813683 Si / 1000 Ang^3
#
#
#
# Elastic Constant Matrix: (Units=GPa)
#
#
# Indices 1 2 3 4 5 6 
#
# 1 89.7097 -1.1749 21.8951 10.9610 10.9917 14.4707
# 2 -1.1749 110.4722 32.9945 25.7750 1.6188 7.3787
# 3 21.8951 32.9945 105.4209 58.5037 12.5575 -23.8678
# 4 10.9610 25.7750 58.5037 59.2363 11.7321 -11.5992
# 5 10.9917 1.6188 12.5575 11.7321 37.7507 11.8033
# 6 14.4707 7.3787 -23.8678 -11.5992 11.8033 41.9853
#
#
#
# Elastic Compliance Matrix: (Units=1/GPa)
#
#
# Indices 1 2 3 4 5 6 
#
# 1 0.013868 0.002340 -0.005802 0.000430 0.000302 -0.008455
# 2 0.002340 0.011570 -0.004325 -0.003310 0.003544 -0.007209
# 3 -0.005802 -0.004325 0.026787 -0.019703 -0.005301 0.014035
# 4 0.000430 -0.003310 -0.019703 0.039291 -0.006214 0.001835
# 5 0.000302 0.003544 -0.005301 -0.006214 0.034701 -0.015212
# 6 -0.008455 -0.007209 0.014035 0.001835 -0.015212 0.040761
#
#
# Mechanical properties :
#
#
# Convention : Reuss Voigt Hill
#
# Bulk Modulus (GPa) = 27.28288 45.89248 36.58768
# Shear Modulus (GPa) = 25.67144 44.58700 35.12922
#
# Velocity S-wave (km/s) = 3.35814 4.42565 3.92833
# Velocity P-wave (km/s) = 5.19818 6.80258 6.05377
#
# Compressibility (1/GPa) = 0.03665302
#
# Stress axis : x y z
#
# Youngs Moduli (GPa) = 72.10823 86.42691 37.33092
#
# Poissons Ratio (x) = -0.20226 0.21658
# Poissons Ratio (y) = -0.16875 0.16146
# Poissons Ratio (z) = 0.41834 0.37380
#
# Static dielectric constant tensor:
#      x y z
#    x 2.096400 0.046940 -0.064740 
#    y 0.046940 1.948990 -0.031260 
#    z -0.064740 -0.031260 1.925020 
# 
# From -- ./inp_files/174425.got.cif
#   From: 2010.05.17/outbox.ucp.g08.bks.cvg/sg2_88_cif.got.tgz:174425.got - 2010.06.11 11:32:03.
