data_PCOD9073903
_publ_section_title
;
Structure prediction by ZEFSAII (Michael W. Deem and Ramdas Pophale) SiO2 
 PCOD9073903
Probable space group: P -1
;
_chemical_formula_sum "Si O2"
_cell_formula_units_Z 16
_cell_length_a 15.000000
_cell_length_b 15.000000
_cell_length_c 15.000000
_cell_angle_alpha 130.000000
_cell_angle_beta 150.000000
_cell_angle_gamma 30.000000
_cell_volume 762.223433
_symmetry_space_group_name_H-M "P -1"
_symmetry_group_IT_number 2
_symmetry_cell_setting 'triclinic'
loop_
_space_group_symop_operation_xyz
x,y,z
-x,-y,-z
loop_
_atom_site_type_symbol
_atom_site_label
_atom_site_fract_x
_atom_site_fract_y
_atom_site_fract_z
Si Si1 0.280831 0.007650 0.809109
Si Si2 0.292196 0.660450 0.603162
Si Si3 0.715280 0.243543 0.763645
Si Si4 0.815953 0.090294 0.175154
Si Si5 0.719084 0.691441 0.491584
Si Si6 0.796396 0.545608 0.925353
Si Si7 0.337575 0.230977 0.717091
Si Si8 0.811115 0.799225 0.815200
O O1 0.155784 0.034918 0.814083
O O2 0.522250 0.779187 0.853401
O O3 0.013373 0.166139 0.607705
O O4 0.500000 0.000000 0.000000
O O5 0.417377 0.469183 0.616660
O O6 0.248113 0.763947 0.722162
O O7 0.582504 0.548077 0.722783
O O8 0.587746 0.220196 0.708321
O O9 0.875308 0.079776 0.722000
O O10 0.953316 0.214580 0.988243
O O11 0.554875 0.201203 0.946541
O O12 0.696847 0.746411 0.405923
O O13 0.749370 0.773849 0.648551
O O14 0.005552 0.452885 0.598698
O O15 0.000000 0.500000 0.000000
O O16 0.016496 0.387947 0.094779
O O17 0.505800 0.015787 0.734780
#
# Coordination Sequence:
#
# PCOD9073903 Si02
#       8
#     2   2   2   2   2   2   2   2
#     4  11  25  39  63  91 128 171 210 264 321 385
#     4  10  23  44  61  92 133 166 215 268 318 383
#     4  10  24  40  68  95 126 171 216 261 322 385
#     4  10  22  44  61  90 129 168 209 269 316 378
#     4  11  23  42  67  99 125 171 217 265 327 383
#     4  10  22  39  63  93 125 170 215 262 318 380
#     4  10  23  42  68  94 132 163 215 270 321 388
#     4  10  23  43  63  93 137 166 213 271 316 383
#
# _framework density 20.991219999999998
#
# number of rings (size 3 to 8) (size 9 to 14) (size 15 to 20)
#    0.000    1.750    0.000    4.125    8.750    5.500 
#    0.000    5.625    0.000    0.000    0.000    0.000 
#    0.000    0.000    0.000    0.000    0.000    0.000 
#
# Total GULP energy -89070.509284 kJ/mol
# GULP energy per Si atom -5566.906830 kJ/mol
# Density = 2.094344 g / cm^3
# Si number density = 20.991220 Si / 1000 Ang^3
#
#
#
# Elastic Constant Matrix: (Units=GPa)
#
#
# Indices 1 2 3 4 5 6 
#
# 1 47.3112 11.5804 35.4534 2.7042 4.5438 -15.1196
# 2 11.5804 36.5807 14.5579 -24.4523 13.1066 -27.3257
# 3 35.4534 14.5579 101.1071 -4.2923 -25.6611 -3.3036
# 4 2.7042 -24.4523 -4.2923 21.4098 5.8202 -6.8457
# 5 4.5438 13.1066 -25.6611 5.8202 24.6160 2.4267
# 6 -15.1196 -27.3257 -3.3036 -6.8457 2.4267 22.1216
#
#
#
# Elastic Compliance Matrix: (Units=1/GPa)
#
#
# Indices 1 2 3 4 5 6 
#
# 1 0.038953 -0.013832 -0.015304 -0.019981 -0.011282 0.002307
# 2 -0.013832 -0.005136 0.009554 -0.014628 0.020794 -0.021179
# 3 -0.015304 0.009554 0.017800 0.015594 0.011865 0.007524
# 4 -0.019981 -0.014628 0.015594 0.020467 0.025442 -0.025854
# 5 -0.011282 0.020794 0.011865 0.025442 0.035651 0.023709
# 6 0.002307 -0.021179 0.007524 -0.025854 0.023709 0.011142
#
#
# Mechanical properties :
#
#
# Convention : Reuss Voigt Hill
#
# Bulk Modulus (GPa) = 80.28979 34.24250 57.26615
# Shear Modulus (GPa) = 30.82765 21.85663 26.34214
#
# Velocity S-wave (km/s) = 3.83639 3.23031 3.54632
# Velocity P-wave (km/s) = 7.61289 5.50103 6.64144
#
# Compressibility (1/GPa) = 0.01245488
#
# Stress axis : x y z
#
# Youngs Moduli (GPa) = 25.67179 -194.70531 56.17857
#
# Poissons Ratio (x) = -2.69313 0.85975
# Poissons Ratio (y) = 0.35509 -0.53674
# Poissons Ratio (z) = 0.39288 1.86026
#
# Static dielectric constant tensor:
#      x y z
#    x 1.896630 -0.016940 0.072390 
#    y -0.016940 1.618410 -0.028220 
#    z 0.072390 -0.028220 1.742080 
# 
# From -- ./inp_files/534382.got.cif
#   From: 2010.05.17/outbox.ucp.g08.bks.cvg/sg2_268_cif.got.tgz:534382.got - 2010.06.11 11:32:03.
