data_PCOD9073718
_publ_section_title
;
Structure prediction by ZEFSAII (Michael W. Deem and Ramdas Pophale) SiO2 
 PCOD9073718
Probable space group: P -1
;
_chemical_formula_sum "Si O2"
_cell_formula_units_Z 16
_cell_length_a 9.022053
_cell_length_b 11.407464
_cell_length_c 7.554451
_cell_angle_alpha 60.166691
_cell_angle_beta 104.843278
_cell_angle_gamma 94.319518
_cell_volume 650.690885
_symmetry_space_group_name_H-M "P -1"
_symmetry_group_IT_number 2
_symmetry_cell_setting 'triclinic'
loop_
_space_group_symop_operation_xyz
x,y,z
-x,-y,-z
loop_
_atom_site_type_symbol
_atom_site_label
_atom_site_fract_x
_atom_site_fract_y
_atom_site_fract_z
Si Si1 0.467504 0.622775 0.669844
Si Si2 0.417059 0.279555 0.725603
Si Si3 0.193253 0.316040 0.904100
Si Si4 0.946727 0.146879 0.789063
Si Si5 0.262261 0.561604 0.953061
Si Si6 0.366726 0.117789 0.338196
Si Si7 0.170744 0.086704 0.621559
Si Si8 0.739538 0.200720 0.977822
O O1 0.494279 0.639819 0.457054
O O2 0.579146 0.496333 0.863676
O O3 0.551080 0.751682 0.670968
O O4 0.310773 0.626929 0.732061
O O5 0.303294 0.173544 0.686566
O O6 0.556199 0.207998 0.931554
O O7 0.301620 0.372545 0.741429
O O8 0.176469 0.427986 0.969289
O O9 0.288188 0.174238 0.091727
O O10 0.038496 0.266609 0.815125
O O11 0.006701 0.141709 0.609484
O O12 0.779899 0.179878 0.796763
O O13 0.000000 0.000000 0.000000
O O14 0.198848 0.671536 0.993046
O O15 0.215593 0.093331 0.426646
O O16 0.500000 0.000000 0.500000
O O17 0.194351 0.932992 0.804655
#
# Coordination Sequence:
#
# PCOD9073718 Si02
#       8
#     2   2   2   2   2   2   2   2
#     4   9  19  33  51  84 113 140 172 223 275 313
#     4  10  19  33  59  82 106 139 184 225 266 312
#     4  10  21  37  56  79 110 146 174 220 276 319
#     4   9  21  39  55  75 108 144 180 221 271 317
#     4  10  20  34  53  78 114 142 176 217 269 326
#     4  10  18  31  56  85 111 137 179 226 268 314
#     4   9  19  36  55  80 111 140 176 225 274 312
#     4  11  20  34  55  81 109 143 182 223 261 319
#
# _framework density 24.589247
#
# number of rings (size 3 to 8) (size 9 to 14) (size 15 to 20)
#    0.000    2.250    0.000    4.125    0.000    7.500 
#    0.000    3.750    0.000   15.750    0.000    0.000 
#    0.000    0.000    0.000    0.000    0.000    0.000 
#
# Total GULP energy -89215.022005 kJ/mol
# GULP energy per Si atom -5575.938875 kJ/mol
# Density = 2.453328 g / cm^3
# Si number density = 24.589247 Si / 1000 Ang^3
#
#
#
# Elastic Constant Matrix: (Units=GPa)
#
#
# Indices 1 2 3 4 5 6 
#
# 1 77.2258 29.3782 10.0828 -0.2526 -29.9825 -14.4120
# 2 29.3782 97.4123 5.1476 -11.9779 0.1015 -12.1453
# 3 10.0828 5.1476 66.2410 0.2917 -26.8008 -21.2243
# 4 -0.2526 -11.9779 0.2917 22.3543 -2.9063 -2.1831
# 5 -29.9825 0.1015 -26.8008 -2.9063 27.7441 14.4592
# 6 -14.4120 -12.1453 -21.2243 -2.1831 14.4592 37.6845
#
#
#
# Elastic Compliance Matrix: (Units=1/GPa)
#
#
# Indices 1 2 3 4 5 6 
#
# 1 0.039464 -0.013138 0.019867 0.001146 0.063101 -0.002097
# 2 -0.013138 0.016047 -0.006865 0.006071 -0.023121 0.005504
# 3 0.019867 -0.006865 0.036131 0.003612 0.054067 0.005199
# 4 0.001146 0.006071 0.003612 0.049368 0.007597 0.004374
# 5 0.063101 -0.023121 0.054067 0.007597 0.165683 -0.015999
# 6 -0.002097 0.005504 0.005199 0.004374 -0.015999 0.036828
#
#
# Mechanical properties :
#
#
# Convention : Reuss Voigt Hill
#
# Bulk Modulus (GPa) = 10.94436 36.67735 23.81086
# Shear Modulus (GPa) = 13.36005 30.64126 22.00066
#
# Velocity S-wave (km/s) = 2.33347 3.53388 2.99444
# Velocity P-wave (km/s) = 3.42354 5.62134 4.65404
#
# Compressibility (1/GPa) = 0.09137126
#
# Stress axis : x y z
#
# Youngs Moduli (GPa) = 25.33953 62.31511 27.67717
#
# Poissons Ratio (x) = 0.81869 -0.54987
# Poissons Ratio (y) = 0.33291 0.19001
# Poissons Ratio (z) = -0.50343 0.42780
#
# Static dielectric constant tensor:
#      x y z
#    x 1.953260 -0.006250 -0.015260 
#    y -0.006250 1.984400 0.048420 
#    z -0.015260 0.048420 2.083910 
# 
# From -- ./inp_files/185091.got.cif
#   From: 2010.05.17/outbox.cif.g08.bks.cpg/sg2_93_cif.got.tgz:185091.got - 2010.06.03 11:33:40.
