data_PCOD9073644
_publ_section_title
;
Structure prediction by ZEFSAII (Michael W. Deem and Ramdas Pophale) SiO2 
 PCOD9073644
Probable space group: P -1
;
_chemical_formula_sum "Si O2"
_cell_formula_units_Z 16
_cell_length_a 18.000000
_cell_length_b 9.000000
_cell_length_c 21.000000
_cell_angle_alpha 40.000000
_cell_angle_beta 20.000000
_cell_angle_gamma 40.000000
_cell_volume 731.217405
_symmetry_space_group_name_H-M "P -1"
_symmetry_group_IT_number 2
_symmetry_cell_setting 'triclinic'
loop_
_space_group_symop_operation_xyz
x,y,z
-x,-y,-z
loop_
_atom_site_type_symbol
_atom_site_label
_atom_site_fract_x
_atom_site_fract_y
_atom_site_fract_z
Si Si1 0.076021 0.962917 0.108751
Si Si2 0.774653 0.724940 0.222285
Si Si3 0.434835 0.916784 0.937116
Si Si4 0.549751 0.744441 0.078323
Si Si5 0.184319 0.920654 0.480695
Si Si6 0.814807 0.343445 0.679438
Si Si7 0.018960 0.468240 0.746486
Si Si8 0.295256 0.786907 0.578705
O O1 0.991165 0.733539 0.229557
O O2 0.313646 0.917090 0.967184
O O3 0.911258 0.072722 0.261855
O O4 0.099147 0.130528 0.974535
O O5 0.893152 0.651278 0.217799
O O6 0.521335 0.850762 0.400782
O O7 0.731939 0.484070 0.303057
O O8 0.388687 0.171795 0.928106
O O9 0.691358 0.912236 0.715831
O O10 0.348012 0.714742 0.113644
O O11 0.352621 0.607013 0.263289
O O12 0.767676 0.594561 0.920936
O O13 0.500000 0.000000 0.000000
O O14 0.146911 0.678952 0.558084
O O15 0.295906 0.840713 0.485185
O O16 0.957453 0.088038 0.629642
O O17 0.000000 0.500000 0.500000
#
# Coordination Sequence:
#
# PCOD9073644 Si02
#       8
#     2   2   2   2   2   2   2   2
#     4  12  23  41  70 104 138 181 228 280 338 403
#     4  10  22  42  67 100 139 183 224 278 338 405
#     4  11  23  43  70  95 131 180 224 270 347 402
#     4  10  22  48  68  94 135 180 226 281 341 400
#     4  11  22  45  66  96 137 181 225 278 343 410
#     4  11  25  45  71  99 133 173 230 291 336 403
#     4  11  24  44  67 101 144 177 230 287 337 402
#     4  10  21  41  69  96 139 179 227 274 337 407
#
# _framework density 21.881316999999999
#
# number of rings (size 3 to 8) (size 9 to 14) (size 15 to 20)
#    0.000    1.250    5.000    1.500    1.750    2.500 
#    4.500    0.000    0.000    0.000    0.000    0.000 
#    0.000    0.000    0.000    0.000    0.000    0.000 
#
# Total GULP energy -89182.799784 kJ/mol
# GULP energy per Si atom -5573.924986 kJ/mol
# Density = 2.183151 g / cm^3
# Si number density = 21.881317 Si / 1000 Ang^3
#
#
#
# Elastic Constant Matrix: (Units=GPa)
#
#
# Indices 1 2 3 4 5 6 
#
# 1 66.8460 13.8085 41.7457 -17.3207 -25.0674 20.5375
# 2 13.8085 25.3881 8.9381 -14.4636 -21.8516 12.8578
# 3 41.7457 8.9381 94.7085 -26.2431 -28.7037 -2.9190
# 4 -17.3207 -14.4636 -26.2431 32.1087 4.8931 -10.1631
# 5 -25.0674 -21.8516 -28.7037 4.8931 31.1892 -7.8027
# 6 20.5375 12.8578 -2.9190 -10.1631 -7.8027 25.0607
#
#
#
# Elastic Compliance Matrix: (Units=1/GPa)
#
#
# Indices 1 2 3 4 5 6 
#
# 1 0.019295 -0.120073 -0.054547 -0.079936 -0.113349 -0.028270
# 2 -0.120073 -0.872532 -0.282200 -0.549312 -0.877000 0.017373
# 3 -0.054547 -0.282200 -0.059557 -0.152927 -0.262680 0.038748
# 4 -0.079936 -0.549312 -0.152927 -0.288436 -0.532926 0.046629
# 5 -0.113349 -0.877000 -0.262680 -0.532926 -0.821523 0.040346
# 6 -0.028270 0.017373 0.038748 0.046629 0.040346 0.090142
#
#
# Mechanical properties :
#
#
# Convention : Reuss Voigt Hill
#
# Bulk Modulus (GPa) = -0.54751 35.10301 17.27775
# Shear Modulus (GPa) = -3.07167 25.83510 11.38172
#
# Velocity S-wave (km/s) = -1.18610 3.43985 2.28317
# Velocity P-wave (km/s) = 1.45827 5.64394 3.85535
#
# Compressibility (1/GPa) = -1.82643435
#
# Stress axis : x y z
#
# Youngs Moduli (GPa) = 51.82570 -1.14609 -16.79051
#
# Poissons Ratio (x) = -0.13761 -0.91588
# Poissons Ratio (y) = 6.22286 -4.73828
# Poissons Ratio (z) = 2.82695 -0.32343
#
# Static dielectric constant tensor:
#      x y z
#    x 1.913960 -0.042570 -0.032140 
#    y -0.042570 1.889890 0.067530 
#    z -0.032140 0.067530 1.840260 
# 
# From -- ./inp_files/218512.got.cif
#   From: 2010.05.17/outbox.ucp.g08.bks.cvg/sg2_110_cif.got.tgz:218512.got - 2010.06.11 11:32:03.
