data_PCOD9073607
_publ_section_title
;
Structure prediction by ZEFSAII (Michael W. Deem and Ramdas Pophale) SiO2 
 PCOD9073607
Probable space group: P -1
;
_chemical_formula_sum "Si O2"
_cell_formula_units_Z 16
_cell_length_a 18.000000
_cell_length_b 9.000000
_cell_length_c 12.000000
_cell_angle_alpha 120.000000
_cell_angle_beta 30.000000
_cell_angle_gamma 130.000000
_cell_volume 736.400153
_symmetry_space_group_name_H-M "P -1"
_symmetry_group_IT_number 2
_symmetry_cell_setting 'triclinic'
loop_
_space_group_symop_operation_xyz
x,y,z
-x,-y,-z
loop_
_atom_site_type_symbol
_atom_site_label
_atom_site_fract_x
_atom_site_fract_y
_atom_site_fract_z
Si Si1 0.275365 0.369892 0.964207
Si Si2 0.375848 0.307560 0.330667
Si Si3 0.206234 0.206797 0.749203
Si Si4 0.729559 0.392341 0.530856
Si Si5 0.149468 0.841151 0.831489
Si Si6 0.929143 0.614323 0.567025
Si Si7 0.173854 0.989073 0.285304
Si Si8 0.368645 0.067379 0.828208
O O1 0.419289 0.585170 0.895045
O O2 0.232704 0.340161 0.876549
O O3 0.358093 0.232547 0.829584
O O4 0.131544 0.296607 0.219504
O O5 0.331166 0.274375 0.507316
O O6 0.310585 0.454580 0.423903
O O7 0.287960 0.126780 0.290164
O O8 0.203747 0.013831 0.732519
O O9 0.030370 0.173143 0.908952
O O10 0.871069 0.354363 0.273835
O O11 0.783200 0.480467 0.618277
O O12 0.565176 0.174895 0.650848
O O13 0.273734 0.889477 0.796261
O O14 0.000000 0.500000 0.500000
O O15 0.091175 0.765445 0.343411
O O16 0.269114 0.031614 0.060180
O O17 0.000000 0.000000 0.500000
#
# Coordination Sequence:
#
# PCOD9073607 Si02
#       8
#     2   2   2   2   2   2   2   2
#     4  10  21  42  63  90 128 164 199 251 305 364
#     4  11  23  39  66  93 121 162 209 250 301 365
#     4  10  22  39  65  91 123 168 203 242 307 368
#     4  11  23  41  63  94 126 158 201 262 304 353
#     4  10  22  39  65  90 127 162 201 254 302 361
#     4  12  26  42  63  91 126 159 205 257 311 357
#     4  12  22  41  66  90 119 163 211 251 296 373
#     4  10  21  41  66  91 122 164 207 245 307 362
#
# _framework density 21.727318
#
# number of rings (size 3 to 8) (size 9 to 14) (size 15 to 20)
#    0.000    1.250    2.500    3.000    5.250    2.500 
#    4.500    1.250    0.000    0.000    0.000    0.000 
#    0.000    0.000    0.000    0.000    0.000    0.000 
#
# Total GULP energy -89127.340385 kJ/mol
# GULP energy per Si atom -5570.458774 kJ/mol
# Density = 2.167787 g / cm^3
# Si number density = 21.727318 Si / 1000 Ang^3
#
#
#
# Elastic Constant Matrix: (Units=GPa)
#
#
# Indices 1 2 3 4 5 6 
#
# 1 99.0296 29.2992 12.1012 -8.4620 26.8240 21.5316
# 2 29.2992 39.3205 6.7417 -0.8843 -0.7855 19.0604
# 3 12.1012 6.7417 52.7134 -11.3647 22.9906 -0.3913
# 4 -8.4620 -0.8843 -11.3647 30.5106 1.6597 3.1653
# 5 26.8240 -0.7855 22.9906 1.6597 36.2399 13.4929
# 6 21.5316 19.0604 -0.3913 3.1653 13.4929 37.4235
#
#
#
# Elastic Compliance Matrix: (Units=1/GPa)
#
#
# Indices 1 2 3 4 5 6 
#
# 1 0.022374 -0.023493 0.013003 0.011039 -0.029096 0.008785
# 2 -0.023493 0.067803 -0.029829 -0.014477 0.053052 -0.039232
# 3 0.013003 -0.029829 0.045760 0.019949 -0.049247 0.024258
# 4 0.011039 -0.014477 0.019949 0.043539 -0.025667 0.006802
# 5 -0.029096 0.053052 -0.049247 -0.025667 0.099229 -0.044401
# 6 0.008785 -0.039232 0.024258 0.006802 -0.044401 0.057335
#
#
# Mechanical properties :
#
#
# Convention : Reuss Voigt Hill
#
# Bulk Modulus (GPa) = 18.08302 31.92752 25.00527
# Shear Modulus (GPa) = 11.49132 30.36290 20.92711
#
# Velocity S-wave (km/s) = 2.30225 3.74231 3.10687
# Velocity P-wave (km/s) = 3.92529 5.77925 4.94002
#
# Compressibility (1/GPa) = 0.05530050
#
# Stress axis : x y z
#
# Youngs Moduli (GPa) = 44.69476 14.74851 21.85309
#
# Poissons Ratio (x) = 0.34648 -0.28417
# Poissons Ratio (y) = 1.05000 0.65186
# Poissons Ratio (z) = -0.58119 0.43994
#
# Static dielectric constant tensor:
#      x y z
#    x 1.773250 0.033110 -0.034360 
#    y 0.033110 0.705140 -1.614470 
#    z -0.034360 -1.614470 -0.349180 
# 
# From -- ./inp_files/188777.got.cif
#   From: 2010.05.17/outbox.ucp.g08.bks.cvg/sg2_95_cif.got.tgz:188777.got - 2010.06.11 11:32:03.
