data_PCOD9073367
_publ_section_title
;
Structure prediction by ZEFSAII (Michael W. Deem and Ramdas Pophale) SiO2 
 PCOD9073367
Probable space group: P -1
;
_chemical_formula_sum "Si O2"
_cell_formula_units_Z 10
_cell_length_a 12.000000
_cell_length_b 9.000000
_cell_length_c 9.000000
_cell_angle_alpha 150.000000
_cell_angle_beta 60.000000
_cell_angle_gamma 130.000000
_cell_volume 368.200077
_symmetry_space_group_name_H-M "P -1"
_symmetry_group_IT_number 2
_symmetry_cell_setting 'triclinic'
loop_
_space_group_symop_operation_xyz
x,y,z
-x,-y,-z
loop_
_atom_site_type_symbol
_atom_site_label
_atom_site_fract_x
_atom_site_fract_y
_atom_site_fract_z
Si Si1 0.037850 0.734048 0.329599
Si Si2 0.385491 0.613154 0.237242
Si Si3 0.307413 0.051756 0.244419
Si Si4 0.626521 0.284951 0.338011
Si Si5 0.929506 0.810659 0.034445
O O1 0.973403 0.348084 0.098775
O O2 0.167544 0.754654 0.156132
O O3 0.000000 0.000000 0.500000
O O4 0.080436 0.921279 0.619725
O O5 0.321635 0.570212 0.410033
O O6 0.239438 0.472420 0.117952
O O7 0.500000 0.000000 0.500000
O O8 0.500000 0.500000 0.000000
O O9 0.452204 0.138475 0.317281
O O10 0.297823 0.395908 0.546865
O O11 0.344710 0.992020 0.000644
O O12 0.000000 0.000000 0.000000
#
# Coordination Sequence:
#
# PCOD9073367 Si02
#       5
#     2   2   2   2   2
#     4  12  27  50  77 109 152 210 261 313 379 464
#     4  12  25  45  76 110 152 201 256 313 394 458
#     4  10  21  40  67 103 143 183 250 307 371 436
#     4  10  21  38  68 103 141 187 241 314 371 445
#     4  12  28  51  78 114 159 201 260 323 388 466
#
# _framework density 27.159147000000001
#
# number of rings (size 3 to 8) (size 9 to 14) (size 15 to 20)
#    0.000    0.800    0.000    7.200    2.800    3.200 
#    0.000    0.000    0.000    0.000    0.000    0.000 
#    0.000    0.000    0.000    0.000    0.000    0.000 
#
# Total GULP energy -55725.132167 kJ/mol
# GULP energy per Si atom -5572.513217 kJ/mol
# Density = 2.709733 g / cm^3
# Si number density = 27.159147 Si / 1000 Ang^3
#
#
#
# Elastic Constant Matrix: (Units=GPa)
#
#
# Indices 1 2 3 4 5 6 
#
# 1 82.4419 44.9157 32.4585 -8.5383 9.0098 -14.2602
# 2 44.9157 99.0285 0.7953 1.1251 -3.9128 -21.1162
# 3 32.4585 0.7953 153.8756 -24.8460 -19.1228 -32.8559
# 4 -8.5383 1.1251 -24.8460 52.1017 -17.8633 6.9942
# 5 9.0098 -3.9128 -19.1228 -17.8633 28.9812 -2.7284
# 6 -14.2602 -21.1162 -32.8559 6.9942 -2.7284 20.7085
#
#
#
# Elastic Compliance Matrix: (Units=1/GPa)
#
#
# Indices 1 2 3 4 5 6 
#
# 1 0.027135 -0.019858 -0.017911 -0.010656 -0.032389 -0.030649
# 2 -0.019858 0.032425 0.023058 0.012787 0.038993 0.056791
# 3 -0.017911 0.023058 0.033152 0.020799 0.049331 0.063252
# 4 -0.010656 0.012787 0.020799 0.038405 0.045420 0.031713
# 5 -0.032389 0.038993 0.049331 0.045420 0.119434 0.096121
# 6 -0.030649 0.056791 0.063252 0.031713 0.096121 0.187401
#
#
# Mechanical properties :
#
#
# Convention : Reuss Voigt Hill
#
# Bulk Modulus (GPa) = 15.80019 54.63164 35.21592
# Shear Modulus (GPa) = 10.23604 37.50340 23.86972
#
# Velocity S-wave (km/s) = 1.94347 3.72004 2.96781
# Velocity P-wave (km/s) = 3.29642 6.21375 4.97378
#
# Compressibility (1/GPa) = 0.06329038
#
# Stress axis : x y z
#
# Youngs Moduli (GPa) = 36.85286 30.84064 30.16376
#
# Poissons Ratio (x) = 0.61242 0.54027
# Poissons Ratio (y) = 0.73181 -0.69551
# Poissons Ratio (z) = 0.66008 -0.71112
#
# Static dielectric constant tensor:
#      x y z
#    x 2.205010 -0.040490 0.039320 
#    y -0.040490 1.955830 0.043910 
#    z 0.039320 0.043910 1.982610 
# 
# From -- ./inp_files/148517.got.cif
#   From: 2010.05.17/outbox.ucp.g08.bks.cvg/sg2_75_cif.got.tgz:148517.got - 2010.06.11 11:32:03.
