data_PCOD9073203
_publ_section_title
;
Structure prediction by ZEFSAII (Michael W. Deem and Ramdas Pophale) SiO2 
 PCOD9073203
Probable space group: P -1
;
_chemical_formula_sum "Si O2"
_cell_formula_units_Z 16
_cell_length_a 15.000000
_cell_length_b 15.000000
_cell_length_c 15.000000
_cell_angle_alpha 140.000000
_cell_angle_beta 140.000000
_cell_angle_gamma 20.000000
_cell_volume 725.414092
_symmetry_space_group_name_H-M "P -1"
_symmetry_group_IT_number 2
_symmetry_cell_setting 'triclinic'
loop_
_space_group_symop_operation_xyz
x,y,z
-x,-y,-z
loop_
_atom_site_type_symbol
_atom_site_label
_atom_site_fract_x
_atom_site_fract_y
_atom_site_fract_z
Si Si1 0.499366 0.843758 0.072079
Si Si2 0.021345 0.759064 0.280674
Si Si3 0.580198 0.313190 0.664345
Si Si4 0.069599 0.773713 0.512835
Si Si5 0.560349 0.841937 0.844376
Si Si6 0.097866 0.370254 0.662433
Si Si7 0.571879 0.839612 0.512516
Si Si8 0.088489 0.724496 0.101319
O O1 0.712239 0.672931 0.185233
O O2 0.436728 0.055622 0.158031
O O3 0.700602 0.583687 0.965180
O O4 0.196224 0.046025 0.991207
O O5 0.134213 0.751977 0.443312
O O6 0.183359 0.473619 0.187338
O O7 0.026788 0.807058 0.220980
O O8 0.709649 0.013129 0.260009
O O9 0.325436 0.589214 0.627559
O O10 0.458735 0.299717 0.626029
O O11 0.737790 0.299808 0.824200
O O12 0.799809 0.065064 0.572418
O O13 0.043219 0.625935 0.380891
O O14 0.500000 0.000000 0.000000
O O15 0.860920 0.623587 0.610897
O O16 0.323764 0.086181 0.572961
O O17 0.500000 0.000000 0.500000
#
# Coordination Sequence:
#
# PCOD9073203 Si02
#       8
#     2   2   2   2   2   2   2   2
#     4  12  23  36  58  83 120 156 193 239 281 335
#     4  12  22  33  54  81 112 157 203 246 284 313
#     4  10  23  40  57  83 115 153 192 233 290 353
#     4  10  21  36  57  80 113 151 197 250 281 317
#     4  12  21  34  51  80 114 154 205 246 272 313
#     4  10  21  36  61  93 114 139 186 241 291 329
#     4  10  21  41  68  91 110 139 182 240 295 345
#     4  12  24  37  54  81 120 166 196 226 283 343
#
# _framework density 22.056367999999999
#
# number of rings (size 3 to 8) (size 9 to 14) (size 15 to 20)
#    0.000    1.000    3.750    3.750    3.500    1.000 
#    0.000    0.000    0.000    4.500    0.000    0.000 
#    0.000    0.000    0.000    0.000    0.000    0.000 
#
# Total GULP energy -89108.454721 kJ/mol
# GULP energy per Si atom -5569.278420 kJ/mol
# Density = 2.200617 g / cm^3
# Si number density = 22.056368 Si / 1000 Ang^3
#
#
#
# Elastic Constant Matrix: (Units=GPa)
#
#
# Indices 1 2 3 4 5 6 
#
# 1 56.3027 27.9519 46.8627 -18.2081 21.3154 11.1498
# 2 27.9519 137.0956 28.1409 -37.5066 7.2172 -0.3632
# 3 46.8627 28.1409 39.7140 -25.0797 15.9403 1.7004
# 4 -18.2081 -37.5066 -25.0797 47.7909 -13.1600 1.9019
# 5 21.3154 7.2172 15.9403 -13.1600 9.0127 -3.3187
# 6 11.1498 -0.3632 1.7004 1.9019 -3.3187 31.8572
#
#
#
# Elastic Compliance Matrix: (Units=1/GPa)
#
#
# Indices 1 2 3 4 5 6 
#
# 1 -0.051958 0.009767 0.013177 0.036808 0.157199 0.031772
# 2 0.009767 0.009783 -0.019152 0.003431 0.007313 -0.001728
# 3 0.013177 -0.019152 0.124651 -0.020228 -0.280366 -0.039483
# 4 0.036808 0.003431 -0.020228 0.018640 -0.032805 -0.016294
# 5 0.157199 0.007313 -0.280366 -0.032805 0.173959 -0.019890
# 6 0.031772 -0.001728 -0.039483 -0.016294 -0.019890 0.021259
#
#
# Mechanical properties :
#
#
# Convention : Reuss Voigt Hill
#
# Bulk Modulus (GPa) = 11.10362 48.78036 29.94199
# Shear Modulus (GPa) = 15.68526 26.40927 21.04726
#
# Velocity S-wave (km/s) = 2.66962 3.46403 3.09244
# Velocity P-wave (km/s) = 3.81414 6.17767 5.13377
#
# Compressibility (1/GPa) = 0.09006075
#
# Stress axis : x y z
#
# Youngs Moduli (GPa) = -19.24646 102.21665 8.02239
#
# Poissons Ratio (x) = -0.99837 -0.10571
# Poissons Ratio (y) = 0.18798 0.15365
# Poissons Ratio (z) = 0.25361 1.95768
#
# Static dielectric constant tensor:
#      x y z
#    x 2.522360 -0.107640 0.371530 
#    y -0.107640 1.808830 -0.055360 
#    z 0.371530 -0.055360 2.188390 
# 
# From -- ./inp_files/439231.got.cif
#   From: 2010.05.17/outbox.ucp.g08.bks.cvg/sg2_220_cif.got.tgz:439231.got - 2010.06.11 11:32:03.
