data_PCOD9073287
_publ_section_title
;
Structure prediction by ZEFSAII (Michael W. Deem and Ramdas Pophale) SiO2 
 PCOD9073287
Probable space group: P -1
;
_chemical_formula_sum "Si O2"
_cell_formula_units_Z 16
_cell_length_a 12.000000
_cell_length_b 27.000000
_cell_length_c 6.000000
_cell_angle_alpha 130.000000
_cell_angle_beta 130.000000
_cell_angle_gamma 30.000000
_cell_volume 725.531033
_symmetry_space_group_name_H-M "P -1"
_symmetry_group_IT_number 2
_symmetry_cell_setting 'triclinic'
loop_
_space_group_symop_operation_xyz
x,y,z
-x,-y,-z
loop_
_atom_site_type_symbol
_atom_site_label
_atom_site_fract_x
_atom_site_fract_y
_atom_site_fract_z
Si Si1 0.163086 0.073569 0.740970
Si Si2 0.849277 0.993515 0.890376
Si Si3 0.511730 0.853729 0.783347
Si Si4 0.971829 0.735396 0.812099
Si Si5 0.250853 0.815611 0.221511
Si Si6 0.925567 0.421385 0.776738
Si Si7 0.815901 0.556790 0.626536
Si Si8 0.527267 0.385737 0.964512
O O1 0.212200 0.044498 0.461569
O O2 0.901718 0.136224 0.610325
O O3 0.362890 0.962514 0.790396
O O4 0.134300 0.156229 0.033108
O O5 0.035956 0.901932 0.036286
O O6 0.611284 0.101112 0.001982
O O7 0.000000 0.000000 0.000000
O O8 0.426281 0.814877 0.455718
O O9 0.784984 0.769065 0.846604
O O10 0.986841 0.679743 0.466218
O O11 0.251357 0.650838 0.952276
O O12 0.371727 0.705705 0.012368
O O13 0.865851 0.482498 0.652006
O O14 0.692541 0.504449 0.874808
O O15 0.141157 0.388566 0.050045
O O16 0.580777 0.618527 0.388020
O O17 0.000000 0.500000 0.500000
#
# Coordination Sequence:
#
# PCOD9073287 Si02
#       8
#     2   2   2   2   2   2   2   2
#     4  10  21  43  62  91 133 172 214 267 324 388
#     4  11  19  40  67  94 124 174 221 270 320 371
#     4  11  22  39  63  94 133 167 219 270 315 391
#     4  11  25  41  63  98 138 173 205 270 337 382
#     4  10  21  37  69  96 125 168 221 268 316 384
#     4  10  22  45  70  95 129 173 220 263 327 386
#     4   9  21  42  69  95 125 162 222 278 307 372
#     4  10  23  44  67  96 135 169 215 269 324 389
#
# _framework density 22.052813
#
# number of rings (size 3 to 8) (size 9 to 14) (size 15 to 20)
#    0.000    1.750    2.500    1.500    5.250    3.000 
#    2.250    8.750    0.000    0.000    0.000    0.000 
#    0.000    0.000    0.000    0.000    0.000    0.000 
#
# Total GULP energy -89073.662356 kJ/mol
# GULP energy per Si atom -5567.103897 kJ/mol
# Density = 2.200262 g / cm^3
# Si number density = 22.052813 Si / 1000 Ang^3
#
#
#
# Elastic Constant Matrix: (Units=GPa)
#
#
# Indices 1 2 3 4 5 6 
#
# 1 98.2955 28.9639 31.6645 -2.4314 14.3202 -41.4438
# 2 28.9639 58.3108 45.3348 20.5031 4.7837 -34.0350
# 3 31.6645 45.3348 98.4176 19.6614 15.1298 -6.9523
# 4 -2.4314 20.5031 19.6614 40.5981 -6.2776 3.9413
# 5 14.3202 4.7837 15.1298 -6.2776 31.8605 0.1368
# 6 -41.4438 -34.0350 -6.9523 3.9413 0.1368 36.4867
#
#
#
# Elastic Compliance Matrix: (Units=1/GPa)
#
#
# Indices 1 2 3 4 5 6 
#
# 1 -0.016306 -0.088095 0.027856 0.042218 0.016076 -0.100010
# 2 -0.088095 -0.191992 0.070368 0.092823 0.054481 -0.275978
# 3 0.027856 0.070368 -0.011785 -0.041883 -0.026169 0.099656
# 4 0.042218 0.092823 -0.041883 -0.014416 -0.016414 0.128178
# 5 0.016076 0.054481 -0.026169 -0.016414 0.024892 0.065773
# 6 -0.100010 -0.275978 0.099656 0.128178 0.065773 -0.338727
#
#
# Mechanical properties :
#
#
# Convention : Reuss Voigt Hill
#
# Bulk Modulus (GPa) = -5.00432 51.88336 23.43952
# Shear Modulus (GPa) = -7.87154 31.72644 11.92745
#
# Velocity S-wave (km/s) = -1.89134 3.79708 2.32816
# Velocity P-wave (km/s) = 2.65400 6.54230 4.22836
#
# Compressibility (1/GPa) = -0.19982725
#
# Stress axis : x y z
#
# Youngs Moduli (GPa) = -61.32663 -5.20855 -84.85101
#
# Poissons Ratio (x) = -0.45885 2.36360
# Poissons Ratio (y) = -5.40259 5.97076
# Poissons Ratio (z) = 1.70831 0.36651
#
# Static dielectric constant tensor:
#      x y z
#    x 1.992410 0.053010 -0.088270 
#    y 0.053010 1.800590 -0.025830 
#    z -0.088270 -0.025830 1.914110 
# 
# From -- ./inp_files/85175.got.cif
#   From: 2010.05.17/outbox.ucp.g08.bks.cvg/sg2_43_cif.got.tgz:85175.got - 2010.06.11 11:32:03.
