data_PCOD9073410
_publ_section_title
;
Structure prediction by ZEFSAII (Michael W. Deem and Ramdas Pophale) SiO2 
 PCOD9073410
Probable space group: P -1
;
_chemical_formula_sum "Si O2"
_cell_formula_units_Z 14
_cell_length_a 9.000000
_cell_length_b 12.000000
_cell_length_c 9.000000
_cell_angle_alpha 50.000000
_cell_angle_beta 70.000000
_cell_angle_gamma 80.000000
_cell_volume 698.248189
_symmetry_space_group_name_H-M "P -1"
_symmetry_group_IT_number 2
_symmetry_cell_setting 'triclinic'
loop_
_space_group_symop_operation_xyz
x,y,z
-x,-y,-z
loop_
_atom_site_type_symbol
_atom_site_label
_atom_site_fract_x
_atom_site_fract_y
_atom_site_fract_z
Si Si1 0.594743 0.653662 0.379540
Si Si2 0.146488 0.880452 0.965175
Si Si3 0.695838 0.612375 0.719893
Si Si4 0.709076 0.196825 0.566689
Si Si5 0.971532 0.348255 0.546804
Si Si6 0.360714 0.706128 0.831704
Si Si7 0.193535 0.086634 0.040483
O O1 0.500000 0.500000 0.500000
O O2 0.659526 0.608649 0.557829
O O3 0.465140 0.772215 0.344276
O O4 0.721909 0.747537 0.147907
O O5 0.287368 0.812304 0.885803
O O6 0.210076 0.015038 0.931082
O O7 0.066616 0.768084 0.209891
O O8 0.998181 0.910051 0.883652
O O9 0.552828 0.703135 0.756381
O O10 0.877373 0.673964 0.592166
O O11 0.688961 0.458533 0.946041
O O12 0.824384 0.316588 0.512281
O O13 0.703723 0.241890 0.353332
O O14 0.749496 0.033458 0.754139
O O15 0.000000 0.500000 0.500000
#
# Coordination Sequence:
#
# PCOD9073410 Si02
#       7
#     2   2   2   2   2   2   2
#     4  11  22  39  69  99 124 165 221 274 316 378
#     4  10  21  39  69  92 125 176 222 260 324 387
#     4  10  21  39  63  94 135 166 216 269 326 385
#     4  10  24  39  62  95 135 165 214 272 323 388
#     4  11  19  37  68  94 124 176 222 267 313 379
#     4  10  22  41  62  93 137 171 208 270 337 383
#     4  10  22  41  67  95 128 167 225 269 311 389
#
# _framework density 20.050177000000001
#
# number of rings (size 3 to 8) (size 9 to 14) (size 15 to 20)
#    0.000    1.714    2.857    1.286    2.000    1.143 
#    0.000    4.286    6.286    0.000    0.000    0.000 
#    0.000    0.000    0.000    0.000    0.000    0.000 
#
# Total GULP energy -77941.273338 kJ/mol
# GULP energy per Si atom -5567.233810 kJ/mol
# Density = 2.000454 g / cm^3
# Si number density = 20.050177 Si / 1000 Ang^3
#
#
#
# Elastic Constant Matrix: (Units=GPa)
#
#
# Indices 1 2 3 4 5 6 
#
# 1 94.8902 14.8531 32.0192 4.0629 0.8694 -13.2475
# 2 14.8531 71.2644 17.7039 -4.0904 -7.8799 -15.9839
# 3 32.0192 17.7039 117.4602 -8.1367 9.4993 -1.0162
# 4 4.0629 -4.0904 -8.1367 35.7688 -5.8860 -12.6826
# 5 0.8694 -7.8799 9.4993 -5.8860 45.8016 -2.9496
# 6 -13.2475 -15.9839 -1.0162 -12.6826 -2.9496 33.2867
#
#
#
# Elastic Compliance Matrix: (Units=1/GPa)
#
#
# Indices 1 2 3 4 5 6 
#
# 1 0.012395 -0.000792 -0.003310 -0.000664 0.000503 0.004243
# 2 -0.000792 0.018293 -0.002415 0.006514 0.005231 0.011341
# 3 -0.003310 -0.002415 0.010048 0.001328 -0.002387 -0.001876
# 4 -0.000664 0.006514 0.001328 0.036318 0.006641 0.017330
# 5 0.000503 0.005231 -0.002387 0.006641 0.024545 0.007344
# 6 0.004243 0.011341 -0.001876 0.017330 0.007344 0.044373
#
#
# Mechanical properties :
#
#
# Convention : Reuss Voigt Hill
#
# Bulk Modulus (GPa) = 36.09588 45.86302 40.97945
# Shear Modulus (GPa) = 29.71934 37.57398 33.64666
#
# Velocity S-wave (km/s) = 3.85417 4.33367 4.10093
# Velocity P-wave (km/s) = 6.15208 6.92565 6.55029
#
# Compressibility (1/GPa) = 0.02770399
#
# Stress axis : x y z
#
# Youngs Moduli (GPa) = 80.67474 54.66519 99.51788
#
# Poissons Ratio (x) = 0.04330 0.32936
# Poissons Ratio (y) = 0.06391 0.24032
# Poissons Ratio (z) = 0.26699 0.13201
#
# Static dielectric constant tensor:
#      x y z
#    x 1.794160 -0.018240 0.005830 
#    y -0.018240 1.750220 -0.023410 
#    z 0.005830 -0.023410 1.699450 
# 
# From -- ./inp_files/149383.got.cif
#   From: 2010.05.17/outbox.ucp.g08.bks.cvg/sg2_75_cif.got.tgz:149383.got - 2010.06.11 11:32:03.
