data_PCOD9073545
_publ_section_title
;
Structure prediction by ZEFSAII (Michael W. Deem and Ramdas Pophale) SiO2 
 PCOD9073545
Probable space group: P -1
;
_chemical_formula_sum "Si O2"
_cell_formula_units_Z 16
_cell_length_a 9.000000
_cell_length_b 15.000000
_cell_length_c 9.000000
_cell_angle_alpha 80.000000
_cell_angle_beta 110.000000
_cell_angle_gamma 50.000000
_cell_volume 732.374747
_symmetry_space_group_name_H-M "P -1"
_symmetry_group_IT_number 2
_symmetry_cell_setting 'triclinic'
loop_
_space_group_symop_operation_xyz
x,y,z
-x,-y,-z
loop_
_atom_site_type_symbol
_atom_site_label
_atom_site_fract_x
_atom_site_fract_y
_atom_site_fract_z
Si Si1 0.189215 0.127546 0.213466
Si Si2 0.264510 0.101740 0.568453
Si Si3 0.367632 0.378984 0.036381
Si Si4 0.074266 0.873213 0.130642
Si Si5 0.017678 0.612982 0.062506
Si Si6 0.617169 0.630931 0.281099
Si Si7 0.930292 0.667321 0.342289
Si Si8 0.181746 0.953846 0.702899
O O1 0.117791 0.142920 0.356003
O O2 0.469185 0.973339 0.350647
O O3 0.052466 0.139568 0.027147
O O4 0.133952 0.258004 0.137472
O O5 0.122315 0.228241 0.594415
O O6 0.328689 0.978280 0.697477
O O7 0.281503 0.478717 0.117207
O O8 0.616937 0.212948 0.168053
O O9 0.381184 0.417224 0.866753
O O10 0.136143 0.411045 0.949862
O O11 0.363432 0.734301 0.250475
O O12 0.972039 0.936238 0.243524
O O13 0.000000 0.000000 0.000000
O O14 0.000928 0.667918 0.201390
O O15 0.696131 0.701752 0.259286
O O16 0.837196 0.491497 0.484906
O O17 0.000000 0.000000 0.500000
#
# Coordination Sequence:
#
# PCOD9073545 Si02
#       8
#     2   2   2   2   2   2   2   2
#     4  11  24  42  67  95 127 170 212 267 316 379
#     4  11  24  43  65  95 130 165 218 262 318 379
#     4  10  21  41  64  92 130 165 211 259 315 377
#     4  12  24  42  66  96 130 168 215 258 325 379
#     4  10  21  40  67  95 122 167 215 261 314 375
#     4  10  22  42  64  98 126 170 211 260 319 380
#     4  10  22  41  69  95 128 167 212 266 314 378
#     4  12  26  42  64  97 132 169 209 263 320 380
#
# _framework density 21.846738999999999
#
# number of rings (size 3 to 8) (size 9 to 14) (size 15 to 20)
#    0.000    1.250    2.500    3.000    3.500    3.000 
#    2.250    2.500    0.000    0.000    0.000    0.000 
#    0.000    0.000    0.000    0.000    0.000    0.000 
#
# Total GULP energy -89115.378325 kJ/mol
# GULP energy per Si atom -5569.711145 kJ/mol
# Density = 2.179701 g / cm^3
# Si number density = 21.846739 Si / 1000 Ang^3
#
#
#
# Elastic Constant Matrix: (Units=GPa)
#
#
# Indices 1 2 3 4 5 6 
#
# 1 40.3594 36.7005 25.4849 7.8936 -0.7925 -16.2321
# 2 36.7005 153.4519 43.3492 24.0452 6.5649 -39.9149
# 3 25.4849 43.3492 78.4145 11.9850 4.9180 -22.1115
# 4 7.8936 24.0452 11.9850 41.8886 -1.0067 -1.6057
# 5 -0.7925 6.5649 4.9180 -1.0067 33.0351 -3.7687
# 6 -16.2321 -39.9149 -22.1115 -1.6057 -3.7687 40.3298
#
#
#
# Elastic Compliance Matrix: (Units=1/GPa)
#
#
# Indices 1 2 3 4 5 6 
#
# 1 0.036905 -0.005049 -0.007488 -0.001595 0.003642 0.006028
# 2 -0.005049 0.010908 -0.001434 -0.004638 -0.001342 0.007667
# 3 -0.007488 -0.001434 0.017974 -0.002762 -0.002071 0.005118
# 4 -0.001595 -0.004638 -0.002762 0.027451 0.001502 -0.005513
# 5 0.003642 -0.001342 -0.002071 0.001502 0.031205 0.001978
# 6 0.006028 0.007667 0.005118 -0.005513 0.001978 0.037582
#
#
# Mechanical properties :
#
#
# Convention : Reuss Voigt Hill
#
# Bulk Modulus (GPa) = 26.42341 53.69943 40.06142
# Shear Modulus (GPa) = 24.68153 34.16344 29.42249
#
# Velocity S-wave (km/s) = 3.36483 3.95875 3.67381
# Velocity P-wave (km/s) = 5.21702 6.74752 6.03102
#
# Compressibility (1/GPa) = 0.03784523
#
# Stress axis : x y z
#
# Youngs Moduli (GPa) = 27.09685 91.67689 55.63479
#
# Poissons Ratio (x) = 0.46288 0.41658
# Poissons Ratio (y) = 0.13681 0.07979
# Poissons Ratio (z) = 0.20289 0.13148
#
# Static dielectric constant tensor:
#      x y z
#    x 1.793830 0.031380 -0.021130 
#    y 0.031380 1.863420 0.059640 
#    z -0.021130 0.059640 1.829060 
# 
# From -- ./inp_files/207018.got.cif
#   From: 2010.05.17/outbox.ucp.g08.bks.cvg/sg2_104_cif.got.tgz:207018.got - 2010.06.11 11:32:03.
