data_PCOD9073238
_publ_section_title
;
Structure prediction by ZEFSAII (Michael W. Deem and Ramdas Pophale) SiO2 
 PCOD9073238
Probable space group: P -1
;
_chemical_formula_sum "Si O2"
_cell_formula_units_Z 16
_cell_length_a 9.000000
_cell_length_b 21.000000
_cell_length_c 21.000000
_cell_angle_alpha 160.000000
_cell_angle_beta 140.000000
_cell_angle_gamma 40.000000
_cell_volume 853.086973
_symmetry_space_group_name_H-M "P -1"
_symmetry_group_IT_number 2
_symmetry_cell_setting 'triclinic'
loop_
_space_group_symop_operation_xyz
x,y,z
-x,-y,-z
loop_
_atom_site_type_symbol
_atom_site_label
_atom_site_fract_x
_atom_site_fract_y
_atom_site_fract_z
Si Si1 0.098331 0.254571 0.519539
Si Si2 0.847669 0.703702 0.567042
Si Si3 0.558818 0.124119 0.869266
Si Si4 0.576804 0.202512 0.694852
Si Si5 0.029205 0.341283 0.917307
Si Si6 0.170766 0.439086 0.196153
Si Si7 0.702100 0.337705 0.237007
Si Si8 0.807120 0.199224 0.894216
O O1 0.063920 0.336707 0.514285
O O2 0.347731 0.292686 0.663519
O O3 0.906636 0.358775 0.604604
O O4 0.108718 0.028161 0.305671
O O5 0.742699 0.533111 0.401822
O O6 0.070024 0.731720 0.709063
O O7 0.648693 0.897355 0.681053
O O8 0.667942 0.213554 0.928253
O O9 0.274982 0.191822 0.842347
O O10 0.669373 0.195700 0.036162
O O11 0.809544 0.233834 0.759655
O O12 0.628761 0.280344 0.854304
O O13 0.500000 0.000000 0.500000
O O14 0.000000 0.500000 0.000000
O O15 0.080711 0.438233 0.092557
O O16 0.453348 0.373955 0.226818
O O17 0.029914 0.299083 0.055740
#
# Coordination Sequence:
#
# PCOD9073238 Si02
#       8
#     2   2   2   2   2   2   2   2
#     4  10  21  37  59  83 117 155 198 233 295 353
#     4  10  22  40  61  85 115 156 200 250 295 357
#     4  10  21  40  63  84 121 156 198 243 302 351
#     4   9  20  37  56  82 122 159 192 238 291 354
#     4  10  23  36  59  93 121 157 205 244 292 363
#     4  10  22  36  59  83 119 153 191 245 297 345
#     4  10  22  39  60  88 116 150 201 251 305 343
#     4   9  20  38  57  86 115 157 194 238 288 362
#
# _framework density 18.755414999999999
#
# number of rings (size 3 to 8) (size 9 to 14) (size 15 to 20)
#    0.000    2.250    0.000    1.125    7.000    5.500 
#    0.000    8.125    0.000    0.000    0.000    0.000 
#    0.000    0.000    0.000    0.000    0.000    0.000 
#
# Total GULP energy -89211.444654 kJ/mol
# GULP energy per Si atom -5575.715291 kJ/mol
# Density = 1.871273 g / cm^3
# Si number density = 18.755415 Si / 1000 Ang^3
#
#
#
# Elastic Constant Matrix: (Units=GPa)
#
#
# Indices 1 2 3 4 5 6 
#
# 1 119.2523 30.8630 19.8769 6.3406 -5.1317 0.5248
# 2 30.8630 71.2227 4.5891 3.8216 -0.5990 6.5025
# 3 19.8769 4.5891 45.1296 2.9382 -1.4101 -6.9098
# 4 6.3406 3.8216 2.9382 21.1202 -2.1948 3.1777
# 5 -5.1317 -0.5990 -1.4101 -2.1948 39.4881 1.8178
# 6 0.5248 6.5025 -6.9098 3.1777 1.8178 28.2430
#
#
#
# Elastic Compliance Matrix: (Units=1/GPa)
#
#
# Indices 1 2 3 4 5 6 
#
# 1 0.010234 -0.004072 -0.003969 -0.001660 0.001039 -0.000104
# 2 -0.004072 0.016215 -0.000338 -0.001143 -0.000193 -0.003599
# 3 -0.003969 -0.000338 0.025174 -0.003267 -0.000111 0.006685
# 4 -0.001660 -0.001143 -0.003267 0.049733 0.002703 -0.006275
# 5 0.001039 -0.000193 -0.000111 0.002703 0.025693 -0.001960
# 6 -0.000104 -0.003599 0.006685 -0.006275 -0.001960 0.038705
#
#
# Mechanical properties :
#
#
# Convention : Reuss Voigt Hill
#
# Bulk Modulus (GPa) = 28.68188 38.47363 33.57776
# Shear Modulus (GPa) = 25.75549 29.78863 27.77206
#
# Velocity S-wave (km/s) = 3.70973 3.98963 3.85222
# Velocity P-wave (km/s) = 5.80304 6.46380 6.14231
#
# Compressibility (1/GPa) = 0.03486521
#
# Stress axis : x y z
#
# Youngs Moduli (GPa) = 97.70999 61.67117 39.72404
#
# Poissons Ratio (x) = 0.25112 0.15766
# Poissons Ratio (y) = 0.39786 0.01343
# Poissons Ratio (z) = 0.38781 0.02085
#
# Static dielectric constant tensor:
#      x y z
#    x 1.642590 0.008560 -0.010920 
#    y 0.008560 1.662180 0.023040 
#    z -0.010920 0.023040 1.671720 
# 
# From -- ./inp_files/269685.got.cif
#   From: 2010.05.17/outbox.ucp.g08.bks.cvg/sg2_135_cif.got.tgz:269685.got - 2010.06.11 11:32:03.
