data_PCOD9073335
_publ_section_title
;
Structure prediction by ZEFSAII (Michael W. Deem and Ramdas Pophale) SiO2 
 PCOD9073335
Probable space group: P -1
;
_chemical_formula_sum "Si O2"
_cell_formula_units_Z 14
_cell_length_a 13.480975
_cell_length_b 8.712433
_cell_length_c 7.441241
_cell_angle_alpha 57.547821
_cell_angle_beta 47.207660
_cell_angle_gamma 81.169136
_cell_volume 508.805154
_symmetry_space_group_name_H-M "P -1"
_symmetry_group_IT_number 2
_symmetry_cell_setting 'triclinic'
loop_
_space_group_symop_operation_xyz
x,y,z
-x,-y,-z
loop_
_atom_site_type_symbol
_atom_site_label
_atom_site_fract_x
_atom_site_fract_y
_atom_site_fract_z
Si Si1 0.307083 0.664037 0.684450
Si Si2 0.046873 0.860296 0.275440
Si Si3 0.217363 0.621661 0.236648
Si Si4 0.353395 0.321818 0.316511
Si Si5 0.227011 0.256839 0.884457
Si Si6 0.084013 0.854046 0.801440
Si Si7 0.494619 0.954802 0.749383
O O1 0.265605 0.664192 0.944232
O O2 0.295974 0.445545 0.799093
O O3 0.189482 0.741538 0.687969
O O4 0.457967 0.834503 0.351325
O O5 0.069564 0.662875 0.429524
O O6 0.085306 0.880674 0.001591
O O7 0.168337 0.026876 0.134464
O O8 0.912493 0.935406 0.411099
O O9 0.346819 0.783181 0.080499
O O10 0.227420 0.410698 0.381211
O O11 0.335372 0.276042 0.576672
O O12 0.380261 0.138650 0.309452
O O13 0.500000 0.500000 0.000000
O O14 0.075990 0.273256 0.987756
O O15 0.500000 0.000000 0.500000
#
# Coordination Sequence:
#
# PCOD9073335 Si02
#       7
#     2   2   2   2   2   2   2
#     4  10  18  32  54  80 102 129 171 215 251 289
#     4   8  16  31  55  76  99 133 176 203 245 303
#     4   9  18  35  50  74 103 137 168 208 251 300
#     4  10  20  35  52  72 103 137 170 206 250 306
#     4  10  18  31  54  79  99 133 171 213 248 293
#     4   8  16  30  55  76 101 129 177 207 243 295
#     4   9  18  33  55  72  99 136 172 203 245 306
#
# _framework density 27.515446000000001
#
# number of rings (size 3 to 8) (size 9 to 14) (size 15 to 20)
#    0.857    2.000    0.000    3.000    0.000    0.000 
#    0.000   18.571    0.000    0.857    0.000    0.000 
#    0.000    0.000    0.000    0.000    0.000    0.000 
#
# Total GULP energy -78066.611808 kJ/mol
# GULP energy per Si atom -5576.186558 kJ/mol
# Density = 2.745282 g / cm^3
# Si number density = 27.515446 Si / 1000 Ang^3
#
#
#
# Elastic Constant Matrix: (Units=GPa)
#
#
# Indices 1 2 3 4 5 6 
#
# 1 81.0428 40.0723 5.3680 -11.7358 5.3907 -40.6889
# 2 40.0723 128.1191 20.3760 -39.2949 6.5067 -5.7049
# 3 5.3680 20.3760 46.2134 -14.5479 -11.3213 8.0848
# 4 -11.7358 -39.2949 -14.5479 51.9490 5.6139 1.0168
# 5 5.3907 6.5067 -11.3213 5.6139 20.4010 -16.2971
# 6 -40.6889 -5.7049 8.0848 1.0168 -16.2971 62.5166
#
#
#
# Elastic Compliance Matrix: (Units=1/GPa)
#
#
# Indices 1 2 3 4 5 6 
#
# 1 0.024309 -0.007936 -0.000512 -0.002176 0.010817 0.018019
# 2 -0.007936 0.014154 -0.004368 0.009206 -0.012804 -0.006796
# 3 -0.000512 -0.004368 0.028573 0.002806 0.016470 -0.000179
# 4 -0.002176 0.009206 0.002806 0.027906 -0.012120 -0.004553
# 5 0.010817 -0.012804 0.016470 -0.012120 0.083187 0.025625
# 6 0.018019 -0.006796 -0.000179 -0.004553 0.025625 0.033880
#
#
# Mechanical properties :
#
#
# Convention : Reuss Voigt Hill
#
# Bulk Modulus (GPa) = 24.15265 43.00087 33.57676
# Shear Modulus (GPa) = 19.88511 39.61060 29.74785
#
# Velocity S-wave (km/s) = 2.69120 3.79829 3.29163
# Velocity P-wave (km/s) = 4.29577 5.90744 5.16486
#
# Compressibility (1/GPa) = 0.04140332
#
# Stress axis : x y z
#
# Youngs Moduli (GPa) = 41.13658 70.65376 34.99750
#
# Poissons Ratio (x) = 0.56074 0.01792
# Poissons Ratio (y) = 0.32648 0.15287
# Poissons Ratio (z) = 0.02106 0.30862
#
# Static dielectric constant tensor:
#      x y z
#    x 2.304500 -0.014990 0.019990 
#    y -0.014990 2.138030 -0.057850 
#    z 0.019990 -0.057850 2.149710 
# 
# From -- ./inp_files/294453.got.cif
#   From: 2010.05.17/outbox.cif.g08.bks.cpg/sg2_148_cif.got.tgz:294453.got - 2010.06.03 11:33:40.
