data_PCOD9073364
_publ_section_title
;
Structure prediction by ZEFSAII (Michael W. Deem and Ramdas Pophale) SiO2 
 PCOD9073364
Probable space group: P -1
;
_chemical_formula_sum "Si O2"
_cell_formula_units_Z 16
_cell_length_a 9.591978
_cell_length_b 10.689357
_cell_length_c 9.614226
_cell_angle_alpha 86.670364
_cell_angle_beta 63.933716
_cell_angle_gamma 72.633524
_cell_volume 842.059564
_symmetry_space_group_name_H-M "P -1"
_symmetry_group_IT_number 2
_symmetry_cell_setting 'triclinic'
loop_
_space_group_symop_operation_xyz
x,y,z
-x,-y,-z
loop_
_atom_site_type_symbol
_atom_site_label
_atom_site_fract_x
_atom_site_fract_y
_atom_site_fract_z
Si Si1 0.593593 0.607519 0.472852
Si Si2 0.536467 0.649247 0.811937
Si Si3 0.055655 0.570601 0.603434
Si Si4 0.474291 0.220882 0.781129
Si Si5 0.958531 0.193483 0.591880
Si Si6 0.762074 0.759060 0.877842
Si Si7 0.233094 0.020783 0.328470
Si Si8 0.697338 0.355110 0.861186
O O1 0.500000 0.500000 0.500000
O O2 0.542012 0.664525 0.645011
O O3 0.785748 0.531479 0.396343
O O4 0.552001 0.711697 0.361055
O O5 0.612875 0.750923 0.845227
O O6 0.651705 0.504704 0.819117
O O7 0.364186 0.654166 0.955309
O O8 0.098338 0.695884 0.510123
O O9 0.000000 0.500000 0.500000
O O10 0.914509 0.636013 0.772326
O O11 0.582752 0.292577 0.820481
O O12 0.581756 0.068653 0.732423
O O13 0.307483 0.239825 0.937698
O O14 0.884808 0.275272 0.756436
O O15 0.148804 0.122733 0.482265
O O16 0.868803 0.082850 0.627072
O O17 0.794009 0.892545 0.805223
#
# Coordination Sequence:
#
# PCOD9073364 Si02
#       8
#     2   2   2   2   2   2   2   2
#     4  12  21  35  55  84 118 142 172 227 290 327
#     4  10  18  31  54  81 111 142 176 225 273 332
#     4  11  20  35  58  84 111 141 181 223 276 334
#     4  10  20  33  52  80 111 143 183 229 275 321
#     4   9  16  31  55  82 101 140 188 229 256 312
#     4  10  20  34  56  79 107 148 191 223 263 321
#     4   9  18  32  53  79 108 144 191 228 257 317
#     4   9  16  31  53  81 106 140 189 221 263 332
#
# _framework density 19.001028999999999
#
# number of rings (size 3 to 8) (size 9 to 14) (size 15 to 20)
#    0.000    2.000    3.750    1.125    0.000    0.500 
#    0.000    0.625    0.000    0.750    0.000    0.000 
#    0.000    0.000    0.000    0.000    0.000    0.000 
#
# Total GULP energy -89157.743587 kJ/mol
# GULP energy per Si atom -5572.358974 kJ/mol
# Density = 1.895778 g / cm^3
# Si number density = 19.001029 Si / 1000 Ang^3
#
#
#
# Elastic Constant Matrix: (Units=GPa)
#
#
# Indices 1 2 3 4 5 6 
#
# 1 26.7006 2.0255 16.9697 0.1825 -3.6959 -10.0892
# 2 2.0255 71.2206 40.4893 3.3653 -5.0842 -13.7510
# 3 16.9697 40.4893 167.5412 5.8720 -16.4177 -22.1839
# 4 0.1825 3.3653 5.8720 26.9995 -8.4747 -12.4313
# 5 -3.6959 -5.0842 -16.4177 -8.4747 25.7925 1.8923
# 6 -10.0892 -13.7510 -22.1839 -12.4313 1.8923 27.3644
#
#
#
# Elastic Compliance Matrix: (Units=1/GPa)
#
#
# Indices 1 2 3 4 5 6 
#
# 1 0.048823 0.004633 -0.002509 0.013393 0.008969 0.023759
# 2 0.004633 0.017631 -0.003386 0.003548 0.002470 0.009264
# 3 -0.002509 -0.003386 0.008003 0.002190 0.004453 0.004548
# 4 0.013393 0.003548 0.002190 0.057841 0.020571 0.033351
# 5 0.008969 0.002470 0.004453 0.020571 0.049102 0.014108
# 6 0.023759 0.009264 0.004548 0.033351 0.014108 0.067822
#
#
# Mechanical properties :
#
#
# Convention : Reuss Voigt Hill
#
# Bulk Modulus (GPa) = 13.90184 42.71460 28.30822
# Shear Modulus (GPa) = 18.13407 29.76313 23.94860
#
# Velocity S-wave (km/s) = 3.09264 3.96207 3.55404
# Velocity P-wave (km/s) = 4.48161 6.59239 5.63668
#
# Compressibility (1/GPa) = 0.07193292
#
# Stress axis : x y z
#
# Youngs Moduli (GPa) = 20.48201 56.71707 124.95423
#
# Poissons Ratio (x) = -0.26276 0.31355
# Poissons Ratio (y) = -0.09489 0.42307
# Poissons Ratio (z) = 0.05140 0.19203
#
# Static dielectric constant tensor:
#      x y z
#    x 1.669520 0.021430 -0.053250 
#    y 0.021430 1.694610 0.044610 
#    z -0.053250 0.044610 1.705150 
# 
# From -- ./inp_files/186534.got.cif
#   From: 2010.05.17/outbox.cif.g08.bks.cpg/sg2_94_cif.got.tgz:186534.got - 2010.06.03 11:33:40.
