data_PCOD9073215
_publ_section_title
;
Structure prediction by ZEFSAII (Michael W. Deem and Ramdas Pophale) SiO2 
 PCOD9073215
Probable space group: P -1
;
_chemical_formula_sum "Si O2"
_cell_formula_units_Z 15
_cell_length_a 13.167898
_cell_length_b 6.565917
_cell_length_c 12.428152
_cell_angle_alpha 113.993436
_cell_angle_beta 61.614241
_cell_angle_gamma 138.935392
_cell_volume 618.837258
_symmetry_space_group_name_H-M "P -1"
_symmetry_group_IT_number 2
_symmetry_cell_setting 'triclinic'
loop_
_space_group_symop_operation_xyz
x,y,z
-x,-y,-z
loop_
_atom_site_type_symbol
_atom_site_label
_atom_site_fract_x
_atom_site_fract_y
_atom_site_fract_z
Si Si1 0.769468 0.021444 0.586198
Si Si2 0.240770 0.290664 0.996065
Si Si3 0.000000 0.000000 0.500000
Si Si4 0.074072 0.959524 0.226802
Si Si5 0.461142 0.937860 0.379641
Si Si6 0.980871 0.596235 0.915716
Si Si7 0.508169 0.523921 0.766336
Si Si8 0.279769 0.374046 0.669217
O O1 0.659848 0.859980 0.713783
O O2 0.729172 0.747199 0.471666
O O3 0.954155 0.209993 0.550979
O O4 0.696673 0.129723 0.582270
O O5 0.165117 0.427972 0.033283
O O6 0.202738 0.185767 0.117673
O O7 0.422087 0.513255 0.910583
O O8 0.138422 0.964472 0.912137
O O9 0.909486 0.890646 0.637590
O O10 0.045668 0.658104 0.196481
O O11 0.899357 0.814187 0.242878
O O12 0.449034 0.674496 0.284856
O O13 0.500000 0.000000 0.500000
O O14 0.614321 0.262186 0.316354
O O15 0.000000 0.500000 0.000000
O O16 0.378283 0.356560 0.697895
#
# Coordination Sequence:
#
# PCOD9073215 Si02
#       8
#     2   2   1   2   2   2   2   2
#     4  10  21  37  54  80 114 155 192 236 287 339
#     4  10  20  33  56  89 118 148 191 243 303 355
#     4  10  24  46  60  74 120 168 204 240 276 340
#     4  10  21  38  58  82 118 161 199 237 285 344
#     4  11  18  32  57  89 116 142 187 241 304 350
#     4   9  17  33  55  86 122 151 185 237 299 350
#     4  11  19  32  56  86 117 142 182 248 305 343
#     4  10  18  31  53  83 118 148 180 239 300 343
#
# _framework density 24.239006
#
# number of rings (size 3 to 8) (size 9 to 14) (size 15 to 20)
#    0.000    1.867    2.667    4.000    0.000    3.200 
#    0.000    3.333    0.000    1.600    0.000    0.000 
#    0.000    0.000    0.000    0.000    0.000    0.000 
#
# Total GULP energy -83513.464193 kJ/mol
# GULP energy per Si atom -5567.564280 kJ/mol
# Density = 2.418384 g / cm^3
# Si number density = 24.239006 Si / 1000 Ang^3
#
#
#
# Elastic Constant Matrix: (Units=GPa)
#
#
# Indices 1 2 3 4 5 6 
#
# 1 65.7352 33.5034 38.9298 -0.1491 -26.6048 -22.9864
# 2 33.5034 63.5666 46.0716 0.8836 -1.1742 -15.1388
# 3 38.9298 46.0716 183.7178 -12.7709 0.0555 -1.4335
# 4 -0.1491 0.8836 -12.7709 30.3462 0.1452 -5.7079
# 5 -26.6048 -1.1742 0.0555 0.1452 39.9879 4.0946
# 6 -22.9864 -15.1388 -1.4335 -5.7079 4.0946 36.8958
#
#
#
# Elastic Compliance Matrix: (Units=1/GPa)
#
#
# Indices 1 2 3 4 5 6 
#
# 1 0.041719 -0.013575 -0.005194 0.001609 0.025554 0.017633
# 2 -0.013575 0.026166 -0.003790 -0.001858 -0.008537 0.002792
# 3 -0.005194 -0.003790 0.007648 0.002616 -0.003205 -0.003734
# 4 0.001609 -0.001858 0.002616 0.035197 0.000295 0.005754
# 5 0.025554 -0.008537 -0.003205 0.000295 0.040964 0.007793
# 6 0.017633 0.002792 -0.003734 0.005754 0.007793 0.039115
#
#
# Mechanical properties :
#
#
# Convention : Reuss Voigt Hill
#
# Bulk Modulus (GPa) = 32.87849 61.11437 46.99643
# Shear Modulus (GPa) = 20.31972 34.41362 27.36667
#
# Velocity S-wave (km/s) = 2.89849 3.77206 3.36376
# Velocity P-wave (km/s) = 4.97950 6.65126 5.87514
#
# Compressibility (1/GPa) = 0.03041503
#
# Stress axis : x y z
#
# Youngs Moduli (GPa) = 23.96965 38.21714 130.75299
#
# Poissons Ratio (x) = 0.51879 0.67919
# Poissons Ratio (y) = 0.32538 0.49556
# Poissons Ratio (z) = 0.12451 0.14485
#
# Static dielectric constant tensor:
#      x y z
#    x 2.263510 0.133520 0.002630 
#    y 0.133520 2.037950 -0.019580 
#    z 0.002630 -0.019580 1.933450 
# 
# From -- ./inp_files/525105.got.cif
#   From: 2010.05.17/outbox.cif.g08.bks.cpg/sg2_263_cif.got.tgz:525105.got - 2010.06.03 11:33:40.
