data_PCOD9073981
_publ_section_title
;
Structure prediction by ZEFSAII (Michael W. Deem and Ramdas Pophale) SiO2 
 PCOD9073981
Probable space group: P -1
;
_chemical_formula_sum "Si O2"
_cell_formula_units_Z 16
_cell_length_a 16.319229
_cell_length_b 5.648267
_cell_length_c 12.645255
_cell_angle_alpha 67.872391
_cell_angle_beta 138.803538
_cell_angle_gamma 89.605582
_cell_volume 625.494950
_symmetry_space_group_name_H-M "P -1"
_symmetry_group_IT_number 2
_symmetry_cell_setting 'triclinic'
loop_
_space_group_symop_operation_xyz
x,y,z
-x,-y,-z
loop_
_atom_site_type_symbol
_atom_site_label
_atom_site_fract_x
_atom_site_fract_y
_atom_site_fract_z
Si Si1 0.298959 0.910852 0.723569
Si Si2 0.361007 0.053473 0.423253
Si Si3 0.172226 0.100443 0.055275
Si Si4 0.064595 0.517692 0.382922
Si Si5 0.366842 0.543267 0.436876
Si Si6 0.624927 0.885253 0.934134
Si Si7 0.488371 0.458129 0.838440
Si Si8 0.129822 0.629342 0.651682
O O1 0.335698 0.695479 0.694788
O O2 0.191616 0.844923 0.699016
O O3 0.441076 0.767478 0.954241
O O4 0.219395 0.248214 0.560860
O O5 0.222374 0.213544 0.187563
O O6 0.361109 0.247276 0.486261
O O7 0.500000 0.000000 0.500000
O O8 0.371065 0.740115 0.503947
O O9 0.281119 0.085939 0.072916
O O10 0.226418 0.769017 0.198817
O O11 0.015207 0.276089 0.827676
O O12 0.965181 0.376718 0.343883
O O13 0.060573 0.683436 0.459748
O O14 0.500000 0.500000 0.500000
O O15 0.564247 0.668348 0.872160
O O16 0.526966 0.210930 0.827760
O O17 0.738159 0.696140 0.165642
#
# Coordination Sequence:
#
# PCOD9073981 Si02
#       8
#     2   2   2   2   2   2   2   2
#     4  10  20  32  50  61  91 129 173 201 241 267
#     4   8  15  28  45  67  95 126 149 179 228 289
#     4   9  20  28  50  73 103 127 149 196 238 287
#     4  10  18  32  44  72  94 128 161 192 241 286
#     4   8  15  28  45  66  95 126 148 177 228 292
#     4  10  20  34  47  72  94 123 167 200 239 270
#     4  10  22  33  51  65  89 129 173 208 229 272
#     4   9  19  31  47  65  96 128 159 199 236 287
#
# _framework density 25.579744000000002
#
# number of rings (size 3 to 8) (size 9 to 14) (size 15 to 20)
#    0.750    2.000    1.250    0.375    3.500    2.500 
#    0.000    0.000    0.000    0.000    0.000    0.000 
#    0.000    6.000    0.000    0.000    0.000    0.000 
#
# Total GULP energy -89190.832464 kJ/mol
# GULP energy per Si atom -5574.427029 kJ/mol
# Density = 2.552152 g / cm^3
# Si number density = 25.579744 Si / 1000 Ang^3
#
#
#
# Elastic Constant Matrix: (Units=GPa)
#
#
# Indices 1 2 3 4 5 6 
#
# 1 45.1280 19.9797 -12.6898 -1.7856 2.9350 -5.7204
# 2 19.9797 199.9055 51.3210 -19.8968 -20.3097 -12.5494
# 3 -12.6898 51.3210 121.7243 -26.5035 -20.9821 -6.7400
# 4 -1.7856 -19.8968 -26.5035 46.4134 -5.2676 -6.2165
# 5 2.9350 -20.3097 -20.9821 -5.2676 21.7946 3.6654
# 6 -5.7204 -12.5494 -6.7400 -6.2165 3.6654 31.4696
#
#
#
# Elastic Compliance Matrix: (Units=1/GPa)
#
#
# Indices 1 2 3 4 5 6 
#
# 1 0.025869 -0.003443 0.004527 0.002493 -0.002587 0.005093
# 2 -0.003443 0.006677 -0.001533 0.002703 0.005596 0.001591
# 3 0.004527 -0.001533 0.013778 0.009316 0.012888 0.003502
# 4 0.002493 0.002703 0.009316 0.031117 0.017386 0.007648
# 5 -0.002587 0.005596 0.012888 0.017386 0.068051 0.000030
# 6 0.005093 0.001591 0.003502 0.007648 0.000030 0.035594
#
#
# Mechanical properties :
#
#
# Convention : Reuss Voigt Hill
#
# Bulk Modulus (GPa) = 22.01355 53.77551 37.89453
# Shear Modulus (GPa) = 25.36449 40.47865 32.92157
#
# Velocity S-wave (km/s) = 3.15236 3.98232 3.59139
# Velocity P-wave (km/s) = 4.67700 6.49719 5.66073
#
# Compressibility (1/GPa) = 0.04542656
#
# Stress axis : x y z
#
# Youngs Moduli (GPa) = 38.65644 149.75819 72.58191
#
# Poissons Ratio (x) = 0.51558 -0.32859
# Poissons Ratio (y) = 0.13308 0.11127
# Poissons Ratio (z) = -0.17500 0.22959
#
# Static dielectric constant tensor:
#      x y z
#    x 2.061170 -0.010380 0.013570 
#    y -0.010380 2.045500 0.025190 
#    z 0.013570 0.025190 2.190120 
# 
# From -- ./inp_files/79747.got.cif
#   From: 2010.05.17/outbox.cif.g08.bks.cpg/sg2_40_cif.got.tgz:79747.got - 2010.06.03 11:33:40.
