data_PCOD9073439
_publ_section_title
;
Structure prediction by ZEFSAII (Michael W. Deem and Ramdas Pophale) SiO2 
 PCOD9073439
Probable space group: P -1
;
_chemical_formula_sum "Si O2"
_cell_formula_units_Z 15
_cell_length_a 12.000000
_cell_length_b 12.000000
_cell_length_c 18.000000
_cell_angle_alpha 150.000000
_cell_angle_beta 150.000000
_cell_angle_gamma 40.000000
_cell_volume 646.664136
_symmetry_space_group_name_H-M "P -1"
_symmetry_group_IT_number 2
_symmetry_cell_setting 'triclinic'
loop_
_space_group_symop_operation_xyz
x,y,z
-x,-y,-z
loop_
_atom_site_type_symbol
_atom_site_label
_atom_site_fract_x
_atom_site_fract_y
_atom_site_fract_z
Si Si1 0.672255 0.969372 0.265703
Si Si2 0.096698 0.337103 0.027672
Si Si3 0.343743 0.677596 0.811320
Si Si4 0.922155 0.382918 0.670001
Si Si5 0.649323 0.038271 0.792217
Si Si6 0.617659 0.214683 0.721232
Si Si7 0.984351 0.302567 0.231635
Si Si8 0.500000 0.000000 0.000000
O O1 0.565669 0.983056 0.294178
O O2 0.881218 0.789222 0.284837
O O3 0.740178 0.220755 0.439729
O O4 0.509309 0.868611 0.051054
O O5 0.146493 0.461006 0.207584
O O6 0.000000 0.500000 0.000000
O O7 0.879156 0.200654 0.843317
O O8 0.306314 0.192383 0.031380
O O9 0.488244 0.444883 0.754414
O O10 0.311432 0.801339 0.786217
O O11 0.135584 0.645569 0.728218
O O12 0.008559 0.516050 0.725478
O O13 0.604424 0.215180 0.803389
O O14 0.768031 0.819867 0.695494
O O15 0.822221 0.122967 0.000886
O O16 0.500000 0.000000 0.500000
#
# Coordination Sequence:
#
# PCOD9073439 Si02
#       8
#     2   2   2   2   2   2   2   1
#     4  10  22  39  69 100 135 171 230 287 355 422
#     4  12  25  48  71 101 147 193 237 288 352 428
#     4  11  23  47  67  99 137 183 228 290 352 420
#     4  11  22  41  68 102 132 182 227 292 354 413
#     4  10  21  39  65  98 134 175 226 289 349 416
#     4  12  25  45  70  99 139 195 238 288 351 432
#     4  10  21  41  69  97 135 173 227 297 354 404
#     4  12  26  46  78  98 144 194 238 286 360 430
#
# _framework density 23.195967
#
# number of rings (size 3 to 8) (size 9 to 14) (size 15 to 20)
#    0.000    1.067    4.000    1.600    5.600    2.667 
#    4.800    1.333    0.000    0.000    0.000    0.000 
#    0.000    0.000    0.000    0.000    0.000    0.000 
#
# Total GULP energy -83615.952105 kJ/mol
# GULP energy per Si atom -5574.396807 kJ/mol
# Density = 2.314317 g / cm^3
# Si number density = 23.195967 Si / 1000 Ang^3
#
#
#
# Elastic Constant Matrix: (Units=GPa)
#
#
# Indices 1 2 3 4 5 6 
#
# 1 127.5527 22.8643 36.7210 10.4486 11.8335 -42.5370
# 2 22.8643 97.3817 16.8264 25.3599 -9.2180 -22.5479
# 3 36.7210 16.8264 87.4564 18.0339 -5.0999 -7.0975
# 4 10.4486 25.3599 18.0339 23.2402 7.5843 -8.2040
# 5 11.8335 -9.2180 -5.0999 7.5843 24.3412 1.3711
# 6 -42.5370 -22.5479 -7.0975 -8.2040 1.3711 40.3240
#
#
#
# Elastic Compliance Matrix: (Units=1/GPa)
#
#
# Indices 1 2 3 4 5 6 
#
# 1 0.018273 -0.004480 -0.009970 0.017458 -0.019191 0.019220
# 2 -0.004480 0.020739 0.005705 -0.031660 0.021052 0.000717
# 3 -0.009970 0.005705 0.020709 -0.028130 0.020681 -0.010108
# 4 0.017458 -0.031660 -0.028130 0.120829 -0.065290 0.022564
# 5 -0.019191 0.021052 0.020681 -0.065290 0.084243 -0.020981
# 6 0.019220 0.000717 -0.010108 0.022564 -0.020981 0.049000
#
#
# Mechanical properties :
#
#
# Convention : Reuss Voigt Hill
#
# Bulk Modulus (GPa) = 23.67901 51.69048 37.68474
# Shear Modulus (GPa) = 14.47770 33.31302 23.89536
#
# Velocity S-wave (km/s) = 2.50100 3.79378 3.21308
# Velocity P-wave (km/s) = 4.30934 6.44383 5.48149
#
# Compressibility (1/GPa) = 0.04223149
#
# Stress axis : x y z
#
# Youngs Moduli (GPa) = 54.72475 48.21914 48.28857
#
# Poissons Ratio (x) = 0.21604 0.48142
# Poissons Ratio (y) = 0.24519 -0.27551
# Poissons Ratio (z) = 0.54559 -0.27511
#
# Static dielectric constant tensor:
#      x y z
#    x 1.417590 -0.289830 0.087400 
#    y -0.289830 1.669680 0.047050 
#    z 0.087400 0.047050 1.920330 
# 
# From -- ./inp_files/225318.got.cif
#   From: 2010.05.17/outbox.ucp.g08.bks.cvg/sg2_113_cif.got.tgz:225318.got - 2010.06.11 11:32:03.
