data_PCOD9073000
_publ_section_title
;
Structure prediction by ZEFSAII (Michael W. Deem and Ramdas Pophale) SiO2 
 PCOD9073000
Probable space group: P -1
;
_chemical_formula_sum "Si O2"
_cell_formula_units_Z 14
_cell_length_a 18.000000
_cell_length_b 9.000000
_cell_length_c 12.000000
_cell_angle_alpha 40.000000
_cell_angle_beta 40.000000
_cell_angle_gamma 70.000000
_cell_volume 647.049418
_symmetry_space_group_name_H-M "P -1"
_symmetry_group_IT_number 2
_symmetry_cell_setting 'triclinic'
loop_
_space_group_symop_operation_xyz
x,y,z
-x,-y,-z
loop_
_atom_site_type_symbol
_atom_site_label
_atom_site_fract_x
_atom_site_fract_y
_atom_site_fract_z
Si Si1 0.678013 0.210848 0.275207
Si Si2 0.398833 0.169368 0.630808
Si Si3 0.158282 0.243123 0.391418
Si Si4 0.627717 0.339224 0.645609
Si Si5 0.906106 0.254514 0.656130
Si Si6 0.831133 0.277496 0.292025
Si Si7 0.135032 0.331811 0.627260
O O1 0.530892 0.157446 0.518706
O O2 0.780174 0.253503 0.235291
O O3 0.639654 0.956843 0.379583
O O4 0.750978 0.487897 0.950584
O O5 0.435193 0.484023 0.416693
O O6 0.254855 0.966618 0.986737
O O7 0.177275 0.329573 0.451226
O O8 0.992741 0.117179 0.622747
O O9 0.199516 0.023927 0.462387
O O10 0.738626 0.354753 0.422424
O O11 0.728680 0.520043 0.532852
O O12 0.500000 0.000000 0.000000
O O13 0.909009 0.447530 0.443682
O O14 0.000000 0.500000 0.500000
O O15 0.000000 0.500000 0.000000
O O16 0.000000 0.000000 0.000000
#
# Coordination Sequence:
#
# PCOD9073000 Si02
#       7
#     2   2   2   2   2   2   2
#     4  11  26  46  75 106 143 188 247 312 361 430
#     4  11  23  48  72 104 142 190 248 303 362 433
#     4  11  24  46  75 108 135 187 259 304 353 426
#     4  12  28  46  70 109 153 196 238 296 381 450
#     4  10  20  39  73 107 131 178 249 301 350 414
#     4  12  28  47  68 105 154 195 237 300 378 441
#     4  11  23  43  78 106 141 191 253 306 349 436
#
# _framework density 21.636678
#
# number of rings (size 3 to 8) (size 9 to 14) (size 15 to 20)
#    0.000    0.857    2.857    5.143    6.000    1.143 
#    5.143    3.571    0.000    0.000    0.000    0.000 
#    0.000    0.000    0.000    0.000    0.000    0.000 
#
# Total GULP energy -78283.523875 kJ/mol
# GULP energy per Si atom -5591.680277 kJ/mol
# Density = 2.158743 g / cm^3
# Si number density = 21.636678 Si / 1000 Ang^3
#
#
#
# Elastic Constant Matrix: (Units=GPa)
#
#
# Indices 1 2 3 4 5 6 
#
# 1 110.1995 23.6198 30.8464 -6.1792 -6.0530 -12.8571
# 2 23.6198 122.7107 35.1834 -7.5345 5.7991 -32.9481
# 3 30.8464 35.1834 144.9974 -7.9414 -7.4647 -7.5110
# 4 -6.1792 -7.5345 -7.9414 45.5386 -9.9337 1.0636
# 5 -6.0530 5.7991 -7.4647 -9.9337 38.0042 -5.7058
# 6 -12.8571 -32.9481 -7.5110 1.0636 -5.7058 34.0883
#
#
#
# Elastic Compliance Matrix: (Units=1/GPa)
#
#
# Indices 1 2 3 4 5 6 
#
# 1 0.010257 -0.000658 -0.001663 0.001410 0.002257 0.003200
# 2 -0.000658 0.011828 -0.002140 0.001151 -0.000437 0.010603
# 3 -0.001663 -0.002140 0.007894 0.001211 0.001825 -0.000689
# 4 0.001410 0.001151 0.001211 0.024006 0.006910 0.002319
# 5 0.002257 -0.000437 0.001825 0.006910 0.029743 0.005594
# 6 0.003200 0.010603 -0.000689 0.002319 0.005594 0.041503
#
#
# Mechanical properties :
#
#
# Convention : Reuss Voigt Hill
#
# Bulk Modulus (GPa) = 47.49179 61.91187 54.70183
# Shear Modulus (GPa) = 35.41713 42.74343 39.08028
#
# Velocity S-wave (km/s) = 4.05025 4.44949 4.25456
# Velocity P-wave (km/s) = 6.62345 7.42117 7.03363
#
# Compressibility (1/GPa) = 0.02105627
#
# Stress axis : x y z
#
# Youngs Moduli (GPa) = 97.48982 84.54520 126.67132
#
# Poissons Ratio (x) = 0.05567 0.21068
# Poissons Ratio (y) = 0.06419 0.27110
# Poissons Ratio (z) = 0.16215 0.18094
#
# Static dielectric constant tensor:
#      x y z
#    x 1.839450 -0.019120 0.011220 
#    y -0.019120 1.818110 0.001770 
#    z 0.011220 0.001770 1.807750 
# 
# From -- ./inp_files/461802.got.cif
#   From: 2010.05.17/outbox.ucp.g08.bks.cvg/sg2_231_cif.got.tgz:461802.got - 2010.06.11 11:32:03.
