data_PCOD9073785
_publ_section_title
;
Structure prediction by ZEFSAII (Michael W. Deem and Ramdas Pophale) SiO2 
 PCOD9073785
Probable space group: P -1
;
_chemical_formula_sum "Si O2"
_cell_formula_units_Z 16
_cell_length_a 9.000000
_cell_length_b 27.000000
_cell_length_c 15.000000
_cell_angle_alpha 160.000000
_cell_angle_beta 50.000000
_cell_angle_gamma 140.000000
_cell_volume 750.501489
_symmetry_space_group_name_H-M "P -1"
_symmetry_group_IT_number 2
_symmetry_cell_setting 'triclinic'
loop_
_space_group_symop_operation_xyz
x,y,z
-x,-y,-z
loop_
_atom_site_type_symbol
_atom_site_label
_atom_site_fract_x
_atom_site_fract_y
_atom_site_fract_z
Si Si1 0.276178 0.002726 0.125130
Si Si2 0.370677 0.596948 0.398258
Si Si3 0.804101 0.995937 0.633142
Si Si4 0.180744 0.688775 0.931955
Si Si5 0.956394 0.190028 0.291731
Si Si6 0.574956 0.786710 0.821165
Si Si7 0.394610 0.603610 0.056009
Si Si8 0.914060 0.431487 0.048667
O O1 0.411225 0.219394 0.427138
O O2 0.172243 0.959824 0.193990
O O3 0.500000 0.000000 0.000000
O O4 0.076379 0.869186 0.900134
O O5 0.392399 0.671564 0.614986
O O6 0.095319 0.493388 0.293257
O O7 0.441887 0.461257 0.137620
O O8 0.556416 0.789423 0.364831
O O9 0.788976 0.145576 0.848280
O O10 0.000000 0.000000 0.500000
O O11 0.407638 0.700073 0.826349
O O12 0.195160 0.708524 0.065127
O O13 0.206495 0.228722 0.292981
O O14 0.985191 0.370135 0.612625
O O15 0.721747 0.005614 0.118861
O O16 0.144738 0.455672 0.956705
O O17 0.289306 0.625934 0.044109
#
# Coordination Sequence:
#
# PCOD9073785 Si02
#       8
#     2   2   2   2   2   2   2   2
#     4  11  24  43  71  99 131 179 226 272 330 399
#     4  11  22  42  70  98 131 176 221 270 328 400
#     4  12  26  44  64  97 139 174 219 279 335 390
#     4  12  25  41  66  97 134 173 223 276 329 388
#     4  10  21  44  68  98 132 173 222 270 330 392
#     4  10  22  40  68 101 133 169 216 276 334 390
#     4  11  24  46  67  93 138 175 222 266 333 405
#     4  11  25  43  70  98 129 179 220 273 328 401
#
# _framework density 21.319078000000001
#
# number of rings (size 3 to 8) (size 9 to 14) (size 15 to 20)
#    0.000    1.000    2.500    4.875    1.750    4.000 
#    0.000    0.000    0.000    0.000    0.000    0.000 
#    0.000    0.000    0.000    0.000    0.000    0.000 
#
# Total GULP energy -89347.182996 kJ/mol
# GULP energy per Si atom -5584.198937 kJ/mol
# Density = 2.127056 g / cm^3
# Si number density = 21.319078 Si / 1000 Ang^3
#
#
#
# Elastic Constant Matrix: (Units=GPa)
#
#
# Indices 1 2 3 4 5 6 
#
# 1 40.8909 31.3438 -9.3986 -4.5931 17.6856 -1.4004
# 2 31.3438 75.3440 -56.9704 -17.9829 17.9022 -15.7343
# 3 -9.3986 -56.9704 6.7957 -2.8040 17.9245 6.9277
# 4 -4.5931 -17.9829 -2.8040 13.8846 -10.2405 0.0082
# 5 17.6856 17.9022 17.9245 -10.2405 21.2194 -6.7858
# 6 -1.4004 -15.7343 6.9277 0.0082 -6.7858 41.5445
#
#
#
# Elastic Compliance Matrix: (Units=1/GPa)
#
#
# Indices 1 2 3 4 5 6 
#
# 1 0.080230 -0.038636 0.000669 -0.085598 -0.084401 -0.025809
# 2 -0.038636 0.022572 -0.013789 0.056584 0.058203 0.019041
# 3 0.000669 -0.013789 -0.010132 -0.008450 0.015229 -0.001021
# 4 -0.085598 0.056584 -0.008450 0.230822 0.156688 0.045502
# 5 -0.084401 0.058203 0.015229 0.156688 0.143957 0.040141
# 6 -0.025809 0.019041 -0.001021 0.045502 0.040141 0.037130
#
#
# Mechanical properties :
#
#
# Convention : Reuss Voigt Hill
#
# Bulk Modulus (GPa) = -92.23927 5.88668 -43.17630
# Shear Modulus (GPa) = 8.27165 25.86676 17.06921
#
# Velocity S-wave (km/s) = 1.97189 3.48705 2.83265
# Velocity P-wave (km/s) = 6.17863 4.35659 3.09804
#
# Compressibility (1/GPa) = -0.01084137
#
# Stress axis : x y z
#
# Youngs Moduli (GPa) = 12.46422 44.30330 -98.69430
#
# Poissons Ratio (x) = 1.71170 0.06607
# Poissons Ratio (y) = 0.48157 -1.36086
# Poissons Ratio (z) = -0.00834 0.61088
#
# Static dielectric constant tensor:
#      x y z
#    x 1.799770 -0.013790 -0.021360 
#    y -0.013790 1.801590 0.005690 
#    z -0.021360 0.005690 1.770770 
# 
# From -- ./inp_files/243540.got.cif
#   From: 2010.05.17/outbox.ucp.g08.bks.cvg/sg2_122_cif.got.tgz:243540.got - 2010.06.11 11:32:03.
