data_PCOD9073093
_publ_section_title
;
Structure prediction by ZEFSAII (Michael W. Deem and Ramdas Pophale) SiO2 
 PCOD9073093
Probable space group: P -1
;
_chemical_formula_sum "Si O2"
_cell_formula_units_Z 16
_cell_length_a 9.000000
_cell_length_b 30.000000
_cell_length_c 6.000000
_cell_angle_alpha 90.000000
_cell_angle_beta 100.000000
_cell_angle_gamma 150.000000
_cell_volume 759.581896
_symmetry_space_group_name_H-M "P -1"
_symmetry_group_IT_number 2
_symmetry_cell_setting 'triclinic'
loop_
_space_group_symop_operation_xyz
x,y,z
-x,-y,-z
loop_
_atom_site_type_symbol
_atom_site_label
_atom_site_fract_x
_atom_site_fract_y
_atom_site_fract_z
Si Si1 0.760186 0.254799 0.542209
Si Si2 0.889517 0.214358 0.888476
Si Si3 0.693063 0.722858 0.646225
Si Si4 0.162533 0.530865 0.292706
Si Si5 0.640769 0.890988 0.923417
Si Si6 0.583974 0.787461 0.169965
Si Si7 0.871037 0.365812 0.278274
Si Si8 0.180181 0.887108 0.439790
O O1 0.957993 0.278109 0.774264
O O2 0.567593 0.167935 0.351997
O O3 0.495635 0.212581 0.613194
O O4 0.932384 0.335883 0.429834
O O5 0.796089 0.151728 0.692887
O O6 0.577773 0.140003 0.958910
O O7 0.179130 0.275177 0.122050
O O8 0.500568 0.644000 0.408613
O O9 0.427759 0.687602 0.674624
O O10 0.008928 0.829069 0.630081
O O11 0.000000 0.500000 0.500000
O O12 0.148666 0.473618 0.312922
O O13 0.000000 0.500000 0.000000
O O14 0.650552 0.843525 0.014679
O O15 0.000000 0.000000 0.000000
O O16 0.892609 0.838539 0.252294
O O17 0.270848 0.681941 0.001147
O O18 0.500000 0.000000 0.500000
#
# Coordination Sequence:
#
# PCOD9073093 Si02
#       8
#     2   2   2   2   2   2   2   2
#     4  10  22  42  64  90 132 179 223 277 342 410
#     4  11  25  42  63  94 137 181 222 286 356 403
#     4  11  23  42  65 100 141 174 226 294 346 419
#     4  10  23  40  73 108 141 184 233 288 356 423
#     4  10  24  40  62  87 126 182 235 276 337 416
#     4  10  21  38  63  93 129 169 224 281 333 411
#     4  10  20  41  68 100 130 179 227 284 343 419
#     4  12  26  38  65  97 136 177 226 289 354 412
#
# _framework density 21.064219999999999
#
# number of rings (size 3 to 8) (size 9 to 14) (size 15 to 20)
#    0.000    1.500    2.500    1.500    8.750    1.500 
#    0.000    0.625    0.000   10.500    0.000    0.000 
#    0.000    0.000    0.000    0.000    0.000    0.000 
#
# Total GULP energy -89144.100834 kJ/mol
# GULP energy per Si atom -5571.506302 kJ/mol
# Density = 2.101628 g / cm^3
# Si number density = 21.064220 Si / 1000 Ang^3
#
#
#
# Elastic Constant Matrix: (Units=GPa)
#
#
# Indices 1 2 3 4 5 6 
#
# 1 92.2035 4.8583 29.3631 -6.5260 6.4957 -7.5498
# 2 4.8583 75.4119 16.9263 0.7489 7.5984 -21.2439
# 3 29.3631 16.9263 84.5260 -13.2369 12.8750 -7.8711
# 4 -6.5260 0.7489 -13.2369 16.5501 -3.9112 -12.0120
# 5 6.4957 7.5984 12.8750 -3.9112 46.4474 -6.5877
# 6 -7.5498 -21.2439 -7.8711 -12.0120 -6.5877 14.8720
#
#
#
# Elastic Compliance Matrix: (Units=1/GPa)
#
#
# Indices 1 2 3 4 5 6 
#
# 1 0.010235 -0.005526 -0.007529 -0.021058 -0.003813 -0.025379
# 2 -0.005526 -0.001772 -0.013214 -0.067166 -0.011069 -0.071483
# 3 -0.007529 -0.013214 0.009569 -0.029343 -0.008292 -0.045007
# 4 -0.021058 -0.067166 -0.029343 -0.183283 -0.033814 -0.285178
# 5 -0.003813 -0.011069 -0.008292 -0.033814 0.017405 -0.041737
# 6 -0.025379 -0.071483 -0.045007 -0.285178 -0.041737 -0.320398
#
#
# Mechanical properties :
#
#
# Convention : Reuss Voigt Hill
#
# Bulk Modulus (GPa) = -28.97967 39.38186 5.20109
# Shear Modulus (GPa) = -11.70386 28.97348 8.63481
#
# Velocity S-wave (km/s) = -2.35973 3.71277 2.02686
# Velocity P-wave (km/s) = 4.60566 6.09231 2.81995
#
# Compressibility (1/GPa) = -0.03450695
#
# Stress axis : x y z
#
# Youngs Moduli (GPa) = 97.70855 -564.20628 104.50212
#
# Poissons Ratio (x) = -3.11759 0.78680
# Poissons Ratio (y) = 0.53990 1.38094
# Poissons Ratio (z) = 0.73565 -7.45570
#
# Static dielectric constant tensor:
#      x y z
#    x 0.805040 -0.542980 -1.409810 
#    y -0.542980 1.545090 -0.668460 
#    z -1.409810 -0.668460 0.009010 
# 
# From -- ./inp_files/49391.got.cif
#   From: 2010.05.17/outbox.ucp.g08.bks.cvg/sg2_25_cif.got.tgz:49391.got - 2010.06.11 11:32:03.
