data_PCOD9073244
_publ_section_title
;
Structure prediction by ZEFSAII (Michael W. Deem and Ramdas Pophale) SiO2 
 PCOD9073244
Probable space group: P -1
;
_chemical_formula_sum "Si O2"
_cell_formula_units_Z 16
_cell_length_a 12.000000
_cell_length_b 15.000000
_cell_length_c 6.000000
_cell_angle_alpha 60.000000
_cell_angle_beta 90.000000
_cell_angle_gamma 60.000000
_cell_volume 763.675324
_symmetry_space_group_name_H-M "P -1"
_symmetry_group_IT_number 2
_symmetry_cell_setting 'triclinic'
loop_
_space_group_symop_operation_xyz
x,y,z
-x,-y,-z
loop_
_atom_site_type_symbol
_atom_site_label
_atom_site_fract_x
_atom_site_fract_y
_atom_site_fract_z
Si Si1 0.038126 0.719364 0.618569
Si Si2 0.688480 0.460771 0.893157
Si Si3 0.461272 0.659566 0.976062
Si Si4 0.097256 0.350137 0.641608
Si Si5 0.904758 0.862750 0.824528
Si Si6 0.114305 0.856162 0.112002
Si Si7 0.333840 0.863998 0.336046
Si Si8 0.391678 0.297432 0.691361
O O1 0.107194 0.761246 0.393184
O O2 0.965716 0.662935 0.568961
O O3 0.914762 0.845373 0.582528
O O4 0.158062 0.623292 0.908337
O O5 0.588676 0.536789 0.006331
O O6 0.661445 0.569641 0.592600
O O7 0.634483 0.382671 0.882808
O O8 0.369052 0.768720 0.658947
O O9 0.533200 0.702340 0.086373
O O10 0.255844 0.300857 0.705096
O O11 0.000000 0.500000 0.500000
O O12 0.088356 0.255893 0.924197
O O13 0.773611 0.992748 0.758325
O O14 0.045209 0.849543 0.897022
O O15 0.255858 0.839667 0.173973
O O16 0.000000 0.000000 0.000000
O O17 0.482938 0.818675 0.304882
#
# Coordination Sequence:
#
# PCOD9073244 Si02
#       8
#     2   2   2   2   2   2   2   2
#     4  11  22  40  68  90 123 165 207 257 315 358
#     4  10  21  37  59  95 119 160 208 255 309 374
#     4  10  21  38  60  89 130 157 202 256 313 375
#     4  11  25  45  63  91 125 164 217 261 298 367
#     4  10  24  40  65  93 123 167 212 256 305 368
#     4   9  20  38  60  94 129 156 202 254 306 376
#     4  10  22  40  61  96 127 160 207 253 313 381
#     4  11  24  39  63  88 127 172 201 255 317 358
#
# _framework density 20.951312000000001
#
# number of rings (size 3 to 8) (size 9 to 14) (size 15 to 20)
#    0.000    1.750    1.250    1.875    1.750   10.500 
#    0.000    1.250    0.000    0.000    0.000    0.000 
#    0.000    0.000    0.000    0.000    0.000    0.000 
#
# Total GULP energy -89282.835502 kJ/mol
# GULP energy per Si atom -5580.177219 kJ/mol
# Density = 2.090363 g / cm^3
# Si number density = 20.951312 Si / 1000 Ang^3
#
#
#
# Elastic Constant Matrix: (Units=GPa)
#
#
# Indices 1 2 3 4 5 6 
#
# 1 155.7561 36.8989 14.0918 -2.5065 22.9829 0.8882
# 2 36.8989 121.5605 12.4225 -8.1014 13.0021 5.0091
# 3 14.0918 12.4225 25.0066 -10.5901 23.8667 -2.0963
# 4 -2.5065 -8.1014 -10.5901 24.0696 -1.7272 9.2699
# 5 22.9829 13.0021 23.8667 -1.7272 30.3638 -1.3698
# 6 0.8882 5.0091 -2.0963 9.2699 -1.3698 32.1159
#
#
#
# Elastic Compliance Matrix: (Units=1/GPa)
#
#
# Indices 1 2 3 4 5 6 
#
# 1 0.008038 -0.001702 0.014182 0.005887 -0.016232 -0.001423
# 2 -0.001702 0.009412 0.002046 0.004673 -0.004211 -0.002816
# 3 0.014182 0.002046 0.432992 0.183460 -0.343324 -0.040047
# 4 0.005887 0.004673 0.183460 0.126193 -0.144905 -0.031522
# 5 -0.016232 -0.004211 -0.343324 -0.144905 0.310165 0.033751
# 6 -0.001423 -0.002816 -0.040047 -0.031522 0.033751 0.039540
#
#
# Mechanical properties :
#
#
# Convention : Reuss Voigt Hill
#
# Bulk Modulus (GPa) = 2.08553 47.68329 24.88441
# Shear Modulus (GPa) = 4.72983 33.23719 18.98351
#
# Velocity S-wave (km/s) = 1.50414 3.98729 3.01338
# Velocity P-wave (km/s) = 2.00354 6.63373 4.90003
#
# Compressibility (1/GPa) = 0.47949332
#
# Stress axis : x y z
#
# Youngs Moduli (GPa) = 124.40156 106.24914 2.30951
#
# Poissons Ratio (x) = 0.18085 -0.03275
# Poissons Ratio (y) = 0.21175 -0.00472
# Poissons Ratio (z) = -1.76423 -0.21736
#
# Static dielectric constant tensor:
#      x y z
#    x 1.722980 -0.005500 -0.009230 
#    y -0.005500 1.833570 0.075680 
#    z -0.009230 0.075680 1.778580 
# 
# From -- ./inp_files/70717.got.cif
#   From: 2010.05.17/outbox.ucp.g08.bks.cvg/sg2_36_cif.got.tgz:70717.got - 2010.06.11 11:32:03.
