data_PCOD9073284
_publ_section_title
;
Structure prediction by ZEFSAII (Michael W. Deem and Ramdas Pophale) SiO2 
 PCOD9073284
Probable space group: P -1
;
_chemical_formula_sum "Si O2"
_cell_formula_units_Z 12
_cell_length_a 9.000000
_cell_length_b 15.000000
_cell_length_c 12.000000
_cell_angle_alpha 30.000000
_cell_angle_beta 130.000000
_cell_angle_gamma 120.000000
_cell_volume 613.666794
_symmetry_space_group_name_H-M "P -1"
_symmetry_group_IT_number 2
_symmetry_cell_setting 'triclinic'
loop_
_space_group_symop_operation_xyz
x,y,z
-x,-y,-z
loop_
_atom_site_type_symbol
_atom_site_label
_atom_site_fract_x
_atom_site_fract_y
_atom_site_fract_z
Si Si1 0.453489 0.784578 0.353313
Si Si2 0.886965 0.608433 0.727465
Si Si3 0.546750 0.129182 0.122760
Si Si4 0.800612 0.022857 0.806026
Si Si5 0.889513 0.047935 0.561916
Si Si6 0.782873 0.297092 0.891711
O O1 0.660850 0.663154 0.591474
O O2 0.318239 0.737313 0.237526
O O3 0.521245 0.983997 0.169288
O O4 0.331227 0.803949 0.388339
O O5 0.875518 0.480030 0.753378
O O6 0.993272 0.782329 0.574150
O O7 0.000000 0.500000 0.000000
O O8 0.331271 0.138167 0.063318
O O9 0.712055 0.064422 0.367485
O O10 0.617947 0.290864 0.914851
O O11 0.823638 0.042725 0.664488
O O12 0.000000 0.000000 0.000000
O O13 0.045983 0.867291 0.817434
#
# Coordination Sequence:
#
# PCOD9073284 Si02
#       6
#     2   2   2   2   2   2
#     4  10  23  41  63  96 126 165 216 257 317 373
#     4  12  25  41  65  99 127 164 217 265 314 375
#     4  10  21  37  67  92 123 165 208 259 313 370
#     4  10  22  40  67  93 128 170 211 256 319 386
#     4  12  21  43  67  95 128 168 211 260 324 376
#     4  12  22  41  69  94 126 166 215 271 312 369
#
# _framework density 19.554586
#
# number of rings (size 3 to 8) (size 9 to 14) (size 15 to 20)
#    1.000    0.000    5.000    3.000    2.333    0.000 
#    0.000    3.333    0.000    0.000    0.000    0.000 
#    0.000    0.000    0.000    0.000    0.000    0.000 
#
# Total GULP energy -66837.529868 kJ/mol
# GULP energy per Si atom -5569.794156 kJ/mol
# Density = 1.951008 g / cm^3
# Si number density = 19.554586 Si / 1000 Ang^3
#
#
#
# Elastic Constant Matrix: (Units=GPa)
#
#
# Indices 1 2 3 4 5 6 
#
# 1 99.4995 25.1060 15.6399 0.5061 -1.7027 -0.2365
# 2 25.1060 133.5129 14.3833 13.0931 14.9834 8.9116
# 3 15.6399 14.3833 22.4614 -3.3484 10.3290 5.9059
# 4 0.5061 13.0931 -3.3484 42.8715 -3.9022 0.5500
# 5 -1.7027 14.9834 10.3290 -3.9022 3.6334 21.5639
# 6 -0.2365 8.9116 5.9059 0.5500 21.5639 28.2425
#
#
#
# Elastic Compliance Matrix: (Units=1/GPa)
#
#
# Indices 1 2 3 4 5 6 
#
# 1 0.011302 -0.001181 -0.006478 -0.000783 -0.004768 0.005478
# 2 -0.001181 0.008427 -0.005577 -0.002588 0.003855 -0.004396
# 3 -0.006478 -0.005577 0.051522 0.007734 0.017976 -0.022944
# 4 -0.000783 -0.002588 0.007734 0.024123 -0.006175 0.003438
# 5 -0.004768 0.003855 0.017976 -0.006175 -0.064679 0.044489
# 6 0.005478 -0.004396 -0.022944 0.003438 0.044489 0.007603
#
#
# Mechanical properties :
#
#
# Convention : Reuss Voigt Hill
#
# Bulk Modulus (GPa) = 22.33137 40.63691 31.48414
# Shear Modulus (GPa) = 62.73864 28.30577 45.52220
#
# Velocity S-wave (km/s) = 5.67041 3.80876 4.83012
# Velocity P-wave (km/s) = 7.36995 6.33787 6.87331
#
# Compressibility (1/GPa) = 0.04478006
#
# Stress axis : x y z
#
# Youngs Moduli (GPa) = 88.48035 118.66005 19.40930
#
# Poissons Ratio (x) = 0.14016 0.12573
# Poissons Ratio (y) = 0.10451 0.10824
# Poissons Ratio (z) = 0.57314 0.66174
#
# Static dielectric constant tensor:
#      x y z
#    x 1.738600 -0.004290 0.020390 
#    y -0.004290 1.698930 -0.058160 
#    z 0.020390 -0.058160 1.700780 
# 
# From -- ./inp_files/160533.got.cif
#   From: 2010.05.17/outbox.ucp.g08.bks.cvg/sg2_81_cif.got.tgz:160533.got - 2010.06.11 11:32:03.
