data_PCOD9073639
_publ_section_title
;
Structure prediction by ZEFSAII (Michael W. Deem and Ramdas Pophale) SiO2 
 PCOD9073639
Probable space group: P -1
;
_chemical_formula_sum "Si O2"
_cell_formula_units_Z 14
_cell_length_a 15.000000
_cell_length_b 30.000000
_cell_length_c 12.000000
_cell_angle_alpha 160.000000
_cell_angle_beta 30.000000
_cell_angle_gamma 160.000000
_cell_volume 624.976433
_symmetry_space_group_name_H-M "P -1"
_symmetry_group_IT_number 2
_symmetry_cell_setting 'triclinic'
loop_
_space_group_symop_operation_xyz
x,y,z
-x,-y,-z
loop_
_atom_site_type_symbol
_atom_site_label
_atom_site_fract_x
_atom_site_fract_y
_atom_site_fract_z
Si Si1 0.219602 0.419188 0.110441
Si Si2 0.603333 0.784773 0.205568
Si Si3 0.733909 0.027206 0.841418
Si Si4 0.013886 0.353254 0.778881
Si Si5 0.070845 0.189672 0.525015
Si Si6 0.028752 0.263024 0.296655
Si Si7 0.640322 0.351435 0.300813
O O1 0.265636 0.576657 0.502077
O O2 0.500000 0.500000 0.000000
O O3 0.134711 0.350567 0.913084
O O4 0.002793 0.219844 0.944671
O O5 0.644984 0.853617 0.453272
O O6 0.291940 0.588998 0.049980
O O7 0.791340 0.981480 0.386733
O O8 0.760193 0.735654 0.905384
O O9 0.804006 0.079964 0.023601
O O10 0.500000 0.000000 0.000000
O O11 0.054149 0.239461 0.535968
O O12 0.962127 0.292851 0.560581
O O13 0.761926 0.287328 0.959216
O O14 0.326022 0.225586 0.340483
O O15 0.192890 0.453376 0.492021
#
# Coordination Sequence:
#
# PCOD9073639 Si02
#       7
#     2   2   2   2   2   2   2
#     4   8  17  37  66  93 134 177 222 285 341 399
#     4  11  23  44  74 100 138 185 233 290 342 412
#     4  10  21  41  69 103 133 176 237 289 337 409
#     4  12  25  45  72 102 141 192 224 285 351 419
#     4  10  23  44  66 104 140 178 238 283 348 412
#     4  11  23  44  70 101 142 185 228 281 358 413
#     4  10  21  43  68  97 141 185 232 286 342 411
#
# _framework density 22.400845
#
# number of rings (size 3 to 8) (size 9 to 14) (size 15 to 20)
#    0.000    1.714    1.429    3.000    0.000    1.143 
#   10.286    0.714    0.000    0.000    0.000    0.000 
#    0.000    0.000    0.000    0.000    0.000    0.000 
#
# Total GULP energy -78071.432369 kJ/mol
# GULP energy per Si atom -5576.530883 kJ/mol
# Density = 2.234986 g / cm^3
# Si number density = 22.400845 Si / 1000 Ang^3
#
#
#
# Elastic Constant Matrix: (Units=GPa)
#
#
# Indices 1 2 3 4 5 6 
#
# 1 99.8091 27.5861 17.0772 -2.5504 32.1526 -4.6619
# 2 27.5861 110.6445 28.0534 -19.1803 10.3551 13.1699
# 3 17.0772 28.0534 88.1188 -27.9313 25.9783 5.3516
# 4 -2.5504 -19.1803 -27.9313 52.5023 -10.0413 2.0261
# 5 32.1526 10.3551 25.9783 -10.0413 51.0177 -8.6189
# 6 -4.6619 13.1699 5.3516 2.0261 -8.6189 28.1325
#
#
#
# Elastic Compliance Matrix: (Units=1/GPa)
#
#
# Indices 1 2 3 4 5 6 
#
# 1 0.013487 -0.003138 0.000015 -0.002075 -0.008045 0.001386
# 2 -0.003138 0.011508 -0.001678 0.003419 0.000194 -0.005775
# 3 0.000015 -0.001678 0.016675 0.006995 -0.007668 -0.005237
# 4 -0.002075 0.003419 0.006995 0.024296 0.001039 -0.004706
# 5 -0.008045 0.000194 -0.007668 0.001039 0.030303 0.009244
# 6 0.001386 -0.005775 -0.005237 -0.004706 0.009244 0.042646
#
#
# Mechanical properties :
#
#
# Convention : Reuss Voigt Hill
#
# Bulk Modulus (GPa) = 31.18430 49.33398 40.25914
# Shear Modulus (GPa) = 31.40544 41.38753 36.39648
#
# Velocity S-wave (km/s) = 3.74836 4.30302 4.03523
# Velocity P-wave (km/s) = 5.71707 6.83806 6.30254
#
# Compressibility (1/GPa) = 0.03206742
#
# Stress axis : x y z
#
# Youngs Moduli (GPa) = 74.14384 86.89763 59.96845
#
# Poissons Ratio (x) = 0.27271 -0.00090
# Poissons Ratio (y) = 0.23269 0.10064
# Poissons Ratio (z) = -0.00111 0.14583
#
# Static dielectric constant tensor:
#      x y z
#    x 1.869650 -0.007750 0.007410 
#    y -0.007750 1.803440 0.002930 
#    z 0.007410 0.002930 1.924600 
# 
# From -- ./inp_files/426160.got.cif
#   From: 2010.05.17/outbox.ucp.g08.bks.cvg/sg2_214_cif.got.tgz:426160.got - 2010.06.11 11:32:03.
