data_PCOD9073045
_publ_section_title
;
Structure prediction by ZEFSAII (Michael W. Deem and Ramdas Pophale) SiO2 
 PCOD9073045
Probable space group: P -1
;
_chemical_formula_sum "Si O2"
_cell_formula_units_Z 14
_cell_length_a 30.000000
_cell_length_b 21.000000
_cell_length_c 9.000000
_cell_angle_alpha 40.000000
_cell_angle_beta 140.000000
_cell_angle_gamma 170.000000
_cell_volume 629.429676
_symmetry_space_group_name_H-M "P -1"
_symmetry_group_IT_number 2
_symmetry_cell_setting 'triclinic'
loop_
_space_group_symop_operation_xyz
x,y,z
-x,-y,-z
loop_
_atom_site_type_symbol
_atom_site_label
_atom_site_fract_x
_atom_site_fract_y
_atom_site_fract_z
Si Si1 0.449098 0.577934 0.158760
Si Si2 0.612741 0.054202 0.119133
Si Si3 0.378141 0.779650 0.722965
Si Si4 0.490292 0.672097 0.443874
Si Si5 0.857680 0.996495 0.286162
Si Si6 0.864158 0.690949 0.289362
Si Si7 0.977283 0.312850 0.762960
O O1 0.546986 0.744959 0.276901
O O2 0.641537 0.762974 0.245216
O O3 0.379250 0.568302 0.877737
O O4 0.155814 0.135072 0.226753
O O5 0.886589 0.420406 0.250542
O O6 0.435654 0.711093 0.282873
O O7 0.500000 0.000000 0.000000
O O8 0.610549 0.066176 0.913718
O O9 0.191363 0.443699 0.765221
O O10 0.196327 0.593556 0.697350
O O11 0.500000 0.000000 0.500000
O O12 0.269711 0.284214 0.585077
O O13 0.723209 0.971354 0.619972
O O14 0.099647 0.314458 0.450047
O O15 0.926326 0.152831 0.035020
#
# Coordination Sequence:
#
# PCOD9073045 Si02
#       7
#     2   2   2   2   2   2   2
#     4  10  21  40  69 102 132 171 225 276 329 402
#     4  10  23  43  63  95 135 174 228 271 325 402
#     4  11  22  43  68  91 128 177 228 276 330 401
#     4  11  21  43  68  97 135 179 219 271 335 399
#     4  11  23  42  68 106 139 172 220 281 340 400
#     4  10  20  40  68  97 133 173 224 273 333 386
#     4  11  24  43  66  96 141 177 218 279 340 396
#
# _framework density 22.242357999999999
#
# number of rings (size 3 to 8) (size 9 to 14) (size 15 to 20)
#    0.000    1.429    1.429    5.143    0.000    0.000 
#   12.857    4.286    0.000    0.000    0.000    0.000 
#    0.000    0.000    0.000    0.000    0.000    0.000 
#
# Total GULP energy -77980.252158 kJ/mol
# GULP energy per Si atom -5570.018011 kJ/mol
# Density = 2.219173 g / cm^3
# Si number density = 22.242358 Si / 1000 Ang^3
#
#
#
# Elastic Constant Matrix: (Units=GPa)
#
#
# Indices 1 2 3 4 5 6 
#
# 1 117.9553 40.1512 56.9817 1.4333 -9.1008 -39.8489
# 2 40.1512 79.3727 45.5340 19.9640 -13.2093 -42.0827
# 3 56.9817 45.5340 131.2857 33.2749 -27.5470 -8.6104
# 4 1.4333 19.9640 33.2749 53.9686 -16.3481 -14.3734
# 5 -9.1008 -13.2093 -27.5470 -16.3481 45.9081 5.5520
# 6 -39.8489 -42.0827 -8.6104 -14.3734 5.5520 55.6597
#
#
#
# Elastic Compliance Matrix: (Units=1/GPa)
#
#
# Indices 1 2 3 4 5 6 
#
# 1 0.017112 0.002542 -0.009531 0.008316 -0.000435 0.014890
# 2 0.002542 0.028305 -0.009717 0.001536 0.000698 0.022044
# 3 -0.009531 -0.009717 0.017456 -0.009475 0.004148 -0.014331
# 4 0.008316 0.001536 -0.009475 0.028429 0.005018 0.012490
# 5 -0.000435 0.000698 0.004148 0.005018 0.026229 -0.000462
# 6 0.014890 0.022044 -0.014331 0.012490 -0.000462 0.046347
#
#
# Mechanical properties :
#
#
# Convention : Reuss Voigt Hill
#
# Bulk Modulus (GPa) = 33.94424 68.21640 51.08032
# Shear Modulus (GPa) = 24.14150 43.50373 33.82262
#
# Velocity S-wave (km/s) = 3.29809 4.42735 3.90377
# Velocity P-wave (km/s) = 5.45870 7.54131 6.58289
#
# Compressibility (1/GPa) = 0.02946008
#
# Stress axis : x y z
#
# Youngs Moduli (GPa) = 58.43689 35.32946 57.28696
#
# Poissons Ratio (x) = -0.08980 0.54601
# Poissons Ratio (y) = -0.14853 0.55667
# Poissons Ratio (z) = 0.55697 0.34330
#
# Static dielectric constant tensor:
#      x y z
#    x 1.848550 -0.033310 0.077260 
#    y -0.033310 1.892420 -0.011870 
#    z 0.077260 -0.011870 1.999930 
# 
# From -- ./inp_files/358987.got.cif
#   From: 2010.05.17/outbox.ucp.g08.bks.cvg/sg2_180_cif.got.tgz:358987.got - 2010.06.11 11:32:03.
