data_PCOD9073418
_publ_section_title
;
Structure prediction by ZEFSAII (Michael W. Deem and Ramdas Pophale) SiO2 
 PCOD9073418
Probable space group: P -1
;
_chemical_formula_sum "Si O2"
_cell_formula_units_Z 16
_cell_length_a 15.000000
_cell_length_b 9.000000
_cell_length_c 9.000000
_cell_angle_alpha 80.000000
_cell_angle_beta 130.000000
_cell_angle_gamma 70.000000
_cell_volume 732.374747
_symmetry_space_group_name_H-M "P -1"
_symmetry_group_IT_number 2
_symmetry_cell_setting 'triclinic'
loop_
_space_group_symop_operation_xyz
x,y,z
-x,-y,-z
loop_
_atom_site_type_symbol
_atom_site_label
_atom_site_fract_x
_atom_site_fract_y
_atom_site_fract_z
Si Si1 0.348331 0.843871 0.696971
Si Si2 0.937336 0.404371 0.837576
Si Si3 0.668310 0.914352 0.875755
Si Si4 0.859123 0.947234 0.297993
Si Si5 0.955774 0.375949 0.200436
Si Si6 0.662787 0.829424 0.536839
Si Si7 0.313320 0.433883 0.930379
Si Si8 0.866906 0.228006 0.554944
O O1 0.238317 0.821950 0.496714
O O2 0.275646 0.882735 0.777389
O O3 0.333032 0.026111 0.589112
O O4 0.515225 0.660718 0.884169
O O5 0.784457 0.611887 0.664221
O O6 0.923091 0.269147 0.750158
O O7 0.027640 0.454951 0.825244
O O8 0.991489 0.315653 0.075938
O O9 0.684449 0.863591 0.726129
O O10 0.501416 0.103445 0.670885
O O11 0.780338 0.936158 0.072904
O O12 0.679935 0.752880 0.015930
O O13 0.938080 0.771700 0.532016
O O14 0.995596 0.929682 0.371868
O O15 0.793346 0.449175 0.062455
O O16 0.227286 0.577664 0.677149
#
# Coordination Sequence:
#
# PCOD9073418 Si02
#       8
#     2   2   2   2   2   2   2   2
#     4  11  24  43  60  90 131 169 203 249 313 372
#     4  11  21  39  67  92 125 162 207 257 309 365
#     4  10  21  39  66  97 121 160 207 263 312 349
#     4  11  23  40  65  91 124 165 207 259 305 366
#     4  10  21  39  64  96 122 155 209 264 303 355
#     4  10  22  40  66  92 129 156 207 260 307 370
#     4  10  21  39  64  89 127 159 207 260 298 364
#     4  11  25  40  62  93 127 167 207 250 309 375
#
# _framework density 21.846738999999999
#
# number of rings (size 3 to 8) (size 9 to 14) (size 15 to 20)
#    0.000    1.500    2.500    2.250    3.500    3.000 
#    0.000    5.625    0.000    0.000    0.000    0.000 
#    0.000    0.000    0.000    0.000    0.000    0.000 
#
# Total GULP energy -89250.907704 kJ/mol
# GULP energy per Si atom -5578.181731 kJ/mol
# Density = 2.179701 g / cm^3
# Si number density = 21.846739 Si / 1000 Ang^3
#
#
#
# Elastic Constant Matrix: (Units=GPa)
#
#
# Indices 1 2 3 4 5 6 
#
# 1 98.5481 1.3156 20.5574 0.1025 41.4288 -22.7274
# 2 1.3156 46.2141 15.5405 16.2711 20.5570 -25.3953
# 3 20.5574 15.5405 94.4254 0.9025 19.2184 -17.0181
# 4 0.1025 16.2711 0.9025 34.6014 -0.5619 5.1616
# 5 41.4288 20.5570 19.2184 -0.5619 40.8704 -7.9147
# 6 -22.7274 -25.3953 -17.0181 5.1616 -7.9147 23.1484
#
#
#
# Elastic Compliance Matrix: (Units=1/GPa)
#
#
# Indices 1 2 3 4 5 6 
#
# 1 0.000391 -0.025950 -0.003361 0.017126 0.008369 -0.031512
# 2 -0.025950 -0.030918 -0.006931 0.024028 0.034181 -0.058163
# 3 -0.003361 -0.006931 0.011763 0.003381 0.000884 -0.002708
# 4 0.017126 0.024028 0.003381 0.011886 -0.024141 0.034756
# 5 0.008369 0.034181 0.000884 -0.024141 0.008638 0.054702
# 6 -0.031512 -0.058163 -0.002708 0.034756 0.054702 -0.042585
#
#
# Mechanical properties :
#
#
# Convention : Reuss Voigt Hill
#
# Bulk Modulus (GPa) = -10.95928 34.89050 11.96561
# Shear Modulus (GPa) = 4024.70152 33.17564 2028.93858
#
# Velocity S-wave (km/s) = 42.96793 3.90110 30.50788
# Velocity P-wave (km/s) = 49.56440 6.02467 35.30529
#
# Compressibility (1/GPa) = -0.09124685
#
# Stress axis : x y z
#
# Youngs Moduli (GPa) = 2554.42266 -32.34385 85.01563
#
# Poissons Ratio (x) = -0.83931 0.28572
# Poissons Ratio (y) = 66.28622 0.58926
# Poissons Ratio (z) = 8.58484 -0.22418
#
# Static dielectric constant tensor:
#      x y z
#    x 1.814430 -0.014470 0.057110 
#    y -0.014470 1.867450 0.008910 
#    z 0.057110 0.008910 1.797410 
# 
# From -- ./inp_files/271555.got.cif
#   From: 2010.05.17/outbox.ucp.g08.bks.cvg/sg2_136_cif.got.tgz:271555.got - 2010.06.11 11:32:03.
