data_PCOD9073067
_publ_section_title
;
Structure prediction by ZEFSAII (Michael W. Deem and Ramdas Pophale) SiO2 
 PCOD9073067
Probable space group: P -1
;
_chemical_formula_sum "Si O2"
_cell_formula_units_Z 16
_cell_length_a 9.000000
_cell_length_b 12.000000
_cell_length_c 12.000000
_cell_angle_alpha 50.000000
_cell_angle_beta 50.000000
_cell_angle_gamma 70.000000
_cell_volume 754.912344
_symmetry_space_group_name_H-M "P -1"
_symmetry_group_IT_number 2
_symmetry_cell_setting 'triclinic'
loop_
_space_group_symop_operation_xyz
x,y,z
-x,-y,-z
loop_
_atom_site_type_symbol
_atom_site_label
_atom_site_fract_x
_atom_site_fract_y
_atom_site_fract_z
Si Si1 0.082392 0.384267 0.406316
Si Si2 0.289358 0.920042 0.991213
Si Si3 0.997675 0.146590 0.033947
Si Si4 0.678310 0.382063 0.718439
Si Si5 0.270524 0.107510 0.559652
Si Si6 0.770144 0.598256 0.123031
Si Si7 0.038257 0.689707 0.735209
Si Si8 0.608755 0.057112 0.589686
O O1 0.250730 0.513342 0.277941
O O2 0.137881 0.238588 0.537037
O O3 0.865608 0.418120 0.524158
O O4 0.063487 0.350607 0.307188
O O5 0.326640 0.787971 0.137456
O O6 0.176422 0.049370 0.008561
O O7 0.134232 0.855343 0.011930
O O8 0.492098 0.995475 0.793774
O O9 0.101480 0.307607 0.905837
O O10 0.847811 0.051207 0.251124
O O11 0.464263 0.405667 0.761051
O O12 0.448985 0.133912 0.544226
O O13 0.352341 0.082145 0.414302
O O14 0.830633 0.435387 0.206800
O O15 0.864170 0.682457 0.913786
O O16 0.191040 0.837052 0.556292
#
# Coordination Sequence:
#
# PCOD9073067 Si02
#       8
#     2   2   2   2   2   2   2   2
#     4  11  25  43  65  89 126 161 208 257 307 366
#     4  10  22  39  66  94 125 164 205 246 305 367
#     4  10  20  41  64  92 126 164 202 251 305 362
#     4  11  25  44  62  92 124 164 206 256 308 363
#     4  10  20  41  64  92 126 164 202 251 305 362
#     4  11  25  43  65  89 126 161 208 257 307 366
#     4  11  25  44  62  92 124 164 206 256 308 363
#     4  10  22  39  66  94 125 164 205 246 305 367
#
# _framework density 21.194514000000002
#
# number of rings (size 3 to 8) (size 9 to 14) (size 15 to 20)
#    0.000    1.500    2.500    1.500    3.500    3.000 
#    0.000    0.000    0.000    0.000    0.000    0.000 
#    0.000    0.000    0.000    0.000    0.000    0.000 
#
# Total GULP energy -89347.744082 kJ/mol
# GULP energy per Si atom -5584.234005 kJ/mol
# Density = 2.114627 g / cm^3
# Si number density = 21.194514 Si / 1000 Ang^3
#
#
#
# Elastic Constant Matrix: (Units=GPa)
#
#
# Indices 1 2 3 4 5 6 
#
# 1 34.9343 -4.3580 -13.9358 -1.2258 -16.9164 -5.7730
# 2 -4.3580 23.4856 -6.3104 1.5876 -9.0911 -2.0592
# 3 -13.9358 -6.3104 42.5299 -4.9315 -18.0796 3.3435
# 4 -1.2258 1.5876 -4.9315 22.0645 1.0128 -10.3584
# 5 -16.9164 -9.0911 -18.0796 1.0128 33.7938 -1.3113
# 6 -5.7730 -2.0592 3.3435 -10.3584 -1.3113 34.2718
#
#
#
# Elastic Compliance Matrix: (Units=1/GPa)
#
#
# Indices 1 2 3 4 5 6 
#
# 1 -0.119262 -0.117724 -0.125442 -0.033522 -0.158683 -0.031128
# 2 -0.117724 -0.057972 -0.104203 -0.032849 -0.130377 -0.028065
# 3 -0.125442 -0.104203 -0.094054 -0.029239 -0.141528 -0.032468
# 4 -0.033522 -0.032849 -0.029239 0.044554 -0.042320 0.007079
# 5 -0.158683 -0.130377 -0.141528 -0.042320 -0.160904 -0.039704
# 6 -0.031128 -0.028065 -0.032468 0.007079 -0.039704 0.026037
#
#
# Mechanical properties :
#
#
# Convention : Reuss Voigt Hill
#
# Bulk Modulus (GPa) = -1.03517 5.74905 2.35694
# Shear Modulus (GPa) = 449.30736 26.39630 237.85183
#
# Velocity S-wave (km/s) = 14.57575 3.53289 10.60504
# Velocity P-wave (km/s) = 16.81608 4.40002 12.29107
#
# Compressibility (1/GPa) = -0.96602478
#
# Stress axis : x y z
#
# Youngs Moduli (GPa) = -8.38492 -17.24977 -10.63222
#
# Poissons Ratio (x) = -2.03071 -1.33373
# Poissons Ratio (y) = -0.98710 -1.10791
# Poissons Ratio (z) = -1.05182 -1.79747
#
# Static dielectric constant tensor:
#      x y z
#    x 1.732560 0.025990 0.027970 
#    y 0.025990 1.815920 0.043130 
#    z 0.027970 0.043130 1.766530 
# 
# From -- ./inp_files/189553.got.cif
#   From: 2010.05.17/outbox.ucp.g08.bks.cvg/sg2_95_cif.got.tgz:189553.got - 2010.06.11 11:32:03.
