data_PCOD9073198
_publ_section_title
;
Structure prediction by ZEFSAII (Michael W. Deem and Ramdas Pophale) SiO2 
 PCOD9073198
Probable space group: P -1
;
_chemical_formula_sum "Si O2"
_cell_formula_units_Z 14
_cell_length_a 16.760157
_cell_length_b 14.135829
_cell_length_c 15.875069
_cell_angle_alpha 65.066449
_cell_angle_beta 41.363606
_cell_angle_gamma 28.034696
_cell_volume 737.385632
_symmetry_space_group_name_H-M "P -1"
_symmetry_group_IT_number 2
_symmetry_cell_setting 'triclinic'
loop_
_space_group_symop_operation_xyz
x,y,z
-x,-y,-z
loop_
_atom_site_type_symbol
_atom_site_label
_atom_site_fract_x
_atom_site_fract_y
_atom_site_fract_z
Si Si1 0.945858 0.421480 0.071870
Si Si2 0.538268 0.434394 0.190134
Si Si3 0.802856 0.165087 0.911240
Si Si4 0.356992 0.415999 0.919353
Si Si5 0.733180 0.142204 0.485444
Si Si6 0.795340 0.301321 0.471849
Si Si7 0.692945 0.042520 0.941770
O O1 0.885109 0.428765 0.022695
O O2 0.274317 0.088989 0.981734
O O3 0.569928 0.696476 0.315157
O O4 0.000000 0.500000 0.000000
O O5 0.715738 0.405091 0.066552
O O6 0.444620 0.469808 0.344232
O O7 0.131164 0.781915 0.341139
O O8 0.770662 0.182201 0.031031
O O9 0.172006 0.902952 0.669210
O O10 0.715037 0.125924 0.952495
O O11 0.500000 0.500000 0.000000
O O12 0.792677 0.062758 0.680835
O O13 0.366016 0.333697 0.025328
O O14 0.635379 0.327238 0.545850
O O15 0.943037 0.251736 0.296701
#
# Coordination Sequence:
#
# PCOD9073198 Si02
#       7
#     2   2   2   2   2   2   2
#     4  12  23  34  54  76 105 147 187 218 245 298
#     4  10  13  29  57  85 105 137 156 212 289 320
#     4   9  16  28  57  87 106 131 166 210 282 331
#     4   9  17  34  52  77 111 132 169 226 255 307
#     4   9  15  30  49  79 106 130 171 219 262 309
#     4   8  14  29  55  77 101 130 160 219 277 303
#     4   9  20  34  53  83 104 137 175 216 269 312
#
# _framework density 18.985994999999999
#
# number of rings (size 3 to 8) (size 9 to 14) (size 15 to 20)
#    0.857    1.714    5.714    0.857    0.000    2.857 
#    0.000    0.714    0.000    4.286    0.000    0.000 
#    0.000    0.000    0.000    0.000    0.000    0.000 
#
# Total GULP energy -77951.399881 kJ/mol
# GULP energy per Si atom -5567.957134 kJ/mol
# Density = 1.894278 g / cm^3
# Si number density = 18.985995 Si / 1000 Ang^3
#
#
#
# Elastic Constant Matrix: (Units=GPa)
#
#
# Indices 1 2 3 4 5 6 
#
# 1 83.4742 34.6226 37.1674 -25.7139 33.7831 -19.3682
# 2 34.6226 100.1983 12.6184 -26.7144 4.7120 -8.2992
# 3 37.1674 12.6184 47.3356 -11.1004 21.6239 -1.1919
# 4 -25.7139 -26.7144 -11.1004 34.1834 3.6826 4.2194
# 5 33.7831 4.7120 21.6239 3.6826 41.3879 -6.7404
# 6 -19.3682 -8.2992 -1.1919 4.2194 -6.7404 23.3555
#
#
#
# Elastic Compliance Matrix: (Units=1/GPa)
#
#
# Indices 1 2 3 4 5 6 
#
# 1 0.043309 -0.003333 -0.014808 0.025248 -0.025909 0.021936
# 2 -0.003333 0.013196 0.000956 0.008038 0.000093 0.000548
# 3 -0.014808 0.000956 0.038161 0.004871 -0.010665 -0.013951
# 4 0.025248 0.008038 0.004871 0.058521 -0.028418 0.005269
# 5 -0.025909 0.000093 -0.010665 -0.028418 0.053152 -0.001523
# 6 0.021936 0.000548 -0.013951 0.005269 -0.001523 0.059099
#
#
# Mechanical properties :
#
#
# Convention : Reuss Voigt Hill
#
# Bulk Modulus (GPa) = 16.58540 44.42498 30.50519
# Shear Modulus (GPa) = 15.62957 29.55867 22.59412
#
# Velocity S-wave (km/s) = 2.87229 3.95000 3.45344
# Velocity P-wave (km/s) = 4.44461 6.65229 5.65719
#
# Compressibility (1/GPa) = 0.06029398
#
# Stress axis : x y z
#
# Youngs Moduli (GPa) = 23.09010 75.78281 26.20471
#
# Poissons Ratio (x) = 0.25260 0.38804
# Poissons Ratio (y) = 0.07696 -0.02504
# Poissons Ratio (z) = 0.34192 -0.07242
#
# Static dielectric constant tensor:
#      x y z
#    x 1.675260 -0.098350 0.041690 
#    y -0.098350 1.797790 0.022360 
#    z 0.041690 0.022360 1.666340 
# 
# From -- ./inp_files/532459.got.cif
#   From: 2010.05.17/outbox.cif.g08.bks.cpg/sg2_267_cif.got.tgz:532459.got - 2010.06.03 11:33:40.
