data_PCOD9073953
_publ_section_title
;
Structure prediction by ZEFSAII (Michael W. Deem and Ramdas Pophale) SiO2 
 PCOD9073953
Probable space group: P -1
;
_chemical_formula_sum "Si O2"
_cell_formula_units_Z 16
_cell_length_a 14.995607
_cell_length_b 12.605377
_cell_length_c 9.499147
_cell_angle_alpha 61.590977
_cell_angle_beta 136.618025
_cell_angle_gamma 146.358856
_cell_volume 642.579882
_symmetry_space_group_name_H-M "P -1"
_symmetry_group_IT_number 2
_symmetry_cell_setting 'triclinic'
loop_
_space_group_symop_operation_xyz
x,y,z
-x,-y,-z
loop_
_atom_site_type_symbol
_atom_site_label
_atom_site_fract_x
_atom_site_fract_y
_atom_site_fract_z
Si Si1 0.522788 0.681211 0.312586
Si Si2 0.164974 0.684330 0.244921
Si Si3 0.099918 0.756965 0.839905
Si Si4 0.395204 0.518638 0.968620
Si Si5 0.737777 0.315645 0.358192
Si Si6 0.651730 0.022228 0.306324
Si Si7 0.118260 0.212465 0.246577
Si Si8 0.049603 0.826092 0.184051
O O1 0.325802 0.453540 0.291184
O O2 0.757837 0.818981 0.560084
O O3 0.476327 0.786539 0.224240
O O4 0.537367 0.658705 0.179776
O O5 0.326497 0.777182 0.500347
O O6 0.062043 0.476930 0.227982
O O7 0.013071 0.669605 0.160590
O O8 0.221969 0.792579 0.096498
O O9 0.208099 0.869574 0.744452
O O10 0.990937 0.798769 0.743111
O O11 0.331804 0.598945 0.778967
O O12 0.166254 0.297707 0.903495
O O13 0.500000 0.500000 0.000000
O O14 0.619936 0.140420 0.222663
O O15 0.000000 0.500000 0.500000
O O16 0.768767 0.065273 0.558747
O O17 0.943020 0.079710 0.001173
#
# Coordination Sequence:
#
# PCOD9073953 Si02
#       8
#     2   2   2   2   2   2   2   2
#     4  10  24  40  59  93 131 170 208 261 337 380
#     4   9  17  32  59  89 117 157 215 255 299 376
#     4  10  18  31  61  94 118 159 214 271 302 363
#     4  11  22  37  62  93 128 169 207 257 321 391
#     4  11  19  38  65  91 123 173 217 254 315 391
#     4  11  21  37  69  97 119 160 228 277 294 375
#     4   9  21  41  59  84 133 175 202 255 337 399
#     4   9  18  38  62  87 119 169 215 244 313 389
#
# _framework density 24.899626000000001
#
# number of rings (size 3 to 8) (size 9 to 14) (size 15 to 20)
#    0.000    2.000    3.750    0.000    3.500    1.500 
#    0.000    0.000   11.000    3.750    0.000    0.000 
#    0.000    0.000    0.000    0.000    0.000    0.000 
#
# Total GULP energy -89292.247664 kJ/mol
# GULP energy per Si atom -5580.765479 kJ/mol
# Density = 2.484295 g / cm^3
# Si number density = 24.899626 Si / 1000 Ang^3
#
#
#
# Elastic Constant Matrix: (Units=GPa)
#
#
# Indices 1 2 3 4 5 6 
#
# 1 156.6190 44.2146 23.0098 -1.8490 -18.0221 -26.8778
# 2 44.2146 81.1913 5.4368 -0.6577 -4.3855 -20.9635
# 3 23.0098 5.4368 117.5996 -14.2857 -18.7516 -3.0535
# 4 -1.8490 -0.6577 -14.2857 21.7716 -6.2221 -1.9605
# 5 -18.0221 -4.3855 -18.7516 -6.2221 34.6554 -6.8453
# 6 -26.8778 -20.9635 -3.0535 -1.9605 -6.8453 38.1500
#
#
#
# Elastic Compliance Matrix: (Units=1/GPa)
#
#
# Indices 1 2 3 4 5 6 
#
# 1 0.008970 -0.003033 -0.000208 0.002716 0.005805 0.005818
# 2 -0.003033 0.015958 0.000724 0.002111 0.002649 0.007274
# 3 -0.000208 0.000724 0.011158 0.010026 0.008448 0.003175
# 4 0.002716 0.002111 0.010026 0.059421 0.019846 0.010491
# 5 0.005805 0.002649 0.008448 0.019846 0.043309 0.015013
# 6 0.005818 0.007274 0.003175 0.010491 0.015013 0.037795
#
#
# Mechanical properties :
#
#
# Convention : Reuss Voigt Hill
#
# Bulk Modulus (GPa) = 32.20547 55.63693 43.92120
# Shear Modulus (GPa) = 26.04190 37.76532 31.90361
#
# Velocity S-wave (km/s) = 3.23751 3.89871 3.58339
# Velocity P-wave (km/s) = 5.19013 6.53143 5.89903
#
# Compressibility (1/GPa) = 0.03105063
#
# Stress axis : x y z
#
# Youngs Moduli (GPa) = 111.47913 62.66329 89.62047
#
# Poissons Ratio (x) = 0.19008 0.01866
# Poissons Ratio (y) = 0.33816 -0.06484
# Poissons Ratio (z) = 0.02321 -0.04534
#
# Static dielectric constant tensor:
#      x y z
#    x 1.975620 0.049250 0.049800 
#    y 0.049250 1.996230 -0.004920 
#    z 0.049800 -0.004920 2.109230 
# 
# From -- ./inp_files/307185.got.cif
#   From: 2010.05.17/outbox.cif.g08.bks.cpg/sg2_154_cif.got.tgz:307185.got - 2010.06.03 11:33:40.
