data_PCOD9073922
_publ_section_title
;
Structure prediction by ZEFSAII (Michael W. Deem and Ramdas Pophale) SiO2 
 PCOD9073922
Probable space group: P -1
;
_chemical_formula_sum "Si O2"
_cell_formula_units_Z 16
_cell_length_a 11.716265
_cell_length_b 15.920607
_cell_length_c 7.662405
_cell_angle_alpha 44.620169
_cell_angle_beta 133.246455
_cell_angle_gamma 120.020300
_cell_volume 731.048183
_symmetry_space_group_name_H-M "P -1"
_symmetry_group_IT_number 2
_symmetry_cell_setting 'triclinic'
loop_
_space_group_symop_operation_xyz
x,y,z
-x,-y,-z
loop_
_atom_site_type_symbol
_atom_site_label
_atom_site_fract_x
_atom_site_fract_y
_atom_site_fract_z
Si Si1 0.587884 0.675819 0.307078
Si Si2 0.068860 0.122054 0.973455
Si Si3 0.258509 0.617838 0.883459
Si Si4 0.476635 0.681445 0.567327
Si Si5 0.353226 0.073491 0.188316
Si Si6 0.275271 0.458651 0.794577
Si Si7 0.230932 0.835689 0.263187
Si Si8 0.919039 0.637739 0.565493
O O1 0.559795 0.698390 0.446736
O O2 0.758923 0.619010 0.536512
O O3 0.427363 0.611492 0.162672
O O4 0.600747 0.803202 0.035850
O O5 0.250820 0.096760 0.220683
O O6 0.069370 0.221226 0.674801
O O7 0.959097 0.168882 0.943736
O O8 0.000000 0.000000 0.000000
O O9 0.247473 0.520141 0.861148
O O10 0.256598 0.747748 0.588765
O O11 0.097944 0.606525 0.845924
O O12 0.373230 0.558628 0.642238
O O13 0.352352 0.781951 0.334178
O O14 0.610692 0.652937 0.892615
O O15 0.500000 0.000000 0.500000
O O16 0.265766 0.975954 0.117720
O O17 0.124747 0.422122 0.578947
#
# Coordination Sequence:
#
# PCOD9073922 Si02
#       8
#     2   2   2   2   2   2   2   2
#     4  11  22  37  57  87 120 148 186 238 289 339
#     4   8  17  31  54  86 109 139 185 234 272 328
#     4  10  20  37  60  86 113 149 193 238 284 333
#     4  10  22  37  58  82 117 155 188 235 286 334
#     4  10  18  31  60  87 109 145 190 230 283 342
#     4  10  21  38  59  82 109 153 200 232 280 339
#     4   9  17  35  56  81 113 149 190 228 277 340
#     4  10  20  36  60  87 114 147 193 236 283 340
#
# _framework density 21.886382999999999
#
# number of rings (size 3 to 8) (size 9 to 14) (size 15 to 20)
#    0.000    2.250    1.250    2.625    1.750    2.500 
#    0.000    6.250    0.000    0.750    0.000    0.000 
#    0.000    0.000    0.000    0.000    0.000    0.000 
#
# Total GULP energy -89133.269487 kJ/mol
# GULP energy per Si atom -5570.829343 kJ/mol
# Density = 2.183657 g / cm^3
# Si number density = 21.886383 Si / 1000 Ang^3
#
#
#
# Elastic Constant Matrix: (Units=GPa)
#
#
# Indices 1 2 3 4 5 6 
#
# 1 187.7674 38.4565 46.0455 7.1528 45.4496 10.4613
# 2 38.4565 82.5092 22.9810 -10.8235 9.1395 11.9121
# 3 46.0455 22.9810 71.7920 -1.2803 33.6070 9.8695
# 4 7.1528 -10.8235 -1.2803 17.0658 -0.1585 6.5958
# 5 45.4496 9.1395 33.6070 -0.1585 38.3167 1.8610
# 6 10.4613 11.9121 9.8695 6.5958 1.8610 26.8882
#
#
#
# Elastic Compliance Matrix: (Units=1/GPa)
#
#
# Indices 1 2 3 4 5 6 
#
# 1 0.008589 -0.003870 -0.000184 -0.006403 -0.009161 0.000645
# 2 -0.003870 0.018001 -0.003508 0.016482 0.003903 -0.009495
# 3 -0.000184 -0.003508 0.026351 0.002383 -0.021701 -0.007129
# 4 -0.006403 0.016482 0.002383 0.081998 0.003176 -0.026020
# 5 -0.009161 0.003903 -0.021701 0.003176 0.054826 0.005227
# 6 0.000645 -0.009495 -0.007129 -0.026020 0.005227 0.049785
#
#
# Mechanical properties :
#
#
# Convention : Reuss Voigt Hill
#
# Bulk Modulus (GPa) = 26.44335 61.89275 44.16805
# Shear Modulus (GPa) = 18.70689 32.09317 25.40003
#
# Velocity S-wave (km/s) = 2.92674 3.83345 3.41037
# Velocity P-wave (km/s) = 4.85072 6.92346 5.97762
#
# Compressibility (1/GPa) = 0.03781669
#
# Stress axis : x y z
#
# Youngs Moduli (GPa) = 116.42848 55.55155 37.94864
#
# Poissons Ratio (x) = 0.21499 0.00700
# Poissons Ratio (y) = 0.45060 0.13312
# Poissons Ratio (z) = 0.02148 0.19487
#
# Static dielectric constant tensor:
#      x y z
#    x 1.884290 0.069850 0.064520 
#    y 0.069850 2.080330 0.056260 
#    z 0.064520 0.056260 1.833400 
# 
# From -- ./inp_files/276153.got.cif
#   From: 2010.05.17/outbox.cif.g08.bks.cpg/sg2_139_cif.got.tgz:276153.got - 2010.06.03 11:33:40.
