data_PCOD9073473
_publ_section_title
;
Structure prediction by ZEFSAII (Michael W. Deem and Ramdas Pophale) SiO2 
 PCOD9073473
Probable space group: P -1
;
_chemical_formula_sum "Si O2"
_cell_formula_units_Z 16
_cell_length_a 12.000000
_cell_length_b 12.000000
_cell_length_c 9.000000
_cell_angle_alpha 130.000000
_cell_angle_beta 60.000000
_cell_angle_gamma 90.000000
_cell_volume 752.153660
_symmetry_space_group_name_H-M "P -1"
_symmetry_group_IT_number 2
_symmetry_cell_setting 'triclinic'
loop_
_space_group_symop_operation_xyz
x,y,z
-x,-y,-z
loop_
_atom_site_type_symbol
_atom_site_label
_atom_site_fract_x
_atom_site_fract_y
_atom_site_fract_z
Si Si1 0.634208 0.954392 0.763891
Si Si2 0.889308 0.215484 0.666067
Si Si3 0.347941 0.503247 0.136684
Si Si4 0.829989 0.084403 0.866458
Si Si5 0.179076 0.775163 0.693554
Si Si6 0.148137 0.113274 0.914369
Si Si7 0.899588 0.697362 0.209749
Si Si8 0.573782 0.868127 0.206307
O O1 0.739299 0.776325 0.463092
O O2 0.741859 0.986048 0.824155
O O3 0.552060 0.076877 0.786398
O O4 0.500000 0.000000 0.000000
O O5 0.785487 0.370811 0.770568
O O6 0.792941 0.184766 0.824112
O O7 0.004848 0.239019 0.708868
O O8 0.996238 0.046904 0.363205
O O9 0.288715 0.590550 0.409659
O O10 0.500000 0.500000 0.000000
O O11 0.374806 0.319330 0.943803
O O12 0.793562 0.194669 0.129463
O O13 0.199306 0.914980 0.706852
O O14 0.009880 0.812143 0.834559
O O15 0.124165 0.218465 0.866904
O O16 0.276870 0.126521 0.927509
O O17 0.000000 0.500000 0.000000
O O18 0.500000 0.000000 0.500000
#
# Coordination Sequence:
#
# PCOD9073473 Si02
#       8
#     2   2   2   2   2   2   2   2
#     4  11  25  43  68 101 137 183 227 283 354 418
#     4  10  21  39  69  98 131 173 229 278 344 404
#     4  12  27  43  66 104 140 183 235 290 350 419
#     4  10  21  43  70  99 136 180 224 285 341 415
#     4  11  24  43  72 106 135 183 237 293 342 418
#     4  11  22  42  74 101 137 184 232 284 353 412
#     4  11  23  42  69  98 137 182 231 284 341 416
#     4  12  25  45  70  98 142 188 226 284 359 423
#
# _framework density 21.272248999999999
#
# number of rings (size 3 to 8) (size 9 to 14) (size 15 to 20)
#    0.000    1.000    2.500    4.500    3.500    2.500 
#    0.000    1.250    0.000    0.000    0.000    0.000 
#    0.000    0.000    0.000    0.000    0.000    0.000 
#
# Total GULP energy -89228.438827 kJ/mol
# GULP energy per Si atom -5576.777427 kJ/mol
# Density = 2.122383 g / cm^3
# Si number density = 21.272249 Si / 1000 Ang^3
#
#
#
# Elastic Constant Matrix: (Units=GPa)
#
#
# Indices 1 2 3 4 5 6 
#
# 1 96.5047 25.6447 31.3992 -2.2601 -3.0390 -0.5073
# 2 25.6447 108.9439 71.7250 5.7274 4.3625 -7.0324
# 3 31.3992 71.7250 152.0870 10.3359 -0.2576 -0.7811
# 4 -2.2601 5.7274 10.3359 32.7826 -5.2745 2.2303
# 5 -3.0390 4.3625 -0.2576 -5.2745 30.1852 -4.0481
# 6 -0.5073 -7.0324 -0.7811 2.2303 -4.0481 44.5862
#
#
#
# Elastic Compliance Matrix: (Units=1/GPa)
#
#
# Indices 1 2 3 4 5 6 
#
# 1 0.011474 -0.001790 -0.001652 0.001909 0.001717 -0.000120
# 2 -0.001790 0.013883 -0.006096 -0.001107 -0.002175 0.001921
# 3 -0.001652 -0.006096 0.009930 -0.002078 0.000346 -0.000671
# 4 0.001909 -0.001107 -0.002078 0.032512 0.005843 -0.001285
# 5 0.001717 -0.002175 0.000346 0.005843 0.034984 0.002567
# 6 -0.000120 0.001921 -0.000671 -0.001285 0.002567 0.023016
#
#
# Mechanical properties :
#
#
# Convention : Reuss Voigt Hill
#
# Bulk Modulus (GPa) = 61.69192 68.34147 65.01669
# Shear Modulus (GPa) = 33.27154 36.76190 35.01672
#
# Velocity S-wave (km/s) = 3.95914 4.16163 4.06164
# Velocity P-wave (km/s) = 7.06851 7.43566 7.25440
#
# Compressibility (1/GPa) = 0.01620958
#
# Stress axis : x y z
#
# Youngs Moduli (GPa) = 87.15707 72.02856 100.70743
#
# Poissons Ratio (x) = 0.12893 0.16637
# Poissons Ratio (y) = 0.15601 0.61396
# Poissons Ratio (z) = 0.14399 0.43912
#
# Static dielectric constant tensor:
#      x y z
#    x 1.736080 0.090070 -0.034790 
#    y 0.090070 1.752230 0.025060 
#    z -0.034790 0.025060 1.757550 
# 
# From -- ./inp_files/263320.got.cif
#   From: 2010.05.17/outbox.ucp.g08.bks.cvg/sg2_132_cif.got.tgz:263320.got - 2010.06.11 11:32:03.
