data_PCOD9073025
_publ_section_title
;
Structure prediction by ZEFSAII (Michael W. Deem and Ramdas Pophale) SiO2 
 PCOD9073025
Probable space group: P -1
;
_chemical_formula_sum "Si O2"
_cell_formula_units_Z 16
_cell_length_a 21.000000
_cell_length_b 9.000000
_cell_length_c 18.000000
_cell_angle_alpha 60.000000
_cell_angle_beta 20.000000
_cell_angle_gamma 50.000000
_cell_volume 818.070593
_symmetry_space_group_name_H-M "P -1"
_symmetry_group_IT_number 2
_symmetry_cell_setting 'triclinic'
loop_
_space_group_symop_operation_xyz
x,y,z
-x,-y,-z
loop_
_atom_site_type_symbol
_atom_site_label
_atom_site_fract_x
_atom_site_fract_y
_atom_site_fract_z
Si Si1 0.519564 0.888045 0.813327
Si Si2 0.688272 0.511854 0.335163
Si Si3 0.525066 0.058025 0.613709
Si Si4 0.979285 0.037254 0.102034
Si Si5 0.986164 0.325913 0.602009
Si Si6 0.787216 0.157695 0.742939
Si Si7 0.519803 0.468796 0.129614
Si Si8 0.501939 0.697148 0.656763
O O1 0.520330 0.697003 0.823005
O O2 0.762706 0.818444 0.598811
O O3 0.453156 0.047159 0.778780
O O4 0.329106 0.950688 0.068551
O O5 0.500000 0.500000 0.500000
O O6 0.659576 0.714359 0.278148
O O7 0.910707 0.270658 0.140609
O O8 0.617483 0.580633 0.481384
O O9 0.767413 0.029017 0.359718
O O10 0.559953 0.861533 0.578461
O O11 0.000000 0.000000 0.000000
O O12 0.225040 0.852949 0.911952
O O13 0.895862 0.229786 0.666749
O O14 0.000000 0.500000 0.500000
O O15 0.776258 0.412084 0.868474
O O16 0.606629 0.342633 0.838662
O O17 0.000000 0.000000 0.500000
O O18 0.436877 0.472808 0.303156
#
# Coordination Sequence:
#
# PCOD9073025 Si02
#       8
#     2   2   2   2   2   2   2   2
#     4  10  20  40  65  89 120 164 210 249 302 376
#     4  10  21  41  63  90 127 159 205 259 307 373
#     4  10  22  40  63  95 123 160 215 254 306 382
#     4  11  22  41  65  90 125 165 205 258 316 363
#     4  11  18  38  68  82 114 170 205 240 310 365
#     4  11  23  40  58  92 131 155 202 264 304 361
#     4  10  21  39  62  91 121 160 208 255 304 371
#     4  11  22  42  64  89 127 166 206 259 314 366
#
# _framework density 19.558214
#
# number of rings (size 3 to 8) (size 9 to 14) (size 15 to 20)
#    0.000    1.500    5.000    1.875    0.000    1.000 
#   11.250    1.250    0.000    0.000    0.000    0.000 
#    0.000    0.000    0.000    0.000    0.000    0.000 
#
# Total GULP energy -89152.490379 kJ/mol
# GULP energy per Si atom -5572.030649 kJ/mol
# Density = 1.951370 g / cm^3
# Si number density = 19.558214 Si / 1000 Ang^3
#
#
#
# Elastic Constant Matrix: (Units=GPa)
#
#
# Indices 1 2 3 4 5 6 
#
# 1 107.1301 36.8318 48.1381 -12.2531 12.2120 -9.3369
# 2 36.8318 62.7380 44.4526 -24.6909 26.6402 3.6448
# 3 48.1381 44.4526 112.5788 -17.9650 1.9737 -5.6282
# 4 -12.2531 -24.6909 -17.9650 31.9434 5.0642 7.5275
# 5 12.2120 26.6402 1.9737 5.0642 42.7574 -15.7562
# 6 -9.3369 3.6448 -5.6282 7.5275 -15.7562 25.4789
#
#
#
# Elastic Compliance Matrix: (Units=1/GPa)
#
#
# Indices 1 2 3 4 5 6 
#
# 1 0.011546 0.006572 -0.006190 0.009627 -0.011120 -0.007797
# 2 0.006572 -0.069692 0.015457 -0.077022 0.083095 0.089934
# 3 -0.006190 0.015457 0.008226 0.021957 -0.018410 -0.020534
# 4 0.009627 -0.077022 0.021957 -0.044010 0.079492 0.081557
# 5 -0.011120 0.083095 -0.018410 0.079492 -0.064510 -0.083407
# 6 -0.007797 0.089934 -0.020534 0.081557 -0.083407 -0.056685
#
#
# Mechanical properties :
#
#
# Convention : Reuss Voigt Hill
#
# Bulk Modulus (GPa) = -54.81304 60.14353 2.66525
# Shear Modulus (GPa) = -19.77202 30.23757 5.23278
#
# Velocity S-wave (km/s) = -3.18296 3.93622 1.63747
# Velocity P-wave (km/s) = 6.44940 7.17470 2.22278
#
# Compressibility (1/GPa) = -0.01824383
#
# Stress axis : x y z
#
# Youngs Moduli (GPa) = 86.61150 -14.34879 121.55995
#
# Poissons Ratio (x) = 0.09429 0.75250
# Poissons Ratio (y) = -0.56918 -1.87893
# Poissons Ratio (z) = 0.53615 0.22179
#
# Static dielectric constant tensor:
#      x y z
#    x -157.434350 95.989070 7.300040 
#    y 95.989070 -56.203480 -4.359570 
#    z 7.300040 -4.359570 1.396430 
# 
# From -- ./inp_files/577300.got.cif
#   From: 2010.05.17/outbox.ucp.g08.bks.cvg/sg2_289_cif.got.tgz:577300.got - 2010.06.11 11:32:03.
