data_PCOD9073926
_publ_section_title
;
Structure prediction by ZEFSAII (Michael W. Deem and Ramdas Pophale) SiO2 
 PCOD9073926
Probable space group: P -1
;
_chemical_formula_sum "Si O2"
_cell_formula_units_Z 16
_cell_length_a 18.000000
_cell_length_b 12.000000
_cell_length_c 9.000000
_cell_angle_alpha 40.000000
_cell_angle_beta 140.000000
_cell_angle_gamma 140.000000
_cell_volume 723.717541
_symmetry_space_group_name_H-M "P -1"
_symmetry_group_IT_number 2
_symmetry_cell_setting 'triclinic'
loop_
_space_group_symop_operation_xyz
x,y,z
-x,-y,-z
loop_
_atom_site_type_symbol
_atom_site_label
_atom_site_fract_x
_atom_site_fract_y
_atom_site_fract_z
Si Si1 0.894580 0.837261 0.103901
Si Si2 0.663598 0.064327 0.975431
Si Si3 0.525357 0.626670 0.257320
Si Si4 0.285990 0.569016 0.749770
Si Si5 0.052440 0.276257 0.168223
Si Si6 0.093401 0.924889 0.558356
Si Si7 0.702522 0.459451 0.561746
Si Si8 0.792456 0.120602 0.787186
O O1 0.823342 0.624231 0.149063
O O2 0.975856 0.810004 0.390601
O O3 0.803357 0.934638 0.923914
O O4 0.000000 0.000000 0.000000
O O5 0.625365 0.240018 0.725100
O O6 0.712519 0.059377 0.883548
O O7 0.783923 0.115794 0.217934
O O8 0.569494 0.855615 0.104200
O O9 0.500000 0.500000 0.500000
O O10 0.634987 0.589755 0.378085
O O11 0.408220 0.574229 0.017421
O O12 0.289048 0.536642 0.608351
O O13 0.266060 0.764461 0.522186
O O14 0.158425 0.459953 0.225720
O O15 0.960239 0.140861 0.292952
O O16 0.122079 0.147304 0.346910
O O17 0.942217 0.274253 0.891614
#
# Coordination Sequence:
#
# PCOD9073926 Si02
#       8
#     2   2   2   2   2   2   2   2
#     4  11  23  37  61  95 132 168 198 250 319 382
#     4  10  22  39  68  91 119 167 212 262 307 370
#     4  12  28  46  61  88 132 170 211 262 322 376
#     4  11  25  43  66  92 126 169 215 261 307 372
#     4   9  16  33  65  95 125 151 195 263 313 359
#     4   9  17  34  60  92 129 153 197 251 313 367
#     4  11  22  41  70  96 118 166 223 263 305 372
#     4   9  22  40  64  98 127 160 206 266 312 368
#
# _framework density 22.108073000000001
#
# number of rings (size 3 to 8) (size 9 to 14) (size 15 to 20)
#    0.000    1.750    2.500    1.875    3.500    5.500 
#    2.250    0.000    0.000    0.000    0.000    0.000 
#    0.000    0.000    0.000    0.000    0.000    0.000 
#
# Total GULP energy -89163.235766 kJ/mol
# GULP energy per Si atom -5572.702235 kJ/mol
# Density = 2.205775 g / cm^3
# Si number density = 22.108073 Si / 1000 Ang^3
#
#
#
# Elastic Constant Matrix: (Units=GPa)
#
#
# Indices 1 2 3 4 5 6 
#
# 1 9.4118 -12.7279 -7.9733 -0.7303 -7.6651 3.2311
# 2 -12.7279 74.9450 17.2281 -11.9717 -7.0884 11.2811
# 3 -7.9733 17.2281 73.0846 3.1693 -17.9978 11.5388
# 4 -0.7303 -11.9717 3.1693 28.8555 12.3026 -4.9083
# 5 -7.6651 -7.0884 -17.9978 12.3026 13.7586 -4.9660
# 6 3.2311 11.2811 11.5388 -4.9083 -4.9660 15.3656
#
#
#
# Elastic Compliance Matrix: (Units=1/GPa)
#
#
# Indices 1 2 3 4 5 6 
#
# 1 -0.048116 -0.004226 -0.043478 0.062669 -0.133711 0.022675
# 2 -0.004226 0.016320 -0.010450 0.017719 -0.025572 -0.005850
# 3 -0.043478 -0.010450 0.001096 0.010646 -0.034746 0.008163
# 4 0.062669 0.017719 0.010646 0.028186 0.026805 -0.016515
# 5 -0.133711 -0.025572 -0.034746 0.026805 -0.062232 0.061434
# 6 0.022675 -0.005850 0.008163 -0.016515 0.061434 0.073056
#
#
# Mechanical properties :
#
#
# Convention : Reuss Voigt Hill
#
# Bulk Modulus (GPa) = -6.80230 16.72170 4.95970
# Shear Modulus (GPa) = 66.12369 22.32359 44.22364
#
# Velocity S-wave (km/s) = 5.47487 3.18110 4.47737
# Velocity P-wave (km/s) = 6.07306 4.59049 5.38306
#
# Compressibility (1/GPa) = -0.14700902
#
# Stress axis : x y z
#
# Youngs Moduli (GPa) = -20.78312 61.27400 912.61093
#
# Poissons Ratio (x) = 0.25894 39.67874
# Poissons Ratio (y) = -0.08783 9.53708
# Poissons Ratio (z) = -0.90361 0.64033
#
# Static dielectric constant tensor:
#      x y z
#    x 1.856950 -0.019050 -0.013250 
#    y -0.019050 1.926120 0.080330 
#    z -0.013250 0.080330 1.846990 
# 
# From -- ./inp_files/332787.got.cif
#   From: 2010.05.17/outbox.ucp.g08.bks.cvg/sg2_167_cif.got.tgz:332787.got - 2010.06.11 11:32:03.
