data_PCOD9073323
_publ_section_title
;
Structure prediction by ZEFSAII (Michael W. Deem and Ramdas Pophale) SiO2 
 PCOD9073323
Probable space group: P -1
;
_chemical_formula_sum "Si O2"
_cell_formula_units_Z 16
_cell_length_a 9.190132
_cell_length_b 7.969493
_cell_length_c 10.666921
_cell_angle_alpha 104.697151
_cell_angle_beta 85.665240
_cell_angle_gamma 50.752462
_cell_volume 555.393101
_symmetry_space_group_name_H-M "P -1"
_symmetry_group_IT_number 2
_symmetry_cell_setting 'triclinic'
loop_
_space_group_symop_operation_xyz
x,y,z
-x,-y,-z
loop_
_atom_site_type_symbol
_atom_site_label
_atom_site_fract_x
_atom_site_fract_y
_atom_site_fract_z
Si Si1 0.239506 0.342494 0.968694
Si Si2 0.433807 0.367598 0.203579
Si Si3 0.093544 0.031095 0.616485
Si Si4 0.103935 0.453290 0.350737
Si Si5 0.819194 0.911091 0.934104
Si Si6 0.466435 0.827239 0.443512
Si Si7 0.747305 0.394248 0.189013
Si Si8 0.767993 0.116004 0.749092
O O1 0.326771 0.369831 0.088708
O O2 0.300396 0.094760 0.951541
O O3 0.317314 0.389175 0.856659
O O4 0.000000 0.500000 0.000000
O O5 0.330342 0.343578 0.318387
O O6 0.651998 0.278372 0.169766
O O7 0.326187 0.640836 0.260404
O O8 0.020957 0.289135 0.658955
O O9 0.998142 0.988402 0.722447
O O10 0.327724 0.848692 0.560437
O O11 0.000000 0.000000 0.500000
O O12 0.117064 0.280335 0.220467
O O13 0.000000 0.500000 0.500000
O O14 0.038032 0.796771 0.925424
O O15 0.700086 0.137144 0.897661
O O16 0.662160 0.556068 0.351002
O O17 0.310156 0.959176 0.359499
O O18 0.500000 0.000000 0.500000
#
# Coordination Sequence:
#
# PCOD9073323 Si02
#       8
#     2   2   2   2   2   2   2   2
#     4   9  19  37  60  80 105 145 185 221 272 336
#     4   9  19  36  59  81 107 142 181 225 275 322
#     4   9  17  31  49  71 104 144 175 208 264 326
#     4  10  18  31  54  79 106 145 184 218 264 327
#     4  10  20  35  55  81 109 141 184 227 270 327
#     4  10  19  33  53  79 109 144 181 221 269 320
#     4  10  20  35  55  81 108 142 185 229 271 320
#     4   9  19  36  56  80 110 145 180 219 271 332
#
# _framework density 28.808422
#
# number of rings (size 3 to 8) (size 9 to 14) (size 15 to 20)
#    0.000    2.500    0.000    3.375    0.000    1.000 
#    0.000   11.250    0.000    1.500    0.000    0.000 
#    0.000    0.000    0.000    0.000    0.000    0.000 
#
# Total GULP energy -89215.194706 kJ/mol
# GULP energy per Si atom -5575.949669 kJ/mol
# Density = 2.874285 g / cm^3
# Si number density = 28.808422 Si / 1000 Ang^3
#
#
#
# Elastic Constant Matrix: (Units=GPa)
#
#
# Indices 1 2 3 4 5 6 
#
# 1 215.1729 26.8153 49.6812 1.6743 -11.9478 4.7636
# 2 26.8153 19.5914 -8.1513 0.5210 -2.7527 7.0040
# 3 49.6812 -8.1513 71.4503 -5.4003 -15.0768 15.0940
# 4 1.6743 0.5210 -5.4003 35.2935 15.7681 -7.4283
# 5 -11.9478 -2.7527 -15.0768 15.7681 55.3855 4.0859
# 6 4.7636 7.0040 15.0940 -7.4283 4.0859 70.0963
#
#
#
# Elastic Compliance Matrix: (Units=1/GPa)
#
#
# Indices 1 2 3 4 5 6 
#
# 1 0.008672 -0.016930 -0.008967 -0.000167 -0.001593 0.003108
# 2 -0.016930 0.092693 0.027490 -0.004365 0.010796 -0.015123
# 3 -0.008967 0.027490 0.026677 -0.001082 0.007624 -0.008441
# 4 -0.000167 -0.004365 -0.001082 0.034003 -0.010590 0.004901
# 5 -0.001593 0.010796 0.007624 -0.010590 0.023716 -0.005117
# 6 0.003108 -0.015123 -0.008441 0.004901 -0.005117 0.018201
#
#
# Mechanical properties :
#
#
# Convention : Reuss Voigt Hill
#
# Bulk Modulus (GPa) = 7.62041 49.21168 28.41604
# Shear Modulus (GPa) = 20.44834 48.01303 34.23068
#
# Velocity S-wave (km/s) = 2.66711 4.08687 3.45079
# Velocity P-wave (km/s) = 3.48361 6.27610 5.07568
#
# Compressibility (1/GPa) = 0.13122656
#
# Stress axis : x y z
#
# Youngs Moduli (GPa) = 115.31850 10.78832 37.48586
#
# Poissons Ratio (x) = 0.18265 0.33612
# Poissons Ratio (y) = 1.95239 -1.03047
# Poissons Ratio (z) = 1.03401 -0.29657
#
# Static dielectric constant tensor:
#      x y z
#    x 2.536750 -0.145380 -0.179100 
#    y -0.145380 2.626740 0.161480 
#    z -0.179100 0.161480 2.466830 
# 
# From -- ./inp_files/379551.got.cif
#   From: 2010.05.17/outbox.cif.g08.bks.cpg/sg2_190_cif.got.tgz:379551.got - 2010.06.03 11:33:40.
