data_PCOD9073505
_publ_section_title
;
Structure prediction by ZEFSAII (Michael W. Deem and Ramdas Pophale) SiO2 
 PCOD9073505
Probable space group: P -1
;
_chemical_formula_sum "Si O2"
_cell_formula_units_Z 14
_cell_length_a 9.000000
_cell_length_b 9.000000
_cell_length_c 24.000000
_cell_angle_alpha 150.000000
_cell_angle_beta 50.000000
_cell_angle_gamma 110.000000
_cell_volume 616.684141
_symmetry_space_group_name_H-M "P -1"
_symmetry_group_IT_number 2
_symmetry_cell_setting 'triclinic'
loop_
_space_group_symop_operation_xyz
x,y,z
-x,-y,-z
loop_
_atom_site_type_symbol
_atom_site_label
_atom_site_fract_x
_atom_site_fract_y
_atom_site_fract_z
Si Si1 0.527491 0.983274 0.695266
Si Si2 0.883015 0.153190 0.638764
Si Si3 0.669150 0.888355 0.326497
Si Si4 0.230982 0.614700 0.467913
Si Si5 0.058974 0.183380 0.938119
Si Si6 0.756045 0.913145 0.925548
Si Si7 0.368646 0.697480 0.802541
O O1 0.717302 0.654234 0.581281
O O2 0.622254 0.231052 0.734786
O O3 0.498113 0.865462 0.603257
O O4 0.270757 0.157096 0.843541
O O5 0.905443 0.486284 0.748273
O O6 0.000000 0.000000 0.500000
O O7 0.006509 0.891247 0.576281
O O8 0.577165 0.681707 0.314639
O O9 0.700350 0.130639 0.438951
O O10 0.903595 0.558165 0.131548
O O11 0.399912 0.353212 0.293490
O O12 0.191921 0.870489 0.850371
O O13 0.884097 0.086476 0.921137
O O14 0.500000 0.000000 0.000000
O O15 0.726222 0.048614 0.039625
#
# Coordination Sequence:
#
# PCOD9073505 Si02
#       7
#     2   2   2   2   2   2   2
#     4  11  25  42  61  94 132 168 210 260 318 379
#     4  12  25  44  67  93 126 168 212 263 320 378
#     4  11  20  38  65  94 125 167 212 259 313 375
#     4  11  23  40  62  94 130 167 210 263 313 369
#     4  10  22  42  65  93 127 166 213 262 312 376
#     4  11  22  40  66  95 124 162 210 262 313 372
#     4  10  21  40  64  93 126 166 212 259 312 377
#
# _framework density 22.702058999999998
#
# number of rings (size 3 to 8) (size 9 to 14) (size 15 to 20)
#    0.000    1.143    0.000    8.571    0.000    4.571 
#    0.000   10.714    0.000    0.000    0.000    0.000 
#    0.000    0.000    0.000    0.000    0.000    0.000 
#
# Total GULP energy -77992.160158 kJ/mol
# GULP energy per Si atom -5570.868583 kJ/mol
# Density = 2.265039 g / cm^3
# Si number density = 22.702059 Si / 1000 Ang^3
#
#
#
# Elastic Constant Matrix: (Units=GPa)
#
#
# Indices 1 2 3 4 5 6 
#
# 1 55.6288 56.0133 15.4779 -15.4562 5.5075 11.2390
# 2 56.0133 144.6577 33.6563 4.1272 17.2421 -1.7402
# 3 15.4779 33.6563 57.2326 10.9648 20.1594 11.3237
# 4 -15.4562 4.1272 10.9648 26.6683 -2.2926 -2.6209
# 5 5.5075 17.2421 20.1594 -2.2926 28.1571 13.4094
# 6 11.2390 -1.7402 11.3237 -2.6209 13.4094 39.4994
#
#
#
# Elastic Compliance Matrix: (Units=1/GPa)
#
#
# Indices 1 2 3 4 5 6 
#
# 1 0.063714 -0.025752 -0.017862 0.048769 0.030132 -0.021136
# 2 -0.025752 0.018751 0.002801 -0.019191 -0.015397 0.011304
# 3 -0.017862 0.002801 0.034658 -0.027066 -0.026399 0.002436
# 4 0.048769 -0.019191 -0.027066 0.081526 0.034555 -0.013284
# 5 0.030132 -0.015397 -0.026399 0.034555 0.072136 -0.023880
# 6 -0.021136 0.011304 0.002436 -0.013284 -0.023880 0.038356
#
#
# Mechanical properties :
#
#
# Convention : Reuss Voigt Hill
#
# Bulk Modulus (GPa) = 28.17157 51.97933 40.07545
# Shear Modulus (GPa) = 12.41926 29.02306 20.72116
#
# Velocity S-wave (km/s) = 2.34146 3.57940 3.02444
# Velocity P-wave (km/s) = 4.44366 6.32683 5.46694
#
# Compressibility (1/GPa) = 0.03549678
#
# Stress axis : x y z
#
# Youngs Moduli (GPa) = 15.69524 53.32913 28.85322
#
# Poissons Ratio (x) = 1.37334 0.51537
# Poissons Ratio (y) = 0.40419 -0.08081
# Poissons Ratio (z) = 0.28035 -0.14937
#
# Static dielectric constant tensor:
#      x y z
#    x 1.881290 0.057660 -0.110500 
#    y 0.057660 1.885030 -0.013150 
#    z -0.110500 -0.013150 1.863970 
# 
# From -- ./inp_files/158747.got.cif
#   From: 2010.05.17/outbox.ucp.g08.bks.cvg/sg2_80_cif.got.tgz:158747.got - 2010.06.11 11:32:03.
