data_PCOD9073255
_publ_section_title
;
Structure prediction by ZEFSAII (Michael W. Deem and Ramdas Pophale) SiO2 
 PCOD9073255
Probable space group: P -1
;
_chemical_formula_sum "Si O2"
_cell_formula_units_Z 16
_cell_length_a 21.000000
_cell_length_b 15.000000
_cell_length_c 18.000000
_cell_angle_alpha 140.000000
_cell_angle_beta 160.000000
_cell_angle_gamma 30.000000
_cell_volume 931.056003
_symmetry_space_group_name_H-M "P -1"
_symmetry_group_IT_number 2
_symmetry_cell_setting 'triclinic'
loop_
_space_group_symop_operation_xyz
x,y,z
-x,-y,-z
loop_
_atom_site_type_symbol
_atom_site_label
_atom_site_fract_x
_atom_site_fract_y
_atom_site_fract_z
Si Si1 0.368433 0.688054 0.183558
Si Si2 0.177388 0.034303 0.296878
Si Si3 0.686050 0.797336 0.202321
Si Si4 0.085167 0.898649 0.791984
Si Si5 0.568268 0.833243 0.268304
Si Si6 0.746869 0.486895 0.328168
Si Si7 0.168743 0.000254 0.575500
Si Si8 0.343947 0.721426 0.716555
O O1 0.531620 0.612883 0.236465
O O2 0.508820 0.496187 0.259290
O O3 0.326114 0.848390 0.289877
O O4 0.081813 0.792744 0.916531
O O5 0.345414 0.084154 0.531868
O O6 0.070846 0.031342 0.257981
O O7 0.625909 0.848481 0.256457
O O8 0.981136 0.621369 0.407427
O O9 0.659533 0.949633 0.220496
O O10 0.514647 0.754578 0.963338
O O11 0.226119 0.680474 0.787004
O O12 0.285407 0.922976 0.027288
O O13 0.911874 0.005160 0.598492
O O14 0.713688 0.620751 0.314807
O O15 0.284932 0.817845 0.633591
O O16 0.914718 0.165272 0.448020
#
# Coordination Sequence:
#
# PCOD9073255 Si02
#       8
#     2   2   2   2   2   2   2   2
#     4  11  23  43  57  87 121 160 189 242 287 357
#     4  11  25  40  60  82 127 154 195 234 298 348
#     4  11  20  34  59  94 117 145 193 244 295 342
#     4  11  21  39  59  90 117 149 196 248 285 345
#     4  12  21  34  61  87 117 159 189 240 293 349
#     4  11  21  35  61  89 121 148 197 240 293 349
#     4  10  21  37  61  90 115 150 196 250 285 339
#     4  11  21  38  61  87 119 154 193 244 296 331
#
# _framework density 17.184788000000001
#
# number of rings (size 3 to 8) (size 9 to 14) (size 15 to 20)
#    0.000    1.000    7.500    1.875    1.750    0.500 
#    2.250    0.625    0.000    0.750    0.000    0.000 
#    0.000    0.000    0.000    0.000    0.000    0.000 
#
# Total GULP energy -89222.482589 kJ/mol
# GULP energy per Si atom -5576.405162 kJ/mol
# Density = 1.714567 g / cm^3
# Si number density = 17.184788 Si / 1000 Ang^3
#
#
#
# Elastic Constant Matrix: (Units=GPa)
#
#
# Indices 1 2 3 4 5 6 
#
# 1 97.1728 44.3272 17.3133 3.2644 6.8120 5.1244
# 2 44.3272 96.2632 37.9936 4.0682 0.3906 0.5941
# 3 17.3133 37.9936 78.2061 24.2962 2.7420 -3.0517
# 4 3.2644 4.0682 24.2962 30.4412 6.0608 -4.3763
# 5 6.8120 0.3906 2.7420 6.0608 34.1989 -2.3146
# 6 5.1244 0.5941 -3.0517 -4.3763 -2.3146 37.7740
#
#
#
# Elastic Compliance Matrix: (Units=1/GPa)
#
#
# Indices 1 2 3 4 5 6 
#
# 1 0.013388 -0.006216 0.000244 -0.000549 -0.002648 -0.001925
# 2 -0.006216 0.016193 -0.007985 0.004779 0.000884 0.000551
# 3 0.000244 -0.007985 0.021703 -0.016525 0.001232 0.000007
# 4 -0.000549 0.004779 -0.016525 0.047342 -0.006757 0.003735
# 5 -0.002648 0.000884 0.001232 -0.006757 0.030962 0.001559
# 6 -0.001925 0.000551 0.000007 0.003735 0.001559 0.027254
#
#
# Mechanical properties :
#
#
# Convention : Reuss Voigt Hill
#
# Bulk Modulus (GPa) = 42.78732 52.32336 47.55534
# Shear Modulus (GPa) = 25.96782 31.95002 28.95892
#
# Velocity S-wave (km/s) = 3.89150 4.31653 4.10951
# Velocity P-wave (km/s) = 6.71893 7.44021 7.08875
#
# Compressibility (1/GPa) = 0.02337141
#
# Stress axis : x y z
#
# Youngs Moduli (GPa) = 74.69152 61.75564 46.07720
#
# Poissons Ratio (x) = 0.38385 -0.01125
# Poissons Ratio (y) = 0.46425 0.36792
# Poissons Ratio (z) = -0.01823 0.49311
#
# Static dielectric constant tensor:
#      x y z
#    x 1.596880 0.022790 -0.021320 
#    y 0.022790 1.571520 -0.010980 
#    z -0.021320 -0.010980 1.632040 
# 
# From -- ./inp_files/464588.got.cif
#   From: 2010.05.17/outbox.ucp.g08.bks.cvg/sg2_233_cif.got.tgz:464588.got - 2010.06.11 11:32:03.
