data_PCOD9073931
_publ_section_title
;
Structure prediction by ZEFSAII (Michael W. Deem and Ramdas Pophale) SiO2 
 PCOD9073931
Probable space group: P -1
;
_chemical_formula_sum "Si O2"
_cell_formula_units_Z 14
_cell_length_a 9.000000
_cell_length_b 21.000000
_cell_length_c 9.000000
_cell_angle_alpha 150.000000
_cell_angle_beta 50.000000
_cell_angle_gamma 130.000000
_cell_volume 634.839654
_symmetry_space_group_name_H-M "P -1"
_symmetry_group_IT_number 2
_symmetry_cell_setting 'triclinic'
loop_
_space_group_symop_operation_xyz
x,y,z
-x,-y,-z
loop_
_atom_site_type_symbol
_atom_site_label
_atom_site_fract_x
_atom_site_fract_y
_atom_site_fract_z
Si Si1 0.296593 0.476753 0.257422
Si Si2 0.127817 0.128420 0.255686
Si Si3 0.529593 0.749519 0.321026
Si Si4 0.847300 0.304099 0.702492
Si Si5 0.987418 0.861902 0.303617
Si Si6 0.018783 0.504515 0.743845
Si Si7 0.585900 0.211732 0.198936
O O1 0.163481 0.444223 0.425343
O O2 0.377052 0.632377 0.528747
O O3 0.136536 0.446244 0.164176
O O4 0.477401 0.405874 0.980639
O O5 0.369149 0.147406 0.134156
O O6 0.036509 0.239335 0.459968
O O7 0.056170 0.131914 0.480069
O O8 0.000000 0.000000 0.000000
O O9 0.376848 0.777324 0.350763
O O10 0.459705 0.808412 0.635886
O O11 0.769517 0.789269 0.231676
O O12 0.896899 0.400484 0.725583
O O13 0.852213 0.381808 0.009465
O O14 0.202133 0.823572 0.054901
O O15 0.000000 0.000000 0.500000
#
# Coordination Sequence:
#
# PCOD9073931 Si02
#       7
#     2   2   2   2   2   2   2
#     4  11  21  42  68 105 132 187 228 267 334 411
#     4  11  28  47  70  97 140 177 227 285 343 396
#     4  11  25  40  74 102 140 178 224 280 339 406
#     4  11  24  43  63 107 141 177 219 282 346 396
#     4  11  27  49  74  99 128 184 239 275 333 409
#     4  10  22  39  70  96 147 174 225 273 336 408
#     4  11  24  46  72  98 139 181 224 282 331 414
#
# _framework density 22.052813
#
# number of rings (size 3 to 8) (size 9 to 14) (size 15 to 20)
#    0.000    1.143    1.429    4.714    8.000    2.286 
#    5.143    0.000    0.000    0.000    0.000    0.000 
#    0.000    0.000    0.000    0.000    0.000    0.000 
#
# Total GULP energy -78113.656933 kJ/mol
# GULP energy per Si atom -5579.546924 kJ/mol
# Density = 2.200262 g / cm^3
# Si number density = 22.052813 Si / 1000 Ang^3
#
#
#
# Elastic Constant Matrix: (Units=GPa)
#
#
# Indices 1 2 3 4 5 6 
#
# 1 169.6957 58.9897 51.4441 -7.7268 2.9419 39.7511
# 2 58.9897 73.4770 42.6549 -18.2487 -4.3103 23.3646
# 3 51.4441 42.6549 78.9827 -16.1398 -1.9263 18.3839
# 4 -7.7268 -18.2487 -16.1398 30.0170 5.3384 -7.6597
# 5 2.9419 -4.3103 -1.9263 5.3384 42.1336 -3.7770
# 6 39.7511 23.3646 18.3839 -7.6597 -3.7770 45.8862
#
#
#
# Elastic Compliance Matrix: (Units=1/GPa)
#
#
# Indices 1 2 3 4 5 6 
#
# 1 0.009753 -0.005388 -0.002968 -0.003441 -0.001399 -0.005206
# 2 -0.005388 0.025969 -0.007743 0.009045 0.001188 -0.003846
# 3 -0.002968 -0.007743 0.019976 0.005170 -0.000386 -0.000658
# 4 -0.003441 0.009045 0.005170 0.042134 -0.003664 0.003035
# 5 -0.001399 0.001188 -0.000386 -0.003664 0.024595 0.002174
# 6 -0.005206 -0.003846 -0.000658 0.003035 0.002174 0.029210
#
#
# Mechanical properties :
#
#
# Convention : Reuss Voigt Hill
#
# Bulk Modulus (GPa) = 42.55307 69.81475 56.18391
# Shear Modulus (GPa) = 26.08676 34.87848 30.48262
#
# Velocity S-wave (km/s) = 3.44309 3.98123 3.72190
# Velocity P-wave (km/s) = 5.92827 7.27051 6.63343
#
# Compressibility (1/GPa) = 0.02350007
#
# Stress axis : x y z
#
# Youngs Moduli (GPa) = 102.53663 38.50692 50.05986
#
# Poissons Ratio (x) = 0.20748 0.14857
# Poissons Ratio (y) = 0.55247 0.38762
# Poissons Ratio (z) = 0.30432 0.29816
#
# Static dielectric constant tensor:
#      x y z
#    x 1.781780 0.025120 -0.053140 
#    y 0.025120 1.937430 0.117580 
#    z -0.053140 0.117580 1.803100 
# 
# From -- ./inp_files/224320.got.cif
#   From: 2010.05.17/outbox.ucp.g08.bks.cvg/sg2_113_cif.got.tgz:224320.got - 2010.06.11 11:32:03.
