data_PCOD9073048
_publ_section_title
;
Structure prediction by ZEFSAII (Michael W. Deem and Ramdas Pophale) SiO2 
 PCOD9073048
Probable space group: P -1
;
_chemical_formula_sum "Si O2"
_cell_formula_units_Z 16
_cell_length_a 8.362530
_cell_length_b 11.284672
_cell_length_c 23.936827
_cell_angle_alpha 28.433003
_cell_angle_beta 127.148196
_cell_angle_gamma 110.692879
_cell_volume 757.519120
_symmetry_space_group_name_H-M "P -1"
_symmetry_group_IT_number 2
_symmetry_cell_setting 'triclinic'
loop_
_space_group_symop_operation_xyz
x,y,z
-x,-y,-z
loop_
_atom_site_type_symbol
_atom_site_label
_atom_site_fract_x
_atom_site_fract_y
_atom_site_fract_z
Si Si1 0.576559 0.511367 0.319382
Si Si2 0.818255 0.467550 0.053193
Si Si3 0.007983 0.007875 0.636112
Si Si4 0.304020 0.406221 0.151700
Si Si5 0.158804 0.407731 0.288356
Si Si6 0.812406 0.920664 0.467636
Si Si7 0.537405 0.698885 0.115193
Si Si8 0.298321 0.168995 0.015072
O O1 0.398171 0.388736 0.331682
O O2 0.658285 0.512603 0.272176
O O3 0.450821 0.835432 0.178724
O O4 0.793797 0.297914 0.488421
O O5 0.707580 0.554775 0.933444
O O6 0.700346 0.711554 0.973028
O O7 0.835481 0.185171 0.201348
O O8 0.082448 0.391566 0.131103
O O9 0.903650 0.815625 0.664112
O O10 0.145264 0.083094 0.587723
O O11 0.308560 0.675336 0.069174
O O12 0.548826 0.151272 0.325274
O O13 0.153567 0.348540 0.377737
O O14 0.966170 0.715723 0.102779
O O15 0.000000 0.000000 0.500000
O O16 0.641396 0.659643 0.091400
O O17 0.500000 0.000000 0.000000
#
# Coordination Sequence:
#
# PCOD9073048 Si02
#       8
#     2   2   2   2   2   2   2   2
#     4  11  20  33  56  82 119 154 183 237 292 344
#     4  10  23  39  61  87 111 158 200 234 280 338
#     4  10  19  33  53  82 114 147 196 235 282 344
#     4  11  21  39  62  84 117 150 198 243 281 344
#     4  10  18  31  52  81 113 150 194 238 285 335
#     4  10  20  33  56  87 113 143 190 247 290 330
#     4  10  20  33  54  84 116 149 183 233 291 336
#     4  10  21  35  53  84 120 150 190 233 287 348
#
# _framework density 21.121579000000001
#
# number of rings (size 3 to 8) (size 9 to 14) (size 15 to 20)
#    0.000    1.750    0.000    7.500    0.000    3.000 
#    0.000    0.000    0.000   18.000    0.000    0.000 
#    0.000    0.000    0.000    0.000    0.000    0.000 
#
# Total GULP energy -89268.078837 kJ/mol
# GULP energy per Si atom -5579.254927 kJ/mol
# Density = 2.107351 g / cm^3
# Si number density = 21.121579 Si / 1000 Ang^3
#
#
#
# Elastic Constant Matrix: (Units=GPa)
#
#
# Indices 1 2 3 4 5 6 
#
# 1 74.9392 19.8374 19.4890 0.9739 -8.5262 -14.2940
# 2 19.8374 52.3754 43.9173 -0.5538 -2.0780 -16.0253
# 3 19.4890 43.9173 106.6220 -14.2948 3.5113 -16.3956
# 4 0.9739 -0.5538 -14.2948 27.7514 -7.9915 -0.8658
# 5 -8.5262 -2.0780 3.5113 -7.9915 44.4285 9.0637
# 6 -14.2940 -16.0253 -16.3956 -0.8658 9.0637 33.1813
#
#
#
# Elastic Compliance Matrix: (Units=1/GPa)
#
#
# Indices 1 2 3 4 5 6 
#
# 1 0.015565 -0.004071 -0.000681 -0.000277 0.002016 0.003845
# 2 -0.004071 0.033623 -0.012541 -0.005657 -0.000949 0.008400
# 3 -0.000681 -0.012541 0.016069 0.007827 -0.001001 0.002068
# 4 -0.000277 -0.005657 0.007827 0.041852 0.006525 0.000326
# 5 0.002016 -0.000949 -0.001001 0.006525 0.025507 -0.006882
# 6 0.003845 0.008400 0.002068 0.000326 -0.006882 0.038761
#
#
# Mechanical properties :
#
#
# Convention : Reuss Voigt Hill
#
# Bulk Modulus (GPa) = 32.60252 44.49155 38.54703
# Shear Modulus (GPa) = 23.12819 31.11842 27.12330
#
# Velocity S-wave (km/s) = 3.31267 3.84252 3.58739
# Velocity P-wave (km/s) = 5.48643 6.38724 5.95390
#
# Compressibility (1/GPa) = 0.03067247
#
# Stress axis : x y z
#
# Youngs Moduli (GPa) = 64.24580 29.74158 62.23126
#
# Poissons Ratio (x) = 0.12109 0.04235
# Poissons Ratio (y) = 0.26157 0.78042
# Poissons Ratio (z) = 0.04372 0.37298
#
# Static dielectric constant tensor:
#      x y z
#    x 1.846810 -0.015240 -0.001970 
#    y -0.015240 1.766760 -0.005130 
#    z -0.001970 -0.005130 1.793110 
# 
# From -- ./inp_files/444161.got.cif
#   From: 2010.05.17/outbox.cif.g08.bks.cpg/sg2_223_cif.got.tgz:444161.got - 2010.06.03 11:33:40.
