data_PCOD9073704
_publ_section_title
;
Structure prediction by ZEFSAII (Michael W. Deem and Ramdas Pophale) SiO2 
 PCOD9073704
Probable space group: P -1
;
_chemical_formula_sum "Si O2"
_cell_formula_units_Z 16
_cell_length_a 9.000000
_cell_length_b 15.000000
_cell_length_c 12.000000
_cell_angle_alpha 30.000000
_cell_angle_beta 80.000000
_cell_angle_gamma 90.000000
_cell_volume 759.581896
_symmetry_space_group_name_H-M "P -1"
_symmetry_group_IT_number 2
_symmetry_cell_setting 'triclinic'
loop_
_space_group_symop_operation_xyz
x,y,z
-x,-y,-z
loop_
_atom_site_type_symbol
_atom_site_label
_atom_site_fract_x
_atom_site_fract_y
_atom_site_fract_z
Si Si1 0.700195 0.774716 0.133636
Si Si2 0.169789 0.295189 0.255753
Si Si3 0.427357 0.155532 0.295257
Si Si4 0.780120 0.440837 0.249561
Si Si5 0.971808 0.594361 0.284483
Si Si6 0.741476 0.431778 0.850283
Si Si7 0.534619 0.595768 0.556543
Si Si8 0.834250 0.059485 0.611791
O O1 0.863810 0.725405 0.186799
O O2 0.602705 0.759661 0.278436
O O3 0.573668 0.601377 0.271974
O O4 0.763193 0.956998 0.848780
O O5 0.339251 0.254776 0.285701
O O6 0.172230 0.449490 0.183098
O O7 0.022038 0.110023 0.504360
O O8 0.166785 0.389476 0.031153
O O9 0.500000 0.000000 0.500000
O O10 0.281249 0.065322 0.329310
O O11 0.574994 0.296071 0.061270
O O12 0.865980 0.479028 0.318757
O O13 0.591712 0.378323 0.366073
O O14 0.814766 0.263335 0.385800
O O15 0.000000 0.500000 0.500000
O O16 0.143641 0.663844 0.126439
O O17 0.688180 0.564961 0.626573
#
# Coordination Sequence:
#
# PCOD9073704 Si02
#       8
#     2   2   2   2   2   2   2   2
#     4  10  22  43  66  96 133 178 227 274 330 397
#     4  12  26  46  68  96 142 182 217 269 345 410
#     4  12  27  40  66 102 135 169 226 280 332 391
#     4  11  24  44  69  97 134 186 222 265 339 415
#     4  11  23  42  69  97 128 178 228 266 329 405
#     4  12  23  44  67 100 131 180 226 273 328 405
#     4  10  21  42  70  92 132 183 221 270 333 401
#     4  12  25  44  66 101 137 177 220 282 337 389
#
# _framework density 21.064219999999999
#
# number of rings (size 3 to 8) (size 9 to 14) (size 15 to 20)
#    0.000    0.750    5.000    2.625    5.250    0.500 
#    0.000    2.500    0.000    0.000    0.000    0.000 
#    0.000    0.000    0.000    0.000    0.000    0.000 
#
# Total GULP energy -89225.325597 kJ/mol
# GULP energy per Si atom -5576.582850 kJ/mol
# Density = 2.101628 g / cm^3
# Si number density = 21.064220 Si / 1000 Ang^3
#
#
#
# Elastic Constant Matrix: (Units=GPa)
#
#
# Indices 1 2 3 4 5 6 
#
# 1 101.3038 21.4592 32.8579 9.4890 -21.8196 -7.2774
# 2 21.4592 44.3969 23.8369 18.0219 -8.6929 0.7601
# 3 32.8579 23.8369 130.2707 25.3423 -16.3804 -0.0440
# 4 9.4890 18.0219 25.3423 30.3552 -6.6778 -2.4345
# 5 -21.8196 -8.6929 -16.3804 -6.6778 51.5585 13.4600
# 6 -7.2774 0.7601 -0.0440 -2.4345 13.4600 37.2671
#
#
#
# Elastic Compliance Matrix: (Units=1/GPa)
#
#
# Indices 1 2 3 4 5 6 
#
# 1 0.012279 -0.004803 -0.002087 0.001651 0.003598 0.001302
# 2 -0.004803 0.032740 -0.001303 -0.016725 0.001780 -0.003343
# 3 -0.002087 -0.001303 0.009925 -0.006629 0.001547 -0.001361
# 4 0.001651 -0.016725 -0.006629 0.048418 0.001156 0.003401
# 5 0.003598 0.001780 0.001547 0.001156 0.023921 -0.007896
# 6 0.001302 -0.003343 -0.001361 0.003401 -0.007896 0.030228
#
#
# Mechanical properties :
#
#
# Convention : Reuss Voigt Hill
#
# Bulk Modulus (GPa) = 25.93436 48.03107 36.98271
# Shear Modulus (GPa) = 26.77392 37.02398 31.89895
#
# Velocity S-wave (km/s) = 3.56906 4.19701 3.89571
# Velocity P-wave (km/s) = 5.41508 6.80722 6.15066
#
# Compressibility (1/GPa) = 0.03855889
#
# Stress axis : x y z
#
# Youngs Moduli (GPa) = 81.43780 30.54363 100.75916
#
# Poissons Ratio (x) = 0.14670 0.21025
# Poissons Ratio (y) = 0.39113 0.13130
# Poissons Ratio (z) = 0.16994 0.03980
#
# Static dielectric constant tensor:
#      x y z
#    x 1.793840 -0.019680 0.029060 
#    y -0.019680 1.831330 0.017940 
#    z 0.029060 0.017940 1.767390 
# 
# From -- ./inp_files/274424.got.cif
#   From: 2010.05.17/outbox.ucp.g08.bks.cvg/sg2_138_cif.got.tgz:274424.got - 2010.06.11 11:32:03.
