data_PCOD9073609
_publ_section_title
;
Structure prediction by ZEFSAII (Michael W. Deem and Ramdas Pophale) SiO2 
 PCOD9073609
Probable space group: P -1
;
_chemical_formula_sum "Si O2"
_cell_formula_units_Z 14
_cell_length_a 12.000000
_cell_length_b 12.000000
_cell_length_c 9.000000
_cell_angle_alpha 60.000000
_cell_angle_beta 40.000000
_cell_angle_gamma 50.000000
_cell_volume 638.079485
_symmetry_space_group_name_H-M "P -1"
_symmetry_group_IT_number 2
_symmetry_cell_setting 'triclinic'
loop_
_space_group_symop_operation_xyz
x,y,z
-x,-y,-z
loop_
_atom_site_type_symbol
_atom_site_label
_atom_site_fract_x
_atom_site_fract_y
_atom_site_fract_z
Si Si1 0.758744 0.373048 0.472430
Si Si2 0.413468 0.590066 0.878625
Si Si3 0.119641 0.531516 0.031398
Si Si4 0.694232 0.096680 0.294656
Si Si5 0.764166 0.790290 0.377385
Si Si6 0.155964 0.241698 0.323254
Si Si7 0.804444 0.065654 0.548798
O O1 0.581590 0.516015 0.629320
O O2 0.835035 0.422286 0.210481
O O3 0.707295 0.239444 0.577982
O O4 0.924920 0.305681 0.476897
O O5 0.243226 0.562404 0.007584
O O6 0.316612 0.764884 0.874764
O O7 0.500000 0.500000 0.000000
O O8 0.186812 0.359448 0.109916
O O9 0.900595 0.648962 0.232471
O O10 0.459216 0.147681 0.495617
O O11 0.788794 0.083293 0.371600
O O12 0.800350 0.932591 0.229496
O O13 0.793120 0.754788 0.553170
O O14 0.253360 0.069403 0.289660
O O15 0.000000 0.000000 0.500000
#
# Coordination Sequence:
#
# PCOD9073609 Si02
#       7
#     2   2   2   2   2   2   2
#     4  11  23  44  65  94 136 170 219 276 329 389
#     4  12  25  42  67  96 132 174 225 269 332 392
#     4  12  23  39  66 102 129 174 221 274 328 383
#     4  10  21  42  67  95 132 177 217 273 318 390
#     4  10  22  41  68  95 134 173 225 265 326 389
#     4  10  21  41  66  94 132 174 220 265 324 392
#     4   9  20  41  68  93 131 175 212 264 331 387
#
# _framework density 21.940840000000001
#
# number of rings (size 3 to 8) (size 9 to 14) (size 15 to 20)
#    0.000    1.429    1.429    3.857    0.000    0.571 
#    7.714    0.714    0.000    0.000    0.000    0.000 
#    0.000    0.000    0.000    0.000    0.000    0.000 
#
# Total GULP energy -77960.175140 kJ/mol
# GULP energy per Si atom -5568.583939 kJ/mol
# Density = 2.189090 g / cm^3
# Si number density = 21.940840 Si / 1000 Ang^3
#
#
#
# Elastic Constant Matrix: (Units=GPa)
#
#
# Indices 1 2 3 4 5 6 
#
# 1 113.5451 -0.9218 12.9615 -8.6963 16.4268 -17.6237
# 2 -0.9218 152.6252 44.0875 -44.2894 12.0974 -3.2035
# 3 12.9615 44.0875 59.6522 -7.7296 13.0109 0.9207
# 4 -8.6963 -44.2894 -7.7296 42.1899 -5.4138 0.2162
# 5 16.4268 12.0974 13.0109 -5.4138 37.1145 -8.5370
# 6 -17.6237 -3.2035 0.9207 0.2162 -8.5370 46.6657
#
#
#
# Elastic Compliance Matrix: (Units=1/GPa)
#
#
# Indices 1 2 3 4 5 6 
#
# 1 0.010413 0.002235 -0.002854 0.003567 -0.002993 0.003578
# 2 0.002235 0.012448 -0.008151 0.012023 -0.000021 0.001800
# 3 -0.002854 -0.008151 0.024066 -0.005496 -0.006053 -0.003194
# 4 0.003567 0.012023 -0.005496 0.036336 0.002313 0.002536
# 5 -0.002993 -0.000021 -0.006053 0.002313 0.031839 0.004801
# 6 0.003578 0.001800 -0.003194 0.002536 0.004801 0.023833
#
#
# Mechanical properties :
#
#
# Convention : Reuss Voigt Hill
#
# Bulk Modulus (GPa) = 34.03055 48.67521 41.35288
# Shear Modulus (GPa) = 30.07127 43.17372 36.62250
#
# Velocity S-wave (km/s) = 3.70613 4.44073 4.08995
# Velocity P-wave (km/s) = 5.81873 6.96608 6.41810
#
# Compressibility (1/GPa) = 0.02938536
#
# Stress axis : x y z
#
# Youngs Moduli (GPa) = 96.03725 80.33114 41.55302
#
# Poissons Ratio (x) = -0.17953 0.11861
# Poissons Ratio (y) = -0.21463 0.33870
# Poissons Ratio (z) = 0.27413 0.65479
#
# Static dielectric constant tensor:
#      x y z
#    x 1.814270 0.041190 -0.069110 
#    y 0.041190 1.851220 -0.036500 
#    z -0.069110 -0.036500 1.876910 
# 
# From -- ./inp_files/261896.got.cif
#   From: 2010.05.17/outbox.ucp.g08.bks.cvg/sg2_131_cif.got.tgz:261896.got - 2010.06.11 11:32:03.
