data_PCOD9073239
_publ_section_title
;
Structure prediction by ZEFSAII (Michael W. Deem and Ramdas Pophale) SiO2 
 PCOD9073239
Probable space group: P -1
;
_chemical_formula_sum "Si O2"
_cell_formula_units_Z 16
_cell_length_a 24.189819
_cell_length_b 20.483933
_cell_length_c 11.743275
_cell_angle_alpha 28.595559
_cell_angle_beta 25.509456
_cell_angle_gamma 16.264564
_cell_volume 698.577076
_symmetry_space_group_name_H-M "P -1"
_symmetry_group_IT_number 2
_symmetry_cell_setting 'triclinic'
loop_
_space_group_symop_operation_xyz
x,y,z
-x,-y,-z
loop_
_atom_site_type_symbol
_atom_site_label
_atom_site_fract_x
_atom_site_fract_y
_atom_site_fract_z
Si Si1 0.293928 0.762051 0.940058
Si Si2 0.936847 0.226250 0.336380
Si Si3 0.797404 0.577271 0.234731
Si Si4 0.916174 0.938280 0.909343
Si Si5 0.529489 0.318230 0.621190
Si Si6 0.853881 0.386739 0.646776
Si Si7 0.646444 0.039345 0.638523
Si Si8 0.686973 0.478655 0.060902
O O1 0.354933 0.812117 0.650375
O O2 0.500000 0.500000 0.000000
O O3 0.232258 0.903292 0.948581
O O4 0.131017 0.784079 0.163172
O O5 0.896117 0.372491 0.284900
O O6 0.971083 0.048392 0.601125
O O7 0.705472 0.433080 0.378531
O O8 0.120074 0.092294 0.102541
O O9 0.739584 0.566874 0.481719
O O10 0.580629 0.827417 0.193425
O O11 0.000000 0.500000 0.000000
O O12 0.092155 0.685695 0.027349
O O13 0.614317 0.110336 0.720326
O O14 0.678219 0.321143 0.314566
O O15 0.501226 0.322390 0.802675
O O16 0.715725 0.506974 0.836659
O O17 0.104968 0.225677 0.441487
#
# Coordination Sequence:
#
# PCOD9073239 Si02
#       8
#     2   2   2   2   2   2   2   2
#     4  12  19  31  54  95 127 148 183 238 311 361
#     4   9  19  34  54  80 115 154 186 238 296 343
#     4  11  25  43  61  83 114 161 215 250 284 347
#     4  10  18  31  53  86 119 147 179 236 304 365
#     4   9  18  31  49  83 126 152 177 222 294 372
#     4  12  22  35  60  89 122 155 194 247 304 351
#     4  11  21  37  60  87 118 153 195 249 298 359
#     4  10  19  30  50  87 126 150 177 228 304 371
#
# _framework density 22.903701000000002
#
# number of rings (size 3 to 8) (size 9 to 14) (size 15 to 20)
#    0.000    1.500    5.000    1.875    0.000    0.500 
#    0.000    0.000    0.000    7.500    0.000    0.000 
#    0.000    0.000    0.000    0.000    0.000    0.000 
#
# Total GULP energy -89216.111357 kJ/mol
# GULP energy per Si atom -5576.006960 kJ/mol
# Density = 2.285157 g / cm^3
# Si number density = 22.903701 Si / 1000 Ang^3
#
#
#
# Elastic Constant Matrix: (Units=GPa)
#
#
# Indices 1 2 3 4 5 6 
#
# 1 135.4167 23.5465 52.1788 5.6605 41.5235 -1.2151
# 2 23.5465 29.0049 2.1634 -0.4394 11.0706 -10.1044
# 3 52.1788 2.1634 62.4614 17.5190 15.6576 8.7960
# 4 5.6605 -0.4394 17.5190 24.2781 -1.1760 3.8265
# 5 41.5235 11.0706 15.6576 -1.1760 49.7508 16.0011
# 6 -1.2151 -10.1044 8.7960 3.8265 16.0011 36.5817
#
#
#
# Elastic Compliance Matrix: (Units=1/GPa)
#
#
# Indices 1 2 3 4 5 6 
#
# 1 0.016453 -0.006490 -0.012956 0.003994 -0.009988 0.005820
# 2 -0.006490 0.051417 0.006100 -0.005705 -0.014311 0.019376
# 3 -0.012956 0.006100 0.032784 -0.019788 0.000159 -0.004628
# 4 0.003994 -0.005705 -0.019788 0.055689 0.007316 -0.005710
# 5 -0.009988 -0.014311 0.000159 0.007316 0.038845 -0.022079
# 6 0.005820 0.019376 -0.004628 -0.005710 -0.022079 0.044249
#
#
# Mechanical properties :
#
#
# Convention : Reuss Voigt Hill
#
# Bulk Modulus (GPa) = 13.52071 42.51783 28.01927
# Shear Modulus (GPa) = 17.19493 32.05508 24.62501
#
# Velocity S-wave (km/s) = 2.74295 3.74513 3.28251
# Velocity P-wave (km/s) = 3.99347 6.10781 5.16009
#
# Compressibility (1/GPa) = 0.07396063
#
# Stress axis : x y z
#
# Youngs Moduli (GPa) = 60.77771 19.44899 30.50290
#
# Poissons Ratio (x) = 0.12623 0.39520
# Poissons Ratio (y) = 0.39446 -0.18606
# Poissons Ratio (z) = 0.78744 -0.11863
#
# Static dielectric constant tensor:
#      x y z
#    x 1.893820 -0.031960 -0.016770 
#    y -0.031960 1.900060 0.078770 
#    z -0.016770 0.078770 1.924350 
# 
# From -- ./inp_files/320622.got.cif
#   From: 2010.05.17/outbox.cif.g08.bks.cpg/sg2_161_cif.got.tgz:320622.got - 2010.06.03 11:33:40.
