data_PCOD9073319
_publ_section_title
;
Structure prediction by ZEFSAII (Michael W. Deem and Ramdas Pophale) SiO2 
 PCOD9073319
Probable space group: P -1
;
_chemical_formula_sum "Si O2"
_cell_formula_units_Z 16
_cell_length_a 6.000000
_cell_length_b 12.000000
_cell_length_c 15.000000
_cell_angle_alpha 70.000000
_cell_angle_beta 130.000000
_cell_angle_gamma 90.000000
_cell_volume 740.289630
_symmetry_space_group_name_H-M "P -1"
_symmetry_group_IT_number 2
_symmetry_cell_setting 'triclinic'
loop_
_space_group_symop_operation_xyz
x,y,z
-x,-y,-z
loop_
_atom_site_type_symbol
_atom_site_label
_atom_site_fract_x
_atom_site_fract_y
_atom_site_fract_z
Si Si1 0.346591 0.496495 0.090450
Si Si2 0.332438 0.103018 0.353766
Si Si3 0.430793 0.715576 0.533220
Si Si4 0.615687 0.459004 0.710229
Si Si5 0.234162 0.288536 0.667804
Si Si6 0.656172 0.274101 0.100291
Si Si7 0.177319 0.225101 0.872543
Si Si8 0.310316 0.893236 0.280526
O O1 0.453266 0.494881 0.219434
O O2 0.520930 0.369816 0.119213
O O3 0.340759 0.623930 0.003662
O O4 0.000000 0.500000 0.000000
O O5 0.496639 0.208042 0.385666
O O6 0.973589 0.180880 0.243177
O O7 0.500000 0.000000 0.500000
O O8 0.340783 0.022886 0.288432
O O9 0.649452 0.573733 0.629596
O O10 0.418729 0.795500 0.418230
O O11 0.098670 0.699016 0.456695
O O12 0.355595 0.398457 0.632677
O O13 0.918780 0.341865 0.817217
O O14 0.248902 0.276990 0.781567
O O15 0.457567 0.159527 0.724358
O O16 0.451141 0.197211 0.021755
O O17 0.014848 0.120115 0.833107
#
# Coordination Sequence:
#
# PCOD9073319 Si02
#       8
#     2   2   2   2   2   2   2   2
#     4  11  22  38  62  99 128 159 198 252 320 381
#     4  10  23  44  64  89 124 167 212 260 302 365
#     4  10  22  38  61  91 126 164 210 256 308 369
#     4  11  21  36  62  95 130 155 204 257 318 377
#     4  10  21  38  61  89 127 168 206 254 310 367
#     4  11  23  40  66  91 129 163 202 257 317 367
#     4  10  21  39  62  92 125 160 208 257 309 378
#     4   9  22  42  61  86 127 163 217 255 301 362
#
# _framework density 21.613161999999999
#
# number of rings (size 3 to 8) (size 9 to 14) (size 15 to 20)
#    0.000    1.750    2.500    1.125    1.750    8.500 
#    0.000    6.875    0.000    0.000    0.000    0.000 
#    0.000    0.000    0.000    0.000    0.000    0.000 
#
# Total GULP energy -89236.667958 kJ/mol
# GULP energy per Si atom -5577.291747 kJ/mol
# Density = 2.156397 g / cm^3
# Si number density = 21.613162 Si / 1000 Ang^3
#
#
#
# Elastic Constant Matrix: (Units=GPa)
#
#
# Indices 1 2 3 4 5 6 
#
# 1 35.8520 24.5920 20.7148 7.4325 -2.8223 -21.1601
# 2 24.5920 115.0191 46.3363 33.1368 11.6684 -14.9622
# 3 20.7148 46.3363 101.5696 17.6314 25.0213 -6.3210
# 4 7.4325 33.1368 17.6314 37.0817 -2.1435 2.0205
# 5 -2.8223 11.6684 25.0213 -2.1435 17.8724 2.3722
# 6 -21.1601 -14.9622 -6.3210 2.0205 2.3722 16.0494
#
#
#
# Elastic Compliance Matrix: (Units=1/GPa)
#
#
# Indices 1 2 3 4 5 6 
#
# 1 0.258048 0.026265 -0.030293 -0.080006 0.008421 0.361603
# 2 0.026265 0.021714 -0.002099 -0.028023 -0.018454 0.060301
# 3 -0.030293 -0.002099 0.024743 -0.004405 -0.035076 -0.026412
# 4 -0.080006 -0.028023 -0.004405 0.080683 0.041363 -0.149613
# 5 0.008421 -0.018454 -0.035076 0.041363 0.129268 -0.044230
# 6 0.361603 0.060301 -0.026412 -0.149613 -0.044230 0.610244
#
#
# Mechanical properties :
#
#
# Convention : Reuss Voigt Hill
#
# Bulk Modulus (GPa) = 3.42171 48.41408 25.91790
# Shear Modulus (GPa) = 4.05065 24.92054 14.48559
#
# Velocity S-wave (km/s) = 1.37048 3.39931 2.59167
# Velocity P-wave (km/s) = 2.02260 6.15272 4.57968
#
# Compressibility (1/GPa) = 0.29225141
#
# Stress axis : x y z
#
# Youngs Moduli (GPa) = 3.87524 46.05360 40.41514
#
# Poissons Ratio (x) = -1.20961 1.22429
# Poissons Ratio (y) = -0.10178 0.08485
# Poissons Ratio (z) = 0.11739 0.09668
#
# Static dielectric constant tensor:
#      x y z
#    x 1.762710 0.082230 0.073190 
#    y 0.082230 1.765250 -0.067900 
#    z 0.073190 -0.067900 1.731810 
# 
# From -- ./inp_files/118647.got.cif
#   From: 2010.05.17/outbox.ucp.g08.bks.cvg/sg2_60_cif.got.tgz:118647.got - 2010.06.11 11:32:03.
