data_PCOD9073235
_publ_section_title
;
Structure prediction by ZEFSAII (Michael W. Deem and Ramdas Pophale) SiO2 
 PCOD9073235
Probable space group: P -1
;
_chemical_formula_sum "Si O2"
_cell_formula_units_Z 16
_cell_length_a 15.086458
_cell_length_b 13.059327
_cell_length_c 10.573346
_cell_angle_alpha 48.508236
_cell_angle_beta 147.147798
_cell_angle_gamma 142.709232
_cell_volume 684.547404
_symmetry_space_group_name_H-M "P -1"
_symmetry_group_IT_number 2
_symmetry_cell_setting 'triclinic'
loop_
_space_group_symop_operation_xyz
x,y,z
-x,-y,-z
loop_
_atom_site_type_symbol
_atom_site_label
_atom_site_fract_x
_atom_site_fract_y
_atom_site_fract_z
Si Si1 0.562488 0.097001 0.863496
Si Si2 0.700613 0.889991 0.203407
Si Si3 0.349765 0.064406 0.394885
Si Si4 0.792819 0.268375 0.631799
Si Si5 0.086063 0.577129 0.901567
Si Si6 0.023171 0.854803 0.487690
Si Si7 0.613477 0.371276 0.132500
Si Si8 0.240144 0.261632 0.966372
O O1 0.387744 0.028055 0.609789
O O2 0.679907 0.290166 0.886814
O O3 0.500000 0.000000 0.000000
O O4 0.712370 0.050217 0.026405
O O5 0.842635 0.842376 0.356813
O O6 0.478927 0.736019 0.018154
O O7 0.787891 0.960592 0.389620
O O8 0.585189 0.190258 0.526675
O O9 0.248968 0.160211 0.173763
O O10 0.225916 0.897425 0.296949
O O11 0.760169 0.341119 0.406234
O O12 0.985250 0.417706 0.817053
O O13 0.035983 0.702851 0.675314
O O14 0.000000 0.500000 0.000000
O O15 0.955390 0.831838 0.280419
O O16 0.425213 0.307935 0.055582
O O17 0.717749 0.566318 0.076779
#
# Coordination Sequence:
#
# PCOD9073235 Si02
#       8
#     2   2   2   2   2   2   2   2
#     4  11  23  39  55  80 119 160 189 223 290 353
#     4   9  18  31  52  75 107 149 183 226 275 340
#     4  10  20  32  54  82 116 147 187 237 285 334
#     4  10  18  31  53  86 113 135 189 242 285 322
#     4  11  21  34  59  87 115 145 191 246 281 331
#     4   9  18  30  50  84 112 135 181 242 295 319
#     4   9  15  27  48  77 109 140 174 225 287 335
#     4   9  17  27  48  79 111 138 173 233 293 331
#
# _framework density 23.373106
#
# number of rings (size 3 to 8) (size 9 to 14) (size 15 to 20)
#    0.000    2.250    3.750    0.000    3.500    1.000 
#    0.000    0.625    0.000    6.000    0.000    0.000 
#    0.000    0.000    0.000    0.000    0.000    0.000 
#
# Total GULP energy -89232.658302 kJ/mol
# GULP energy per Si atom -5577.041144 kJ/mol
# Density = 2.331991 g / cm^3
# Si number density = 23.373106 Si / 1000 Ang^3
#
#
#
# Elastic Constant Matrix: (Units=GPa)
#
#
# Indices 1 2 3 4 5 6 
#
# 1 39.6822 2.8749 2.2203 4.4476 -8.5083 -2.4790
# 2 2.8749 139.7156 39.6933 40.3721 -15.5591 -14.3329
# 3 2.2203 39.6933 118.1311 17.2202 -17.0866 -8.3878
# 4 4.4476 40.3721 17.2202 54.5808 -9.1620 -8.1340
# 5 -8.5083 -15.5591 -17.0866 -9.1620 31.3687 4.1197
# 6 -2.4790 -14.3329 -8.3878 -8.1340 4.1197 27.1239
#
#
#
# Elastic Compliance Matrix: (Units=1/GPa)
#
#
# Indices 1 2 3 4 5 6 
#
# 1 0.026949 0.000641 0.000656 -0.001421 0.007378 0.001458
# 2 0.000641 0.009946 -0.002011 -0.006071 0.001899 0.002584
# 3 0.000656 -0.002011 0.009940 -0.000820 0.004199 0.001187
# 4 -0.001421 -0.006071 -0.000820 0.024134 0.002782 0.003223
# 5 0.007378 0.001899 0.004199 0.002782 0.038183 -0.001988
# 6 0.001458 0.002584 0.001187 0.003223 -0.001988 0.040002
#
#
# Mechanical properties :
#
#
# Convention : Reuss Voigt Hill
#
# Bulk Modulus (GPa) = 22.02270 43.01176 32.51723
# Shear Modulus (GPa) = 30.17162 39.46406 34.81784
#
# Velocity S-wave (km/s) = 3.59676 4.11352 3.86379
# Velocity P-wave (km/s) = 5.16640 6.40340 5.81787
#
# Compressibility (1/GPa) = 0.04540769
#
# Stress axis : x y z
#
# Youngs Moduli (GPa) = 37.10650 100.53941 100.60582
#
# Poissons Ratio (x) = -0.06445 -0.06600
# Poissons Ratio (y) = -0.02379 0.20231
# Poissons Ratio (z) = -0.02434 0.20218
#
# Static dielectric constant tensor:
#      x y z
#    x 2.051400 0.043750 0.066880 
#    y 0.043750 1.883350 0.020050 
#    z 0.066880 0.020050 1.868160 
# 
# From -- ./inp_files/389444.got.cif
#   From: 2010.05.17/outbox.cif.g08.bks.cpg/sg2_195_cif.got.tgz:389444.got - 2010.06.03 11:33:40.
