data_PCOD9073531
_publ_section_title
;
Structure prediction by ZEFSAII (Michael W. Deem and Ramdas Pophale) SiO2 
 PCOD9073531
Probable space group: P -1
;
_chemical_formula_sum "Si O2"
_cell_formula_units_Z 16
_cell_length_a 15.000000
_cell_length_b 15.000000
_cell_length_c 9.000000
_cell_angle_alpha 90.000000
_cell_angle_beta 70.000000
_cell_angle_gamma 30.000000
_cell_volume 738.562284
_symmetry_space_group_name_H-M "P -1"
_symmetry_group_IT_number 2
_symmetry_cell_setting 'triclinic'
loop_
_space_group_symop_operation_xyz
x,y,z
-x,-y,-z
loop_
_atom_site_type_symbol
_atom_site_label
_atom_site_fract_x
_atom_site_fract_y
_atom_site_fract_z
Si Si1 0.194995 0.445634 0.287801
Si Si2 0.956343 0.610969 0.725651
Si Si3 0.809848 0.314671 0.061631
Si Si4 0.239086 0.065012 0.941512
Si Si5 0.484848 0.906322 0.511062
Si Si6 0.615874 0.190090 0.568782
Si Si7 0.850268 0.307667 0.692729
Si Si8 0.550637 0.381669 0.342741
O O1 0.167145 0.380919 0.200363
O O2 0.141152 0.593754 0.276883
O O3 0.987797 0.609266 0.534174
O O4 0.482215 0.201040 0.170940
O O5 0.238183 0.358395 0.607585
O O6 0.845756 0.785032 0.892299
O O7 0.589599 0.574923 0.228967
O O8 0.758439 0.257909 0.141199
O O9 0.805096 0.311290 0.885339
O O10 0.040001 0.159173 0.022507
O O11 0.282345 0.067005 0.753276
O O12 0.431373 0.875555 0.419514
O O13 0.500000 0.000000 0.500000
O O14 0.611933 0.239336 0.404103
O O15 0.880818 0.965218 0.495200
O O16 0.662394 0.452312 0.661171
O O17 0.500000 0.500000 0.500000
#
# Coordination Sequence:
#
# PCOD9073531 Si02
#       8
#     2   2   2   2   2   2   2   2
#     4  10  24  41  64 101 135 181 226 286 340 404
#     4  10  21  40  66  93 137 186 234 272 342 405
#     4  11  25  44  70 105 135 180 235 284 344 403
#     4  11  22  41  68  97 138 182 234 278 338 410
#     4  11  22  38  64  97 139 183 220 280 339 400
#     4  11  24  48  70 100 143 183 226 283 344 408
#     4  12  25  45  70 104 141 171 237 283 343 415
#     4  10  25  48  73 100 136 184 229 283 350 405
#
# _framework density 21.663710999999999
#
# number of rings (size 3 to 8) (size 9 to 14) (size 15 to 20)
#    0.000    1.250    2.500    3.000    1.750    5.000 
#    2.250    0.000    0.000    0.000    0.000    0.000 
#    0.000    0.000    0.000    0.000    0.000    0.000 
#
# Total GULP energy -89116.683375 kJ/mol
# GULP energy per Si atom -5569.792711 kJ/mol
# Density = 2.161440 g / cm^3
# Si number density = 21.663711 Si / 1000 Ang^3
#
#
#
# Elastic Constant Matrix: (Units=GPa)
#
#
# Indices 1 2 3 4 5 6 
#
# 1 106.1784 33.2327 5.4095 9.8819 -14.9721 -30.7132
# 2 33.2327 71.1421 15.6362 18.3056 -9.0420 -18.9704
# 3 5.4095 15.6362 61.2627 20.3766 6.0186 -6.4690
# 4 9.8819 18.3056 20.3766 32.8491 3.0510 1.4416
# 5 -14.9721 -9.0420 6.0186 3.0510 44.9171 -0.0267
# 6 -30.7132 -18.9704 -6.4690 1.4416 -0.0267 42.0090
#
#
#
# Elastic Compliance Matrix: (Units=1/GPa)
#
#
# Indices 1 2 3 4 5 6 
#
# 1 0.013874 -0.002650 0.001496 -0.004424 0.004197 0.009332
# 2 -0.002650 0.020944 -0.001071 -0.010942 0.004224 0.007734
# 3 0.001496 -0.001071 0.021489 -0.013218 -0.001696 0.004372
# 4 -0.004424 -0.010942 -0.013218 0.047064 -0.005110 -0.011830
# 5 0.004197 0.004224 -0.001696 -0.005110 0.025090 0.004906
# 6 0.009332 0.007734 0.004372 -0.011830 0.004906 0.035202
#
#
# Mechanical properties :
#
#
# Convention : Reuss Voigt Hill
#
# Bulk Modulus (GPa) = 19.28324 38.57113 28.92718
# Shear Modulus (GPa) = 26.96918 36.24202 31.60560
#
# Velocity S-wave (km/s) = 3.53214 4.09459 3.82372
# Velocity P-wave (km/s) = 5.05522 6.34014 5.73379
#
# Compressibility (1/GPa) = 0.05185851
#
# Stress axis : x y z
#
# Youngs Moduli (GPa) = 72.07679 47.74615 46.53583
#
# Poissons Ratio (x) = 0.12651 -0.06961
# Poissons Ratio (y) = 0.19097 0.04982
# Poissons Ratio (z) = -0.10782 0.05111
#
# Static dielectric constant tensor:
#      x y z
#    x 1.816560 0.023980 -0.040390 
#    y 0.023980 1.863470 -0.056310 
#    z -0.040390 -0.056310 1.884930 
# 
# From -- ./inp_files/315208.got.cif
#   From: 2010.05.17/outbox.ucp.g08.bks.cvg/sg2_158_cif.got.tgz:315208.got - 2010.06.11 11:32:03.
