data_PCOD9073126
_publ_section_title
;
Structure prediction by ZEFSAII (Michael W. Deem and Ramdas Pophale) SiO2 
 PCOD9073126
Probable space group: P -1
;
_chemical_formula_sum "Si O2"
_cell_formula_units_Z 16
_cell_length_a 15.000000
_cell_length_b 21.000000
_cell_length_c 9.000000
_cell_angle_alpha 130.000000
_cell_angle_beta 50.000000
_cell_angle_gamma 160.000000
_cell_volume 734.602417
_symmetry_space_group_name_H-M "P -1"
_symmetry_group_IT_number 2
_symmetry_cell_setting 'triclinic'
loop_
_space_group_symop_operation_xyz
x,y,z
-x,-y,-z
loop_
_atom_site_type_symbol
_atom_site_label
_atom_site_fract_x
_atom_site_fract_y
_atom_site_fract_z
Si Si1 0.700488 0.433187 0.114230
Si Si2 0.183108 0.462872 0.198996
Si Si3 0.591517 0.119024 0.376873
Si Si4 0.307601 0.223203 0.706572
Si Si5 0.001698 0.767946 0.435655
Si Si6 0.070548 0.221120 0.130691
Si Si7 0.781579 0.782071 0.539616
Si Si8 0.526153 0.144122 0.815938
O O1 0.923975 0.624366 0.257100
O O2 0.433298 0.303961 0.267426
O O3 0.727711 0.472255 0.969258
O O4 0.695077 0.328983 0.975981
O O5 0.421097 0.645112 0.327733
O O6 0.138918 0.341143 0.127325
O O7 0.892038 0.319039 0.298039
O O8 0.611562 0.168125 0.596591
O O9 0.521707 0.975162 0.231555
O O10 0.318910 0.983057 0.400966
O O11 0.311747 0.270542 0.611134
O O12 0.236966 0.247489 0.943400
O O13 0.064371 0.004939 0.611433
O O14 0.921907 0.740225 0.649598
O O15 0.829545 0.718196 0.441572
O O16 0.765118 0.003338 0.107304
#
# Coordination Sequence:
#
# PCOD9073126 Si02
#       8
#     2   2   2   2   2   2   2   2
#     4  12  24  41  67 104 134 172 226 281 332 390
#     4  11  24  39  69  98 135 176 224 268 329 402
#     4   9  22  45  66  97 133 183 222 267 332 396
#     4  11  23  42  68  99 133 179 220 278 339 396
#     4  11  24  42  70  97 142 176 219 277 333 393
#     4  10  20  42  68  94 133 179 219 268 336 396
#     4  11  25  42  65 105 140 165 220 287 343 391
#     4   9  20  41  69  92 133 176 226 272 323 401
#
# _framework density 21.780488999999999
#
# number of rings (size 3 to 8) (size 9 to 14) (size 15 to 20)
#    0.000    1.500    1.250    3.750    3.500    2.500 
#    0.000    0.000    0.000    0.000    0.000    0.000 
#    0.000    0.000    0.000    0.000    0.000    0.000 
#
# Total GULP energy -89345.573422 kJ/mol
# GULP energy per Si atom -5584.098339 kJ/mol
# Density = 2.173092 g / cm^3
# Si number density = 21.780489 Si / 1000 Ang^3
#
#
#
# Elastic Constant Matrix: (Units=GPa)
#
#
# Indices 1 2 3 4 5 6 
#
# 1 54.4731 22.9289 36.5390 -12.1786 4.9711 13.0731
# 2 22.9289 112.7649 51.7511 0.8356 4.3346 24.3110
# 3 36.5390 51.7511 112.0532 3.7768 0.8798 2.6540
# 4 -12.1786 0.8356 3.7768 44.0424 -0.1778 -4.0744
# 5 4.9711 4.3346 0.8798 -0.1778 37.2727 3.0810
# 6 13.0731 24.3110 2.6540 -4.0744 3.0810 35.0623
#
#
#
# Elastic Compliance Matrix: (Units=1/GPa)
#
#
# Indices 1 2 3 4 5 6 
#
# 1 0.028896 0.000661 -0.009752 0.007940 -0.002893 -0.009317
# 2 0.000661 0.013628 -0.006272 -0.000392 -0.000766 -0.009199
# 3 -0.009752 -0.006272 0.014951 -0.003266 0.001135 0.006374
# 4 0.007940 -0.000392 -0.003266 0.025238 -0.000863 0.000567
# 5 -0.002893 -0.000766 0.001135 -0.000863 0.027354 -0.000980
# 6 -0.009317 -0.009199 0.006374 0.000567 -0.000980 0.038042
#
#
# Mechanical properties :
#
#
# Convention : Reuss Voigt Hill
#
# Bulk Modulus (GPa) = 37.38543 55.74770 46.56656
# Shear Modulus (GPa) = 26.63080 34.48030 30.55555
#
# Velocity S-wave (km/s) = 3.50049 3.98311 3.74958
# Velocity P-wave (km/s) = 5.79136 6.84137 6.33815
#
# Compressibility (1/GPa) = 0.02674839
#
# Stress axis : x y z
#
# Youngs Moduli (GPa) = 34.60660 73.37996 66.88336
#
# Poissons Ratio (x) = -0.04851 0.65226
# Poissons Ratio (y) = -0.02288 0.41951
# Poissons Ratio (z) = 0.33749 0.46026
#
# Static dielectric constant tensor:
#      x y z
#    x 1.792300 -0.023010 -0.010820 
#    y -0.023010 1.863970 0.006110 
#    z -0.010820 0.006110 1.762380 
# 
# From -- ./inp_files/319466.got.cif
#   From: 2010.05.17/outbox.ucp.g08.bks.cvg/sg2_160_cif.got.tgz:319466.got - 2010.06.11 11:32:03.
