data_PCOD9073567
_publ_section_title
;
Structure prediction by ZEFSAII (Michael W. Deem and Ramdas Pophale) SiO2 
 PCOD9073567
Probable space group: P -1
;
_chemical_formula_sum "Si O2"
_cell_formula_units_Z 16
_cell_length_a 15.000000
_cell_length_b 12.000000
_cell_length_c 9.000000
_cell_angle_alpha 100.000000
_cell_angle_beta 90.000000
_cell_angle_gamma 150.000000
_cell_volume 759.581896
_symmetry_space_group_name_H-M "P -1"
_symmetry_group_IT_number 2
_symmetry_cell_setting 'triclinic'
loop_
_space_group_symop_operation_xyz
x,y,z
-x,-y,-z
loop_
_atom_site_type_symbol
_atom_site_label
_atom_site_fract_x
_atom_site_fract_y
_atom_site_fract_z
Si Si1 0.647612 0.120615 0.909254
Si Si2 0.791264 0.241738 0.482875
Si Si3 0.343003 0.670029 0.590985
Si Si4 0.128894 0.402644 0.039719
Si Si5 0.549693 0.675510 0.462177
Si Si6 0.055887 0.780362 0.331254
Si Si7 0.539809 0.418020 0.911684
Si Si8 0.785689 0.105019 0.138914
O O1 0.745927 0.342550 0.895005
O O2 0.513301 0.897606 0.751096
O O3 0.785226 0.198919 0.030439
O O4 0.500000 0.000000 0.000000
O O5 0.687809 0.248428 0.489300
O O6 0.834124 0.215066 0.624868
O O7 0.741004 0.110831 0.304155
O O8 0.000000 0.500000 0.500000
O O9 0.420480 0.639664 0.509457
O O10 0.139582 0.428379 0.619755
O O11 0.263949 0.439698 0.049630
O O12 0.977638 0.248469 0.139835
O O13 0.014273 0.281375 0.853320
O O14 0.500000 0.500000 0.500000
O O15 0.514009 0.631049 0.274375
O O16 0.771736 0.944399 0.560290
O O17 0.390646 0.174096 0.943421
O O18 0.500000 0.500000 0.000000
#
# Coordination Sequence:
#
# PCOD9073567 Si02
#       8
#     2   2   2   2   2   2   2   2
#     4  12  20  42  76 114 157 194 230 297 371 443
#     4  10  21  40  70 107 150 180 228 295 365 437
#     4  11  24  45  76 108 154 194 240 300 374 442
#     4  12  27  46  80 112 151 200 241 292 378 444
#     4  12  31  51  76 106 140 200 262 307 368 431
#     4  11  24  48  73 112 149 191 235 307 366 439
#     4  12  30  54  75 103 147 194 256 321 360 430
#     4  12  24  47  71 111 150 192 247 295 365 450
#
# _framework density 21.064219999999999
#
# number of rings (size 3 to 8) (size 9 to 14) (size 15 to 20)
#    0.000    0.500    5.000    1.875    8.750    3.500 
#    0.000    0.000    0.000    0.000    0.000    0.000 
#    0.000    0.000    0.000    0.000    0.000    0.000 
#
# Total GULP energy -89228.288143 kJ/mol
# GULP energy per Si atom -5576.768009 kJ/mol
# Density = 2.101628 g / cm^3
# Si number density = 21.064220 Si / 1000 Ang^3
#
#
#
# Elastic Constant Matrix: (Units=GPa)
#
#
# Indices 1 2 3 4 5 6 
#
# 1 183.2728 40.1813 56.0057 3.4470 -9.9622 5.8503
# 2 40.1813 108.2544 20.4924 4.3429 -2.7258 13.7089
# 3 56.0057 20.4924 128.6141 9.4162 5.6364 -5.6702
# 4 3.4470 4.3429 9.4162 33.7831 0.8103 -3.6226
# 5 -9.9622 -2.7258 5.6364 0.8103 47.5268 -6.7021
# 6 5.8503 13.7089 -5.6702 -3.6226 -6.7021 47.1903
#
#
#
# Elastic Compliance Matrix: (Units=1/GPa)
#
#
# Indices 1 2 3 4 5 6 
#
# 1 0.006818 -0.001930 -0.002766 0.000245 0.001590 -0.000372
# 2 -0.001930 0.010553 -0.000880 -0.001238 -0.000103 -0.003042
# 3 -0.002766 -0.000880 0.009395 -0.002042 -0.001519 0.001355
# 4 0.000245 -0.001238 -0.002042 0.030564 0.000045 0.002437
# 5 0.001590 -0.000103 -0.001519 0.000045 0.021938 0.002769
# 6 -0.000372 -0.003042 0.001355 0.002437 0.002769 0.022864
#
#
# Mechanical properties :
#
#
# Convention : Reuss Voigt Hill
#
# Bulk Modulus (GPa) = 64.03887 72.61113 68.32500
# Shear Modulus (GPa) = 42.19830 45.93085 44.06458
#
# Velocity S-wave (km/s) = 4.48070 4.67466 4.57871
# Velocity P-wave (km/s) = 7.56549 7.98015 7.77558
#
# Compressibility (1/GPa) = 0.01561552
#
# Stress axis : x y z
#
# Youngs Moduli (GPa) = 146.66439 94.76270 106.43435
#
# Poissons Ratio (x) = 0.18288 0.29435
# Poissons Ratio (y) = 0.28305 0.09366
# Poissons Ratio (z) = 0.40562 0.08339
#
# Static dielectric constant tensor:
#      x y z
#    x 1.825030 -0.018380 0.027750 
#    y -0.018380 1.795410 -0.008780 
#    z 0.027750 -0.008780 1.740910 
# 
# From -- ./inp_files/307756.got.cif
#   From: 2010.05.17/outbox.ucp.g08.bks.cvg/sg2_154_cif.got.tgz:307756.got - 2010.06.11 11:32:03.
