data_PCOD9073620
_publ_section_title
;
Structure prediction by ZEFSAII (Michael W. Deem and Ramdas Pophale) SiO2 
 PCOD9073620
Probable space group: P -1
;
_chemical_formula_sum "Si O2"
_cell_formula_units_Z 16
_cell_length_a 12.172822
_cell_length_b 11.551044
_cell_length_c 16.022653
_cell_angle_alpha 91.264854
_cell_angle_beta 39.001604
_cell_angle_gamma 61.275899
_cell_volume 867.088757
_symmetry_space_group_name_H-M "P -1"
_symmetry_group_IT_number 2
_symmetry_cell_setting 'triclinic'
loop_
_space_group_symop_operation_xyz
x,y,z
-x,-y,-z
loop_
_atom_site_type_symbol
_atom_site_label
_atom_site_fract_x
_atom_site_fract_y
_atom_site_fract_z
Si Si1 0.364411 0.185358 0.970734
Si Si2 0.864878 0.331027 0.480146
Si Si3 0.781555 0.278864 0.145522
Si Si4 0.890634 0.933837 0.532566
Si Si5 0.129758 0.506361 0.848530
Si Si6 0.552247 0.839183 0.897379
Si Si7 0.113786 0.931700 0.067383
Si Si8 0.791561 0.116831 0.433981
O O1 0.590867 0.072245 0.759701
O O2 0.352492 0.057030 0.003154
O O3 0.467476 0.191553 0.995416
O O4 0.072812 0.387727 0.110761
O O5 0.562214 0.546603 0.642123
O O6 0.879271 0.199379 0.419844
O O7 0.128778 0.277858 0.304872
O O8 0.902143 0.271591 0.553979
O O9 0.861509 0.367421 0.120887
O O10 0.948515 0.109768 0.108834
O O11 0.864723 0.194727 0.002340
O O12 0.862534 0.973453 0.452394
O O13 0.000000 0.000000 0.500000
O O14 0.449461 0.302084 0.634424
O O15 0.000000 0.500000 0.000000
O O16 0.429353 0.811315 0.904831
O O17 0.940946 0.017215 0.256548
#
# Coordination Sequence:
#
# PCOD9073620 Si02
#       8
#     2   2   2   2   2   2   2   2
#     4  10  18  31  55  89 113 141 189 242 283 319
#     4   9  20  34  58  87 113 143 194 241 273 334
#     4  10  24  40  57  83 117 154 188 230 291 340
#     4   9  16  31  51  80 114 142 183 232 288 324
#     4  11  21  37  62  86 113 147 194 239 279 335
#     4  10  19  33  58  85 113 147 188 237 280 329
#     4  11  22  40  58  81 120 155 185 230 288 348
#     4  10  20  33  58  87 110 152 189 236 280 332
#
# _framework density 18.452552000000001
#
# number of rings (size 3 to 8) (size 9 to 14) (size 15 to 20)
#    0.000    2.000    2.500    3.000    1.750    1.500 
#    0.000    1.250    0.000    0.000    0.000    0.000 
#    0.000    0.000    0.000    0.000    0.000    0.000 
#
# Total GULP energy -89171.345541 kJ/mol
# GULP energy per Si atom -5573.209096 kJ/mol
# Density = 1.841055 g / cm^3
# Si number density = 18.452552 Si / 1000 Ang^3
#
#
#
# Elastic Constant Matrix: (Units=GPa)
#
#
# Indices 1 2 3 4 5 6 
#
# 1 77.5847 29.2898 34.0702 -2.1238 6.8420 -33.4555
# 2 29.2898 41.0092 25.0074 -7.7131 -0.0697 -20.4561
# 3 34.0702 25.0074 85.1398 -12.2331 -4.8810 -14.8161
# 4 -2.1238 -7.7131 -12.2331 24.7571 -8.9789 0.9010
# 5 6.8420 -0.0697 -4.8810 -8.9789 35.1940 2.9321
# 6 -33.4555 -20.4561 -14.8161 0.9010 2.9321 23.2471
#
#
#
# Elastic Compliance Matrix: (Units=1/GPa)
#
#
# Indices 1 2 3 4 5 6 
#
# 1 0.044925 0.005073 -0.010384 -0.008504 -0.017754 0.065067
# 2 0.005073 0.050655 -0.007532 0.009538 -0.003424 0.047136
# 3 -0.010384 -0.007532 0.017805 0.008762 0.007669 -0.011531
# 4 -0.008504 0.009538 0.008762 0.053084 0.016631 -0.002416
# 5 -0.017754 -0.003424 0.007669 0.016631 0.039608 -0.029316
# 6 0.065067 0.047136 -0.011531 -0.002416 -0.029316 0.174575
#
#
# Mechanical properties :
#
#
# Convention : Reuss Voigt Hill
#
# Bulk Modulus (GPa) = 11.40271 42.27429 26.83850
# Shear Modulus (GPa) = 11.47924 24.33074 17.90499
#
# Velocity S-wave (km/s) = 2.49689 3.63513 3.11838
# Velocity P-wave (km/s) = 3.80861 6.37012 5.24804
#
# Compressibility (1/GPa) = 0.08769844
#
# Stress axis : x y z
#
# Youngs Moduli (GPa) = 22.25946 19.74152 56.16414
#
# Poissons Ratio (x) = -0.10014 0.58322
# Poissons Ratio (y) = -0.11292 0.42301
# Poissons Ratio (z) = 0.23115 0.14869
#
# Static dielectric constant tensor:
#      x y z
#    x 1.661550 -0.029760 -0.016450 
#    y -0.029760 1.632550 0.005700 
#    z -0.016450 0.005700 1.603260 
# 
# From -- ./inp_files/182355.got.cif
#   From: 2010.05.17/outbox.cif.g08.bks.cpg/sg2_92_cif.got.tgz:182355.got - 2010.06.03 11:33:40.
