data_PCOD9073572
_publ_section_title
;
Structure prediction by ZEFSAII (Michael W. Deem and Ramdas Pophale) SiO2 
 PCOD9073572
Probable space group: P -1
;
_chemical_formula_sum "Si O2"
_cell_formula_units_Z 16
_cell_length_a 15.000000
_cell_length_b 15.000000
_cell_length_c 15.000000
_cell_angle_alpha 160.000000
_cell_angle_beta 140.000000
_cell_angle_gamma 40.000000
_cell_volume 725.414092
_symmetry_space_group_name_H-M "P -1"
_symmetry_group_IT_number 2
_symmetry_cell_setting 'triclinic'
loop_
_space_group_symop_operation_xyz
x,y,z
-x,-y,-z
loop_
_atom_site_type_symbol
_atom_site_label
_atom_site_fract_x
_atom_site_fract_y
_atom_site_fract_z
Si Si1 0.866414 0.653652 0.481830
Si Si2 0.317619 0.967214 0.610371
Si Si3 0.175170 0.632136 0.299452
Si Si4 0.922787 0.562066 0.149587
Si Si5 0.425425 0.495988 0.671971
Si Si6 0.457623 0.227033 0.110529
Si Si7 0.945120 0.171089 0.964177
Si Si8 0.734373 0.959906 0.838728
O O1 0.754582 0.839899 0.639029
O O2 0.000000 0.500000 0.500000
O O3 0.900403 0.886230 0.662842
O O4 0.848068 0.397641 0.167516
O O5 0.225092 0.896554 0.556634
O O6 0.410746 0.701726 0.383278
O O7 0.203547 0.194077 0.686573
O O8 0.423459 0.115685 0.882956
O O9 0.320360 0.421395 0.227051
O O10 0.066405 0.656043 0.319629
O O11 0.118343 0.546064 0.079572
O O12 0.945954 0.324108 0.015128
O O13 0.424338 0.618077 0.686593
O O14 0.334287 0.270259 0.388313
O O15 0.354634 0.738435 0.916493
O O16 0.500000 0.000000 0.000000
O O17 0.104985 0.083588 0.043422
#
# Coordination Sequence:
#
# PCOD9073572 Si02
#       8
#     2   2   2   2   2   2   2   2
#     4  10  21  42  62  94 132 160 195 260 334 370
#     4  10  21  41  59  85 127 173 207 256 310 354
#     4   9  21  39  60  87 127 175 209 261 301 356
#     4  10  22  38  61  93 123 169 222 250 303 371
#     4  11  22  38  63  91 120 170 203 246 314 372
#     4  10  22  38  58  91 129 162 207 262 308 362
#     4  11  23  38  66  98 127 163 201 263 313 381
#     4  11  21  39  65  94 125 156 206 254 320 386
#
# _framework density 22.056367999999999
#
# number of rings (size 3 to 8) (size 9 to 14) (size 15 to 20)
#    0.000    1.750    1.250    4.125    3.500    3.000 
#    0.000    0.000    0.000    4.500    0.000    0.000 
#    0.000    0.000    0.000    0.000    0.000    0.000 
#
# Total GULP energy -89087.267316 kJ/mol
# GULP energy per Si atom -5567.954207 kJ/mol
# Density = 2.200617 g / cm^3
# Si number density = 22.056368 Si / 1000 Ang^3
#
#
#
# Elastic Constant Matrix: (Units=GPa)
#
#
# Indices 1 2 3 4 5 6 
#
# 1 77.7462 33.3080 21.4511 7.4898 -14.0564 -13.4320
# 2 33.3080 56.5859 22.2823 28.4085 -3.1288 7.9838
# 3 21.4511 22.2823 105.1837 31.7659 -11.7560 -6.8278
# 4 7.4898 28.4085 31.7659 34.8254 -4.6550 -4.5251
# 5 -14.0564 -3.1288 -11.7560 -4.6550 43.1497 11.3704
# 6 -13.4320 7.9838 -6.8278 -4.5251 11.3704 30.7615
#
#
#
# Elastic Compliance Matrix: (Units=1/GPa)
#
#
# Indices 1 2 3 4 5 6 
#
# 1 0.031555 -0.035226 -0.006574 0.031570 0.002726 0.025098
# 2 -0.035226 0.074481 0.008830 -0.066734 0.000387 -0.042712
# 3 -0.006574 0.008830 0.014791 -0.019745 0.001838 -0.005463
# 4 0.031570 -0.066734 -0.019745 0.099744 -0.000091 0.041428
# 5 0.002726 0.000387 0.001838 -0.000091 0.026802 -0.008422
# 6 0.025098 -0.042712 -0.005463 0.041428 -0.008422 0.062547
#
#
# Mechanical properties :
#
#
# Convention : Reuss Voigt Hill
#
# Bulk Modulus (GPa) = 18.21847 43.73318 30.97583
# Shear Modulus (GPa) = 12.68538 32.57894 22.63216
#
# Velocity S-wave (km/s) = 2.40080 3.84744 3.20676
# Velocity P-wave (km/s) = 3.99537 6.29349 5.27120
#
# Compressibility (1/GPa) = 0.05488934
#
# Stress axis : x y z
#
# Youngs Moduli (GPa) = 31.69042 13.42630 67.60790
#
# Poissons Ratio (x) = 0.47295 0.44442
# Poissons Ratio (y) = 1.11632 -0.59701
# Poissons Ratio (z) = 0.20832 -0.11856
#
# Static dielectric constant tensor:
#      x y z
#    x 1.905360 -0.042780 0.076110 
#    y -0.042780 1.850080 -0.044810 
#    z 0.076110 -0.044810 1.933910 
# 
# From -- ./inp_files/366859.got.cif
#   From: 2010.05.17/outbox.ucp.g08.bks.cvg/sg2_184_cif.got.tgz:366859.got - 2010.06.11 11:32:03.
