data_PCOD9073721
_publ_section_title
;
Structure prediction by ZEFSAII (Michael W. Deem and Ramdas Pophale) SiO2 
 PCOD9073721
Probable space group: P -1
;
_chemical_formula_sum "Si O2"
_cell_formula_units_Z 16
_cell_length_a 12.000000
_cell_length_b 9.000000
_cell_length_c 9.000000
_cell_angle_alpha 90.000000
_cell_angle_beta 100.000000
_cell_angle_gamma 50.000000
_cell_volume 725.212580
_symmetry_space_group_name_H-M "P -1"
_symmetry_group_IT_number 2
_symmetry_cell_setting 'triclinic'
loop_
_space_group_symop_operation_xyz
x,y,z
-x,-y,-z
loop_
_atom_site_type_symbol
_atom_site_label
_atom_site_fract_x
_atom_site_fract_y
_atom_site_fract_z
Si Si1 0.353240 0.712853 0.132183
Si Si2 0.936824 0.647105 0.342115
Si Si3 0.687184 0.359118 0.213966
Si Si4 0.292817 0.933034 0.594140
Si Si5 0.887928 0.424483 0.114931
Si Si6 0.184505 0.599142 0.240021
Si Si7 0.772389 0.926927 0.754328
Si Si8 0.590264 0.808498 0.628108
O O1 0.520021 0.539979 0.225380
O O2 0.238406 0.715657 0.205202
O O3 0.318884 0.913567 0.140766
O O4 0.331980 0.690598 0.956098
O O5 0.902782 0.571962 0.193784
O O6 0.000000 0.500000 0.500000
O O7 0.035994 0.695116 0.296877
O O8 0.794288 0.849314 0.371651
O O9 0.753021 0.181146 0.340629
O O10 0.784767 0.419714 0.203956
O O11 0.461131 0.829485 0.681712
O O12 0.268705 0.957506 0.411176
O O13 0.054474 0.215719 0.166590
O O14 0.831786 0.460581 0.931217
O O15 0.303246 0.421854 0.381874
O O16 0.710718 0.813974 0.728951
O O17 0.500000 0.000000 0.500000
#
# Coordination Sequence:
#
# PCOD9073721 Si02
#       8
#     2   2   2   2   2   2   2   2
#     4  10  24  44  66  92 129 171 215 261 321 377
#     4  12  24  43  65  97 132 168 209 269 320 379
#     4  10  24  44  63  96 131 164 216 269 312 383
#     4  11  24  42  65  94 129 171 212 265 322 373
#     4  11  25  42  65  99 132 165 216 263 323 383
#     4  11  23  44  69  90 129 175 212 263 321 384
#     4  11  24  42  64  97 129 169 214 264 316 387
#     4  10  21  43  63  91 129 164 217 262 312 381
#
# _framework density 22.062495999999999
#
# number of rings (size 3 to 8) (size 9 to 14) (size 15 to 20)
#    0.000    1.250    3.750    1.125    5.250    3.000 
#    0.000    1.250    0.000    0.000    0.000    0.000 
#    0.000    0.000    0.000    0.000    0.000    0.000 
#
# Total GULP energy -89141.564187 kJ/mol
# GULP energy per Si atom -5571.347762 kJ/mol
# Density = 2.201228 g / cm^3
# Si number density = 22.062496 Si / 1000 Ang^3
#
#
#
# Elastic Constant Matrix: (Units=GPa)
#
#
# Indices 1 2 3 4 5 6 
#
# 1 145.1140 -6.5690 9.2943 10.4841 5.1682 -11.7407
# 2 -6.5690 42.4717 5.7633 -6.7638 -5.9545 -6.8816
# 3 9.2943 5.7633 29.4143 -15.4803 0.6694 0.9760
# 4 10.4841 -6.7638 -15.4803 35.8817 5.9523 -10.3190
# 5 5.1682 -5.9545 0.6694 5.9523 14.3734 -15.9124
# 6 -11.7407 -6.8816 0.9760 -10.3190 -15.9124 16.6826
#
#
#
# Elastic Compliance Matrix: (Units=1/GPa)
#
#
# Indices 1 2 3 4 5 6 
#
# 1 0.007112 -0.001812 -0.003891 -0.004731 -0.009973 -0.007954
# 2 -0.001812 0.005932 -0.000115 -0.004920 -0.055174 -0.054492
# 3 -0.003891 -0.000115 0.047903 0.025151 0.004635 0.014389
# 4 -0.004731 -0.004920 0.025151 0.040687 -0.034694 -0.014757
# 5 -0.009973 -0.055174 0.004635 -0.034694 -0.132764 -0.178143
# 6 -0.007954 -0.054492 0.014389 -0.014757 -0.178143 -0.148020
#
#
# Mechanical properties :
#
#
# Convention : Reuss Voigt Hill
#
# Bulk Modulus (GPa) = 20.28032 25.99747 23.13890
# Shear Modulus (GPa) = -33.09590 27.28830 -2.90380
#
# Velocity S-wave (km/s) = -3.87731 3.52072 -1.14849
# Velocity P-wave (km/s) = 3.29128 5.32320 2.95837
#
# Compressibility (1/GPa) = 0.04930888
#
# Stress axis : x y z
#
# Youngs Moduli (GPa) = 140.61069 168.56849 20.87553
#
# Poissons Ratio (x) = 0.30550 0.08123
# Poissons Ratio (y) = 0.25483 0.00241
# Poissons Ratio (z) = 0.54716 0.01947
#
# Static dielectric constant tensor:
#      x y z
#    x 1.795220 -0.013060 -0.031220 
#    y -0.013060 1.864530 -0.009890 
#    z -0.031220 -0.009890 1.719640 
# 
# From -- ./inp_files/184107.got.cif
#   From: 2010.05.17/outbox.ucp.g08.bks.cvg/sg2_93_cif.got.tgz:184107.got - 2010.06.11 11:32:03.
