data_PCOD9073394
_publ_section_title
;
Structure prediction by ZEFSAII (Michael W. Deem and Ramdas Pophale) SiO2 
 PCOD9073394
Probable space group: P -1
;
_chemical_formula_sum "Si O2"
_cell_formula_units_Z 14
_cell_length_a 9.947994
_cell_length_b 7.663082
_cell_length_c 17.949450
_cell_angle_alpha 95.357222
_cell_angle_beta 35.428764
_cell_angle_gamma 118.051975
_cell_volume 576.846824
_symmetry_space_group_name_H-M "P -1"
_symmetry_group_IT_number 2
_symmetry_cell_setting 'triclinic'
loop_
_space_group_symop_operation_xyz
x,y,z
-x,-y,-z
loop_
_atom_site_type_symbol
_atom_site_label
_atom_site_fract_x
_atom_site_fract_y
_atom_site_fract_z
Si Si1 0.410229 0.801782 0.472374
Si Si2 0.444620 0.688426 0.300821
Si Si3 0.136051 0.374413 0.672439
Si Si4 0.467095 0.576154 0.123215
Si Si5 0.250406 0.494370 0.793332
Si Si6 0.138352 0.092457 0.174276
Si Si7 0.098199 0.776591 0.914644
O O1 0.299865 0.740710 0.432586
O O2 0.146536 0.546830 0.622105
O O3 0.500000 0.000000 0.500000
O O4 0.772556 0.911647 0.304080
O O5 0.358323 0.605080 0.250809
O O6 0.482207 0.515320 0.314552
O O7 0.762153 0.962384 0.152125
O O8 0.500000 0.500000 0.500000
O O9 0.117259 0.420622 0.768095
O O10 0.883067 0.087158 0.768666
O O11 0.219803 0.311626 0.189913
O O12 0.612392 0.778844 0.001717
O O13 0.768447 0.607145 0.011582
O O14 0.325933 0.735995 0.784819
O O15 0.986412 0.303629 0.965014
#
# Coordination Sequence:
#
# PCOD9073394 Si02
#       7
#     2   2   2   2   2   2   2
#     4  11  22  36  61  81 109 151 200 231 268 339
#     4  11  19  36  59  85 108 154 189 231 282 333
#     4  10  18  33  54  76 106 147 189 222 268 329
#     4  10  20  35  60  84 118 145 181 235 301 330
#     4  10  18  31  54  84 109 136 191 233 273 320
#     4  10  20  37  58  84 113 150 182 237 290 333
#     4  10  19  31  57  84 112 141 188 235 276 341
#
# _framework density 24.269874999999999
#
# number of rings (size 3 to 8) (size 9 to 14) (size 15 to 20)
#    0.000    1.714    4.286    3.429    0.000    0.000 
#    0.000    2.143   12.571    0.000    0.000    0.000 
#    0.000    0.000    0.000    0.000    0.000    0.000 
#
# Total GULP energy -77972.330808 kJ/mol
# GULP energy per Si atom -5569.452201 kJ/mol
# Density = 2.421464 g / cm^3
# Si number density = 24.269875 Si / 1000 Ang^3
#
#
#
# Elastic Constant Matrix: (Units=GPa)
#
#
# Indices 1 2 3 4 5 6 
#
# 1 70.8049 45.2468 34.4214 -9.6018 18.5890 1.6932
# 2 45.2468 130.5129 73.3627 5.2062 27.3101 5.0672
# 3 34.4214 73.3627 110.8805 -21.8285 31.5351 0.3139
# 4 -9.6018 5.2062 -21.8285 42.7275 -1.5290 11.0728
# 5 18.5890 27.3101 31.5351 -1.5290 42.1363 3.4039
# 6 1.6932 5.0672 0.3139 11.0728 3.4039 30.5482
#
#
#
# Elastic Compliance Matrix: (Units=1/GPa)
#
#
# Indices 1 2 3 4 5 6 
#
# 1 0.020039 -0.006416 0.000515 0.005801 -0.004725 -0.001628
# 2 -0.006416 0.016064 -0.010330 -0.008965 -0.000262 0.001076
# 3 0.000515 -0.010330 0.020396 0.012010 -0.008202 -0.001964
# 4 0.005801 -0.008965 0.012010 0.034693 -0.003578 -0.011134
# 5 -0.004725 -0.000262 -0.008202 -0.003578 0.032149 -0.001895
# 6 -0.001628 0.001076 -0.001964 -0.011134 -0.001895 0.036914
#
#
# Mechanical properties :
#
#
# Convention : Reuss Voigt Hill
#
# Bulk Modulus (GPa) = 41.60321 68.69557 55.14939
# Shear Modulus (GPa) = 24.90917 33.69356 29.30137
#
# Velocity S-wave (km/s) = 3.20713 3.73002 3.47841
# Velocity P-wave (km/s) = 5.55818 6.84960 6.23740
#
# Compressibility (1/GPa) = 0.02403661
#
# Stress axis : x y z
#
# Youngs Moduli (GPa) = 49.90184 62.25258 49.02903
#
# Poissons Ratio (x) = 0.39941 -0.02523
# Poissons Ratio (y) = 0.32017 0.50646
# Poissons Ratio (z) = -0.02568 0.64306
#
# Static dielectric constant tensor:
#      x y z
#    x 2.077670 -0.074550 -0.050040 
#    y -0.074550 1.971160 0.073680 
#    z -0.050040 0.073680 1.954200 
# 
# From -- ./inp_files/209470.got.cif
#   From: 2010.05.17/outbox.cif.g08.bks.cpg/sg2_105_cif.got.tgz:209470.got - 2010.06.03 11:33:40.
