data_PCOD9073226
_publ_section_title
;
Structure prediction by ZEFSAII (Michael W. Deem and Ramdas Pophale) SiO2 
 PCOD9073226
Probable space group: P -1
;
_chemical_formula_sum "Si O2"
_cell_formula_units_Z 16
_cell_length_a 9.000000
_cell_length_b 9.000000
_cell_length_c 24.000000
_cell_angle_alpha 130.000000
_cell_angle_beta 130.000000
_cell_angle_gamma 30.000000
_cell_volume 725.531033
_symmetry_space_group_name_H-M "P -1"
_symmetry_group_IT_number 2
_symmetry_cell_setting 'triclinic'
loop_
_space_group_symop_operation_xyz
x,y,z
-x,-y,-z
loop_
_atom_site_type_symbol
_atom_site_label
_atom_site_fract_x
_atom_site_fract_y
_atom_site_fract_z
Si Si1 0.222199 0.186630 0.046834
Si Si2 0.248764 0.436315 0.214251
Si Si3 0.744076 0.907630 0.286736
Si Si4 0.164674 0.944577 0.285725
Si Si5 0.272193 0.988667 0.445295
Si Si6 0.590254 0.617903 0.937539
Si Si7 0.328074 0.460984 0.766536
Si Si8 0.331631 0.640351 0.554166
O O1 0.144230 0.341272 0.125332
O O2 0.419379 0.208679 0.071202
O O3 0.933053 0.360374 0.980643
O O4 0.407568 0.844022 0.001461
O O5 0.575083 0.115303 0.239567
O O6 0.194074 0.685104 0.230340
O O7 0.080466 0.605611 0.272694
O O8 0.706874 0.107778 0.371698
O O9 0.667974 0.748574 0.250697
O O10 0.953504 0.201363 0.248198
O O11 0.118869 0.063826 0.365652
O O12 0.500337 0.735921 0.295843
O O13 0.466853 0.648285 0.425879
O O14 0.500000 0.000000 0.500000
O O15 0.005467 0.196776 0.478598
O O16 0.482666 0.500447 0.855185
O O17 0.500000 0.500000 0.500000
#
# Coordination Sequence:
#
# PCOD9073226 Si02
#       8
#     2   2   2   2   2   2   2   2
#     4  10  21  36  66  96 134 179 229 289 351 409
#     4  12  23  45  72 100 133 194 236 287 346 428
#     4  12  26  47  69 100 147 182 235 285 358 436
#     4  12  24  45  74 101 139 179 248 291 339 417
#     4  12  27  50  75 111 144 181 244 308 350 424
#     4  10  21  38  60 103 136 171 231 294 345 411
#     4  12  26  43  71 104 140 186 232 297 353 415
#     4  12  26  50  75 105 148 194 233 287 374 444
#
# _framework density 22.052813
#
# number of rings (size 3 to 8) (size 9 to 14) (size 15 to 20)
#    0.000    0.500    3.750    4.500    5.250    0.000 
#    0.000    3.750    0.000    0.000    0.000    0.000 
#    0.000    0.000    0.000    0.000    0.000    0.000 
#
# Total GULP energy -89150.401731 kJ/mol
# GULP energy per Si atom -5571.900108 kJ/mol
# Density = 2.200262 g / cm^3
# Si number density = 22.052813 Si / 1000 Ang^3
#
#
#
# Elastic Constant Matrix: (Units=GPa)
#
#
# Indices 1 2 3 4 5 6 
#
# 1 97.1247 33.1367 50.8421 17.4048 17.6547 6.6560
# 2 33.1367 93.1333 21.7343 1.7241 11.1601 2.7856
# 3 50.8421 21.7343 155.3572 17.3354 11.4569 6.4486
# 4 17.4048 1.7241 17.3354 38.3244 -1.4148 -4.5215
# 5 17.6547 11.1601 11.4569 -1.4148 32.1595 10.4226
# 6 6.6560 2.7856 6.4486 -4.5215 10.4226 37.6176
#
#
#
# Elastic Compliance Matrix: (Units=1/GPa)
#
#
# Indices 1 2 3 4 5 6 
#
# 1 0.015588 -0.003899 -0.003448 -0.005671 -0.005928 -0.000918
# 2 -0.003899 0.012451 -0.000493 0.001427 -0.002142 0.000617
# 3 -0.003448 -0.000493 0.007949 -0.002125 -0.000601 -0.000805
# 4 -0.005671 0.001427 -0.002125 0.030157 0.003426 0.003938
# 5 -0.005928 -0.002142 -0.000601 0.003426 0.038342 -0.008901
# 6 -0.000918 0.000617 -0.000805 0.003938 -0.008901 0.029777
#
#
# Mechanical properties :
#
#
# Convention : Reuss Voigt Hill
#
# Bulk Modulus (GPa) = 49.23884 61.89348 55.56616
# Shear Modulus (GPa) = 31.90554 37.61377 34.75966
#
# Velocity S-wave (km/s) = 3.80778 4.13440 3.97445
# Velocity P-wave (km/s) = 6.45821 7.13568 6.80538
#
# Compressibility (1/GPa) = 0.02030917
#
# Stress axis : x y z
#
# Youngs Moduli (GPa) = 64.15299 80.31288 125.80465
#
# Poissons Ratio (x) = 0.31312 0.43374
# Poissons Ratio (y) = 0.25011 0.06201
# Poissons Ratio (z) = 0.22118 0.03959
#
# Static dielectric constant tensor:
#      x y z
#    x 1.943510 -0.024830 0.003510 
#    y -0.024830 1.855780 -0.010310 
#    z 0.003510 -0.010310 1.782520 
# 
# From -- ./inp_files/606817.got.cif
#   From: 2010.05.17/outbox.ucp.g08.bks.cvg/sg2_304_cif.got.tgz:606817.got - 2010.06.11 11:32:03.
