data_PCOD9073009
_publ_section_title
;
Structure prediction by ZEFSAII (Michael W. Deem and Ramdas Pophale) SiO2 
 PCOD9073009
Probable space group: P -1
;
_chemical_formula_sum "Si O2"
_cell_formula_units_Z 16
_cell_length_a 15.000000
_cell_length_b 9.000000
_cell_length_c 12.000000
_cell_angle_alpha 40.000000
_cell_angle_beta 70.000000
_cell_angle_gamma 50.000000
_cell_volume 759.581896
_symmetry_space_group_name_H-M "P -1"
_symmetry_group_IT_number 2
_symmetry_cell_setting 'triclinic'
loop_
_space_group_symop_operation_xyz
x,y,z
-x,-y,-z
loop_
_atom_site_type_symbol
_atom_site_label
_atom_site_fract_x
_atom_site_fract_y
_atom_site_fract_z
Si Si1 0.295471 0.215154 0.168399
Si Si2 0.151067 0.796422 0.367984
Si Si3 0.129582 0.647331 0.795294
Si Si4 0.756092 0.768385 0.240238
Si Si5 0.484219 0.251399 0.164507
Si Si6 0.685322 0.310113 0.848658
Si Si7 0.259938 0.844110 0.517904
Si Si8 0.481031 0.763902 0.182169
O O1 0.375706 0.317507 0.098143
O O2 0.250174 0.134783 0.338805
O O3 0.397476 0.896817 0.250485
O O4 0.191033 0.439855 0.996619
O O5 0.159309 0.507326 0.552712
O O6 0.218528 0.750858 0.249471
O O7 0.228411 0.786406 0.442999
O O8 0.016365 0.113625 0.261791
O O9 0.191876 0.412844 0.797809
O O10 0.170047 0.849561 0.637599
O O11 0.615294 0.939860 0.249823
O O12 0.756810 0.045559 0.063521
O O13 0.412537 0.351738 0.257141
O O14 0.500000 0.500000 0.000000
O O15 0.598235 0.250025 0.865692
O O16 0.392999 0.557253 0.664403
O O17 0.500000 0.000000 0.000000
#
# Coordination Sequence:
#
# PCOD9073009 Si02
#       8
#     2   2   2   2   2   2   2   2
#     4  12  22  39  62  95 124 165 210 265 317 363
#     4  11  23  40  62  96 127 167 213 255 311 375
#     4  11  23  39  65  94 128 165 212 263 310 369
#     4  10  20  40  61  92 126 159 202 263 310 371
#     4  10  24  41  64  93 131 168 203 259 330 380
#     4  11  23  41  61  95 127 168 204 254 322 385
#     4  11  22  35  63  96 125 157 209 269 313 367
#     4  12  20  38  64  93 128 158 205 268 322 360
#
# _framework density 21.064219999999999
#
# number of rings (size 3 to 8) (size 9 to 14) (size 15 to 20)
#    0.000    1.000    3.750    5.625    1.750    3.500 
#    0.000    0.625    0.000    3.750    0.000    0.000 
#    0.000    0.000    0.000    0.000    0.000    0.000 
#
# Total GULP energy -89152.843969 kJ/mol
# GULP energy per Si atom -5572.052748 kJ/mol
# Density = 2.101628 g / cm^3
# Si number density = 21.064220 Si / 1000 Ang^3
#
#
#
# Elastic Constant Matrix: (Units=GPa)
#
#
# Indices 1 2 3 4 5 6 
#
# 1 41.6349 29.6047 27.2158 -1.7391 -2.8063 -11.1833
# 2 29.6047 133.8447 35.7078 -12.9398 14.1147 -31.9500
# 3 27.2158 35.7078 129.6761 1.4414 -10.3274 -24.1382
# 4 -1.7391 -12.9398 1.4414 26.1477 -10.4826 -1.8716
# 5 -2.8063 14.1147 -10.3274 -10.4826 16.4059 -2.9871
# 6 -11.1833 -31.9500 -24.1382 -1.8716 -2.9871 31.1758
#
#
#
# Elastic Compliance Matrix: (Units=1/GPa)
#
#
# Indices 1 2 3 4 5 6 
#
# 1 0.032865 -0.006212 -0.003456 0.004621 0.012512 0.004224
# 2 -0.006212 0.012565 -0.001255 0.002814 -0.009233 0.008962
# 3 -0.003456 -0.001255 0.010951 0.003423 0.010881 0.007202
# 4 0.004621 0.002814 0.003423 0.056517 0.039247 0.014345
# 5 0.012512 -0.009233 0.010881 0.039247 0.105868 0.015950
# 6 0.004224 0.008962 0.007202 0.014345 0.015950 0.050741
#
#
# Mechanical properties :
#
#
# Convention : Reuss Voigt Hill
#
# Bulk Modulus (GPa) = 28.95457 54.46804 41.71130
# Shear Modulus (GPa) = 16.50908 28.92104 22.71506
#
# Velocity S-wave (km/s) = 2.80259 3.70941 3.28742
# Velocity P-wave (km/s) = 4.92426 6.65286 5.85273
#
# Compressibility (1/GPa) = 0.03453687
#
# Stress axis : x y z
#
# Youngs Moduli (GPa) = 30.42740 79.58614 91.31336
#
# Poissons Ratio (x) = 0.49438 0.31555
# Poissons Ratio (y) = 0.18901 0.11457
# Poissons Ratio (z) = 0.10515 0.09985
#
# Static dielectric constant tensor:
#      x y z
#    x 1.808320 0.036330 -0.040780 
#    y 0.036330 1.829290 0.043380 
#    z -0.040780 0.043380 1.821670 
# 
# From -- ./inp_files/446623.got.cif
#   From: 2010.05.17/outbox.ucp.g08.bks.cvg/sg2_224_cif.got.tgz:446623.got - 2010.06.11 11:32:03.
