data_PCOD9073400
_publ_section_title
;
Structure prediction by ZEFSAII (Michael W. Deem and Ramdas Pophale) SiO2 
 PCOD9073400
Probable space group: P -1
;
_chemical_formula_sum "Si O2"
_cell_formula_units_Z 16
_cell_length_a 9.000000
_cell_length_b 12.000000
_cell_length_c 9.000000
_cell_angle_alpha 60.000000
_cell_angle_beta 80.000000
_cell_angle_gamma 60.000000
_cell_volume 725.212580
_symmetry_space_group_name_H-M "P -1"
_symmetry_group_IT_number 2
_symmetry_cell_setting 'triclinic'
loop_
_space_group_symop_operation_xyz
x,y,z
-x,-y,-z
loop_
_atom_site_type_symbol
_atom_site_label
_atom_site_fract_x
_atom_site_fract_y
_atom_site_fract_z
Si Si1 0.786220 0.306784 0.433690
Si Si2 0.453998 0.958993 0.741140
Si Si3 0.941508 0.928438 0.255302
Si Si4 0.495632 0.220019 0.443809
Si Si5 0.023770 0.787898 0.011215
Si Si6 0.692590 0.752260 0.052463
Si Si7 0.797455 0.558251 0.458157
Si Si8 0.841382 0.466039 0.046630
O O1 0.632831 0.274567 0.428902
O O2 0.756863 0.432600 0.479856
O O3 0.855289 0.354506 0.247342
O O4 0.934825 0.158680 0.574853
O O5 0.507920 0.833077 0.688568
O O6 0.249028 0.047030 0.706686
O O7 0.527913 0.070806 0.622860
O O8 0.515403 0.889292 0.939551
O O9 0.936971 0.085679 0.141438
O O10 0.010950 0.827640 0.161574
O O11 0.314242 0.354989 0.437996
O O12 0.157693 0.621234 0.044677
O O13 0.843790 0.797775 0.978997
O O14 0.730026 0.680555 0.256525
O O15 0.699478 0.623767 0.027992
O O16 0.000000 0.500000 0.500000
O O17 0.000000 0.500000 0.000000
#
# Coordination Sequence:
#
# PCOD9073400 Si02
#       8
#     2   2   2   2   2   2   2   2
#     4  11  23  43  68  96 131 173 222 272 329 389
#     4  11  25  42  62  94 134 175 220 268 327 390
#     4  11  24  40  64  97 131 172 217 269 325 390
#     4  11  25  43  66  96 132 173 219 275 329 390
#     4  10  21  39  62  93 126 162 215 270 324 383
#     4  10  22  41  64  90 126 170 213 269 330 388
#     4  11  24  44  69  97 131 171 219 272 331 397
#     4   9  21  40  64  91 121 165 216 267 323 383
#
# _framework density 22.062495999999999
#
# number of rings (size 3 to 8) (size 9 to 14) (size 15 to 20)
#    0.000    1.500    0.000    4.125    0.000   16.000 
#    0.000    8.125    0.000    0.000    0.000    0.000 
#    0.000    0.000    0.000    0.000    0.000    0.000 
#
# Total GULP energy -89286.128002 kJ/mol
# GULP energy per Si atom -5580.383000 kJ/mol
# Density = 2.201228 g / cm^3
# Si number density = 22.062496 Si / 1000 Ang^3
#
#
#
# Elastic Constant Matrix: (Units=GPa)
#
#
# Indices 1 2 3 4 5 6 
#
# 1 115.7187 42.0473 48.6964 -10.2702 -10.3380 24.1139
# 2 42.0473 125.9764 41.8892 24.8565 -1.4004 36.2892
# 3 48.6964 41.8892 102.2992 -16.3725 1.8782 -6.0977
# 4 -10.2702 24.8565 -16.3725 21.8134 3.5534 -5.1754
# 5 -10.3380 -1.4004 1.8782 3.5534 33.4498 -10.6089
# 6 24.1139 36.2892 -6.0977 -5.1754 -10.6089 48.9128
#
#
#
# Elastic Compliance Matrix: (Units=1/GPa)
#
#
# Indices 1 2 3 4 5 6 
#
# 1 0.013117 0.002684 -0.008974 -0.006299 0.002245 -0.009757
# 2 0.002684 0.181142 -0.144136 -0.358041 -0.006675 -0.193016
# 3 -0.008974 -0.144136 0.129667 0.294644 0.003162 0.159388
# 4 -0.006299 -0.358041 0.294644 0.762689 0.008565 0.388031
# 5 0.002245 -0.006675 0.003162 0.008565 0.033134 0.012332
# 6 -0.009757 -0.193016 0.159388 0.388031 0.012332 0.232059
#
#
# Mechanical properties :
#
#
# Convention : Reuss Voigt Hill
#
# Bulk Modulus (GPa) = 43.34021 67.69557 55.51789
# Shear Modulus (GPa) = 3.01141 34.92595 18.96868
#
# Velocity S-wave (km/s) = 1.16958 3.98307 2.93537
# Velocity P-wave (km/s) = 4.63798 7.20439 6.05863
#
# Compressibility (1/GPa) = 0.02307326
#
# Stress axis : x y z
#
# Youngs Moduli (GPa) = 76.23424 5.52054 7.71209
#
# Poissons Ratio (x) = -0.01482 0.06921
# Poissons Ratio (y) = -0.20463 1.11159
# Poissons Ratio (z) = 0.68414 0.79571
#
# Static dielectric constant tensor:
#      x y z
#    x 1.739630 -0.040130 -0.032540 
#    y -0.040130 1.873920 0.014960 
#    z -0.032540 0.014960 1.887010 
# 
# From -- ./inp_files/185049.got.cif
#   From: 2010.05.17/outbox.ucp.g08.bks.cvg/sg2_93_cif.got.tgz:185049.got - 2010.06.11 11:32:03.
