data_PCOD9073727
_publ_section_title
;
Structure prediction by ZEFSAII (Michael W. Deem and Ramdas Pophale) SiO2 
 PCOD9073727
Probable space group: P -1
;
_chemical_formula_sum "Si O2"
_cell_formula_units_Z 16
_cell_length_a 9.000000
_cell_length_b 12.000000
_cell_length_c 18.000000
_cell_angle_alpha 130.000000
_cell_angle_beta 150.000000
_cell_angle_gamma 50.000000
_cell_volume 725.531033
_symmetry_space_group_name_H-M "P -1"
_symmetry_group_IT_number 2
_symmetry_cell_setting 'triclinic'
loop_
_space_group_symop_operation_xyz
x,y,z
-x,-y,-z
loop_
_atom_site_type_symbol
_atom_site_label
_atom_site_fract_x
_atom_site_fract_y
_atom_site_fract_z
Si Si1 0.398008 0.043755 0.890900
Si Si2 0.679535 0.736988 0.838849
Si Si3 0.797782 0.799211 0.329064
Si Si4 0.527675 0.333731 0.116757
Si Si5 0.863152 0.386890 0.491553
Si Si6 0.182406 0.935357 0.434482
Si Si7 0.637747 0.396397 0.947256
Si Si8 0.203898 0.286727 0.445004
O O1 0.058519 0.020835 0.718406
O O2 0.626081 0.916234 0.889099
O O3 0.419801 0.214465 0.965723
O O4 0.500000 0.000000 0.000000
O O5 0.627034 0.681200 0.876467
O O6 0.404941 0.699215 0.658190
O O7 0.000369 0.649266 0.912574
O O8 0.474610 0.758101 0.161072
O O9 0.976886 0.641261 0.372722
O O10 0.991345 0.843994 0.364769
O O11 0.777979 0.927441 0.437925
O O12 0.449223 0.499506 0.119679
O O13 0.890250 0.279297 0.264141
O O14 0.729151 0.556629 0.485278
O O15 0.101843 0.315252 0.499115
O O16 0.504731 0.842790 0.503596
O O17 0.500000 0.500000 0.000000
#
# Coordination Sequence:
#
# PCOD9073727 Si02
#       8
#     2   2   2   2   2   2   2   2
#     4  10  22  43  67  98 131 173 220 266 328 392
#     4  10  23  42  68  91 134 173 214 275 327 385
#     4  11  25  45  65  95 138 172 225 268 329 401
#     4  10  22  43  64  99 131 167 218 271 333 388
#     4  10  21  43  65 101 130 169 222 271 330 388
#     4  11  25  45  67  98 133 179 219 272 331 393
#     4  12  26  43  64  98 129 177 223 267 328 401
#     4  10  23  40  71  99 132 168 222 278 323 390
#
# _framework density 22.052813
#
# number of rings (size 3 to 8) (size 9 to 14) (size 15 to 20)
#    0.000    1.500    2.500    1.125    5.250    4.000 
#    0.000    1.250    0.000    0.000    0.000    0.000 
#    0.000    0.000    0.000    0.000    0.000    0.000 
#
# Total GULP energy -89346.437360 kJ/mol
# GULP energy per Si atom -5584.152335 kJ/mol
# Density = 2.200262 g / cm^3
# Si number density = 22.052813 Si / 1000 Ang^3
#
#
#
# Elastic Constant Matrix: (Units=GPa)
#
#
# Indices 1 2 3 4 5 6 
#
# 1 37.7306 16.9653 24.4692 -10.5621 19.6751 -24.2449
# 2 16.9653 61.4447 15.6835 -0.0824 19.8012 -23.6107
# 3 24.4692 15.6835 66.3590 11.9526 5.2287 -27.1344
# 4 -10.5621 -0.0824 11.9526 42.0435 1.5099 14.1334
# 5 19.6751 19.8012 5.2287 1.5099 22.5690 -6.1608
# 6 -24.2449 -23.6107 -27.1344 14.1334 -6.1608 39.3825
#
#
#
# Elastic Compliance Matrix: (Units=1/GPa)
#
#
# Indices 1 2 3 4 5 6 
#
# 1 0.161462 0.035356 -0.040501 0.038953 -0.149917 0.055261
# 2 0.035356 0.037334 -0.004927 0.001620 -0.053880 0.031744
# 3 -0.040501 -0.004927 0.039362 -0.027679 0.036420 0.014864
# 4 0.038953 0.001620 -0.027679 0.048599 -0.036951 -0.017341
# 5 -0.149917 -0.053880 0.036420 -0.036951 0.201367 -0.054740
# 6 0.055261 0.031744 0.014864 -0.017341 -0.054740 0.086344
#
#
# Mechanical properties :
#
#
# Convention : Reuss Voigt Hill
#
# Bulk Modulus (GPa) = 4.58684 31.08560 17.83622
# Shear Modulus (GPa) = 7.49307 28.02675 17.75991
#
# Velocity S-wave (km/s) = 1.84531 3.56883 2.84092
# Velocity P-wave (km/s) = 2.57384 5.57751 4.34357
#
# Compressibility (1/GPa) = 0.21801488
#
# Stress axis : x y z
#
# Youngs Moduli (GPa) = 6.19339 26.78540 25.40534
#
# Poissons Ratio (x) = -0.94703 1.02894
# Poissons Ratio (y) = -0.21897 0.12517
# Poissons Ratio (z) = 0.25084 0.13197
#
# Static dielectric constant tensor:
#      x y z
#    x 1.793240 0.060580 -0.046620 
#    y 0.060580 1.842710 0.014090 
#    z -0.046620 0.014090 1.882990 
# 
# From -- ./inp_files/208268.got.cif
#   From: 2010.05.17/outbox.ucp.g08.bks.cvg/sg2_105_cif.got.tgz:208268.got - 2010.06.11 11:32:03.
