data_PCOD9073479
_publ_section_title
;
Structure prediction by ZEFSAII (Michael W. Deem and Ramdas Pophale) SiO2 
 PCOD9073479
Probable space group: P -1
;
_chemical_formula_sum "Si O2"
_cell_formula_units_Z 14
_cell_length_a 15.000000
_cell_length_b 9.000000
_cell_length_c 12.000000
_cell_angle_alpha 70.000000
_cell_angle_beta 50.000000
_cell_angle_gamma 110.000000
_cell_volume 728.972637
_symmetry_space_group_name_H-M "P -1"
_symmetry_group_IT_number 2
_symmetry_cell_setting 'triclinic'
loop_
_space_group_symop_operation_xyz
x,y,z
-x,-y,-z
loop_
_atom_site_type_symbol
_atom_site_label
_atom_site_fract_x
_atom_site_fract_y
_atom_site_fract_z
Si Si1 0.509786 0.945938 0.262454
Si Si2 0.502636 0.716171 0.893044
Si Si3 0.803100 0.860023 0.717097
Si Si4 0.235162 0.884789 0.782050
Si Si5 0.464445 0.541057 0.639142
Si Si6 0.586910 0.794632 0.057108
Si Si7 0.191631 0.507737 0.783250
O O1 0.567556 0.934184 0.102403
O O2 0.317606 0.663959 0.531855
O O3 0.664422 0.056783 0.198769
O O4 0.494225 0.116246 0.215030
O O5 0.338288 0.428974 0.059033
O O6 0.474911 0.692809 0.056537
O O7 0.702346 0.839419 0.699144
O O8 0.791678 0.972775 0.798007
O O9 0.000000 0.000000 0.500000
O O10 0.224943 0.709613 0.768126
O O11 0.370121 0.158271 0.548758
O O12 0.028030 0.734575 0.999703
O O13 0.500000 0.500000 0.500000
O O14 0.460970 0.397405 0.769214
O O15 0.279318 0.453783 0.795302
#
# Coordination Sequence:
#
# PCOD9073479 Si02
#       7
#     2   2   2   2   2   2   2
#     4  11  20  41  60  85 121 154 197 243 293 353
#     4   9  22  38  62  84 116 157 191 240 297 350
#     4   9  21  41  57  87 117 150 202 238 290 350
#     4  10  23  39  60  89 118 159 201 242 292 354
#     4  11  20  40  60  87 122 155 193 250 295 347
#     4  10  21  40  59  86 120 155 194 243 295 345
#     4  10  23  39  59  88 119 158 201 240 297 348
#
# _framework density 19.205110000000001
#
# number of rings (size 3 to 8) (size 9 to 14) (size 15 to 20)
#    0.857    1.143    2.857    2.143    4.000    1.714 
#    7.714    0.714    0.000    0.000    0.000    0.000 
#    0.000    0.000    0.000    0.000    0.000    0.000 
#
# Total GULP energy -77951.021183 kJ/mol
# GULP energy per Si atom -5567.930084 kJ/mol
# Density = 1.916140 g / cm^3
# Si number density = 19.205110 Si / 1000 Ang^3
#
#
#
# Elastic Constant Matrix: (Units=GPa)
#
#
# Indices 1 2 3 4 5 6 
#
# 1 73.4138 5.1732 31.6117 -19.6423 -14.9724 -10.0778
# 2 5.1732 42.6327 15.4614 17.5674 -14.3105 -8.4843
# 3 31.6117 15.4614 62.8722 7.1309 -36.1228 2.8756
# 4 -19.6423 17.5674 7.1309 25.5433 -6.0471 13.2788
# 5 -14.9724 -14.3105 -36.1228 -6.0471 39.5298 6.0356
# 6 -10.0778 -8.4843 2.8756 13.2788 6.0356 22.3361
#
#
#
# Elastic Compliance Matrix: (Units=1/GPa)
#
#
# Indices 1 2 3 4 5 6 
#
# 1 0.086425 -0.165385 0.008191 0.310251 0.062341 -0.226171
# 2 -0.165385 0.468832 -0.075004 -0.805175 -0.182517 0.641116
# 3 0.008191 -0.075004 0.063031 0.121958 0.071239 -0.124663
# 4 0.310251 -0.805175 0.121958 1.475738 0.338881 -1.150460
# 5 0.062341 -0.182517 0.071239 0.338881 0.144175 -0.290796
# 6 -0.226171 0.641116 -0.124663 -1.150460 -0.290796 0.964827
#
#
# Mechanical properties :
#
#
# Convention : Reuss Voigt Hill
#
# Bulk Modulus (GPa) = 6.49806 31.49014 18.99410
# Shear Modulus (GPa) = 1.34455 25.92667 13.63561
#
# Velocity S-wave (km/s) = 0.83763 3.67820 2.66747
# Velocity P-wave (km/s) = 2.07999 5.87122 4.40441
#
# Compressibility (1/GPa) = 0.15389204
#
# Stress axis : x y z
#
# Youngs Moduli (GPa) = 11.57077 2.13296 15.86526
#
# Poissons Ratio (x) = 0.35276 -0.12995
# Poissons Ratio (y) = 1.91363 1.18995
# Poissons Ratio (z) = -0.09477 0.15998
#
# Static dielectric constant tensor:
#      x y z
#    x 1.656680 0.009290 0.000650 
#    y 0.009290 1.760550 0.047310 
#    z 0.000650 0.047310 1.673920 
# 
# From -- ./inp_files/398518.got.cif
#   From: 2010.05.17/outbox.ucp.g08.bks.cvg/sg2_200_cif.got.tgz:398518.got - 2010.06.11 11:32:03.
