data_PCOD9073526
_publ_section_title
;
Structure prediction by ZEFSAII (Michael W. Deem and Ramdas Pophale) SiO2 
 PCOD9073526
Probable space group: P -1
;
_chemical_formula_sum "Si O2"
_cell_formula_units_Z 16
_cell_length_a 9.000000
_cell_length_b 12.000000
_cell_length_c 12.000000
_cell_angle_alpha 70.000000
_cell_angle_beta 130.000000
_cell_angle_gamma 130.000000
_cell_volume 754.912344
_symmetry_space_group_name_H-M "P -1"
_symmetry_group_IT_number 2
_symmetry_cell_setting 'triclinic'
loop_
_space_group_symop_operation_xyz
x,y,z
-x,-y,-z
loop_
_atom_site_type_symbol
_atom_site_label
_atom_site_fract_x
_atom_site_fract_y
_atom_site_fract_z
Si Si1 0.639527 0.862518 0.298516
Si Si2 0.594320 0.781116 0.721578
Si Si3 0.437843 0.964585 0.613329
Si Si4 0.330394 0.554182 0.874331
Si Si5 0.066169 0.849279 0.809748
Si Si6 0.231972 0.656663 0.020063
Si Si7 0.153398 0.563246 0.440590
Si Si8 0.077159 0.271418 0.457816
O O1 0.812199 0.818546 0.435848
O O2 0.558203 0.920948 0.340381
O O3 0.765959 0.988631 0.220012
O O4 0.426180 0.713487 0.190644
O O5 0.613348 0.917963 0.740267
O O6 0.467953 0.658893 0.798603
O O7 0.405771 0.712321 0.548962
O O8 0.848352 0.825508 0.784140
O O9 0.169248 0.817677 0.558438
O O10 0.500000 0.000000 0.500000
O O11 0.322714 0.635698 0.952694
O O12 0.042746 0.445846 0.735754
O O13 0.500000 0.500000 0.000000
O O14 0.192780 0.785340 0.954534
O O15 0.969939 0.747712 0.689123
O O16 0.000000 0.500000 0.000000
O O17 0.206326 0.443607 0.479664
O O18 0.000000 0.500000 0.500000
#
# Coordination Sequence:
#
# PCOD9073526 Si02
#       8
#     2   2   2   2   2   2   2   2
#     4  11  26  44  70 100 135 183 218 282 340 402
#     4  11  23  41  70 100 134 173 226 280 335 397
#     4  11  21  41  66 100 134 170 223 275 332 403
#     4  11  23  43  65  97 140 177 218 276 338 398
#     4  11  23  46  67  98 138 179 225 275 342 402
#     4  12  27  46  66  99 139 181 229 277 334 408
#     4  10  21  40  66 101 133 169 218 286 340 379
#     4  11  21  42  67  99 136 169 227 275 342 395
#
# _framework density 21.194514000000002
#
# number of rings (size 3 to 8) (size 9 to 14) (size 15 to 20)
#    0.000    1.000    3.750    4.875    5.250    2.500 
#    0.000    5.000    0.000    0.000    0.000    0.000 
#    0.000    0.000    0.000    0.000    0.000    0.000 
#
# Total GULP energy -89212.529704 kJ/mol
# GULP energy per Si atom -5575.783107 kJ/mol
# Density = 2.114627 g / cm^3
# Si number density = 21.194514 Si / 1000 Ang^3
#
#
#
# Elastic Constant Matrix: (Units=GPa)
#
#
# Indices 1 2 3 4 5 6 
#
# 1 167.1162 27.3906 25.1356 0.4951 2.9337 -4.6944
# 2 27.3906 63.2018 5.9843 -0.7537 -4.9318 -11.2277
# 3 25.1356 5.9843 60.2109 -6.8808 3.0261 -5.1468
# 4 0.4951 -0.7537 -6.8808 38.6517 -8.7331 -2.2420
# 5 2.9337 -4.9318 3.0261 -8.7331 32.4501 -13.4271
# 6 -4.6944 -11.2277 -5.1468 -2.2420 -13.4271 40.4593
#
#
#
# Elastic Compliance Matrix: (Units=1/GPa)
#
#
# Indices 1 2 3 4 5 6 
#
# 1 0.006888 -0.003024 -0.002696 -0.001018 -0.001492 -0.000935
# 2 -0.003024 0.019000 -0.000074 0.002363 0.006828 0.007309
# 3 -0.002696 -0.000074 0.018322 0.003530 0.000442 0.002340
# 4 -0.001018 0.002363 0.003530 0.029293 0.010532 0.006105
# 5 -0.001492 0.006828 0.000442 0.010532 0.041451 0.016118
# 6 -0.000935 0.007309 0.002340 0.006105 0.016118 0.032621
#
#
# Mechanical properties :
#
#
# Convention : Reuss Voigt Hill
#
# Bulk Modulus (GPa) = 30.65558 45.28332 37.96945
# Shear Modulus (GPa) = 29.40502 37.78011 33.59257
#
# Velocity S-wave (km/s) = 3.72881 4.22660 3.98548
# Velocity P-wave (km/s) = 5.74752 6.72538 6.25559
#
# Compressibility (1/GPa) = 0.03262049
#
# Stress axis : x y z
#
# Youngs Moduli (GPa) = 145.17892 52.63282 54.57788
#
# Poissons Ratio (x) = 0.15919 0.14715
# Poissons Ratio (y) = 0.43909 0.00405
# Poissons Ratio (z) = 0.39143 0.00390
#
# Static dielectric constant tensor:
#      x y z
#    x 1.729600 -0.007270 0.019370 
#    y -0.007270 1.798690 0.005990 
#    z 0.019370 0.005990 1.823660 
# 
# From -- ./inp_files/392487.got.cif
#   From: 2010.05.17/outbox.ucp.g08.bks.cvg/sg2_197_cif.got.tgz:392487.got - 2010.06.11 11:32:03.
