data_PCOD9073318
_publ_section_title
;
Structure prediction by ZEFSAII (Michael W. Deem and Ramdas Pophale) SiO2 
 PCOD9073318
Probable space group: P -1
;
_chemical_formula_sum "Si O2"
_cell_formula_units_Z 16
_cell_length_a 12.560668
_cell_length_b 16.719988
_cell_length_c 7.641633
_cell_angle_alpha 94.451020
_cell_angle_beta 87.016901
_cell_angle_gamma 21.969675
_cell_volume 564.535035
_symmetry_space_group_name_H-M "P -1"
_symmetry_group_IT_number 2
_symmetry_cell_setting 'triclinic'
loop_
_space_group_symop_operation_xyz
x,y,z
-x,-y,-z
loop_
_atom_site_type_symbol
_atom_site_label
_atom_site_fract_x
_atom_site_fract_y
_atom_site_fract_z
Si Si1 0.380787 0.845586 0.426591
Si Si2 0.659905 0.036719 0.219710
Si Si3 0.145389 0.666182 0.596401
Si Si4 0.908068 0.189777 0.088845
Si Si5 0.861661 0.627032 0.218922
Si Si6 0.284016 0.790838 0.153784
Si Si7 0.650274 0.895589 0.778795
Si Si8 0.796164 0.458942 0.773012
O O1 0.694420 0.667439 0.317709
O O2 0.354129 0.877127 0.639741
O O3 0.107216 0.092329 0.411910
O O4 0.345320 0.781890 0.340292
O O5 0.784314 0.977570 0.011861
O O6 0.367310 0.185606 0.282789
O O7 0.917357 0.794482 0.227439
O O8 0.305974 0.516384 0.387973
O O9 0.965345 0.717574 0.701840
O O10 0.288158 0.615415 0.736209
O O11 0.001969 0.043788 0.157321
O O12 0.779989 0.252738 0.922523
O O13 0.576340 0.888672 0.272511
O O14 0.100937 0.521613 0.262298
O O15 0.000000 0.500000 0.000000
O O16 0.562022 0.621983 0.978700
O O17 0.500000 0.000000 0.000000
#
# Coordination Sequence:
#
# PCOD9073318 Si02
#       8
#     2   2   2   2   2   2   2   2
#     4   9  18  34  54  76 106 139 169 207 257 311
#     4  10  20  34  55  80 103 134 176 214 253 305
#     4   9  18  34  54  76 106 139 169 207 257 311
#     4  10  21  37  55  75 103 140 176 211 258 308
#     4  10  18  31  54  79 104 135 169 207 257 310
#     4  10  21  37  55  75 103 140 176 211 258 308
#     4  10  18  31  54  79 104 135 169 207 257 310
#     4  10  20  34  55  80 103 134 176 214 253 305
#
# _framework density 28.341906000000002
#
# number of rings (size 3 to 8) (size 9 to 14) (size 15 to 20)
#    0.000    2.250    2.500    0.750    0.000    4.500 
#    0.000    2.500    0.000    3.000    0.000    0.000 
#    0.000    0.000    0.000    0.000    0.000    0.000 
#
# Total GULP energy -89582.197003 kJ/mol
# GULP energy per Si atom -5598.887313 kJ/mol
# Density = 2.827740 g / cm^3
# Si number density = 28.341906 Si / 1000 Ang^3
#
#
#
# Elastic Constant Matrix: (Units=GPa)
#
#
# Indices 1 2 3 4 5 6 
#
# 1 114.4959 36.8746 28.5844 6.4319 41.2664 1.9724
# 2 36.8746 73.1350 12.1884 11.4579 17.6875 6.7026
# 3 28.5844 12.1884 164.3839 -0.2034 51.4568 -5.7120
# 4 6.4319 11.4579 -0.2034 32.8523 -3.0213 14.0588
# 5 41.2664 17.6875 51.4568 -3.0213 64.6621 6.2868
# 6 1.9724 6.7026 -5.7120 14.0588 6.2868 45.9566
#
#
#
# Elastic Compliance Matrix: (Units=1/GPa)
#
#
# Indices 1 2 3 4 5 6 
#
# 1 0.012976 -0.004535 0.000599 -0.002544 -0.007834 0.002029
# 2 -0.004535 0.017305 0.000163 -0.005160 -0.002168 -0.000434
# 3 0.000599 0.000163 0.008384 -0.001918 -0.007441 0.002597
# 4 -0.002544 -0.005160 -0.001918 0.038656 0.007557 -0.012236
# 5 -0.007834 -0.002168 -0.007441 0.007557 0.027955 -0.006408
# 6 0.002029 -0.000434 0.002597 -0.012236 -0.006408 0.026679
#
#
# Mechanical properties :
#
#
# Convention : Reuss Voigt Hill
#
# Bulk Modulus (GPa) = 32.13456 56.36772 44.25114
# Shear Modulus (GPa) = 33.36095 46.98537 40.17316
#
# Velocity S-wave (km/s) = 3.43460 4.07603 3.76898
# Velocity P-wave (km/s) = 5.20494 6.48720 5.88112
#
# Compressibility (1/GPa) = 0.03111914
#
# Stress axis : x y z
#
# Youngs Moduli (GPa) = 77.06324 57.78534 119.27200
#
# Poissons Ratio (x) = 0.26208 -0.07149
# Poissons Ratio (y) = 0.34951 -0.01939
# Poissons Ratio (z) = -0.04619 -0.00939
#
# Static dielectric constant tensor:
#      x y z
#    x 2.074980 -0.080780 0.050060 
#    y -0.080780 2.336870 -0.072430 
#    z 0.050060 -0.072430 2.168960 
# 
# From -- ./inp_files/178849.got.cif
#   From: 2010.05.17/outbox.cif.g08.bks.cpg/sg2_90_cif.got.tgz:178849.got - 2010.06.03 11:33:40.
