data_PCOD9073969
_publ_section_title
;
Structure prediction by ZEFSAII (Michael W. Deem and Ramdas Pophale) SiO2 
 PCOD9073969
Probable space group: P -1
;
_chemical_formula_sum "Si O2"
_cell_formula_units_Z 16
_cell_length_a 9.000000
_cell_length_b 21.000000
_cell_length_c 9.000000
_cell_angle_alpha 30.000000
_cell_angle_beta 60.000000
_cell_angle_gamma 60.000000
_cell_volume 727.687525
_symmetry_space_group_name_H-M "P -1"
_symmetry_group_IT_number 2
_symmetry_cell_setting 'triclinic'
loop_
_space_group_symop_operation_xyz
x,y,z
-x,-y,-z
loop_
_atom_site_type_symbol
_atom_site_label
_atom_site_fract_x
_atom_site_fract_y
_atom_site_fract_z
Si Si1 0.142165 0.954853 0.397154
Si Si2 0.390940 0.645091 0.246285
Si Si3 0.477186 0.918516 0.523860
Si Si4 0.944199 0.484185 0.389811
Si Si5 0.203874 0.120634 0.741206
Si Si6 0.610152 0.388913 0.352335
Si Si7 0.685639 0.631750 0.691821
Si Si8 0.978013 0.264682 0.294629
O O1 0.320131 0.946107 0.423669
O O2 0.073679 0.828727 0.618944
O O3 0.000000 0.000000 0.500000
O O4 0.143966 0.044807 0.066208
O O5 0.500000 0.500000 0.500000
O O6 0.206253 0.606265 0.360925
O O7 0.378625 0.678710 0.358994
O O8 0.459834 0.767842 0.885339
O O9 0.645551 0.955897 0.278838
O O10 0.500000 0.000000 0.500000
O O11 0.000000 0.500000 0.500000
O O12 0.115608 0.417442 0.353187
O O13 0.908395 0.627755 0.041103
O O14 0.308614 0.227861 0.537611
O O15 0.063948 0.189109 0.550879
O O16 0.441688 0.369983 0.380960
O O17 0.788771 0.337304 0.285898
O O18 0.615481 0.542749 0.032723
#
# Coordination Sequence:
#
# PCOD9073969 Si02
#       8
#     2   2   2   2   2   2   2   2
#     4  12  29  47  74 104 143 195 247 301 368 439
#     4  12  25  42  73 103 145 185 244 295 367 431
#     4  12  29  49  74 108 149 193 247 300 370 440
#     4  11  23  40  69 102 147 187 237 303 368 431
#     4  12  26  46  74  99 149 190 246 298 364 433
#     4  10  22  40  69 100 142 184 234 299 361 430
#     4  10  22  40  66 103 139 188 236 292 366 427
#     4  11  24  44  72 105 144 186 244 299 367 434
#
# _framework density 21.987459999999999
#
# number of rings (size 3 to 8) (size 9 to 14) (size 15 to 20)
#    0.000    0.750    0.000    6.750    8.750    4.000 
#    0.000    0.000    0.000    0.000    0.000    0.000 
#    0.000    0.000    0.000    0.000    0.000    0.000 
#
# Total GULP energy -89227.437911 kJ/mol
# GULP energy per Si atom -5576.714869 kJ/mol
# Density = 2.193742 g / cm^3
# Si number density = 21.987460 Si / 1000 Ang^3
#
#
#
# Elastic Constant Matrix: (Units=GPa)
#
#
# Indices 1 2 3 4 5 6 
#
# 1 110.5287 4.4507 48.7317 -6.2670 -6.8991 1.2321
# 2 4.4507 80.7534 40.5674 9.3862 0.5604 12.1228
# 3 48.7317 40.5674 116.7484 21.0720 15.6445 16.6292
# 4 -6.2670 9.3862 21.0720 32.7294 8.1756 -3.6522
# 5 -6.8991 0.5604 15.6445 8.1756 34.7341 0.6960
# 6 1.2321 12.1228 16.6292 -3.6522 0.6960 35.1055
#
#
#
# Elastic Compliance Matrix: (Units=1/GPa)
#
#
# Indices 1 2 3 4 5 6 
#
# 1 0.013501 0.002349 -0.008834 0.006750 0.004964 0.003504
# 2 0.002349 0.015993 -0.006387 -0.001188 0.003420 -0.002771
# 3 -0.008834 -0.006387 0.018397 -0.010686 -0.007279 -0.007166
# 4 0.006750 -0.001188 -0.010686 0.041056 -0.003682 0.009579
# 5 0.004964 0.003420 -0.007279 -0.003682 0.033845 0.001039
# 6 0.003504 -0.002771 -0.007166 0.009579 0.001039 0.033690
#
#
# Mechanical properties :
#
#
# Convention : Reuss Voigt Hill
#
# Bulk Modulus (GPa) = 45.15306 55.05892 50.10599
# Shear Modulus (GPa) = 26.37005 34.79919 30.58462
#
# Velocity S-wave (km/s) = 3.46688 3.98261 3.73366
# Velocity P-wave (km/s) = 6.05030 6.80027 6.43622
#
# Compressibility (1/GPa) = 0.02214689
#
# Stress axis : x y z
#
# Youngs Moduli (GPa) = 74.06630 62.52824 54.35655
#
# Poissons Ratio (x) = -0.14687 0.48021
# Poissons Ratio (y) = -0.17397 0.34716
# Poissons Ratio (z) = 0.65433 0.39935
#
# Static dielectric constant tensor:
#      x y z
#    x 1.704090 -0.093590 0.056810 
#    y -0.093590 2.001840 -0.040730 
#    z 0.056810 -0.040730 1.819230 
# 
# From -- ./inp_files/222829.got.cif
#   From: 2010.05.17/outbox.ucp.g08.bks.cvg/sg2_112_cif.got.tgz:222829.got - 2010.06.11 11:32:03.
