data_PCOD9073806
_publ_section_title
;
Structure prediction by ZEFSAII (Michael W. Deem and Ramdas Pophale) SiO2 
 PCOD9073806
Probable space group: P -1
;
_chemical_formula_sum "Si O2"
_cell_formula_units_Z 16
_cell_length_a 12.000000
_cell_length_b 15.000000
_cell_length_c 15.000000
_cell_angle_alpha 150.000000
_cell_angle_beta 120.000000
_cell_angle_gamma 40.000000
_cell_volume 747.221570
_symmetry_space_group_name_H-M "P -1"
_symmetry_group_IT_number 2
_symmetry_cell_setting 'triclinic'
loop_
_space_group_symop_operation_xyz
x,y,z
-x,-y,-z
loop_
_atom_site_type_symbol
_atom_site_label
_atom_site_fract_x
_atom_site_fract_y
_atom_site_fract_z
Si Si1 0.771029 0.178838 0.981360
Si Si2 0.418113 0.769291 0.869769
Si Si3 0.512647 0.768031 0.190822
Si Si4 0.068446 0.816290 0.228938
Si Si5 0.290882 0.344947 0.639264
Si Si6 0.100241 0.659236 0.293542
Si Si7 0.837262 0.236330 0.337476
Si Si8 0.129419 0.400281 0.247923
O O1 0.644643 0.223636 0.886984
O O2 0.689203 0.153942 0.011193
O O3 0.743299 0.417104 0.202649
O O4 0.998492 0.924305 0.815541
O O5 0.661403 0.531981 0.772490
O O6 0.356262 0.664269 0.692473
O O7 0.309278 0.065223 0.044736
O O8 0.577929 0.740875 0.294915
O O9 0.408979 0.071642 0.389610
O O10 0.716390 0.483819 0.978913
O O11 0.027944 0.729643 0.222703
O O12 0.046996 0.035003 0.455894
O O13 0.930135 0.002442 0.247793
O O14 0.078540 0.472460 0.690163
O O15 0.093953 0.492463 0.209873
O O16 0.821770 0.456274 0.561749
#
# Coordination Sequence:
#
# PCOD9073806 Si02
#       8
#     2   2   2   2   2   2   2   2
#     4  12  23  41  70  98 140 178 220 284 342 405
#     4  12  25  45  69 100 137 185 232 272 340 407
#     4  11  22  41  70 102 138 176 222 285 347 408
#     4  10  21  45  69  99 134 177 231 277 341 391
#     4  11  24  39  68 108 134 176 227 277 354 413
#     4  10  24  44  73  98 134 187 232 283 327 406
#     4  11  24  42  72 101 136 182 219 288 346 404
#     4  11  24  44  68  97 143 178 227 282 337 402
#
# _framework density 21.412658
#
# number of rings (size 3 to 8) (size 9 to 14) (size 15 to 20)
#    0.000    1.000    5.000    1.125    0.000    4.500 
#    0.000    3.750    0.000    0.000    0.000    0.000 
#    0.000    0.000    0.000    0.000    0.000    0.000 
#
# Total GULP energy -89292.181345 kJ/mol
# GULP energy per Si atom -5580.761334 kJ/mol
# Density = 2.136392 g / cm^3
# Si number density = 21.412658 Si / 1000 Ang^3
#
#
#
# Elastic Constant Matrix: (Units=GPa)
#
#
# Indices 1 2 3 4 5 6 
#
# 1 86.3507 24.3766 32.5702 0.5443 16.4965 16.7971
# 2 24.3766 81.7332 18.6940 -6.2843 10.6411 -1.9570
# 3 32.5702 18.6940 127.1697 7.8180 19.6682 1.1717
# 4 0.5443 -6.2843 7.8180 26.8135 3.3916 6.7875
# 5 16.4965 10.6411 19.6682 3.3916 40.5733 -1.8171
# 6 16.7971 -1.9570 1.1717 6.7875 -1.8171 45.7251
#
#
#
# Elastic Compliance Matrix: (Units=1/GPa)
#
#
# Indices 1 2 3 4 5 6 
#
# 1 0.015720 -0.003447 -0.002876 0.001882 -0.004533 -0.006308
# 2 -0.003447 0.014087 -0.001114 0.003625 -0.001999 0.001280
# 3 -0.002876 -0.001114 0.009361 -0.002853 -0.002789 0.001082
# 4 0.001882 0.003625 -0.002853 0.041158 -0.004075 -0.006734
# 5 -0.004533 -0.001999 -0.002789 -0.004075 0.028859 0.003403
# 6 -0.006308 0.001280 0.001082 -0.006734 0.003403 0.025349
#
#
# Mechanical properties :
#
#
# Convention : Reuss Voigt Hill
#
# Bulk Modulus (GPa) = 41.16037 49.61502 45.38769
# Shear Modulus (GPa) = 31.74517 37.26324 34.50421
#
# Velocity S-wave (km/s) = 3.85456 4.17615 4.01857
# Velocity P-wave (km/s) = 6.25095 6.81724 6.54023
#
# Compressibility (1/GPa) = 0.02429521
#
# Stress axis : x y z
#
# Youngs Moduli (GPa) = 63.61495 70.98622 106.83108
#
# Poissons Ratio (x) = 0.24467 0.30723
# Poissons Ratio (y) = 0.21926 0.11896
# Poissons Ratio (z) = 0.18295 0.07905
#
# Static dielectric constant tensor:
#      x y z
#    x 1.784060 0.044850 -0.003420 
#    y 0.044850 1.850990 0.001700 
#    z -0.003420 0.001700 1.784270 
# 
# From -- ./inp_files/522659.got.cif
#   From: 2010.05.17/outbox.ucp.g08.bks.cvg/sg2_262_cif.got.tgz:522659.got - 2010.06.11 11:32:03.
