data_PCOD9073434
_publ_section_title
;
Structure prediction by ZEFSAII (Michael W. Deem and Ramdas Pophale) SiO2 
 PCOD9073434
Probable space group: P -1
;
_chemical_formula_sum "Si O2"
_cell_formula_units_Z 16
_cell_length_a 14.061288
_cell_length_b 9.514367
_cell_length_c 15.681899
_cell_angle_alpha 146.713862
_cell_angle_beta 135.302545
_cell_angle_gamma 42.022047
_cell_volume 747.389177
_symmetry_space_group_name_H-M "P -1"
_symmetry_group_IT_number 2
_symmetry_cell_setting 'triclinic'
loop_
_space_group_symop_operation_xyz
x,y,z
-x,-y,-z
loop_
_atom_site_type_symbol
_atom_site_label
_atom_site_fract_x
_atom_site_fract_y
_atom_site_fract_z
Si Si1 0.528713 0.429362 0.190998
Si Si2 0.299571 0.373962 0.911285
Si Si3 0.618142 0.556593 0.488656
Si Si4 0.710397 0.964967 0.656315
Si Si5 0.857678 0.676099 0.446269
Si Si6 0.034899 0.838257 0.029400
Si Si7 0.252615 0.743874 0.915813
Si Si8 0.690843 0.122575 0.452802
O O1 0.606070 0.385212 0.309780
O O2 0.634274 0.323254 0.123178
O O3 0.434073 0.759916 0.298348
O O4 0.403684 0.313073 0.029127
O O5 0.319568 0.620140 0.988792
O O6 0.336151 0.105301 0.740228
O O7 0.131907 0.517893 0.909634
O O8 0.695824 0.765074 0.619040
O O9 0.702961 0.352708 0.514795
O O10 0.453003 0.729152 0.505260
O O11 0.731746 0.790984 0.495032
O O12 0.850806 0.052425 0.795514
O O13 0.835316 0.454080 0.257938
O O14 0.000000 0.500000 0.500000
O O15 0.832001 0.947760 0.511245
O O16 0.870118 0.945785 0.014553
O O17 0.000000 0.000000 0.000000
#
# Coordination Sequence:
#
# PCOD9073434 Si02
#       8
#     2   2   2   2   2   2   2   2
#     4  11  20  33  60  90 116 146 200 244 287 339
#     4   9  20  35  55  82 116 155 192 240 282 352
#     4  11  22  37  60  87 122 153 189 251 288 350
#     4  11  19  34  58  92 109 146 197 244 285 334
#     4  11  19  33  60  83 113 149 195 240 284 346
#     4   9  19  33  54  84 115 147 192 240 286 340
#     4  10  18  31  54  87 115 144 187 247 289 329
#     4  10  23  40  56  86 122 156 194 234 305 343
#
# _framework density 21.407858000000001
#
# number of rings (size 3 to 8) (size 9 to 14) (size 15 to 20)
#    0.000    1.750    3.750    2.250    0.000    2.500 
#    0.000    0.625    0.000    0.750    0.000    0.000 
#    0.000    0.000    0.000    0.000    0.000    0.000 
#
# Total GULP energy -89139.931724 kJ/mol
# GULP energy per Si atom -5571.245733 kJ/mol
# Density = 2.135913 g / cm^3
# Si number density = 21.407858 Si / 1000 Ang^3
#
#
#
# Elastic Constant Matrix: (Units=GPa)
#
#
# Indices 1 2 3 4 5 6 
#
# 1 61.7664 30.5229 5.3817 12.6139 -25.5323 -8.9510
# 2 30.5229 111.0810 -3.1850 -10.3330 -4.3076 4.6423
# 3 5.3817 -3.1850 44.9386 -7.4010 -18.5552 -3.5746
# 4 12.6139 -10.3330 -7.4010 26.1534 -7.2313 -3.4168
# 5 -25.5323 -4.3076 -18.5552 -7.2313 26.6083 9.9438
# 6 -8.9510 4.6423 -3.5746 -3.4168 9.9438 37.3461
#
#
#
# Elastic Compliance Matrix: (Units=1/GPa)
#
#
# Indices 1 2 3 4 5 6 
#
# 1 0.038010 -0.009420 0.009664 -0.008428 0.039419 -0.000061
# 2 -0.009420 0.012584 0.002716 0.009526 -0.001681 -0.002243
# 3 0.009664 0.002716 0.044483 0.021772 0.048390 -0.004656
# 4 -0.008428 0.009526 0.021772 0.058976 0.025616 -0.002545
# 5 0.039419 -0.001681 0.048390 0.025616 0.121739 -0.015782
# 6 -0.000061 -0.002243 -0.004656 -0.002545 -0.015782 0.030564
#
#
# Mechanical properties :
#
#
# Convention : Reuss Voigt Hill
#
# Bulk Modulus (GPa) = 9.90127 31.46944 20.68535
# Shear Modulus (GPa) = 14.96546 30.35935 22.66240
#
# Velocity S-wave (km/s) = 2.64685 3.76991 3.25715
# Velocity P-wave (km/s) = 3.73847 5.80357 4.88148
#
# Compressibility (1/GPa) = 0.10099717
#
# Stress axis : x y z
#
# Youngs Moduli (GPa) = 26.30860 79.46910 22.48033
#
# Poissons Ratio (x) = 0.74862 -0.21725
# Poissons Ratio (y) = 0.24783 -0.06107
# Poissons Ratio (z) = -0.25424 -0.21587
#
# Static dielectric constant tensor:
#      x y z
#    x 1.830800 -0.022270 -0.017570 
#    y -0.022270 1.863160 -0.026760 
#    z -0.017570 -0.026760 1.835380 
# 
# From -- ./inp_files/184196.got.cif
#   From: 2010.05.17/outbox.cif.g08.bks.cpg/sg2_93_cif.got.tgz:184196.got - 2010.06.03 11:33:40.
