data_PCOD9073767
_publ_section_title
;
Structure prediction by ZEFSAII (Michael W. Deem and Ramdas Pophale) SiO2 
 PCOD9073767
Probable space group: P -1
;
_chemical_formula_sum "Si O2"
_cell_formula_units_Z 16
_cell_length_a 12.000000
_cell_length_b 15.000000
_cell_length_c 9.000000
_cell_angle_alpha 130.000000
_cell_angle_beta 40.000000
_cell_angle_gamma 110.000000
_cell_volume 759.581896
_symmetry_space_group_name_H-M "P -1"
_symmetry_group_IT_number 2
_symmetry_cell_setting 'triclinic'
loop_
_space_group_symop_operation_xyz
x,y,z
-x,-y,-z
loop_
_atom_site_type_symbol
_atom_site_label
_atom_site_fract_x
_atom_site_fract_y
_atom_site_fract_z
Si Si1 0.610084 0.387758 0.366397
Si Si2 0.796332 0.131764 0.767832
Si Si3 0.681181 0.724483 0.343382
Si Si4 0.795891 0.891805 0.635713
Si Si5 0.487342 0.138531 0.619961
Si Si6 0.146975 0.253926 0.279869
Si Si7 0.130388 0.875416 0.663508
Si Si8 0.949657 0.476055 0.196355
O O1 0.500000 0.500000 0.500000
O O2 0.464376 0.349962 0.575495
O O3 0.776371 0.424250 0.310897
O O4 0.681366 0.270533 0.060957
O O5 0.823754 0.105017 0.535489
O O6 0.990493 0.127139 0.638424
O O7 0.714898 0.033801 0.825569
O O8 0.715261 0.799350 0.531427
O O9 0.594685 0.828505 0.423501
O O10 0.878755 0.624358 0.011231
O O11 0.800966 0.849779 0.755140
O O12 0.681916 0.157780 0.472358
O O13 0.500000 0.000000 0.500000
O O14 0.331307 0.229701 0.975289
O O15 0.089497 0.391287 0.546597
O O16 0.982298 0.222498 0.328396
O O17 0.000000 0.000000 0.000000
O O18 0.000000 0.500000 0.000000
#
# Coordination Sequence:
#
# PCOD9073767 Si02
#       8
#     2   2   2   2   2   2   2   2
#     4  12  25  42  73 110 142 186 234 299 360 420
#     4  10  23  40  74 106 139 183 244 294 361 420
#     4  12  27  44  74 109 144 190 237 301 359 425
#     4  10  21  43  71 107 137 178 243 304 357 412
#     4  12  28  47  70 106 148 188 239 287 362 435
#     4  11  25  45  77 100 140 195 234 295 363 414
#     4  11  24  45  69 100 148 188 229 293 362 425
#     4  12  23  49  74 103 147 182 242 301 356 421
#
# _framework density 21.064219999999999
#
# number of rings (size 3 to 8) (size 9 to 14) (size 15 to 20)
#    0.000    0.750    5.000    1.500    5.250    3.000 
#    0.000    1.250    0.000    0.000    0.000    0.000 
#    0.000    0.000    0.000    0.000    0.000    0.000 
#
# Total GULP energy -89416.384194 kJ/mol
# GULP energy per Si atom -5588.524012 kJ/mol
# Density = 2.101628 g / cm^3
# Si number density = 21.064220 Si / 1000 Ang^3
#
#
#
# Elastic Constant Matrix: (Units=GPa)
#
#
# Indices 1 2 3 4 5 6 
#
# 1 108.7455 13.5383 38.1713 2.8218 -25.0023 15.8000
# 2 13.5383 65.0694 9.7990 15.6596 -15.9689 13.5530
# 3 38.1713 9.7990 94.8392 17.0077 -13.6992 18.3699
# 4 2.8218 15.6596 17.0077 35.2803 10.6118 -6.1044
# 5 -25.0023 -15.9689 -13.6992 10.6118 29.9975 4.7500
# 6 15.8000 13.5530 18.3699 -6.1044 4.7500 47.2107
#
#
#
# Elastic Compliance Matrix: (Units=1/GPa)
#
#
# Indices 1 2 3 4 5 6 
#
# 1 0.016844 0.012690 0.003790 -0.021598 0.032834 -0.016851
# 2 0.012690 0.056109 0.022561 -0.069736 0.082779 -0.046479
# 3 0.003790 0.022561 0.026339 -0.041842 0.046445 -0.028077
# 4 -0.021598 -0.069736 -0.041842 0.134201 -0.133476 0.074311
# 5 0.032834 0.082779 0.046445 -0.133476 0.187279 -0.088926
# 6 -0.016851 -0.046479 -0.028077 0.074311 -0.088926 0.069645
#
#
# Mechanical properties :
#
#
# Convention : Reuss Voigt Hill
#
# Bulk Modulus (GPa) = 5.63784 43.51902 24.57843
# Shear Modulus (GPa) = 10.60539 36.30741 23.45640
#
# Velocity S-wave (km/s) = 2.24627 4.15619 3.34063
# Velocity P-wave (km/s) = 3.06756 6.61339 5.15494
#
# Compressibility (1/GPa) = 0.17737299
#
# Stress axis : x y z
#
# Youngs Moduli (GPa) = 59.36988 17.82244 37.96709
#
# Poissons Ratio (x) = -0.22617 -0.14388
# Poissons Ratio (y) = -0.75343 -0.85657
# Poissons Ratio (z) = -0.22499 -0.40209
#
# Static dielectric constant tensor:
#      x y z
#    x 1.749390 -0.032920 -0.012630 
#    y -0.032920 1.718650 -0.029610 
#    z -0.012630 -0.029610 1.806750 
# 
# From -- ./inp_files/274211.got.cif
#   From: 2010.05.17/outbox.ucp.g08.bks.cvg/sg2_138_cif.got.tgz:274211.got - 2010.06.11 11:32:03.
