data_PCOD9073132
_publ_section_title
;
Structure prediction by ZEFSAII (Michael W. Deem and Ramdas Pophale) SiO2 
 PCOD9073132
Probable space group: P -1
;
_chemical_formula_sum "Si O2"
_cell_formula_units_Z 14
_cell_length_a 7.794165
_cell_length_b 13.433024
_cell_length_c 8.296130
_cell_angle_alpha 79.326392
_cell_angle_beta 54.201059
_cell_angle_gamma 53.535106
_cell_volume 548.723447
_symmetry_space_group_name_H-M "P -1"
_symmetry_group_IT_number 2
_symmetry_cell_setting 'triclinic'
loop_
_space_group_symop_operation_xyz
x,y,z
-x,-y,-z
loop_
_atom_site_type_symbol
_atom_site_label
_atom_site_fract_x
_atom_site_fract_y
_atom_site_fract_z
Si Si1 0.725187 0.596842 0.268242
Si Si2 0.527866 0.186965 0.173784
Si Si3 0.005350 0.304613 0.222420
Si Si4 0.678387 0.561556 0.660671
Si Si5 0.238736 0.200253 0.654820
Si Si6 0.736716 0.319827 0.702426
Si Si7 0.722794 0.939267 0.033785
O O1 0.596592 0.595114 0.509103
O O2 0.832818 0.674521 0.246467
O O3 0.513558 0.673188 0.217938
O O4 0.901250 0.445018 0.176868
O O5 0.296407 0.238237 0.155570
O O6 0.511283 0.311662 0.169106
O O7 0.421703 0.179271 0.409515
O O8 0.760117 0.046121 0.025148
O O9 0.860409 0.310370 0.462104
O O10 0.032656 0.201874 0.117267
O O11 0.649739 0.456399 0.765705
O O12 0.000000 0.500000 0.500000
O O13 0.377029 0.087398 0.741604
O O14 0.980399 0.220127 0.714296
O O15 0.500000 0.000000 0.000000
#
# Coordination Sequence:
#
# PCOD9073132 Si02
#       7
#     2   2   2   2   2   2   2
#     4  10  18  31  57  85 109 138 175 228 269 307
#     4   9  16  30  54  79 106 140 180 213 259 317
#     4   9  16  31  50  82 113 135 175 215 268 322
#     4  10  13  28  53  83 106 128 172 219 259 306
#     4  10  19  35  56  81 105 137 190 221 259 322
#     4  10  18  32  59  84 108 137 175 230 267 307
#     4  10  21  33  54  78 106 150 179 218 275 319
#
# _framework density 25.513760999999999
#
# number of rings (size 3 to 8) (size 9 to 14) (size 15 to 20)
#    0.000    2.286    5.714    2.143    0.000    0.571 
#    0.000    0.714    0.000   42.000    0.000    0.000 
#    0.000    0.000    0.000    0.000    0.000    0.000 
#
# Total GULP energy -78106.212536 kJ/mol
# GULP energy per Si atom -5579.015181 kJ/mol
# Density = 2.545569 g / cm^3
# Si number density = 25.513761 Si / 1000 Ang^3
#
#
#
# Elastic Constant Matrix: (Units=GPa)
#
#
# Indices 1 2 3 4 5 6 
#
# 1 143.2255 31.3502 20.9750 1.9653 26.4642 -33.7630
# 2 31.3502 114.3910 42.9142 20.9400 21.5744 11.9241
# 3 20.9750 42.9142 89.1973 11.8697 12.0879 18.4404
# 4 1.9653 20.9400 11.8697 60.4725 13.6409 32.5269
# 5 26.4642 21.5744 12.0879 13.6409 25.4338 0.7164
# 6 -33.7630 11.9241 18.4404 32.5269 0.7164 37.9248
#
#
#
# Elastic Compliance Matrix: (Units=1/GPa)
#
#
# Indices 1 2 3 4 5 6 
#
# 1 0.017093 -0.001521 -0.006986 -0.013943 -0.006576 0.031176
# 2 -0.001521 0.012285 -0.004029 -0.000442 -0.006609 -0.002754
# 3 -0.006986 -0.004029 0.018725 0.011762 -0.003842 -0.024073
# 4 -0.013943 -0.000442 0.011762 0.052301 -0.016997 -0.062528
# 5 -0.006576 -0.006609 -0.003842 -0.016997 0.062384 0.011491
# 6 0.031176 -0.002754 -0.024073 -0.062528 0.011491 0.120105
#
#
# Mechanical properties :
#
#
# Convention : Reuss Voigt Hill
#
# Bulk Modulus (GPa) = 43.42167 59.69919 51.56043
# Shear Modulus (GPa) = 15.84080 41.53785 28.68932
#
# Velocity S-wave (km/s) = 2.49443 4.03930 3.35694
# Velocity P-wave (km/s) = 5.03509 6.72340 5.93954
#
# Compressibility (1/GPa) = 0.02302997
#
# Stress axis : x y z
#
# Youngs Moduli (GPa) = 58.50190 81.40304 53.40552
#
# Poissons Ratio (x) = 0.12381 0.37312
# Poissons Ratio (y) = 0.08898 0.21517
# Poissons Ratio (z) = 0.40872 0.32797
#
# Static dielectric constant tensor:
#      x y z
#    x 2.076920 0.025240 -0.049760 
#    y 0.025240 2.089580 0.036610 
#    z -0.049760 0.036610 2.078190 
# 
# From -- ./inp_files/201965.got.cif
#   From: 2010.05.17/outbox.cif.g08.bks.cpg/sg2_101_cif.got.tgz:201965.got - 2010.06.03 11:33:40.
