data_PCOD9073636
_publ_section_title
;
Structure prediction by ZEFSAII (Michael W. Deem and Ramdas Pophale) SiO2 
 PCOD9073636
Probable space group: P -1
;
_chemical_formula_sum "Si O2"
_cell_formula_units_Z 14
_cell_length_a 17.580686
_cell_length_b 11.482995
_cell_length_c 13.641197
_cell_angle_alpha 145.231738
_cell_angle_beta 156.567078
_cell_angle_gamma 28.321690
_cell_volume 518.175241
_symmetry_space_group_name_H-M "P -1"
_symmetry_group_IT_number 2
_symmetry_cell_setting 'triclinic'
loop_
_space_group_symop_operation_xyz
x,y,z
-x,-y,-z
loop_
_atom_site_type_symbol
_atom_site_label
_atom_site_fract_x
_atom_site_fract_y
_atom_site_fract_z
Si Si1 0.768955 0.233263 0.344272
Si Si2 0.861765 0.204867 0.775736
Si Si3 0.239747 0.453303 0.280045
Si Si4 0.799773 0.518374 0.423403
Si Si5 0.270825 0.483443 0.972009
Si Si6 0.696385 0.116038 0.815238
Si Si7 0.321318 0.067183 0.547035
O O1 0.748209 0.456363 0.536153
O O2 0.795090 0.288403 0.299991
O O3 0.532723 0.251777 0.100252
O O4 0.000000 0.000000 0.500000
O O5 0.756708 0.358635 0.660241
O O6 0.728807 0.398747 0.841343
O O7 0.825810 0.984093 0.589445
O O8 0.127551 0.082297 0.035012
O O9 0.425505 0.164284 0.289336
O O10 0.000000 0.500000 0.000000
O O11 0.560397 0.735786 0.344302
O O12 0.742478 0.657759 0.346388
O O13 0.054844 0.457837 0.705515
O O14 0.239666 0.688988 0.000737
O O15 0.729208 0.988123 0.660831
#
# Coordination Sequence:
#
# PCOD9073636 Si02
#       7
#     2   2   2   2   2   2   2
#     4  11  26  44  60  87 127 172 209 245 301 375
#     4  11  19  33  57  96 132 151 189 265 324 353
#     4  12  24  37  60  99 129 157 198 262 319 354
#     4  11  19  34  63  88 116 159 215 249 288 368
#     4  10  19  35  61  90 120 163 208 247 303 361
#     4  10  18  31  55  94 127 156 196 252 307 370
#     4  11  19  33  58  95 122 159 199 253 314 364
#
# _framework density 27.017886000000001
#
# number of rings (size 3 to 8) (size 9 to 14) (size 15 to 20)
#    0.000    1.143    7.143    3.429    0.000    0.571 
#    0.000    0.000    0.000    8.571    0.000    0.000 
#    0.000    0.000    0.000    0.000    0.000    0.000 
#
# Total GULP energy -78277.429592 kJ/mol
# GULP energy per Si atom -5591.244971 kJ/mol
# Density = 2.695639 g / cm^3
# Si number density = 27.017886 Si / 1000 Ang^3
#
#
#
# Elastic Constant Matrix: (Units=GPa)
#
#
# Indices 1 2 3 4 5 6 
#
# 1 103.3871 57.7378 54.0215 -1.7701 21.0396 9.2318
# 2 57.7378 118.7975 38.9039 -30.5492 -8.3507 25.8855
# 3 54.0215 38.9039 161.7503 -39.6763 26.4198 -3.3936
# 4 -1.7701 -30.5492 -39.6763 64.9906 -1.9421 -8.8502
# 5 21.0396 -8.3507 26.4198 -1.9421 52.7344 0.4986
# 6 9.2318 25.8855 -3.3936 -8.8502 0.4986 57.1439
#
#
#
# Elastic Compliance Matrix: (Units=1/GPa)
#
#
# Indices 1 2 3 4 5 6 
#
# 1 0.019034 -0.010189 -0.004486 -0.007195 -0.007227 0.000222
# 2 -0.010189 0.016824 -0.000180 0.007059 0.007126 -0.004955
# 3 -0.004486 -0.000180 0.009707 0.005949 -0.002905 0.002330
# 4 -0.007195 0.007059 0.005949 0.022437 0.001817 0.001777
# 5 -0.007227 0.007126 -0.002905 0.001817 0.024517 -0.002165
# 6 0.000222 -0.004955 0.002330 0.001777 -0.002165 0.020141
#
#
# Mechanical properties :
#
#
# Convention : Reuss Voigt Hill
#
# Bulk Modulus (GPa) = 63.07138 76.14014 69.60576
# Shear Modulus (GPa) = 33.86249 50.52520 42.19385
#
# Velocity S-wave (km/s) = 3.54409 4.32912 3.95612
# Velocity P-wave (km/s) = 6.33580 7.29595 6.83276
#
# Compressibility (1/GPa) = 0.01585505
#
# Stress axis : x y z
#
# Youngs Moduli (GPa) = 52.53712 59.43764 103.02135
#
# Poissons Ratio (x) = 0.60558 0.46219
# Poissons Ratio (y) = 0.53528 0.01856
# Poissons Ratio (z) = 0.23570 0.01071
#
# Static dielectric constant tensor:
#      x y z
#    x 2.168550 0.002490 0.058200 
#    y 0.002490 2.210840 0.045700 
#    z 0.058200 0.045700 2.133840 
# 
# From -- ./inp_files/305678.got.cif
#   From: 2010.05.17/outbox.cif.g08.bks.cpg/sg2_153_cif.got.tgz:305678.got - 2010.06.03 11:33:40.
