data_PCOD9073534
_publ_section_title
;
Structure prediction by ZEFSAII (Michael W. Deem and Ramdas Pophale) SiO2 
 PCOD9073534
Probable space group: P -1
;
_chemical_formula_sum "Si O2"
_cell_formula_units_Z 14
_cell_length_a 12.000000
_cell_length_b 18.000000
_cell_length_c 9.000000
_cell_angle_alpha 110.000000
_cell_angle_beta 50.000000
_cell_angle_gamma 150.000000
_cell_volume 616.684141
_symmetry_space_group_name_H-M "P -1"
_symmetry_group_IT_number 2
_symmetry_cell_setting 'triclinic'
loop_
_space_group_symop_operation_xyz
x,y,z
-x,-y,-z
loop_
_atom_site_type_symbol
_atom_site_label
_atom_site_fract_x
_atom_site_fract_y
_atom_site_fract_z
Si Si1 0.594611 0.215078 0.909942
Si Si2 0.382137 0.623984 0.531119
Si Si3 0.762901 0.122661 0.041055
Si Si4 0.333704 0.617461 0.243315
Si Si5 0.616907 0.896482 0.660315
Si Si6 0.335697 0.456850 0.966946
Si Si7 0.213814 0.276364 0.502077
O O1 0.475337 0.219942 0.893783
O O2 0.989222 0.416106 0.731626
O O3 0.436780 0.159489 0.164379
O O4 0.480560 0.070879 0.868401
O O5 0.484372 0.658701 0.296164
O O6 0.483013 0.763722 0.576453
O O7 0.560759 0.659096 0.527210
O O8 0.013944 0.252774 0.051370
O O9 0.966199 0.206836 0.770687
O O10 0.586299 0.121042 0.188171
O O11 0.000000 0.500000 0.500000
O O12 0.262922 0.511969 0.117185
O O13 0.995158 0.108510 0.478098
O O14 0.571492 0.572542 0.699139
O O15 0.500000 0.500000 0.000000
#
# Coordination Sequence:
#
# PCOD9073534 Si02
#       7
#     2   2   2   2   2   2   2
#     4  10  21  40  66  96 128 168 214 262 316 383
#     4  11  22  42  68  95 129 171 216 266 317 379
#     4  11  24  43  68  96 129 171 216 264 321 386
#     4  10  23  42  65  94 129 172 215 258 317 384
#     4  11  23  42  68  98 127 171 220 263 316 385
#     4  12  26  45  67  97 131 168 213 271 327 377
#     4  11  24  42  66  98 130 167 214 270 323 380
#
# _framework density 22.702058999999998
#
# number of rings (size 3 to 8) (size 9 to 14) (size 15 to 20)
#    0.000    1.143    0.000    7.286    0.000    8.000 
#    0.000    8.571    0.000    0.000    0.000    0.000 
#    0.000    0.000    0.000    0.000    0.000    0.000 
#
# Total GULP energy -78346.941167 kJ/mol
# GULP energy per Si atom -5596.210083 kJ/mol
# Density = 2.265039 g / cm^3
# Si number density = 22.702059 Si / 1000 Ang^3
#
#
#
# Elastic Constant Matrix: (Units=GPa)
#
#
# Indices 1 2 3 4 5 6 
#
# 1 111.2887 34.2517 8.6027 -5.6059 -1.9936 13.2968
# 2 34.2517 195.9010 32.7112 2.3042 -3.0689 1.5981
# 3 8.6027 32.7112 14.7935 2.4933 -12.0669 -3.0201
# 4 -5.6059 2.3042 2.4933 37.1832 -1.0815 -4.6127
# 5 -1.9936 -3.0689 -12.0669 -1.0815 29.0517 6.3508
# 6 13.2968 1.5981 -3.0201 -4.6127 6.3508 35.3143
#
#
#
# Elastic Compliance Matrix: (Units=1/GPa)
#
#
# Indices 1 2 3 4 5 6 
#
# 1 0.010226 -0.000764 -0.006136 0.001479 -0.001006 -0.003966
# 2 -0.000764 0.010723 -0.034102 0.001050 -0.012902 -0.000657
# 3 -0.006136 -0.034102 0.219095 -0.010289 0.085306 0.005906
# 4 0.001479 0.001050 -0.010289 0.027986 -0.003637 0.002825
# 5 -0.001006 -0.012902 0.085306 -0.003637 0.069310 -0.004682
# 6 -0.003966 -0.000657 0.005906 0.002825 -0.004682 0.031556
#
#
# Mechanical properties :
#
#
# Convention : Reuss Voigt Hill
#
# Bulk Modulus (GPa) = 6.32754 52.56826 29.44790
# Shear Modulus (GPa) = 9.92888 36.73766 23.33327
#
# Velocity S-wave (km/s) = 2.09357 4.02712 3.20942
# Velocity P-wave (km/s) = 2.93893 6.69549 5.17044
#
# Compressibility (1/GPa) = 0.15803927
#
# Stress axis : x y z
#
# Youngs Moduli (GPa) = 97.79453 93.25400 4.56423
#
# Poissons Ratio (x) = 0.07125 0.02801
# Poissons Ratio (y) = 0.07472 0.15565
# Poissons Ratio (z) = 0.60010 3.18015
#
# Static dielectric constant tensor:
#      x y z
#    x 1.900700 -0.006860 -0.031610 
#    y -0.006860 1.854170 -0.034490 
#    z -0.031610 -0.034490 1.861450 
# 
# From -- ./inp_files/279596.got.cif
#   From: 2010.05.17/outbox.ucp.g08.bks.cvg/sg2_140_cif.got.tgz:279596.got - 2010.06.11 11:32:03.
