data_PCOD9073886
_publ_section_title
;
Structure prediction by ZEFSAII (Michael W. Deem and Ramdas Pophale) SiO2 
 PCOD9073886
Probable space group: P -1
;
_chemical_formula_sum "Si O2"
_cell_formula_units_Z 16
_cell_length_a 21.000000
_cell_length_b 18.000000
_cell_length_c 12.000000
_cell_angle_alpha 140.000000
_cell_angle_beta 150.000000
_cell_angle_gamma 20.000000
_cell_volume 744.844803
_symmetry_space_group_name_H-M "P -1"
_symmetry_group_IT_number 2
_symmetry_cell_setting 'triclinic'
loop_
_space_group_symop_operation_xyz
x,y,z
-x,-y,-z
loop_
_atom_site_type_symbol
_atom_site_label
_atom_site_fract_x
_atom_site_fract_y
_atom_site_fract_z
Si Si1 0.759925 0.385678 0.656290
Si Si2 0.777711 0.029897 0.953620
Si Si3 0.117595 0.083097 0.371100
Si Si4 0.103241 0.739273 0.521281
Si Si5 0.379644 0.299825 0.837266
Si Si6 0.682586 0.271373 0.882801
Si Si7 0.639072 0.232144 0.337960
Si Si8 0.204227 0.184794 0.438595
O O1 0.870393 0.341781 0.654737
O O2 0.625143 0.366628 0.410609
O O3 0.542541 0.624609 0.665653
O O4 0.982408 0.186631 0.853800
O O5 0.534887 0.234447 0.896946
O O6 0.788651 0.122314 0.982808
O O7 0.737500 0.948392 0.724068
O O8 0.246942 0.086656 0.507105
O O9 0.051161 0.174209 0.501147
O O10 0.271305 0.848727 0.292423
O O11 0.850703 0.254049 0.109265
O O12 0.391301 0.523560 0.744120
O O13 0.933269 0.982881 0.515457
O O14 0.361954 0.176607 0.654787
O O15 0.092878 0.559398 0.717597
O O16 0.535525 0.213302 0.081905
#
# Coordination Sequence:
#
# PCOD9073886 Si02
#       8
#     2   2   2   2   2   2   2   2
#     4  11  24  38  62  94 128 161 200 258 320 368
#     4  11  21  41  66  96 123 157 209 263 305 364
#     4  10  22  39  60  89 127 166 202 255 303 368
#     4  12  22  38  61  92 124 163 199 248 316 384
#     4  11  22  39  63  93 118 169 208 257 304 360
#     4  10  23  37  63  94 126 160 205 254 315 363
#     4  11  24  38  60  91 131 161 202 255 318 368
#     4  10  23  40  63  89 127 161 214 257 297 358
#
# _framework density 21.480985
#
# number of rings (size 3 to 8) (size 9 to 14) (size 15 to 20)
#    0.000    1.250    2.500    3.375    3.500    2.000 
#    0.000    0.625    0.000    3.750    0.000    0.000 
#    0.000    0.000    0.000    0.000    0.000    0.000 
#
# Total GULP energy -89221.551224 kJ/mol
# GULP energy per Si atom -5576.346951 kJ/mol
# Density = 2.143209 g / cm^3
# Si number density = 21.480985 Si / 1000 Ang^3
#
#
#
# Elastic Constant Matrix: (Units=GPa)
#
#
# Indices 1 2 3 4 5 6 
#
# 1 99.0545 22.0023 14.5638 -12.1030 -26.1346 -20.2324
# 2 22.0023 105.6722 22.2635 -6.6169 -5.8738 -32.7064
# 3 14.5638 22.2635 56.6300 -11.8453 -17.0640 9.5760
# 4 -12.1030 -6.6169 -11.8453 2.4600 -13.7119 14.1647
# 5 -26.1346 -5.8738 -17.0640 -13.7119 28.2853 9.8524
# 6 -20.2324 -32.7064 9.5760 14.1647 9.8524 35.2014
#
#
#
# Elastic Compliance Matrix: (Units=1/GPa)
#
#
# Indices 1 2 3 4 5 6 
#
# 1 0.013378 0.001991 -0.005830 -0.003479 0.003554 0.011531
# 2 0.001991 0.013312 -0.003206 0.011330 0.005252 0.008356
# 3 -0.005830 -0.003206 0.013545 -0.020694 -0.008117 0.000585
# 4 -0.003479 0.011330 -0.020694 -0.014808 -0.030506 0.028653
# 5 0.003554 0.005252 -0.008117 -0.030506 0.013947 0.017502
# 6 0.011531 0.008356 0.000585 0.028653 0.017502 0.026211
#
#
# Mechanical properties :
#
#
# Convention : Reuss Voigt Hill
#
# Bulk Modulus (GPa) = 38.24740 42.11290 40.18015
# Shear Modulus (GPa) = 56.56796 26.69113 41.62955
#
# Velocity S-wave (km/s) = 5.13723 3.52880 4.40702
# Velocity P-wave (km/s) = 7.28231 6.02084 6.68142
#
# Compressibility (1/GPa) = 0.02614557
#
# Stress axis : x y z
#
# Youngs Moduli (GPa) = 74.74882 75.12265 73.82843
#
# Poissons Ratio (x) = -0.14959 0.43042
# Poissons Ratio (y) = -0.14885 0.23668
# Poissons Ratio (z) = 0.43579 0.24083
#
# Static dielectric constant tensor:
#      x y z
#    x 1.813760 0.029500 -0.050820 
#    y 0.029500 1.820820 -0.017350 
#    z -0.050820 -0.017350 1.790100 
# 
# From -- ./inp_files/427574.got.cif
#   From: 2010.05.17/outbox.ucp.g08.bks.cvg/sg2_214_cif.got.tgz:427574.got - 2010.06.11 11:32:03.
