data_PCOD9073936
_publ_section_title
;
Structure prediction by ZEFSAII (Michael W. Deem and Ramdas Pophale) SiO2 
 PCOD9073936
Probable space group: P -1
;
_chemical_formula_sum "Si O2"
_cell_formula_units_Z 16
_cell_length_a 12.000000
_cell_length_b 15.000000
_cell_length_c 12.000000
_cell_angle_alpha 80.000000
_cell_angle_beta 120.000000
_cell_angle_gamma 150.000000
_cell_volume 748.962810
_symmetry_space_group_name_H-M "P -1"
_symmetry_group_IT_number 2
_symmetry_cell_setting 'triclinic'
loop_
_space_group_symop_operation_xyz
x,y,z
-x,-y,-z
loop_
_atom_site_type_symbol
_atom_site_label
_atom_site_fract_x
_atom_site_fract_y
_atom_site_fract_z
Si Si1 0.929341 0.870457 0.193686
Si Si2 0.044195 0.766205 0.018417
Si Si3 0.266707 0.404012 0.488575
Si Si4 0.151704 0.011245 0.515736
Si Si5 0.272459 0.464884 0.888690
Si Si6 0.307317 0.260703 0.176637
Si Si7 0.859435 0.477039 0.845882
Si Si8 0.294470 0.828623 0.831767
O O1 0.851529 0.717459 0.155437
O O2 0.570965 0.673481 0.075960
O O3 0.137407 0.009460 0.376765
O O4 0.079075 0.028874 0.138643
O O5 0.003472 0.684872 0.132636
O O6 0.422558 0.020060 0.139598
O O7 0.868885 0.753016 0.923343
O O8 0.899306 0.605078 0.887439
O O9 0.500000 0.500000 0.500000
O O10 0.494573 0.605577 0.639256
O O11 0.976506 0.275167 0.319692
O O12 0.082445 0.218077 0.517174
O O13 0.502413 0.226376 0.690738
O O14 0.000000 0.000000 0.500000
O O15 0.436728 0.593859 0.825376
O O16 0.084099 0.612808 0.821196
O O17 0.000000 0.500000 0.000000
O O18 0.500000 0.000000 0.000000
#
# Coordination Sequence:
#
# PCOD9073936 Si02
#       8
#     2   2   2   2   2   2   2   2
#     4  11  22  38  63  97 135 165 217 272 315 376
#     4  11  22  41  65  92 131 173 214 265 321 385
#     4  12  23  40  63  92 127 167 210 270 323 380
#     4  12  22  37  63  96 125 161 215 271 321 374
#     4  11  22  42  62  99 135 165 223 263 316 385
#     4  12  22  40  67  97 129 170 217 268 316 378
#     4  11  24  42  62  92 131 169 211 266 329 390
#     4  10  22  40  59  88 123 164 210 255 322 385
#
# _framework density 21.362876
#
# number of rings (size 3 to 8) (size 9 to 14) (size 15 to 20)
#    0.000    0.750    3.750    7.125    0.000    2.000 
#    0.000    0.625    0.000    1.500    0.000    0.000 
#    0.000    0.000    0.000    0.000    0.000    0.000 
#
# Total GULP energy -89068.260672 kJ/mol
# GULP energy per Si atom -5566.766292 kJ/mol
# Density = 2.131425 g / cm^3
# Si number density = 21.362876 Si / 1000 Ang^3
#
#
#
# Elastic Constant Matrix: (Units=GPa)
#
#
# Indices 1 2 3 4 5 6 
#
# 1 25.8015 26.3878 25.4200 -2.8493 -1.1145 18.6344
# 2 26.3878 169.1600 28.5427 -0.0818 -6.9483 13.3806
# 3 25.4200 28.5427 119.0077 -3.4387 10.0024 10.5443
# 4 -2.8493 -0.0818 -3.4387 39.8894 0.3465 0.9026
# 5 -1.1145 -6.9483 10.0024 0.3465 25.9598 3.9070
# 6 18.6344 13.3806 10.5443 0.9026 3.9070 43.9409
#
#
#
# Elastic Compliance Matrix: (Units=1/GPa)
#
#
# Indices 1 2 3 4 5 6 
#
# 1 0.084295 -0.007815 -0.014195 0.005385 0.011606 -0.031105
# 2 -0.007815 0.007157 -0.000290 -0.000606 0.001537 0.001080
# 3 -0.014195 -0.000290 0.011647 -0.000047 -0.005750 0.003825
# 4 0.005385 -0.000606 -0.000047 0.025507 0.000142 -0.002624
# 5 0.011606 0.001537 -0.005750 0.000142 0.042821 -0.007821
# 6 -0.031105 0.001080 0.003825 -0.002624 -0.007821 0.035451
#
#
# Mechanical properties :
#
#
# Convention : Reuss Voigt Hill
#
# Bulk Modulus (GPa) = 17.09384 52.74115 34.91749
# Shear Modulus (GPa) = 18.45165 37.53259 27.99212
#
# Velocity S-wave (km/s) = 2.94211 4.19609 3.62376
# Velocity P-wave (km/s) = 4.42271 6.94393 5.82145
#
# Compressibility (1/GPa) = 0.05850060
#
# Stress axis : x y z
#
# Youngs Moduli (GPa) = 11.86303 139.72520 85.85634
#
# Poissons Ratio (x) = 1.09190 1.21875
# Poissons Ratio (y) = 0.09271 0.02487
# Poissons Ratio (z) = 0.16840 0.04048
#
# Static dielectric constant tensor:
#      x y z
#    x 1.851430 0.073850 -0.041310 
#    y 0.073850 1.819020 -0.084940 
#    z -0.041310 -0.084940 1.862840 
# 
# From -- ./inp_files/433959.got.cif
#   From: 2010.05.17/outbox.ucp.g08.bks.cvg/sg2_217_cif.got.tgz:433959.got - 2010.06.11 11:32:03.
