data_PCOD9073241
_publ_section_title
;
Structure prediction by ZEFSAII (Michael W. Deem and Ramdas Pophale) SiO2 
 PCOD9073241
Probable space group: P -1
;
_chemical_formula_sum "Si O2"
_cell_formula_units_Z 16
_cell_length_a 12.000000
_cell_length_b 15.000000
_cell_length_c 18.000000
_cell_angle_alpha 20.000000
_cell_angle_beta 130.000000
_cell_angle_gamma 130.000000
_cell_volume 839.545620
_symmetry_space_group_name_H-M "P -1"
_symmetry_group_IT_number 2
_symmetry_cell_setting 'triclinic'
loop_
_space_group_symop_operation_xyz
x,y,z
-x,-y,-z
loop_
_atom_site_type_symbol
_atom_site_label
_atom_site_fract_x
_atom_site_fract_y
_atom_site_fract_z
Si Si1 0.156192 0.021795 0.712825
Si Si2 0.684124 0.434633 0.885165
Si Si3 0.937156 0.711252 0.668677
Si Si4 0.814875 0.149523 0.619037
Si Si5 0.850780 0.620018 0.442161
Si Si6 0.649922 0.576074 0.245705
Si Si7 0.167174 0.949114 0.123109
Si Si8 0.857874 0.685130 0.895820
O O1 0.130277 0.258358 0.464115
O O2 0.188894 0.139342 0.715580
O O3 0.999403 0.831089 0.796477
O O4 0.280497 0.862404 0.862652
O O5 0.804650 0.575123 0.769401
O O6 0.517795 0.449473 0.782543
O O7 0.728590 0.569206 0.877129
O O8 0.000000 0.000000 0.500000
O O9 0.071073 0.545217 0.853728
O O10 0.686555 0.322177 0.415911
O O11 0.813161 0.069847 0.765958
O O12 0.973857 0.324567 0.537300
O O13 0.808855 0.896780 0.763592
O O14 0.761216 0.606836 0.338460
O O15 0.816645 0.329808 0.688742
O O16 0.705569 0.831610 0.022114
O O17 0.000000 0.000000 0.000000
#
# Coordination Sequence:
#
# PCOD9073241 Si02
#       8
#     2   2   2   2   2   2   2   2
#     4  10  21  37  62  89 110 149 195 235 283 340
#     4  11  23  39  57  86 122 151 185 233 291 344
#     4  11  19  38  64  82 110 150 193 236 280 330
#     4  10  21  37  59  88 113 147 199 236 276 338
#     4  10  21  37  60  88 113 145 199 240 276 336
#     4  11  23  39  57  83 124 155 180 239 290 330
#     4  11  19  36  60  82 110 153 195 228 280 336
#     4  10  21  37  60  89 114 146 193 238 280 341
#
# _framework density 19.057928
#
# number of rings (size 3 to 8) (size 9 to 14) (size 15 to 20)
#    0.000    1.500    5.000    1.500    1.750    4.000 
#    0.000    1.875    0.000    0.000    0.000    0.000 
#    0.000    0.000    0.000    0.000    0.000    0.000 
#
# Total GULP energy -89164.382249 kJ/mol
# GULP energy per Si atom -5572.773891 kJ/mol
# Density = 1.901455 g / cm^3
# Si number density = 19.057928 Si / 1000 Ang^3
#
#
#
# Elastic Constant Matrix: (Units=GPa)
#
#
# Indices 1 2 3 4 5 6 
#
# 1 -15.9719 7.4343 -39.3089 -8.3387 -24.8686 -13.3065
# 2 7.4343 -1.0233 -8.3811 -8.1565 5.0360 -19.9227
# 3 -39.3089 -8.3811 11.2501 -7.4721 -35.0503 -21.6562
# 4 -8.3387 -8.1565 -7.4721 10.9028 -2.2271 -2.0395
# 5 -24.8686 5.0360 -35.0503 -2.2271 -0.9689 -9.7949
# 6 -13.3065 -19.9227 -21.6562 -2.0395 -9.7949 5.7161
#
#
#
# Elastic Compliance Matrix: (Units=1/GPa)
#
#
# Indices 1 2 3 4 5 6 
#
# 1 0.021089 0.014440 -0.012511 0.011461 -0.033144 -0.000679
# 2 0.014440 -0.020960 -0.003113 -0.010912 0.011757 -0.034980
# 3 -0.012511 -0.003113 0.011064 -0.006571 -0.004155 -0.007523
# 4 0.011461 -0.010912 -0.006571 0.080091 -0.011992 -0.028219
# 5 -0.033144 0.011757 -0.004155 -0.011992 0.034150 0.002318
# 6 -0.000679 -0.034980 -0.007523 -0.028219 0.002318 0.016847
#
#
# Mechanical properties :
#
#
# Convention : Reuss Voigt Hill
#
# Bulk Modulus (GPa) = 113.30435 -9.58405 51.86015
# Shear Modulus (GPa) = 33.87757 5.43070 19.65414
#
# Velocity S-wave (km/s) = 4.22075 1.68990 3.21484
# Velocity P-wave (km/s) = 9.12878 1.11002 6.40712
#
# Compressibility (1/GPa) = 0.00882579
#
# Stress axis : x y z
#
# Youngs Moduli (GPa) = 47.41719 -47.71011 90.38478
#
# Poissons Ratio (x) = 0.68895 1.13077
# Poissons Ratio (y) = -0.68472 0.28141
# Poissons Ratio (z) = 0.59322 -0.14854
#
# Static dielectric constant tensor:
#      x y z
#    x 1.654390 -0.042890 -0.020490 
#    y -0.042890 1.687490 -0.023740 
#    z -0.020490 -0.023740 1.710220 
# 
# From -- ./inp_files/66260.got.cif
#   From: 2010.05.17/outbox.ucp.g08.bks.cvg/sg2_34_cif.got.tgz:66260.got - 2010.06.11 11:32:03.
