data_PCOD9073090
_publ_section_title
;
Structure prediction by ZEFSAII (Michael W. Deem and Ramdas Pophale) SiO2 
 PCOD9073090
Probable space group: P -1
;
_chemical_formula_sum "Si O2"
_cell_formula_units_Z 16
_cell_length_a 12.000000
_cell_length_b 9.000000
_cell_length_c 15.000000
_cell_angle_alpha 130.000000
_cell_angle_beta 40.000000
_cell_angle_gamma 130.000000
_cell_volume 759.581896
_symmetry_space_group_name_H-M "P -1"
_symmetry_group_IT_number 2
_symmetry_cell_setting 'triclinic'
loop_
_space_group_symop_operation_xyz
x,y,z
-x,-y,-z
loop_
_atom_site_type_symbol
_atom_site_label
_atom_site_fract_x
_atom_site_fract_y
_atom_site_fract_z
Si Si1 0.788499 0.162116 0.890091
Si Si2 0.922098 0.183186 0.009967
Si Si3 0.161190 0.272174 0.061579
Si Si4 0.552732 0.271013 0.774409
Si Si5 0.566641 0.689672 0.831466
Si Si6 0.431944 0.806779 0.653919
Si Si7 0.681227 0.618054 0.543278
Si Si8 0.911031 0.327035 0.688297
O O1 0.893403 0.227264 0.758713
O O2 0.708012 0.914717 0.851169
O O3 0.905330 0.234481 0.936507
O O4 0.624843 0.263596 0.018303
O O5 0.739579 0.207686 0.179457
O O6 0.097902 0.290355 0.004633
O O7 0.923512 0.950324 0.931030
O O8 0.086623 0.438098 0.217755
O O9 0.375317 0.293228 0.944437
O O10 0.603677 0.491960 0.778891
O O11 0.721672 0.243584 0.717615
O O12 0.483316 0.045099 0.682281
O O13 0.570832 0.635116 0.704890
O O14 0.605442 0.754738 0.572871
O O15 0.361964 0.614529 0.555475
O O16 0.894729 0.690305 0.468103
#
# Coordination Sequence:
#
# PCOD9073090 Si02
#       8
#     2   2   2   2   2   2   2   2
#     4  11  24  40  67 102 129 170 225 276 319 381
#     4  10  20  41  67  96 134 168 224 269 327 385
#     4  10  21  38  65  99 127 176 210 274 328 384
#     4  11  24  42  67  98 132 174 220 272 328 385
#     4  11  24  42  66  97 132 175 220 272 325 389
#     4  10  22  43  68  94 133 180 212 265 334 395
#     4  11  24  45  67  95 135 177 218 263 333 396
#     4  12  24  41  69  98 135 172 221 267 333 390
#
# _framework density 21.064219999999999
#
# number of rings (size 3 to 8) (size 9 to 14) (size 15 to 20)
#    0.000    1.250    3.750    1.875    5.250    3.500 
#    4.500    1.250    0.000    0.000    0.000    0.000 
#    0.000    0.000    0.000    0.000    0.000    0.000 
#
# Total GULP energy -89166.187474 kJ/mol
# GULP energy per Si atom -5572.886717 kJ/mol
# Density = 2.101628 g / cm^3
# Si number density = 21.064220 Si / 1000 Ang^3
#
#
#
# Elastic Constant Matrix: (Units=GPa)
#
#
# Indices 1 2 3 4 5 6 
#
# 1 99.1989 5.9927 -8.9148 5.4430 -12.7580 -2.9364
# 2 5.9927 82.3222 26.7211 29.0368 -2.8638 -10.6055
# 3 -8.9148 26.7211 46.5215 23.1684 -11.9438 -1.9711
# 4 5.4430 29.0368 23.1684 28.8219 -1.8198 -5.3011
# 5 -12.7580 -2.8638 -11.9438 -1.8198 38.7330 -0.4928
# 6 -2.9364 -10.6055 -1.9711 -5.3011 -0.4928 23.7513
#
#
#
# Elastic Compliance Matrix: (Units=1/GPa)
#
#
# Indices 1 2 3 4 5 6 
#
# 1 0.012049 -0.000478 0.008045 -0.007819 0.006051 0.000324
# 2 -0.000478 0.019513 -0.003126 -0.016202 -0.000379 0.004770
# 3 0.008045 -0.003126 0.045991 -0.035158 0.014896 -0.004122
# 4 -0.007819 -0.016202 -0.035158 0.081333 -0.010706 0.006812
# 5 0.006051 -0.000379 0.014896 -0.010706 0.031874 0.000087
# 6 0.000324 0.004770 -0.004122 0.006812 0.000087 0.045453
#
#
# Mechanical properties :
#
#
# Convention : Reuss Voigt Hill
#
# Bulk Modulus (GPa) = 11.56940 30.62671 21.09805
# Shear Modulus (GPa) = 19.52016 31.87749 25.69882
#
# Velocity S-wave (km/s) = 3.04747 3.89440 3.49667
# Velocity P-wave (km/s) = 4.22932 5.89856 5.13226
#
# Compressibility (1/GPa) = 0.08643493
#
# Stress axis : x y z
#
# Youngs Moduli (GPa) = 82.99113 51.24778 21.74319
#
# Poissons Ratio (x) = 0.02451 -0.17492
# Poissons Ratio (y) = 0.03970 0.06797
# Poissons Ratio (z) = -0.66766 0.16021
#
# Static dielectric constant tensor:
#      x y z
#    x 1.793170 0.057980 0.041980 
#    y 0.057980 1.837880 -0.013680 
#    z 0.041980 -0.013680 1.715640 
# 
# From -- ./inp_files/238803.got.cif
#   From: 2010.05.17/outbox.ucp.g08.bks.cvg/sg2_120_cif.got.tgz:238803.got - 2010.06.11 11:32:03.
