data_PCOD9073835
_publ_section_title
;
Structure prediction by ZEFSAII (Michael W. Deem and Ramdas Pophale) SiO2 
 PCOD9073835
Probable space group: P -1
;
_chemical_formula_sum "Si O2"
_cell_formula_units_Z 14
_cell_length_a 18.482607
_cell_length_b 10.842144
_cell_length_c 7.772125
_cell_angle_alpha 62.929725
_cell_angle_beta 150.700036
_cell_angle_gamma 131.579393
_cell_volume 536.628662
_symmetry_space_group_name_H-M "P -1"
_symmetry_group_IT_number 2
_symmetry_cell_setting 'triclinic'
loop_
_space_group_symop_operation_xyz
x,y,z
-x,-y,-z
loop_
_atom_site_type_symbol
_atom_site_label
_atom_site_fract_x
_atom_site_fract_y
_atom_site_fract_z
Si Si1 0.234573 0.232062 0.604975
Si Si2 0.857114 0.541483 0.207627
Si Si3 0.190551 0.972777 0.272599
Si Si4 0.204623 0.909173 0.739864
Si Si5 0.774960 0.489471 0.424469
Si Si6 0.359624 0.366195 0.436776
Si Si7 0.771012 0.236703 0.797883
O O1 0.252468 0.365205 0.689426
O O2 0.390281 0.338147 0.713623
O O3 0.237618 0.079229 0.778141
O O4 0.033436 0.136558 0.151557
O O5 0.725595 0.422894 0.167855
O O6 0.000000 0.500000 0.500000
O O7 0.985923 0.745327 0.400679
O O8 0.754991 0.552650 0.829532
O O9 0.237656 0.939247 0.583328
O O10 0.256232 0.902832 0.307586
O O11 0.270963 0.173495 0.300738
O O12 0.294662 0.847637 0.094200
O O13 0.696758 0.334765 0.496595
O O14 0.003998 0.608671 0.823489
O O15 0.500000 0.500000 0.500000
#
# Coordination Sequence:
#
# PCOD9073835 Si02
#       7
#     2   2   2   2   2   2   2
#     4  10  19  36  59  89 115 154 208 251 288 361
#     4  11  21  34  61  90 120 159 200 248 305 354
#     4  10  18  36  59  85 115 156 206 248 289 361
#     4  10  18  31  57  88 114 152 199 251 295 343
#     4   9  20  32  53  93 124 143 199 258 300 345
#     4  11  23  38  59  90 124 158 198 250 306 357
#     4   9  19  30  53  90 121 146 191 259 299 339
#
# _framework density 26.088805000000001
#
# number of rings (size 3 to 8) (size 9 to 14) (size 15 to 20)
#    0.000    2.000    2.857    1.714    8.000    1.714 
#    0.000    0.714    0.000    8.571    0.000    0.000 
#    0.000    0.000    0.000    0.000    0.000    0.000 
#
# Total GULP energy -78168.315785 kJ/mol
# GULP energy per Si atom -5583.451127 kJ/mol
# Density = 2.602943 g / cm^3
# Si number density = 26.088805 Si / 1000 Ang^3
#
#
#
# Elastic Constant Matrix: (Units=GPa)
#
#
# Indices 1 2 3 4 5 6 
#
# 1 96.1830 53.8605 8.8456 -9.5220 -19.6930 9.4805
# 2 53.8605 146.3395 49.7851 -39.6354 -11.5864 16.1514
# 3 8.8456 49.7851 62.9013 -18.3793 -15.4998 0.0530
# 4 -9.5220 -39.6354 -18.3793 47.4418 12.9363 -4.7620
# 5 -19.6930 -11.5864 -15.4998 12.9363 28.1227 -2.3387
# 6 9.4805 16.1514 0.0530 -4.7620 -2.3387 36.7829
#
#
#
# Elastic Compliance Matrix: (Units=1/GPa)
#
#
# Indices 1 2 3 4 5 6 
#
# 1 0.017208 -0.008840 0.006576 -0.005364 0.014471 -0.000337
# 2 -0.008840 0.016250 -0.011352 0.009883 -0.010651 -0.004238
# 3 0.006576 -0.011352 0.027485 -0.001498 0.016105 0.004080
# 4 -0.005364 0.009883 -0.001498 0.031825 -0.015132 0.000203
# 5 0.014471 -0.010651 0.016105 -0.015132 0.057358 0.002611
# 6 -0.000337 -0.004238 0.004080 0.000203 0.002611 0.029321
#
#
# Mechanical properties :
#
#
# Convention : Reuss Voigt Hill
#
# Bulk Modulus (GPa) = 29.66408 58.93404 44.29906
# Shear Modulus (GPa) = 22.94458 35.33166 29.13812
#
# Velocity S-wave (km/s) = 2.96882 3.68405 3.34560
# Velocity P-wave (km/s) = 4.81113 6.38241 5.65164
#
# Compressibility (1/GPa) = 0.03371080
#
# Stress axis : x y z
#
# Youngs Moduli (GPa) = 58.11390 61.53723 36.38324
#
# Poissons Ratio (x) = 0.54401 -0.23925
# Poissons Ratio (y) = 0.51375 0.41301
# Poissons Ratio (z) = -0.38215 0.69855
#
# Static dielectric constant tensor:
#      x y z
#    x 2.050540 0.020910 0.026860 
#    y 0.020910 1.982870 0.060540 
#    z 0.026860 0.060540 2.288660 
# 
# From -- ./inp_files/200300.got.cif
#   From: 2010.05.17/outbox.cif.g08.bks.cpg/sg2_101_cif.got.tgz:200300.got - 2010.06.03 11:33:40.
