data_PCOD9073147
_publ_section_title
;
Structure prediction by ZEFSAII (Michael W. Deem and Ramdas Pophale) SiO2 
 PCOD9073147
Probable space group: P -1
;
_chemical_formula_sum "Si O2"
_cell_formula_units_Z 12
_cell_length_a 10.135368
_cell_length_b 11.264212
_cell_length_c 11.988021
_cell_angle_alpha 48.647345
_cell_angle_beta 94.091461
_cell_angle_gamma 56.320982
_cell_volume 609.926227
_symmetry_space_group_name_H-M "P -1"
_symmetry_group_IT_number 2
_symmetry_cell_setting 'triclinic'
loop_
_space_group_symop_operation_xyz
x,y,z
-x,-y,-z
loop_
_atom_site_type_symbol
_atom_site_label
_atom_site_fract_x
_atom_site_fract_y
_atom_site_fract_z
Si Si1 0.319257 0.814448 0.035741
Si Si2 0.358647 0.676601 0.771938
Si Si3 0.409448 0.149122 0.021330
Si Si4 0.593120 0.186424 0.700645
Si Si5 0.148668 0.780278 0.356417
Si Si6 0.035231 0.743351 0.611995
O O1 0.474891 0.516564 0.199967
O O2 0.429769 0.854512 0.947983
O O3 0.335130 0.844283 0.147395
O O4 0.073311 0.017147 0.854352
O O5 0.161728 0.735596 0.712455
O O6 0.500000 0.500000 0.000000
O O7 0.226951 0.968790 0.577436
O O8 0.157782 0.457547 0.808412
O O9 0.500000 0.000000 0.000000
O O10 0.417418 0.991604 0.200840
O O11 0.348957 0.496128 0.483699
O O12 0.767661 0.120977 0.681932
O O13 0.106871 0.735266 0.498845
#
# Coordination Sequence:
#
# PCOD9073147 Si02
#       6
#     2   2   2   2   2   2
#     4  10  19  33  54  79  99 134 176 209 246 302
#     4  10  18  31  53  77  99 130 177 217 237 290
#     4   9  17  35  50  73 111 130 164 213 254 299
#     4  10  21  35  49  79 111 133 159 211 264 308
#     4  11  19  32  55  78 103 135 169 205 260 304
#     4  10  19  32  53  79  98 134 173 209 250 298
#
# _framework density 19.674513000000001
#
# number of rings (size 3 to 8) (size 9 to 14) (size 15 to 20)
#    0.000    2.000    6.667    0.500    0.000    0.667 
#    0.000    0.000    0.000   10.000    0.000    0.000 
#    0.000    0.000    0.000    0.000    0.000    0.000 
#
# Total GULP energy -66858.001674 kJ/mol
# GULP energy per Si atom -5571.500139 kJ/mol
# Density = 1.962973 g / cm^3
# Si number density = 19.674513 Si / 1000 Ang^3
#
#
#
# Elastic Constant Matrix: (Units=GPa)
#
#
# Indices 1 2 3 4 5 6 
#
# 1 73.6876 -0.4501 46.0713 -18.2859 -3.9145 -7.1548
# 2 -0.4501 32.7710 15.5044 -10.0841 5.6699 7.3640
# 3 46.0713 15.5044 133.1939 -29.6199 19.3113 6.3007
# 4 -18.2859 -10.0841 -29.6199 36.7331 6.3324 -4.1396
# 5 -3.9145 5.6699 19.3113 6.3324 40.7779 0.7162
# 6 -7.1548 7.3640 6.3007 -4.1396 0.7162 10.8323
#
#
#
# Elastic Compliance Matrix: (Units=1/GPa)
#
#
# Indices 1 2 3 4 5 6 
#
# 1 0.022570 0.000534 -0.008100 0.006482 0.004545 0.021432
# 2 0.000534 0.039778 -0.000874 0.009011 -0.006073 -0.022335
# 3 -0.008100 -0.000874 0.013572 0.006986 -0.008002 -0.009452
# 4 0.006482 0.009011 0.006986 0.041586 -0.010585 0.010684
# 5 0.004545 -0.006073 -0.008002 -0.010585 0.031137 0.005682
# 6 0.021432 -0.022335 -0.009452 0.010684 0.005682 0.130861
#
#
# Mechanical properties :
#
#
# Convention : Reuss Voigt Hill
#
# Bulk Modulus (GPa) = 16.93776 40.21154 28.57465
# Shear Modulus (GPa) = 15.81950 29.57045 22.69498
#
# Velocity S-wave (km/s) = 2.83867 3.88104 3.40004
# Velocity P-wave (km/s) = 4.40134 6.36915 5.47439
#
# Compressibility (1/GPa) = 0.05903969
#
# Stress axis : x y z
#
# Youngs Moduli (GPa) = 44.30744 25.13938 73.67848
#
# Poissons Ratio (x) = -0.01344 0.59682
# Poissons Ratio (y) = -0.02368 0.06442
# Poissons Ratio (z) = 0.35891 0.02198
#
# Static dielectric constant tensor:
#      x y z
#    x 1.722420 -0.002670 -0.018360 
#    y -0.002670 1.749360 -0.022900 
#    z -0.018360 -0.022900 1.729940 
# 
# From -- ./inp_files/163765.got.cif
#   From: 2010.05.17/outbox.cif.g08.bks.cpg/sg2_82_cif.got.tgz:163765.got - 2010.06.03 11:33:40.
