data_PCOD9073915
_publ_section_title
;
Structure prediction by ZEFSAII (Michael W. Deem and Ramdas Pophale) SiO2 
 PCOD9073915
Probable space group: P -1
;
_chemical_formula_sum "Si O2"
_cell_formula_units_Z 16
_cell_length_a 21.000000
_cell_length_b 9.000000
_cell_length_c 6.000000
_cell_angle_alpha 100.000000
_cell_angle_beta 50.000000
_cell_angle_gamma 120.000000
_cell_volume 733.417773
_symmetry_space_group_name_H-M "P -1"
_symmetry_group_IT_number 2
_symmetry_cell_setting 'triclinic'
loop_
_space_group_symop_operation_xyz
x,y,z
-x,-y,-z
loop_
_atom_site_type_symbol
_atom_site_label
_atom_site_fract_x
_atom_site_fract_y
_atom_site_fract_z
Si Si1 0.132618 0.774864 0.119897
Si Si2 0.525516 0.345101 0.403508
Si Si3 0.919155 0.054621 0.359981
Si Si4 0.925786 0.716761 0.428702
Si Si5 0.739592 0.593990 0.107471
Si Si6 0.876207 0.575177 0.056992
Si Si7 0.542764 0.711994 0.957690
Si Si8 0.753769 0.919626 0.354805
O O1 0.144495 0.881137 0.346600
O O2 0.030717 0.752947 0.264609
O O3 0.121040 0.584954 0.108685
O O4 0.218320 0.902384 0.792160
O O5 0.500000 0.500000 0.500000
O O6 0.641965 0.439256 0.185687
O O7 0.492167 0.258743 0.205490
O O8 0.486066 0.254223 0.717238
O O9 0.932383 0.900606 0.394294
O O10 0.853400 0.968212 0.268142
O O11 0.025449 0.230508 0.145847
O O12 0.887796 0.564325 0.291628
O O13 0.840419 0.640398 0.780461
O O14 0.770704 0.557270 0.267537
O O15 0.732747 0.767172 0.184350
O O16 0.659540 0.829860 0.700139
O O17 0.500000 0.500000 0.000000
#
# Coordination Sequence:
#
# PCOD9073915 Si02
#       8
#     2   2   2   2   2   2   2   2
#     4  12  26  42  61  94 140 181 222 267 339 416
#     4  10  22  39  66 101 137 172 224 295 350 399
#     4  12  24  39  65  94 135 173 223 279 329 403
#     4  12  24  39  65  94 135 173 223 279 329 403
#     4  12  24  39  67  98 129 177 224 281 340 405
#     4  12  26  42  61  94 140 181 222 267 339 416
#     4  10  22  39  66 101 137 172 224 295 350 399
#     4  12  24  39  67  98 129 177 224 281 340 405
#
# _framework density 21.815670000000001
#
# number of rings (size 3 to 8) (size 9 to 14) (size 15 to 20)
#    0.000    0.500    7.500    2.250    7.000    0.000 
#    0.000    0.000    0.000    1.500    0.000    0.000 
#    0.000    0.000    0.000    0.000    0.000    0.000 
#
# Total GULP energy -89134.116398 kJ/mol
# GULP energy per Si atom -5570.882275 kJ/mol
# Density = 2.176602 g / cm^3
# Si number density = 21.815670 Si / 1000 Ang^3
#
#
#
# Elastic Constant Matrix: (Units=GPa)
#
#
# Indices 1 2 3 4 5 6 
#
# 1 83.2696 19.9524 28.9239 -16.1094 -5.3454 21.8297
# 2 19.9524 87.0930 25.0809 -3.2585 -9.9512 -15.7292
# 3 28.9239 25.0809 74.1045 -26.1934 -6.6070 8.5914
# 4 -16.1094 -3.2585 -26.1934 33.9827 13.8740 -0.1754
# 5 -5.3454 -9.9512 -6.6070 13.8740 30.8844 -1.8571
# 6 21.8297 -15.7292 8.5914 -0.1754 -1.8571 28.1078
#
#
#
# Elastic Compliance Matrix: (Units=1/GPa)
#
#
# Indices 1 2 3 4 5 6 
#
# 1 0.022279 -0.010120 0.001643 0.013388 -0.006499 -0.023814
# 2 -0.010120 0.021977 -0.010750 -0.015528 0.011455 0.024104
# 3 0.001643 -0.010750 0.025674 0.023139 -0.009019 -0.015591
# 4 0.013388 -0.015528 0.023139 0.063348 -0.027854 -0.027605
# 5 -0.006499 0.011455 -0.009019 -0.027854 0.046557 0.017117
# 6 -0.023814 0.024104 -0.015591 -0.027605 0.017117 0.073285
#
#
# Mechanical properties :
#
#
# Convention : Reuss Voigt Hill
#
# Bulk Modulus (GPa) = 31.77048 43.59795 37.68421
# Shear Modulus (GPa) = 16.55263 29.96229 23.25746
#
# Velocity S-wave (km/s) = 2.75753 3.71000 3.26865
# Velocity P-wave (km/s) = 4.97327 6.19518 5.61754
#
# Compressibility (1/GPa) = 0.03147576
#
# Stress axis : x y z
#
# Youngs Moduli (GPa) = 44.88521 45.50170 38.94991
#
# Poissons Ratio (x) = 0.46046 -0.06398
# Poissons Ratio (y) = 0.45422 0.41873
# Poissons Ratio (z) = -0.07373 0.48916
#
# Static dielectric constant tensor:
#      x y z
#    x 1.973870 -0.001020 0.244930 
#    y -0.001020 1.749630 -0.008190 
#    z 0.244930 -0.008190 2.027560 
# 
# From -- ./inp_files/117106.got.cif
#   From: 2010.05.17/outbox.ucp.g08.bks.cvg/sg2_59_cif.got.tgz:117106.got - 2010.06.11 11:32:03.
