data_PCOD9073191
_publ_section_title
;
Structure prediction by ZEFSAII (Michael W. Deem and Ramdas Pophale) SiO2 
 PCOD9073191
Probable space group: P -1
;
_chemical_formula_sum "Si O2"
_cell_formula_units_Z 16
_cell_length_a 9.336148
_cell_length_b 19.135833
_cell_length_c 16.462413
_cell_angle_alpha 150.765753
_cell_angle_beta 148.578042
_cell_angle_gamma 50.945799
_cell_volume 668.686703
_symmetry_space_group_name_H-M "P -1"
_symmetry_group_IT_number 2
_symmetry_cell_setting 'triclinic'
loop_
_space_group_symop_operation_xyz
x,y,z
-x,-y,-z
loop_
_atom_site_type_symbol
_atom_site_label
_atom_site_fract_x
_atom_site_fract_y
_atom_site_fract_z
Si Si1 0.134808 0.486310 0.884858
Si Si2 0.779803 0.496520 0.318071
Si Si3 0.652347 0.166487 0.833668
Si Si4 0.834959 0.900650 0.063424
Si Si5 0.266177 0.603153 0.542177
Si Si6 0.256463 0.234418 0.587073
Si Si7 0.084206 0.918710 0.383023
Si Si8 0.693532 0.546482 0.824970
O O1 0.183727 0.338025 0.725065
O O2 0.953889 0.521372 0.757637
O O3 0.889955 0.452922 0.803114
O O4 0.474813 0.633425 0.204642
O O5 0.502014 0.505569 0.240253
O O6 0.000000 0.500000 0.500000
O O7 0.014515 0.625763 0.499464
O O8 0.680466 0.324583 0.053691
O O9 0.455308 0.155293 0.646761
O O10 0.968102 0.168556 0.962209
O O11 0.445929 0.015948 0.638152
O O12 0.923675 0.929080 0.231200
O O13 0.491144 0.759421 0.759859
O O14 0.942642 0.076094 0.254358
O O15 0.463416 0.547174 0.640872
O O16 0.000000 0.000000 0.500000
O O17 0.946650 0.730822 0.141569
#
# Coordination Sequence:
#
# PCOD9073191 Si02
#       8
#     2   2   2   2   2   2   2   2
#     4  11  21  35  61  78 112 143 186 223 270 333
#     4  10  21  32  54  84 114 137 180 228 281 316
#     4  11  19  36  58  81 112 144 180 233 270 326
#     4  10  22  35  59  81 111 140 186 228 276 320
#     4  10  21  35  58  83 105 142 182 235 268 316
#     4  10  21  37  55  84 109 145 180 226 275 325
#     4  10  18  31  53  81 112 139 172 224 275 321
#     4  10  20  35  54  88 109 141 181 226 276 327
#
# _framework density 23.927498
#
# number of rings (size 3 to 8) (size 9 to 14) (size 15 to 20)
#    0.000    1.750    2.500    4.125    3.500    0.500 
#    0.000    0.625    0.000    0.750    0.000    0.000 
#    0.000    0.000    0.000    0.000    0.000    0.000 
#
# Total GULP energy -89315.409624 kJ/mol
# GULP energy per Si atom -5582.213102 kJ/mol
# Density = 2.387304 g / cm^3
# Si number density = 23.927498 Si / 1000 Ang^3
#
#
#
# Elastic Constant Matrix: (Units=GPa)
#
#
# Indices 1 2 3 4 5 6 
#
# 1 159.3550 54.2547 45.5329 -11.5765 33.0652 -44.0164
# 2 54.2547 98.1320 29.0623 -5.6428 18.6950 -35.0289
# 3 45.5329 29.0623 111.5295 -7.8434 35.2486 -4.5165
# 4 -11.5765 -5.6428 -7.8434 34.2770 -3.6479 8.0483
# 5 33.0652 18.6950 35.2486 -3.6479 55.0931 -10.5409
# 6 -44.0164 -35.0289 -4.5165 8.0483 -10.5409 47.8488
#
#
#
# Elastic Compliance Matrix: (Units=1/GPa)
#
#
# Indices 1 2 3 4 5 6 
#
# 1 0.010141 -0.001803 -0.002573 0.000607 -0.002424 0.007130
# 2 -0.001803 0.015428 -0.002767 -0.000978 -0.000650 0.009396
# 3 -0.002573 -0.002767 0.012728 0.002065 -0.006473 -0.004964
# 4 0.000607 -0.000978 0.002065 0.030885 -0.000308 -0.005225
# 5 -0.002424 -0.000650 -0.006473 -0.000308 0.024349 0.002099
# 6 0.007130 0.009396 -0.004964 -0.005225 0.002099 0.035209
#
#
# Mechanical properties :
#
#
# Convention : Reuss Voigt Hill
#
# Bulk Modulus (GPa) = 41.64730 69.63515 55.64122
# Shear Modulus (GPa) = 33.10628 43.45488 38.28058
#
# Velocity S-wave (km/s) = 3.72372 4.26620 4.00416
# Velocity P-wave (km/s) = 5.99429 7.30979 6.68448
#
# Compressibility (1/GPa) = 0.02401116
#
# Stress axis : x y z
#
# Youngs Moduli (GPa) = 98.61350 64.81601 78.56933
#
# Poissons Ratio (x) = 0.11686 0.20213
# Poissons Ratio (y) = 0.17779 0.21741
# Poissons Ratio (z) = 0.25370 0.17935
#
# Static dielectric constant tensor:
#      x y z
#    x 2.014350 0.089770 0.101090 
#    y 0.089770 2.031820 0.086350 
#    z 0.101090 0.086350 2.103990 
# 
# From -- ./inp_files/260148.got.cif
#   From: 2010.05.17/outbox.cif.g08.bks.cpg/sg2_131_cif.got.tgz:260148.got - 2010.06.03 11:33:40.
