data_PCOD9073320
_publ_section_title
;
Structure prediction by ZEFSAII (Michael W. Deem and Ramdas Pophale) SiO2 
 PCOD9073320
Probable space group: P -1
;
_chemical_formula_sum "Si O2"
_cell_formula_units_Z 16
_cell_length_a 9.000000
_cell_length_b 9.000000
_cell_length_c 15.000000
_cell_angle_alpha 110.000000
_cell_angle_beta 100.000000
_cell_angle_gamma 130.000000
_cell_volume 732.374747
_symmetry_space_group_name_H-M "P -1"
_symmetry_group_IT_number 2
_symmetry_cell_setting 'triclinic'
loop_
_space_group_symop_operation_xyz
x,y,z
-x,-y,-z
loop_
_atom_site_type_symbol
_atom_site_label
_atom_site_fract_x
_atom_site_fract_y
_atom_site_fract_z
Si Si1 0.788426 0.937439 0.254403
Si Si2 0.624473 0.604021 0.331796
Si Si3 0.404784 0.252136 0.466575
Si Si4 0.148628 0.051128 0.217434
Si Si5 0.047219 0.426953 0.881350
Si Si6 0.096023 0.467518 0.426090
Si Si7 0.615190 0.151841 0.856840
Si Si8 0.218664 0.590072 0.737036
O O1 0.691505 0.732792 0.271206
O O2 0.577427 0.872453 0.186029
O O3 0.924331 0.978994 0.192569
O O4 0.982512 0.205288 0.373300
O O5 0.674934 0.776192 0.447323
O O6 0.775334 0.565446 0.351504
O O7 0.359988 0.322117 0.253819
O O8 0.500000 0.500000 0.500000
O O9 0.628396 0.318415 0.503648
O O10 0.232151 0.072176 0.332051
O O11 0.037310 0.798491 0.120361
O O12 0.171864 0.505440 0.816399
O O13 0.791201 0.298073 0.821473
O O14 0.223198 0.670178 0.007628
O O15 0.983036 0.452187 0.322777
O O16 0.000000 0.500000 0.500000
O O17 0.464130 0.873525 0.802223
#
# Coordination Sequence:
#
# PCOD9073320 Si02
#       8
#     2   2   2   2   2   2   2   2
#     4  11  24  40  66  92 124 167 208 260 314 372
#     4  11  22  41  63  93 129 166 209 253 310 377
#     4  10  21  38  61  89 130 164 200 256 305 366
#     4  11  22  42  63  90 131 167 207 259 306 377
#     4  11  23  44  68  91 125 169 209 263 329 360
#     4  11  23  40  63  96 131 168 208 261 305 374
#     4  10  25  43  66  94 126 159 215 273 310 376
#     4  11  23  41  69  93 126 169 213 255 315 381
#
# _framework density 21.846738999999999
#
# number of rings (size 3 to 8) (size 9 to 14) (size 15 to 20)
#    0.000    1.250    5.000    1.875    3.500    2.000 
#    0.000    1.875    0.000    0.000    0.000    0.000 
#    0.000    0.000    0.000    0.000    0.000    0.000 
#
# Total GULP energy -89202.366840 kJ/mol
# GULP energy per Si atom -5575.147928 kJ/mol
# Density = 2.179701 g / cm^3
# Si number density = 21.846739 Si / 1000 Ang^3
#
#
#
# Elastic Constant Matrix: (Units=GPa)
#
#
# Indices 1 2 3 4 5 6 
#
# 1 104.1050 16.2379 20.0398 9.0354 3.3473 8.0029
# 2 16.2379 91.9438 4.8078 1.0489 1.1711 1.4807
# 3 20.0398 4.8078 38.3388 13.7232 -11.2892 2.0491
# 4 9.0354 1.0489 13.7232 22.4983 4.0555 -4.6372
# 5 3.3473 1.1711 -11.2892 4.0555 28.3394 6.1407
# 6 8.0029 1.4807 2.0491 -4.6372 6.1407 24.8678
#
#
#
# Elastic Compliance Matrix: (Units=1/GPa)
#
#
# Indices 1 2 3 4 5 6 
#
# 1 0.011420 -0.001595 -0.006440 -0.000473 -0.003276 -0.002329
# 2 -0.001595 0.011222 -0.001366 0.001244 -0.001097 0.000461
# 3 -0.006440 -0.001366 0.054211 -0.039803 0.031926 -0.017619
# 4 -0.000473 0.001244 -0.039803 0.080283 -0.033082 0.026498
# 5 -0.003276 -0.001097 0.031926 -0.033082 0.057935 -0.021986
# 6 -0.002329 0.000461 -0.017619 0.026498 -0.021986 0.052757
#
#
# Mechanical properties :
#
#
# Convention : Reuss Voigt Hill
#
# Bulk Modulus (GPa) = 17.22676 35.17316 26.19996
# Shear Modulus (GPa) = 16.34097 28.02791 22.18444
#
# Velocity S-wave (km/s) = 2.73789 3.58569 3.19008
# Velocity P-wave (km/s) = 4.23050 5.76869 5.05841
#
# Compressibility (1/GPa) = 0.05804920
#
# Stress axis : x y z
#
# Youngs Moduli (GPa) = 87.56896 89.11246 18.44655
#
# Poissons Ratio (x) = 0.14217 0.11879
# Poissons Ratio (y) = 0.13971 0.02520
# Poissons Ratio (z) = 0.56392 0.12175
#
# Static dielectric constant tensor:
#      x y z
#    x 2.016210 0.004730 -0.092480 
#    y 0.004730 1.770550 -0.018090 
#    z -0.092480 -0.018090 1.846020 
# 
# From -- ./inp_files/215342.got.cif
#   From: 2010.05.17/outbox.ucp.g08.bks.cvg/sg2_108_cif.got.tgz:215342.got - 2010.06.11 11:32:03.
