data_PCOD9073058
_publ_section_title
;
Structure prediction by ZEFSAII (Michael W. Deem and Ramdas Pophale) SiO2 
 PCOD9073058
Probable space group: P -1
;
_chemical_formula_sum "Si O2"
_cell_formula_units_Z 16
_cell_length_a 9.000000
_cell_length_b 12.000000
_cell_length_c 12.000000
_cell_angle_alpha 130.000000
_cell_angle_beta 130.000000
_cell_angle_gamma 60.000000
_cell_volume 752.153660
_symmetry_space_group_name_H-M "P -1"
_symmetry_group_IT_number 2
_symmetry_cell_setting 'triclinic'
loop_
_space_group_symop_operation_xyz
x,y,z
-x,-y,-z
loop_
_atom_site_type_symbol
_atom_site_label
_atom_site_fract_x
_atom_site_fract_y
_atom_site_fract_z
Si Si1 0.623301 0.624836 0.020490
Si Si2 0.034667 0.633882 0.326702
Si Si3 0.401172 0.164710 0.049489
Si Si4 0.037200 0.868438 0.111621
Si Si5 0.887800 0.688521 0.727776
Si Si6 0.460658 0.672625 0.569162
Si Si7 0.859257 0.806490 0.564963
Si Si8 0.536934 0.311154 0.766253
O O1 0.559401 0.762022 0.999862
O O2 0.527246 0.658462 0.116437
O O3 0.859521 0.616016 0.144749
O O4 0.553934 0.477783 0.840824
O O5 0.069205 0.471411 0.296662
O O6 0.239983 0.687027 0.422022
O O7 0.953406 0.752820 0.458009
O O8 0.165723 0.164965 0.950147
O O9 0.510415 0.249795 0.249623
O O10 0.500000 0.000000 0.000000
O O11 0.241662 0.772476 0.185635
O O12 0.084766 0.034724 0.266386
O O13 0.986982 0.808446 0.924499
O O14 0.648545 0.721818 0.629207
O O15 0.950719 0.695741 0.635299
O O16 0.500000 0.500000 0.500000
O O17 0.629731 0.779656 0.421433
#
# Coordination Sequence:
#
# PCOD9073058 Si02
#       8
#     2   2   2   2   2   2   2   2
#     4  10  23  43  68  91 130 166 211 267 308 382
#     4  10  20  41  61  92 123 163 215 255 314 373
#     4  11  25  44  66  94 126 170 211 257 322 375
#     4  11  23  43  60  95 132 163 213 256 320 377
#     4  10  21  38  60  92 128 165 208 257 313 372
#     4   9  21  38  60  91 128 158 211 257 306 373
#     4  11  23  37  64  94 128 166 210 261 310 376
#     4  10  23  42  64  99 124 167 215 257 322 367
#
# _framework density 21.272248999999999
#
# number of rings (size 3 to 8) (size 9 to 14) (size 15 to 20)
#    0.000    1.750    1.250    1.875    3.500    5.500 
#    0.000    5.625    0.000    0.000    0.000    0.000 
#    0.000    0.000    0.000    0.000    0.000    0.000 
#
# Total GULP energy -89171.593219 kJ/mol
# GULP energy per Si atom -5573.224576 kJ/mol
# Density = 2.122383 g / cm^3
# Si number density = 21.272249 Si / 1000 Ang^3
#
#
#
# Elastic Constant Matrix: (Units=GPa)
#
#
# Indices 1 2 3 4 5 6 
#
# 1 34.9860 29.1162 29.9465 -10.7431 21.7390 -9.7773
# 2 29.1162 85.9827 19.4457 22.4213 2.9009 7.5791
# 3 29.9465 19.4457 107.8527 51.4595 26.9301 6.0708
# 4 -10.7431 22.4213 51.4595 26.4834 3.1679 1.5663
# 5 21.7390 2.9009 26.9301 3.1679 36.1064 -3.6709
# 6 -9.7773 7.5791 6.0708 1.5663 -3.6709 27.5732
#
#
#
# Elastic Compliance Matrix: (Units=1/GPa)
#
#
# Indices 1 2 3 4 5 6 
#
# 1 0.005444 0.004272 0.019461 -0.037198 -0.015222 -0.003442
# 2 0.004272 0.008636 -0.010394 0.014154 0.003354 0.001072
# 3 0.019461 -0.010394 0.003520 0.011124 -0.013821 0.006511
# 4 -0.037198 0.014154 0.011124 -0.011366 0.012205 -0.017259
# 5 -0.015222 0.003354 -0.013821 0.012205 0.046049 0.002161
# 6 -0.003442 0.001072 0.006511 -0.017259 0.002161 0.034586
#
#
# Mechanical properties :
#
#
# Convention : Reuss Voigt Hill
#
# Bulk Modulus (GPa) = 22.58506 42.87088 32.72797
# Shear Modulus (GPa) = 66.71032 28.05346 47.38189
#
# Velocity S-wave (km/s) = 5.60610 3.63544 4.72466
# Velocity P-wave (km/s) = 7.24877 6.14972 6.72175
#
# Compressibility (1/GPa) = 0.04427706
#
# Stress axis : x y z
#
# Youngs Moduli (GPa) = 183.67396 115.79656 284.11840
#
# Poissons Ratio (x) = -0.49468 -5.52917
# Poissons Ratio (y) = -0.78466 2.95320
# Poissons Ratio (z) = -3.57444 1.20362
#
# Static dielectric constant tensor:
#      x y z
#    x 1.808890 -0.023030 -0.015930 
#    y -0.023030 1.768430 -0.030560 
#    z -0.015930 -0.030560 1.751530 
# 
# From -- ./inp_files/393226.got.cif
#   From: 2010.05.17/outbox.ucp.g08.bks.cvg/sg2_197_cif.got.tgz:393226.got - 2010.06.11 11:32:03.
