data_PCOD9073581
_publ_section_title
;
Structure prediction by ZEFSAII (Michael W. Deem and Ramdas Pophale) SiO2 
 PCOD9073581
Probable space group: P -1
;
_chemical_formula_sum "Si O2"
_cell_formula_units_Z 16
_cell_length_a 9.000000
_cell_length_b 9.000000
_cell_length_c 18.000000
_cell_angle_alpha 140.000000
_cell_angle_beta 80.000000
_cell_angle_gamma 120.000000
_cell_volume 752.029055
_symmetry_space_group_name_H-M "P -1"
_symmetry_group_IT_number 2
_symmetry_cell_setting 'triclinic'
loop_
_space_group_symop_operation_xyz
x,y,z
-x,-y,-z
loop_
_atom_site_type_symbol
_atom_site_label
_atom_site_fract_x
_atom_site_fract_y
_atom_site_fract_z
Si Si1 0.064018 0.906226 0.072492
Si Si2 0.432617 0.188921 0.051534
Si Si3 0.729219 0.827842 0.261319
Si Si4 0.184681 0.623121 0.481734
Si Si5 0.239434 0.696856 0.193866
Si Si6 0.627688 0.939512 0.162784
Si Si7 0.010969 0.384967 0.247331
Si Si8 0.851626 0.909455 0.694344
O O1 0.236105 0.036949 0.051022
O O2 0.982278 0.084034 0.128695
O O3 0.132590 0.985361 0.181763
O O4 0.914223 0.571657 0.946258
O O5 0.579979 0.516406 0.185240
O O6 0.500000 0.000000 0.000000
O O7 0.429598 0.203155 0.967652
O O8 0.693401 0.047025 0.384393
O O9 0.722842 0.858414 0.184444
O O10 0.940478 0.937790 0.297607
O O11 0.128134 0.555415 0.375089
O O12 0.249627 0.426698 0.424386
O O13 0.000000 0.500000 0.500000
O O14 0.143110 0.557161 0.230299
O O15 0.438340 0.821339 0.182705
O O16 0.241150 0.973452 0.298455
O O17 0.796350 0.266190 0.245147
#
# Coordination Sequence:
#
# PCOD9073581 Si02
#       8
#     2   2   2   2   2   2   2   2
#     4  11  21  39  61  90 135 171 209 260 323 389
#     4  12  25  39  63 105 135 161 214 271 324 383
#     4  11  22  42  70  89 124 181 214 256 325 385
#     4   9  19  43  71  86 124 177 220 258 317 383
#     4  12  24  38  63  99 132 168 208 270 338 367
#     4  12  24  41  67  96 131 169 218 260 320 390
#     4  11  23  41  65  96 128 172 220 267 306 394
#     4  10  21  41  62  90 128 170 215 266 321 376
#
# _framework density 21.275773999999998
#
# number of rings (size 3 to 8) (size 9 to 14) (size 15 to 20)
#    0.000    1.000    5.000    4.125    1.750    0.000 
#    0.000   10.000    0.000    0.000    0.000    0.000 
#    0.000    0.000    0.000    0.000    0.000    0.000 
#
# Total GULP energy -89074.166681 kJ/mol
# GULP energy per Si atom -5567.135418 kJ/mol
# Density = 2.122735 g / cm^3
# Si number density = 21.275774 Si / 1000 Ang^3
#
#
#
# Elastic Constant Matrix: (Units=GPa)
#
#
# Indices 1 2 3 4 5 6 
#
# 1 59.8989 35.8163 21.8460 18.2737 -16.4806 28.8638
# 2 35.8163 120.0914 34.3707 12.8623 -14.7980 33.6396
# 3 21.8460 34.3707 104.9307 25.1680 -17.7075 -6.0989
# 4 18.2737 12.8623 25.1680 36.4984 3.2101 -4.9267
# 5 -16.4806 -14.7980 -17.7075 3.2101 18.4995 6.2711
# 6 28.8638 33.6396 -6.0989 -4.9267 6.2711 38.8410
#
#
#
# Elastic Compliance Matrix: (Units=1/GPa)
#
#
# Indices 1 2 3 4 5 6 
#
# 1 -0.036215 -0.019933 -0.007752 0.046411 -0.084885 0.062551
# 2 -0.019933 0.007585 -0.005045 0.014620 -0.023496 0.013099
# 3 -0.007752 -0.005045 0.013713 -0.001993 -0.001638 0.012295
# 4 0.046411 0.014620 -0.001993 -0.014438 0.074423 -0.061312
# 5 -0.084885 -0.023496 -0.001638 0.074423 -0.091231 0.107343
# 6 0.062551 0.013099 0.012295 -0.061312 0.107343 -0.055259
#
#
# Mechanical properties :
#
#
# Convention : Reuss Voigt Hill
#
# Bulk Modulus (GPa) = -12.44138 52.10967 19.83415
# Shear Modulus (GPa) = -36.44877 31.62698 -2.41089
#
# Velocity S-wave (km/s) = -4.14352 3.85973 -1.06566
# Velocity P-wave (km/s) = 5.36210 6.66401 2.79794
#
# Compressibility (1/GPa) = -0.08037697
#
# Stress axis : x y z
#
# Youngs Moduli (GPa) = -27.61261 131.83316 72.92457
#
# Poissons Ratio (x) = 2.62777 0.56532
# Poissons Ratio (y) = -0.55039 0.36792
# Poissons Ratio (z) = -0.21406 0.66513
#
# Static dielectric constant tensor:
#      x y z
#    x 1.901940 0.013900 0.008830 
#    y 0.013900 1.777900 0.002090 
#    z 0.008830 0.002090 1.806490 
# 
# From -- ./inp_files/354961.got.cif
#   From: 2010.05.17/outbox.ucp.g08.bks.cvg/sg2_178_cif.got.tgz:354961.got - 2010.06.11 11:32:03.
