data_PCOD9073761
_publ_section_title
;
Structure prediction by ZEFSAII (Michael W. Deem and Ramdas Pophale) SiO2 
 PCOD9073761
Probable space group: P -1
;
_chemical_formula_sum "Si O2"
_cell_formula_units_Z 14
_cell_length_a 9.000000
_cell_length_b 9.000000
_cell_length_c 15.000000
_cell_angle_alpha 80.000000
_cell_angle_beta 140.000000
_cell_angle_gamma 120.000000
_cell_volume 626.690879
_symmetry_space_group_name_H-M "P -1"
_symmetry_group_IT_number 2
_symmetry_cell_setting 'triclinic'
loop_
_space_group_symop_operation_xyz
x,y,z
-x,-y,-z
loop_
_atom_site_type_symbol
_atom_site_label
_atom_site_fract_x
_atom_site_fract_y
_atom_site_fract_z
Si Si1 0.853172 0.015023 0.704240
Si Si2 0.441404 0.085482 0.604955
Si Si3 0.987417 0.663727 0.518530
Si Si4 0.375994 0.570331 0.214326
Si Si5 0.582892 0.791536 0.109379
Si Si6 0.030271 0.872703 0.955333
Si Si7 0.679011 0.145499 0.180085
O O1 0.678381 0.061288 0.681534
O O2 0.154186 0.209813 0.800903
O O3 0.689032 0.908329 0.549933
O O4 0.918039 0.901102 0.809621
O O5 0.584217 0.271746 0.712729
O O6 0.190196 0.879841 0.551872
O O7 0.099567 0.700044 0.667229
O O8 0.000000 0.500000 0.500000
O O9 0.661933 0.587227 0.367519
O O10 0.420241 0.660103 0.129048
O O11 0.126147 0.351032 0.099819
O O12 0.751131 0.005227 0.196443
O O13 0.381789 0.769333 0.940040
O O14 0.000000 0.000000 0.000000
O O15 0.370518 0.993776 0.096471
#
# Coordination Sequence:
#
# PCOD9073761 Si02
#       7
#     2   2   2   2   2   2   2
#     4  10  22  43  66  96 145 176 223 284 349 399
#     4  11  22  41  70 102 137 178 230 290 333 408
#     4  12  23  42  70 105 135 181 227 286 340 405
#     4  12  24  43  79 100 133 180 243 277 338 407
#     4  10  21  43  70 103 133 182 224 290 336 407
#     4  11  25  46  67  99 142 186 220 283 349 417
#     4  10  22  43  70  97 146 174 224 282 351 403
#
# _framework density 22.339562000000001
#
# number of rings (size 3 to 8) (size 9 to 14) (size 15 to 20)
#    0.000    1.143    2.857    3.857    0.000    1.143 
#    2.571    9.286    0.000    0.000    0.000    0.000 
#    0.000    0.000    0.000    0.000    0.000    0.000 
#
# Total GULP energy -77987.192107 kJ/mol
# GULP energy per Si atom -5570.513722 kJ/mol
# Density = 2.228872 g / cm^3
# Si number density = 22.339562 Si / 1000 Ang^3
#
#
#
# Elastic Constant Matrix: (Units=GPa)
#
#
# Indices 1 2 3 4 5 6 
#
# 1 14.0708 -18.4649 14.9905 13.7249 -1.1404 31.1066
# 2 -18.4649 34.2992 42.3098 22.3529 -25.6181 30.6016
# 3 14.9905 42.3098 89.2650 23.2809 0.4964 2.0121
# 4 13.7249 22.3529 23.2809 19.3575 -14.0477 -9.3268
# 5 -1.1404 -25.6181 0.4964 -14.0477 44.0221 2.8566
# 6 31.1066 30.6016 2.0121 -9.3268 2.8566 8.0044
#
#
#
# Elastic Compliance Matrix: (Units=1/GPa)
#
#
# Indices 1 2 3 4 5 6 
#
# 1 0.014860 -0.017031 0.004879 0.001864 -0.009751 0.011785
# 2 -0.017031 0.020689 -0.014535 0.027332 0.019469 0.015643
# 3 0.004879 -0.014535 0.027604 -0.038497 -0.020415 -0.007901
# 4 0.001864 0.027332 -0.038497 0.096308 0.047563 -0.006816
# 5 -0.009751 0.019469 -0.020415 0.047563 0.048772 0.006608
# 6 0.011785 0.015643 -0.007901 -0.006816 0.006608 0.011012
#
#
# Mechanical properties :
#
#
# Convention : Reuss Voigt Hill
#
# Bulk Modulus (GPa) = 102.25214 23.92286 63.08750
# Shear Modulus (GPa) = 18.12389 20.86343 19.49366
#
# Velocity S-wave (km/s) = 2.85141 3.05933 2.95720
# Velocity P-wave (km/s) = 7.53073 4.81781 6.32152
#
# Compressibility (1/GPa) = 0.00977975
#
# Stress axis : x y z
#
# Youngs Moduli (GPa) = 67.29307 48.33553 36.22605
#
# Poissons Ratio (x) = 0.82319 -0.17675
# Poissons Ratio (y) = 1.14605 0.52656
# Poissons Ratio (z) = -0.32834 0.70257
#
# Static dielectric constant tensor:
#      x y z
#    x 2.099940 0.014610 0.132240 
#    y 0.014610 1.868410 -0.025240 
#    z 0.132240 -0.025240 1.891820 
# 
# From -- ./inp_files/159987.got.cif
#   From: 2010.05.17/outbox.ucp.g08.bks.cvg/sg2_80_cif.got.tgz:159987.got - 2010.06.11 11:32:03.
