data_PCOD9073661
_publ_section_title
;
Structure prediction by ZEFSAII (Michael W. Deem and Ramdas Pophale) SiO2 
 PCOD9073661
Probable space group: P -1
;
_chemical_formula_sum "Si O2"
_cell_formula_units_Z 16
_cell_length_a 15.000000
_cell_length_b 15.000000
_cell_length_c 15.000000
_cell_angle_alpha 150.000000
_cell_angle_beta 30.000000
_cell_angle_gamma 140.000000
_cell_volume 842.010594
_symmetry_space_group_name_H-M "P -1"
_symmetry_group_IT_number 2
_symmetry_cell_setting 'triclinic'
loop_
_space_group_symop_operation_xyz
x,y,z
-x,-y,-z
loop_
_atom_site_type_symbol
_atom_site_label
_atom_site_fract_x
_atom_site_fract_y
_atom_site_fract_z
Si Si1 0.634392 0.167823 0.808349
Si Si2 0.700643 0.450949 0.346050
Si Si3 0.668098 0.195723 0.455656
Si Si4 0.481108 0.784140 0.847944
Si Si5 0.943822 0.626660 0.738630
Si Si6 0.900667 0.504680 0.876662
Si Si7 0.434420 0.220469 0.843981
Si Si8 0.586766 0.740086 0.432485
O O1 0.817256 0.297579 0.767335
O O2 0.517466 0.231605 0.880872
O O3 0.641363 0.949844 0.596332
O O4 0.545659 0.212259 0.018779
O O5 0.643264 0.658105 0.571597
O O6 0.676487 0.328552 0.170364
O O7 0.545214 0.353999 0.460133
O O8 0.902982 0.460631 0.217550
O O9 0.591152 0.269979 0.679368
O O10 0.542891 0.263933 0.544858
O O11 0.879342 0.235831 0.293299
O O12 0.626498 0.984121 0.303174
O O13 0.500000 0.000000 0.000000
O O14 0.922222 0.556660 0.798366
O O15 0.000000 0.500000 0.500000
O O16 0.748446 0.685170 0.930706
O O17 0.757341 0.627971 0.158420
#
# Coordination Sequence:
#
# PCOD9073661 Si02
#       8
#     2   2   2   2   2   2   2   2
#     4  11  25  44  69 100 137 179 227 281 337 393
#     4  11  25  46  74 100 133 179 223 275 350 395
#     4  10  21  42  64  92 135 182 221 268 327 396
#     4  11  24  47  75  99 133 176 226 284 339 401
#     4  12  25  37  64 100 136 177 226 267 331 398
#     4  12  26  44  69 104 140 175 223 281 330 409
#     4  10  23  41  64  95 136 178 222 271 327 396
#     4  11  22  46  71  96 140 182 219 276 339 398
#
# _framework density 19.002136
#
# number of rings (size 3 to 8) (size 9 to 14) (size 15 to 20)
#    0.000    1.000    5.000    1.125    3.500    2.500 
#    2.250    1.250    0.000    0.000    0.000    0.000 
#    0.000    0.000    0.000    0.000    0.000    0.000 
#
# Total GULP energy -89188.973395 kJ/mol
# GULP energy per Si atom -5574.310837 kJ/mol
# Density = 1.895889 g / cm^3
# Si number density = 19.002136 Si / 1000 Ang^3
#
#
#
# Elastic Constant Matrix: (Units=GPa)
#
#
# Indices 1 2 3 4 5 6 
#
# 1 145.0887 39.1238 59.2014 3.2702 12.2032 13.9447
# 2 39.1238 111.7624 36.7707 0.6526 -0.4652 18.7497
# 3 59.2014 36.7707 115.6373 3.6644 1.5647 6.1492
# 4 3.2702 0.6526 3.6644 35.6786 1.9075 5.3353
# 5 12.2032 -0.4652 1.5647 1.9075 46.2403 -5.3658
# 6 13.9447 18.7497 6.1492 5.3353 -5.3658 36.7848
#
#
#
# Elastic Compliance Matrix: (Units=1/GPa)
#
#
# Indices 1 2 3 4 5 6 
#
# 1 0.009483 -0.001526 -0.004203 0.000110 -0.002673 -0.002521
# 2 -0.001526 0.011112 -0.002526 0.000913 0.000006 -0.004795
# 3 -0.004203 -0.002526 0.011557 -0.000985 0.000875 0.001220
# 4 0.000110 0.000913 -0.000985 0.028911 -0.001735 -0.004789
# 5 -0.002673 0.000006 0.000875 -0.001735 0.022891 0.004455
# 6 -0.002521 -0.004795 0.001220 -0.004789 0.004455 0.031725
#
#
# Mechanical properties :
#
#
# Convention : Reuss Voigt Hill
#
# Bulk Modulus (GPa) = 63.92982 71.40890 67.66936
# Shear Modulus (GPa) = 36.38895 39.56691 37.97793
#
# Velocity S-wave (km/s) = 4.38081 4.56810 4.47544
# Velocity P-wave (km/s) = 7.70099 8.09224 7.89904
#
# Compressibility (1/GPa) = 0.01564215
#
# Stress axis : x y z
#
# Youngs Moduli (GPa) = 105.44708 89.99338 86.52443
#
# Poissons Ratio (x) = 0.13731 0.36368
# Poissons Ratio (y) = 0.16089 0.21859
# Poissons Ratio (z) = 0.44322 0.22735
#
# Static dielectric constant tensor:
#      x y z
#    x 1.681670 -0.039960 -0.006290 
#    y -0.039960 1.715760 0.021520 
#    z -0.006290 0.021520 1.658730 
# 
# From -- ./inp_files/533893.got.cif
#   From: 2010.05.17/outbox.ucp.g08.bks.cvg/sg2_267_cif.got.tgz:533893.got - 2010.06.11 11:32:03.
