data_PCOD9073566
_publ_section_title
;
Structure prediction by ZEFSAII (Michael W. Deem and Ramdas Pophale) SiO2 
 PCOD9073566
Probable space group: P -1
;
_chemical_formula_sum "Si O2"
_cell_formula_units_Z 16
_cell_length_a 13.079583
_cell_length_b 10.717479
_cell_length_c 9.084855
_cell_angle_alpha 65.205131
_cell_angle_beta 111.946210
_cell_angle_gamma 141.011381
_cell_volume 724.841100
_symmetry_space_group_name_H-M "P -1"
_symmetry_group_IT_number 2
_symmetry_cell_setting 'triclinic'
loop_
_space_group_symop_operation_xyz
x,y,z
-x,-y,-z
loop_
_atom_site_type_symbol
_atom_site_label
_atom_site_fract_x
_atom_site_fract_y
_atom_site_fract_z
Si Si1 0.888237 0.090440 0.481937
Si Si2 0.920609 0.631548 0.283163
Si Si3 0.243357 0.139469 0.955123
Si Si4 0.721885 0.194196 0.389408
Si Si5 0.777059 0.675617 0.603755
Si Si6 0.889349 0.773011 0.916222
Si Si7 0.398732 0.514865 0.683204
Si Si8 0.406275 0.073580 0.266468
O O1 0.763632 0.095939 0.369571
O O2 0.937800 0.177452 0.633089
O O3 0.060081 0.245748 0.412709
O O4 0.812366 0.870972 0.534862
O O5 0.881673 0.435758 0.358095
O O6 0.759544 0.553161 0.303303
O O7 0.930457 0.691322 0.092812
O O8 0.189764 0.180776 0.048572
O O9 0.307511 0.051866 0.090436
O O10 0.379401 0.348584 0.832974
O O11 0.070870 0.979852 0.852317
O O12 0.571080 0.145426 0.272224
O O13 0.676773 0.109745 0.574870
O O14 0.769223 0.624211 0.794113
O O15 0.630352 0.516509 0.491101
O O16 0.543083 0.745776 0.698202
#
# Coordination Sequence:
#
# PCOD9073566 Si02
#       8
#     2   2   2   2   2   2   2   2
#     4  10  18  32  54  80 107 137 173 220 271 313
#     4   9  18  32  54  81 106 135 176 225 264 301
#     4  10  18  32  55  83 108 131 173 227 268 305
#     4  10  20  34  52  76 106 142 183 220 255 303
#     4  10  19  33  56  82 109 137 168 216 275 324
#     4  10  18  31  55  84 107 132 172 222 272 312
#     4   9  19  34  54  81 109 138 172 215 267 316
#     4  10  20  34  55  79 105 142 184 218 253 308
#
# _framework density 22.073803000000002
#
# number of rings (size 3 to 8) (size 9 to 14) (size 15 to 20)
#    0.000    2.250    0.000    6.000    0.000    0.000 
#    0.000    3.125    0.000   12.750    0.000    0.000 
#    0.000    0.000    0.000    0.000    0.000    0.000 
#
# Total GULP energy -89294.238506 kJ/mol
# GULP energy per Si atom -5580.889907 kJ/mol
# Density = 2.202356 g / cm^3
# Si number density = 22.073803 Si / 1000 Ang^3
#
#
#
# Elastic Constant Matrix: (Units=GPa)
#
#
# Indices 1 2 3 4 5 6 
#
# 1 99.8245 2.6729 22.1217 7.6963 27.4056 0.7697
# 2 2.6729 64.2812 24.9587 -2.1843 1.8797 -2.8792
# 3 22.1217 24.9587 91.9989 7.7951 8.9842 -4.7520
# 4 7.6963 -2.1843 7.7951 27.4629 -3.9297 4.2101
# 5 27.4056 1.8797 8.9842 -3.9297 34.5656 0.8403
# 6 0.7697 -2.8792 -4.7520 4.2101 0.8403 16.4624
#
#
#
# Elastic Compliance Matrix: (Units=1/GPa)
#
#
# Indices 1 2 3 4 5 6 
#
# 1 0.013854 0.000339 -0.001876 -0.005023 -0.011104 0.000721
# 2 0.000339 0.017636 -0.005082 0.002666 0.000374 0.000901
# 3 -0.001876 -0.005082 0.013568 -0.004758 -0.002412 0.004455
# 4 -0.005023 0.002666 -0.004758 0.042703 0.010223 -0.012115
# 5 -0.011104 0.000374 -0.002412 0.010223 0.039619 -0.004748
# 6 0.000721 0.000901 0.004455 -0.012115 -0.004748 0.065495
#
#
# Mechanical properties :
#
#
# Convention : Reuss Voigt Hill
#
# Bulk Modulus (GPa) = 31.42681 39.51235 35.46958
# Shear Modulus (GPa) = 23.07128 29.45494 26.26311
#
# Velocity S-wave (km/s) = 3.23644 3.65689 3.45307
# Velocity P-wave (km/s) = 5.31358 5.98075 5.65701
#
# Compressibility (1/GPa) = 0.03181996
#
# Stress axis : x y z
#
# Youngs Moduli (GPa) = 72.17946 56.70328 73.70136
#
# Poissons Ratio (x) = -0.01920 0.13827
# Poissons Ratio (y) = -0.02445 0.37453
# Poissons Ratio (z) = 0.13542 0.28815
#
# Static dielectric constant tensor:
#      x y z
#    x 1.839360 0.040100 0.010330 
#    y 0.040100 1.873270 -0.027280 
#    z 0.010330 -0.027280 1.851200 
# 
# From -- ./inp_files/306794.got.cif
#   From: 2010.05.17/outbox.cif.g08.bks.cpg/sg2_154_cif.got.tgz:306794.got - 2010.06.03 11:33:40.
