data_PCOD9073647
_publ_section_title
;
Structure prediction by ZEFSAII (Michael W. Deem and Ramdas Pophale) SiO2 
 PCOD9073647
Probable space group: P -1
;
_chemical_formula_sum "Si O2"
_cell_formula_units_Z 16
_cell_length_a 9.000000
_cell_length_b 12.000000
_cell_length_c 18.000000
_cell_angle_alpha 50.000000
_cell_angle_beta 150.000000
_cell_angle_gamma 130.000000
_cell_volume 725.531033
_symmetry_space_group_name_H-M "P -1"
_symmetry_group_IT_number 2
_symmetry_cell_setting 'triclinic'
loop_
_space_group_symop_operation_xyz
x,y,z
-x,-y,-z
loop_
_atom_site_type_symbol
_atom_site_label
_atom_site_fract_x
_atom_site_fract_y
_atom_site_fract_z
Si Si1 0.102203 0.330662 0.743478
Si Si2 0.181971 0.676359 0.641817
Si Si3 0.915950 0.155588 0.877369
Si Si4 0.761729 0.142630 0.564146
Si Si5 0.757557 0.327778 0.022186
Si Si6 0.753327 0.879151 0.400716
Si Si7 0.710418 0.006984 0.161844
Si Si8 0.145974 0.346276 0.033077
O O1 0.089745 0.499745 0.676099
O O2 0.131602 0.247682 0.868779
O O3 0.800577 0.254072 0.601383
O O4 0.424229 0.329463 0.842521
O O5 0.208385 0.755306 0.539177
O O6 0.531729 0.703989 0.810688
O O7 0.910281 0.738962 0.533535
O O8 0.581221 0.134174 0.706632
O O9 0.941158 0.253364 0.920954
O O10 0.000000 0.000000 0.000000
O O11 0.500000 0.000000 0.500000
O O12 0.025078 0.056950 0.731751
O O13 0.765198 0.179614 0.133603
O O14 0.993491 0.324470 0.058252
O O15 0.820082 0.475844 0.036175
O O16 0.689679 0.923371 0.268571
O O17 0.000000 0.000000 0.500000
O O18 0.500000 0.000000 0.000000
#
# Coordination Sequence:
#
# PCOD9073647 Si02
#       8
#     2   2   2   2   2   2   2   2
#     4  11  25  43  68 101 140 186 227 281 361 412
#     4  10  24  46  68  97 141 183 224 291 345 423
#     4  12  27  43  71 102 141 182 234 288 345 427
#     4  11  24  39  68 100 133 177 232 287 340 406
#     4  10  21  41  70 103 130 176 233 291 338 413
#     4  11  26  44  67  98 141 185 225 289 361 418
#     4  11  21  39  68  94 128 176 230 286 338 406
#     4  10  23  43  70 101 133 178 233 284 348 411
#
# _framework density 22.052813
#
# number of rings (size 3 to 8) (size 9 to 14) (size 15 to 20)
#    0.000    1.250    1.250    3.375    8.750    3.500 
#    4.500    0.000    0.000    0.000    0.000    0.000 
#    0.000    0.000    0.000    0.000    0.000    0.000 
#
# Total GULP energy -89070.573683 kJ/mol
# GULP energy per Si atom -5566.910855 kJ/mol
# Density = 2.200262 g / cm^3
# Si number density = 22.052813 Si / 1000 Ang^3
#
#
#
# Elastic Constant Matrix: (Units=GPa)
#
#
# Indices 1 2 3 4 5 6 
#
# 1 -4.6739 2.0368 -22.2191 18.7405 9.7630 15.9732
# 2 2.0368 133.3340 35.8459 2.4109 3.7208 4.8813
# 3 -22.2191 35.8459 31.8820 26.0360 3.2161 30.6557
# 4 18.7405 2.4109 26.0360 39.7619 -4.6975 -15.6958
# 5 9.7630 3.7208 3.2161 -4.6975 25.9347 2.3599
# 6 15.9732 4.8813 30.6557 -15.6958 2.3599 8.1336
#
#
#
# Elastic Compliance Matrix: (Units=1/GPa)
#
#
# Indices 1 2 3 4 5 6 
#
# 1 0.035578 0.004332 -0.022500 0.010597 -0.012621 0.036446
# 2 0.004332 0.008553 -0.003575 -0.001236 -0.002471 -0.001835
# 3 -0.022500 -0.003575 0.013141 0.004131 0.007875 0.002492
# 4 0.010597 -0.001236 0.004131 0.014494 -0.001028 -0.007372
# 5 -0.012621 -0.002471 0.007875 -0.001028 0.044158 -0.018207
# 6 0.036446 -0.001835 0.002492 -0.007372 -0.018207 0.034141
#
#
# Mechanical properties :
#
#
# Convention : Reuss Voigt Hill
#
# Bulk Modulus (GPa) = 72.53699 21.31882 46.92790
# Shear Modulus (GPa) = 25.23387 24.42461 24.82924
#
# Velocity S-wave (km/s) = 3.38634 3.33160 3.35908
# Velocity P-wave (km/s) = 6.94648 4.94849 6.03080
#
# Compressibility (1/GPa) = 0.01378607
#
# Stress axis : x y z
#
# Youngs Moduli (GPa) = 28.10714 116.91357 76.09928
#
# Poissons Ratio (x) = -0.50645 1.71225
# Poissons Ratio (y) = -0.12176 0.27203
# Poissons Ratio (z) = 0.63242 0.41794
#
# Static dielectric constant tensor:
#      x y z
#    x 1.876670 0.085720 0.079260 
#    y 0.085720 1.770740 0.016340 
#    z 0.079260 0.016340 1.735980 
# 
# From -- ./inp_files/494340.got.cif
#   From: 2010.05.17/outbox.ucp.g08.bks.cvg/sg2_248_cif.got.tgz:494340.got - 2010.06.11 11:32:03.
