data_PCOD9073484
_publ_section_title
;
Structure prediction by ZEFSAII (Michael W. Deem and Ramdas Pophale) SiO2 
 PCOD9073484
Probable space group: P -1
;
_chemical_formula_sum "Si O2"
_cell_formula_units_Z 16
_cell_length_a 9.000000
_cell_length_b 9.000000
_cell_length_c 12.000000
_cell_angle_alpha 50.000000
_cell_angle_beta 90.000000
_cell_angle_gamma 90.000000
_cell_volume 744.595199
_symmetry_space_group_name_H-M "P -1"
_symmetry_group_IT_number 2
_symmetry_cell_setting 'triclinic'
loop_
_space_group_symop_operation_xyz
x,y,z
-x,-y,-z
loop_
_atom_site_type_symbol
_atom_site_label
_atom_site_fract_x
_atom_site_fract_y
_atom_site_fract_z
Si Si1 0.050454 0.625486 0.336152
Si Si2 0.495052 0.402872 0.926174
Si Si3 0.201636 0.287030 0.865671
Si Si4 0.855120 0.931679 0.602731
Si Si5 0.989015 0.918011 0.841000
Si Si6 0.675879 0.598697 0.645183
Si Si7 0.460357 0.892925 0.434719
Si Si8 0.334892 0.975720 0.839718
O O1 0.215614 0.558509 0.334103
O O2 0.000000 0.500000 0.500000
O O3 0.924449 0.592695 0.257587
O O4 0.038567 0.851095 0.259036
O O5 0.329712 0.401323 0.876069
O O6 0.608632 0.523159 0.795069
O O7 0.500000 0.500000 0.000000
O O8 0.561955 0.186482 0.026321
O O9 0.289398 0.150577 0.840545
O O10 0.101694 0.169968 0.012356
O O11 0.919709 0.845912 0.759529
O O12 0.778402 0.780599 0.591105
O O13 0.719247 0.074109 0.578613
O O14 0.000000 0.000000 0.500000
O O15 0.168853 0.891339 0.853300
O O16 0.529165 0.676172 0.544085
O O17 0.500000 0.000000 0.500000
O O18 0.562248 0.974637 0.292914
#
# Coordination Sequence:
#
# PCOD9073484 Si02
#       8
#     2   2   2   2   2   2   2   2
#     4  11  23  42  65  96 130 163 213 277 327 376
#     4  12  25  41  62  94 131 166 213 277 327 375
#     4  11  24  43  65  94 130 178 221 260 324 400
#     4  11  23  41  66  94 125 171 218 262 322 398
#     4  11  22  41  67  93 127 176 220 261 319 395
#     4  11  23  40  62  93 127 162 209 272 322 370
#     4  10  21  40  62  91 127 169 215 259 319 392
#     4  11  22  42  66  91 128 175 215 262 322 392
#
# _framework density 21.488185999999999
#
# number of rings (size 3 to 8) (size 9 to 14) (size 15 to 20)
#    0.000    1.000    0.000   10.125    0.000    4.000 
#    0.000    4.375    0.000    0.000    0.000    0.000 
#    0.000    0.000    0.000    0.000    0.000    0.000 
#
# Total GULP energy -89303.606718 kJ/mol
# GULP energy per Si atom -5581.475420 kJ/mol
# Density = 2.143928 g / cm^3
# Si number density = 21.488186 Si / 1000 Ang^3
#
#
#
# Elastic Constant Matrix: (Units=GPa)
#
#
# Indices 1 2 3 4 5 6 
#
# 1 136.8444 10.0340 47.9915 11.8058 -15.6904 -22.5013
# 2 10.0340 20.5935 -3.6937 6.9081 -6.4231 0.5948
# 3 47.9915 -3.6937 115.0900 14.9342 -27.1537 -9.8354
# 4 11.8058 6.9081 14.9342 26.6244 -9.0445 4.8605
# 5 -15.6904 -6.4231 -27.1537 -9.0445 55.5912 11.3858
# 6 -22.5013 0.5948 -9.8354 4.8605 11.3858 39.2899
#
#
#
# Elastic Compliance Matrix: (Units=1/GPa)
#
#
# Indices 1 2 3 4 5 6 
#
# 1 0.010014 -0.005325 -0.003857 -0.002290 -0.001166 0.005471
# 2 -0.005325 0.059658 0.007504 -0.014452 0.007189 -0.002369
# 3 -0.003857 0.007504 0.012425 -0.005536 0.004938 0.000042
# 4 -0.002290 -0.014452 -0.005536 0.048946 0.004987 -0.009979
# 5 -0.001166 0.007189 0.004938 0.004987 0.023118 -0.006857
# 6 0.005471 -0.002369 0.000042 -0.009979 -0.006857 0.031853
#
#
# Mechanical properties :
#
#
# Convention : Reuss Voigt Hill
#
# Bulk Modulus (GPa) = 12.69962 42.35462 27.52712
# Shear Modulus (GPa) = 23.18925 38.84752 31.01839
#
# Velocity S-wave (km/s) = 3.28863 4.25650 3.80348
# Velocity P-wave (km/s) = 4.51032 6.62650 5.66804
#
# Compressibility (1/GPa) = 0.07874253
#
# Stress axis : x y z
#
# Youngs Moduli (GPa) = 99.85780 16.76214 80.48234
#
# Poissons Ratio (x) = 0.08925 0.31042
# Poissons Ratio (y) = 0.53170 -0.60394
# Poissons Ratio (z) = 0.38516 -0.12578
#
# Static dielectric constant tensor:
#      x y z
#    x 1.771730 0.031710 0.024190 
#    y 0.031710 1.761310 -0.010580 
#    z 0.024190 -0.010580 1.854610 
# 
# From -- ./inp_files/184257.got.cif
#   From: 2010.05.17/outbox.ucp.g08.bks.cvg/sg2_93_cif.got.tgz:184257.got - 2010.06.11 11:32:03.
