data_PCOD9073929
_publ_section_title
;
Structure prediction by ZEFSAII (Michael W. Deem and Ramdas Pophale) SiO2 
 PCOD9073929
Probable space group: P -1
;
_chemical_formula_sum "Si O2"
_cell_formula_units_Z 16
_cell_length_a 21.576515
_cell_length_b 11.587987
_cell_length_c 16.119644
_cell_angle_alpha 150.831779
_cell_angle_beta 20.549755
_cell_angle_gamma 151.306749
_cell_volume 646.355682
_symmetry_space_group_name_H-M "P -1"
_symmetry_group_IT_number 2
_symmetry_cell_setting 'triclinic'
loop_
_space_group_symop_operation_xyz
x,y,z
-x,-y,-z
loop_
_atom_site_type_symbol
_atom_site_label
_atom_site_fract_x
_atom_site_fract_y
_atom_site_fract_z
Si Si1 0.937116 0.738359 0.221957
Si Si2 0.867622 0.392958 0.405020
Si Si3 0.528784 0.139231 0.222550
Si Si4 0.600959 0.332178 0.445233
Si Si5 0.172868 0.116909 0.293579
Si Si6 0.267815 0.424292 0.891024
Si Si7 0.168784 0.943862 0.915518
Si Si8 0.864938 0.090296 0.367697
O O1 0.745762 0.621046 0.437871
O O2 0.083759 0.976930 0.231821
O O3 0.000000 0.500000 0.000000
O O4 0.969895 0.782256 0.111042
O O5 0.784337 0.591845 0.595758
O O6 0.810773 0.164563 0.267207
O O7 0.818096 0.298515 0.500775
O O8 0.095933 0.506462 0.186897
O O9 0.565583 0.241238 0.336003
O O10 0.615853 0.371376 0.195683
O O11 0.302732 0.000850 0.410910
O O12 0.650595 0.958170 0.948209
O O13 0.416571 0.377643 0.738726
O O14 0.676811 0.133538 0.273082
O O15 0.000000 0.000000 0.500000
O O16 0.176229 0.142913 0.791880
O O17 0.092521 0.179727 0.154736
#
# Coordination Sequence:
#
# PCOD9073929 Si02
#       8
#     2   2   2   2   2   2   2   2
#     4  10  18  32  58  89 114 149 198 246 295 342
#     4  11  23  40  59  89 125 160 194 243 306 352
#     4  11  20  37  61  93 117 154 204 247 290 352
#     4  10  18  31  60  90 114 148 200 248 288 342
#     4  12  22  37  63  89 122 155 200 246 299 360
#     4  10  19  36  60  92 119 150 202 250 288 348
#     4  10  18  36  62  83 113 158 198 239 290 351
#     4  10  22  37  61  88 122 159 200 245 292 358
#
# _framework density 24.754170999999999
#
# number of rings (size 3 to 8) (size 9 to 14) (size 15 to 20)
#    0.000    1.500    3.750    6.750    1.750    0.500 
#    0.000    6.875    2.750    0.000    0.000    0.000 
#    0.000    0.000    0.000    0.000    0.000    0.000 
#
# Total GULP energy -89075.866940 kJ/mol
# GULP energy per Si atom -5567.241684 kJ/mol
# Density = 2.469783 g / cm^3
# Si number density = 24.754171 Si / 1000 Ang^3
#
#
#
# Elastic Constant Matrix: (Units=GPa)
#
#
# Indices 1 2 3 4 5 6 
#
# 1 65.6538 14.7503 11.8346 2.8097 -16.3143 -15.3202
# 2 14.7503 60.2063 29.1412 2.8868 3.9800 -21.6796
# 3 11.8346 29.1412 130.2280 4.2067 -38.8521 -9.7452
# 4 2.8097 2.8868 4.2067 33.7851 -7.1567 -6.1686
# 5 -16.3143 3.9800 -38.8521 -7.1567 44.0005 0.3587
# 6 -15.3202 -21.6796 -9.7452 -6.1686 0.3587 25.6881
#
#
#
# Elastic Compliance Matrix: (Units=1/GPa)
#
#
# Indices 1 2 3 4 5 6 
#
# 1 0.020592 -0.003248 0.002799 0.002505 0.010718 0.011053
# 2 -0.003248 0.029170 -0.008072 0.000038 -0.011126 0.019783
# 3 0.002799 -0.008072 0.013299 0.001747 0.013794 0.000129
# 4 0.002505 0.000038 0.001747 0.032609 0.007691 0.009912
# 5 0.010718 -0.011126 0.013794 0.007691 0.041110 0.003509
# 6 0.011053 0.019783 0.000129 0.009912 0.003509 0.064597
#
#
# Mechanical properties :
#
#
# Convention : Reuss Voigt Hill
#
# Bulk Modulus (GPa) = 21.73027 40.83782 31.28405
# Shear Modulus (GPa) = 21.38963 34.05221 27.72092
#
# Velocity S-wave (km/s) = 2.94272 3.71295 3.35004
# Velocity P-wave (km/s) = 4.51039 5.90885 5.25633
#
# Compressibility (1/GPa) = 0.04601876
#
# Stress axis : x y z
#
# Youngs Moduli (GPa) = 48.56257 34.28214 75.19128
#
# Poissons Ratio (x) = 0.11136 -0.21049
# Poissons Ratio (y) = 0.15775 0.60696
# Poissons Ratio (z) = -0.13595 0.27673
#
# Static dielectric constant tensor:
#      x y z
#    x 2.218740 -0.305390 -0.026080 
#    y -0.305390 2.692550 -0.081910 
#    z -0.026080 -0.081910 2.002450 
# 
# From -- ./inp_files/579255.got.cif
#   From: 2010.05.17/outbox.cif.g08.bks.cpg/sg2_290_cif.got.tgz:579255.got - 2010.06.03 11:33:40.
