data_PCOD9073705
_publ_section_title
;
Structure prediction by ZEFSAII (Michael W. Deem and Ramdas Pophale) SiO2 
 PCOD9073705
Probable space group: P -1
;
_chemical_formula_sum "Si O2"
_cell_formula_units_Z 16
_cell_length_a 9.000000
_cell_length_b 12.000000
_cell_length_c 15.000000
_cell_angle_alpha 130.000000
_cell_angle_beta 70.000000
_cell_angle_gamma 70.000000
_cell_volume 728.972637
_symmetry_space_group_name_H-M "P -1"
_symmetry_group_IT_number 2
_symmetry_cell_setting 'triclinic'
loop_
_space_group_symop_operation_xyz
x,y,z
-x,-y,-z
loop_
_atom_site_type_symbol
_atom_site_label
_atom_site_fract_x
_atom_site_fract_y
_atom_site_fract_z
Si Si1 0.408042 0.582731 0.402539
Si Si2 0.956028 0.635322 0.288482
Si Si3 0.951529 0.297215 0.123810
Si Si4 0.310397 0.517015 0.008929
Si Si5 0.238048 0.069130 0.133413
Si Si6 0.264535 0.886922 0.419352
Si Si7 0.040454 0.029118 0.808100
Si Si8 0.771373 0.605035 0.710105
O O1 0.707098 0.375651 0.236688
O O2 0.333457 0.729340 0.405380
O O3 0.302729 0.492964 0.374938
O O4 0.301328 0.763970 0.593886
O O5 0.186376 0.508217 0.107622
O O6 0.021619 0.586128 0.355709
O O7 0.885508 0.514109 0.223998
O O8 0.783711 0.905125 0.447689
O O9 0.119819 0.173976 0.113616
O O10 0.076423 0.113835 0.925672
O O11 0.094560 0.768368 0.132680
O O12 0.500000 0.500000 0.000000
O O13 0.494477 0.297686 0.791280
O O14 0.188885 0.268555 0.286219
O O15 0.128544 0.997119 0.159100
O O16 0.531156 0.823054 0.932864
O O17 0.000000 0.000000 0.500000
#
# Coordination Sequence:
#
# PCOD9073705 Si02
#       8
#     2   2   2   2   2   2   2   2
#     4  12  23  41  67  95 129 169 214 258 323 377
#     4  11  24  42  67  98 129 167 215 258 321 377
#     4  11  26  45  63  94 133 171 212 264 315 381
#     4  12  22  39  68  95 126 168 211 259 316 382
#     4  10  22  44  69  91 127 169 213 270 320 361
#     4  12  21  39  65  95 129 165 207 263 315 373
#     4  12  24  41  67  93 129 173 214 254 324 383
#     4  10  21  42  70  96 124 164 216 271 313 375
#
# _framework density 21.948698
#
# number of rings (size 3 to 8) (size 9 to 14) (size 15 to 20)
#    0.000    0.750    6.250    1.125    0.000    3.000 
#    0.000    0.000    0.000    0.000    0.000    0.000 
#    0.000    0.000    0.000    0.000    0.000    0.000 
#
# Total GULP energy -89258.860197 kJ/mol
# GULP energy per Si atom -5578.678762 kJ/mol
# Density = 2.189874 g / cm^3
# Si number density = 21.948698 Si / 1000 Ang^3
#
#
#
# Elastic Constant Matrix: (Units=GPa)
#
#
# Indices 1 2 3 4 5 6 
#
# 1 107.6855 16.6078 16.6659 3.7182 33.9131 23.2251
# 2 16.6078 52.2217 0.3272 18.1340 -1.5690 19.9664
# 3 16.6659 0.3272 87.9518 10.6412 43.5170 11.3030
# 4 3.7182 18.1340 10.6412 26.9981 12.1782 -1.1245
# 5 33.9131 -1.5690 43.5170 12.1782 38.0693 8.2020
# 6 23.2251 19.9664 11.3030 -1.1245 8.2020 44.0491
#
#
#
# Elastic Compliance Matrix: (Units=1/GPa)
#
#
# Indices 1 2 3 4 5 6 
#
# 1 0.024054 -0.018302 0.016999 0.024788 -0.049792 0.001156
# 2 -0.018302 0.056219 -0.017405 -0.057429 0.062146 -0.024405
# 3 0.016999 -0.017405 0.039014 0.025217 -0.069045 0.002416
# 4 0.024788 -0.057429 0.025217 0.105128 -0.092596 0.026416
# 5 -0.049792 0.062146 -0.069045 -0.092596 0.186310 -0.021255
# 6 0.001156 -0.024405 0.002416 0.026416 -0.021255 0.037167
#
#
# Mechanical properties :
#
#
# Convention : Reuss Voigt Hill
#
# Bulk Modulus (GPa) = 12.21446 35.00675 23.61060
# Shear Modulus (GPa) = 9.75420 36.10717 22.93068
#
# Velocity S-wave (km/s) = 2.11039 4.06035 3.23575
# Velocity P-wave (km/s) = 3.39343 6.16165 4.97400
#
# Compressibility (1/GPa) = 0.08187020
#
# Stress axis : x y z
#
# Youngs Moduli (GPa) = 41.57347 17.78755 25.63169
#
# Poissons Ratio (x) = 0.32554 -0.43570
# Poissons Ratio (y) = 0.76087 0.44613
# Poissons Ratio (z) = -0.70669 0.30960
#
# Static dielectric constant tensor:
#      x y z
#    x 1.795860 -0.026600 0.001400 
#    y -0.026600 1.823340 -0.047770 
#    z 0.001400 -0.047770 1.876120 
# 
# From -- ./inp_files/259013.got.cif
#   From: 2010.05.17/outbox.ucp.g08.bks.cvg/sg2_130_cif.got.tgz:259013.got - 2010.06.11 11:32:03.
