data_PCOD9073866
_publ_section_title
;
Structure prediction by ZEFSAII (Michael W. Deem and Ramdas Pophale) SiO2 
 PCOD9073866
Probable space group: P -1
;
_chemical_formula_sum "Si O2"
_cell_formula_units_Z 16
_cell_length_a 9.558155
_cell_length_b 10.929177
_cell_length_c 7.238802
_cell_angle_alpha 120.474597
_cell_angle_beta 93.692417
_cell_angle_gamma 112.671578
_cell_volume 568.345774
_symmetry_space_group_name_H-M "P -1"
_symmetry_group_IT_number 2
_symmetry_cell_setting 'triclinic'
loop_
_space_group_symop_operation_xyz
x,y,z
-x,-y,-z
loop_
_atom_site_type_symbol
_atom_site_label
_atom_site_fract_x
_atom_site_fract_y
_atom_site_fract_z
Si Si1 0.319349 0.570431 0.680371
Si Si2 0.465921 0.554946 0.237859
Si Si3 0.118786 0.982776 0.225263
Si Si4 0.995850 0.370229 0.636896
Si Si5 0.526313 0.183516 0.803444
Si Si6 0.104741 0.373245 0.047681
Si Si7 0.174018 0.983246 0.671413
Si Si8 0.538936 0.902978 0.767287
O O1 0.406251 0.462387 0.636761
O O2 0.129759 0.456119 0.557982
O O3 0.413340 0.713942 0.652776
O O4 0.341185 0.673812 0.950127
O O5 0.477017 0.727458 0.317335
O O6 0.500000 0.500000 0.000000
O O7 0.282750 0.425451 0.169584
O O8 0.283721 0.079058 0.204987
O O9 0.971471 0.019583 0.230905
O O10 0.156426 0.002339 0.464207
O O11 0.037530 0.794190 0.019265
O O12 0.089867 0.345669 0.801860
O O13 0.850066 0.196021 0.439948
O O14 0.928343 0.481781 0.794853
O O15 0.351635 0.123258 0.833349
O O16 0.552954 0.028144 0.699189
O O17 0.500000 0.000000 0.000000
#
# Coordination Sequence:
#
# PCOD9073866 Si02
#       8
#     2   2   2   2   2   2   2   2
#     4  10  20  38  61  84 120 164 203 248 302 371
#     4  10  18  31  58  89 116 148 208 261 291 343
#     4  10  21  38  62  92 124 164 203 252 317 365
#     4  10  20  35  58  88 120 160 202 250 308 359
#     4  10  20  37  60  92 121 157 206 258 305 356
#     4  10  18  33  59  90 117 155 209 259 294 353
#     4  10  23  37  61  94 129 154 200 267 314 359
#     4  10  22  40  61  88 123 167 207 249 301 375
#
# _framework density 28.151878
#
# number of rings (size 3 to 8) (size 9 to 14) (size 15 to 20)
#    0.000    2.000    2.500    3.000    7.000    0.500 
#    0.000    8.125    0.000    0.000    0.000    0.000 
#    0.000    0.000    0.000    0.000    0.000    0.000 
#
# Total GULP energy -89681.682739 kJ/mol
# GULP energy per Si atom -5605.105171 kJ/mol
# Density = 2.808780 g / cm^3
# Si number density = 28.151878 Si / 1000 Ang^3
#
#
#
# Elastic Constant Matrix: (Units=GPa)
#
#
# Indices 1 2 3 4 5 6 
#
# 1 132.0990 27.1354 -0.5678 -8.4126 0.1678 11.2218
# 2 27.1354 139.0847 23.8225 1.5850 3.9073 7.6801
# 3 -0.5678 23.8225 52.9405 13.5095 -1.9231 -9.8913
# 4 -8.4126 1.5850 13.5095 52.5218 -0.2902 -6.9892
# 5 0.1678 3.9073 -1.9231 -0.2902 44.4161 11.7191
# 6 11.2218 7.6801 -9.8913 -6.9892 11.7191 64.1771
#
#
#
# Elastic Compliance Matrix: (Units=1/GPa)
#
#
# Indices 1 2 3 4 5 6 
#
# 1 0.008064 -0.001591 0.000325 0.001109 0.000428 -0.001127
# 2 -0.001591 0.008278 -0.004084 0.000384 -0.000582 -0.001194
# 3 0.000325 -0.004084 0.022692 -0.005223 0.000441 0.003280
# 4 0.001109 0.000384 -0.005223 0.020719 -0.000471 0.001298
# 5 0.000428 -0.000582 0.000441 -0.000471 0.023720 -0.004320
# 6 -0.001127 -0.001194 0.003280 0.001298 -0.004320 0.017358
#
#
# Mechanical properties :
#
#
# Convention : Reuss Voigt Hill
#
# Bulk Modulus (GPa) = 35.29527 47.21161 41.25344
# Shear Modulus (GPa) = 41.33058 50.47195 45.90127
#
# Velocity S-wave (km/s) = 3.83577 4.23879 4.04231
# Velocity P-wave (km/s) = 5.67294 6.38461 6.03926
#
# Compressibility (1/GPa) = 0.02833241
#
# Stress axis : x y z
#
# Youngs Moduli (GPa) = 124.00538 120.80591 44.06849
#
# Poissons Ratio (x) = 0.19225 -0.01431
# Poissons Ratio (y) = 0.19734 0.17998
# Poissons Ratio (z) = -0.04026 0.49338
#
# Static dielectric constant tensor:
#      x y z
#    x 2.124640 -0.097360 0.009010 
#    y -0.097360 2.227200 -0.110210 
#    z 0.009010 -0.110210 2.260360 
# 
# From -- ./inp_files/393090.got.cif
#   From: 2010.05.17/outbox.cif.g08.bks.cpg/sg2_197_cif.got.tgz:393090.got - 2010.06.03 11:33:40.
