data_PCOD9073498
_publ_section_title
;
Structure prediction by ZEFSAII (Michael W. Deem and Ramdas Pophale) SiO2 
 PCOD9073498
Probable space group: P -1
;
_chemical_formula_sum "Si O2"
_cell_formula_units_Z 14
_cell_length_a 9.000000
_cell_length_b 15.000000
_cell_length_c 12.000000
_cell_angle_alpha 50.000000
_cell_angle_beta 120.000000
_cell_angle_gamma 150.000000
_cell_volume 613.666794
_symmetry_space_group_name_H-M "P -1"
_symmetry_group_IT_number 2
_symmetry_cell_setting 'triclinic'
loop_
_space_group_symop_operation_xyz
x,y,z
-x,-y,-z
loop_
_atom_site_type_symbol
_atom_site_label
_atom_site_fract_x
_atom_site_fract_y
_atom_site_fract_z
Si Si1 0.823893 0.645754 0.344577
Si Si2 0.800240 0.216208 0.079133
Si Si3 0.683904 0.800173 0.256553
Si Si4 0.060967 0.445889 0.204680
Si Si5 0.661267 0.813716 0.485164
Si Si6 0.125278 0.864342 0.053780
Si Si7 0.326377 0.793967 0.546347
O O1 0.863114 0.780337 0.330111
O O2 0.508366 0.403810 0.413679
O O3 0.901534 0.723506 0.184679
O O4 0.059569 0.687312 0.451323
O O5 0.944067 0.285776 0.200081
O O6 0.446268 0.992869 0.114643
O O7 0.828665 0.371166 0.952041
O O8 0.949966 0.240054 0.008109
O O9 0.356111 0.572759 0.279765
O O10 0.660574 0.851082 0.325267
O O11 0.821413 0.971086 0.087240
O O12 0.812129 0.340327 0.287038
O O13 0.506016 0.807256 0.524332
O O14 0.000000 0.000000 0.500000
O O15 0.500000 0.000000 0.500000
#
# Coordination Sequence:
#
# PCOD9073498 Si02
#       7
#     2   2   2   2   2   2   2
#     4  12  25  46  69 101 142 179 228 287 340 404
#     4   9  20  38  67  99 135 176 229 283 329 416
#     4  11  25  43  69  99 140 180 227 283 346 407
#     4  10  21  40  64 100 137 182 226 274 348 398
#     4  12  28  46  69 102 138 182 229 283 348 408
#     4  10  22  40  69  99 135 178 232 275 346 398
#     4  12  26  41  73 101 137 176 234 281 343 413
#
# _framework density 22.813683000000001
#
# number of rings (size 3 to 8) (size 9 to 14) (size 15 to 20)
#    0.000    1.143    1.429    3.857   10.000    0.000 
#    0.000    5.714    0.000    0.000    0.000    0.000 
#    0.000    0.000    0.000    0.000    0.000    0.000 
#
# Total GULP energy -78162.245789 kJ/mol
# GULP energy per Si atom -5583.017556 kJ/mol
# Density = 2.276176 g / cm^3
# Si number density = 22.813683 Si / 1000 Ang^3
#
#
#
# Elastic Constant Matrix: (Units=GPa)
#
#
# Indices 1 2 3 4 5 6 
#
# 1 77.4821 29.5149 -1.3901 19.1934 -1.2979 -20.0164
# 2 29.5149 116.4637 31.3171 18.1205 -1.2116 -18.7550
# 3 -1.3901 31.3171 71.1476 -4.0897 -21.8820 0.3962
# 4 19.1934 18.1205 -4.0897 29.3769 -10.6275 -9.3699
# 5 -1.2979 -1.2116 -21.8820 -10.6275 33.9234 5.5444
# 6 -20.0164 -18.7550 0.3962 -9.3699 5.5444 34.5043
#
#
#
# Elastic Compliance Matrix: (Units=1/GPa)
#
#
# Indices 1 2 3 4 5 6 
#
# 1 0.017815 -0.001560 -0.000904 -0.009975 -0.004305 0.007480
# 2 -0.001560 0.014293 -0.010270 -0.011276 -0.010626 0.005628
# 3 -0.000904 -0.010270 0.026689 0.017268 0.023113 -0.005438
# 4 -0.009975 -0.011276 0.017268 0.060396 0.029345 -0.000428
# 5 -0.004305 -0.010626 0.023113 0.029345 0.054562 -0.009337
# 6 0.007480 0.005628 -0.005438 -0.000428 -0.009337 0.037827
#
#
# Mechanical properties :
#
#
# Convention : Reuss Voigt Hill
#
# Bulk Modulus (GPa) = 30.00248 42.66412 36.33330
# Shear Modulus (GPa) = 20.14818 33.27101 26.70959
#
# Velocity S-wave (km/s) = 2.97503 3.82302 3.42536
# Velocity P-wave (km/s) = 4.99807 6.18296 5.62182
#
# Compressibility (1/GPa) = 0.03333057
#
# Stress axis : x y z
#
# Youngs Moduli (GPa) = 56.13105 69.96272 37.46804
#
# Poissons Ratio (x) = 0.10913 0.03389
# Poissons Ratio (y) = 0.08756 0.38478
# Poissons Ratio (z) = 0.05076 0.71849
#
# Static dielectric constant tensor:
#      x y z
#    x 1.862070 0.064410 0.010610 
#    y 0.064410 1.854080 0.016730 
#    z 0.010610 0.016730 1.906020 
# 
# From -- ./inp_files/189433.got.cif
#   From: 2010.05.17/outbox.ucp.g08.bks.cvg/sg2_95_cif.got.tgz:189433.got - 2010.06.11 11:32:03.
