data_PCOD9073196
_publ_section_title
;
Structure prediction by ZEFSAII (Michael W. Deem and Ramdas Pophale) SiO2 
 PCOD9073196
Probable space group: P -1
;
_chemical_formula_sum "Si O2"
_cell_formula_units_Z 16
_cell_length_a 24.000000
_cell_length_b 18.000000
_cell_length_c 15.000000
_cell_angle_alpha 150.000000
_cell_angle_beta 20.000000
_cell_angle_gamma 160.000000
_cell_volume 749.971719
_symmetry_space_group_name_H-M "P -1"
_symmetry_group_IT_number 2
_symmetry_cell_setting 'triclinic'
loop_
_space_group_symop_operation_xyz
x,y,z
-x,-y,-z
loop_
_atom_site_type_symbol
_atom_site_label
_atom_site_fract_x
_atom_site_fract_y
_atom_site_fract_z
Si Si1 0.999027 0.035910 0.895569
Si Si2 0.707155 0.721660 0.863567
Si Si3 0.065444 0.405357 0.114475
Si Si4 0.648628 0.880407 0.410857
Si Si5 0.088797 0.672325 0.920161
Si Si6 0.738017 0.289557 0.717187
Si Si7 0.850157 0.592903 0.366001
Si Si8 0.468402 0.849775 0.288937
O O1 0.184933 0.083157 0.728931
O O2 0.942215 0.895543 0.751322
O O3 0.087627 0.258484 0.969819
O O4 0.753049 0.896802 0.176074
O O5 0.772333 0.680385 0.632098
O O6 0.500000 0.500000 0.000000
O O7 0.611095 0.824011 0.102406
O O8 0.083132 0.402453 0.979885
O O9 0.794280 0.284977 0.418832
O O10 0.252289 0.638160 0.124355
O O11 0.381881 0.641628 0.572331
O O12 0.682999 0.078902 0.576581
O O13 0.056831 0.476726 0.782622
O O14 0.361016 0.893333 0.711363
O O15 0.034347 0.730635 0.150954
O O16 0.565141 0.244079 0.856336
O O17 0.000000 0.500000 0.500000
#
# Coordination Sequence:
#
# PCOD9073196 Si02
#       8
#     2   2   2   2   2   2   2   2
#     4  11  23  37  62  93 127 157 201 257 315 361
#     4  12  25  37  64  97 121 160 203 260 315 364
#     4  11  22  39  64  95 121 162 212 253 303 370
#     4  11  22  40  59  91 133 156 199 259 313 364
#     4  11  23  44  65  86 123 172 207 257 303 370
#     4  10  21  35  61  91 121 157 201 252 307 359
#     4  11  25  43  63  89 128 165 207 252 318 364
#     4  11  22  39  66  91 126 157 210 262 302 359
#
# _framework density 21.334137999999999
#
# number of rings (size 3 to 8) (size 9 to 14) (size 15 to 20)
#    0.000    1.000    6.250    1.125    7.000    0.500 
#    0.000    2.500    0.000    0.000    0.000    0.000 
#    0.000    0.000    0.000    0.000    0.000    0.000 
#
# Total GULP energy -89279.799552 kJ/mol
# GULP energy per Si atom -5579.987472 kJ/mol
# Density = 2.128558 g / cm^3
# Si number density = 21.334138 Si / 1000 Ang^3
#
#
#
# Elastic Constant Matrix: (Units=GPa)
#
#
# Indices 1 2 3 4 5 6 
#
# 1 101.3955 28.6571 17.0416 11.1582 -5.5656 6.0665
# 2 28.6571 63.2454 16.0697 8.6033 7.3372 21.1563
# 3 17.0416 16.0697 39.2009 16.0652 1.7152 -7.0797
# 4 11.1582 8.6033 16.0652 20.0541 6.7173 3.3315
# 5 -5.5656 7.3372 1.7152 6.7173 14.1434 2.6421
# 6 6.0665 21.1563 -7.0797 3.3315 2.6421 25.2456
#
#
#
# Elastic Compliance Matrix: (Units=1/GPa)
#
#
# Indices 1 2 3 4 5 6 
#
# 1 0.013536 -0.008206 0.002192 -0.011094 0.013791 0.004259
# 2 -0.008206 0.040327 -0.030355 0.027003 -0.025592 -0.041220
# 3 0.002192 -0.030355 0.070297 -0.062295 0.028353 0.049878
# 4 -0.011094 0.027003 -0.062295 0.122342 -0.060090 -0.047288
# 5 0.013791 -0.025592 0.028353 -0.060090 0.110311 0.022469
# 6 0.004259 -0.041220 0.049878 -0.047288 0.022469 0.091007
#
#
# Mechanical properties :
#
#
# Convention : Reuss Voigt Hill
#
# Bulk Modulus (GPa) = 19.44673 36.37539 27.91106
# Shear Modulus (GPa) = 9.29889 21.36017 15.32953
#
# Velocity S-wave (km/s) = 2.09001 3.16764 2.68348
# Velocity P-wave (km/s) = 3.86773 5.51959 4.76577
#
# Compressibility (1/GPa) = 0.05142252
#
# Stress axis : x y z
#
# Youngs Moduli (GPa) = 73.87580 24.79748 14.22528
#
# Poissons Ratio (x) = 0.20348 -0.03118
# Poissons Ratio (y) = 0.60621 0.43180
# Poissons Ratio (z) = -0.16190 0.75272
#
# Static dielectric constant tensor:
#      x y z
#    x 1.853730 0.025420 0.006670 
#    y 0.025420 1.775990 -0.029560 
#    z 0.006670 -0.029560 1.746190 
# 
# From -- ./inp_files/245125.got.cif
#   From: 2010.05.17/outbox.ucp.g08.bks.cvg/sg2_123_cif.got.tgz:245125.got - 2010.06.11 11:32:03.
