data_PCOD9073749
_publ_section_title
;
Structure prediction by ZEFSAII (Michael W. Deem and Ramdas Pophale) SiO2 
 PCOD9073749
Probable space group: P -1
;
_chemical_formula_sum "Si O2"
_cell_formula_units_Z 16
_cell_length_a 15.000000
_cell_length_b 9.000000
_cell_length_c 12.000000
_cell_angle_alpha 100.000000
_cell_angle_beta 70.000000
_cell_angle_gamma 150.000000
_cell_volume 734.803614
_symmetry_space_group_name_H-M "P -1"
_symmetry_group_IT_number 2
_symmetry_cell_setting 'triclinic'
loop_
_space_group_symop_operation_xyz
x,y,z
-x,-y,-z
loop_
_atom_site_type_symbol
_atom_site_label
_atom_site_fract_x
_atom_site_fract_y
_atom_site_fract_z
Si Si1 0.170917 0.703016 0.536702
Si Si2 0.660974 0.344453 0.936522
Si Si3 0.540655 0.403490 0.177627
Si Si4 0.554317 0.410294 0.419742
Si Si5 0.405152 0.212925 0.892212
Si Si6 0.085420 0.242831 0.578861
Si Si7 0.184308 0.948613 0.173490
Si Si8 0.960931 0.346645 0.182448
O O1 0.155297 0.502074 0.536517
O O2 0.000000 0.500000 0.500000
O O3 0.127595 0.740267 0.670542
O O4 0.374226 0.046748 0.452127
O O5 0.554980 0.286440 0.870591
O O6 0.867994 0.543824 0.868113
O O7 0.665588 0.481088 0.047483
O O8 0.500000 0.000000 0.000000
O O9 0.625965 0.518337 0.276812
O O10 0.497717 0.517966 0.182005
O O11 0.318090 0.040915 0.217000
O O12 0.500000 0.500000 0.500000
O O13 0.725426 0.576203 0.435752
O O14 0.216320 0.922759 0.860544
O O15 0.318541 0.161935 0.036902
O O16 0.934642 0.084289 0.720293
O O17 0.000000 0.000000 0.500000
O O18 0.045636 0.625422 0.146178
#
# Coordination Sequence:
#
# PCOD9073749 Si02
#       8
#     2   2   2   2   2   2   2   2
#     4  11  25  48  70 102 136 179 236 290 347 416
#     4  11  23  41  71 102 134 182 222 274 357 408
#     4  11  24  45  66  96 143 176 222 286 336 408
#     4  12  25  47  69  98 140 183 235 288 345 412
#     4  11  24  43  66 103 143 173 225 283 345 412
#     4  11  25  45  72 102 134 183 229 288 354 415
#     4  10  21  43  67  98 138 172 219 281 344 410
#     4  11  23  43  71 101 136 175 226 285 342 416
#
# _framework density 21.774525000000001
#
# number of rings (size 3 to 8) (size 9 to 14) (size 15 to 20)
#    0.000    1.000    2.500    6.000    1.750    1.500 
#   15.750    0.000    0.000    0.000    0.000    0.000 
#    0.000    0.000    0.000    0.000    0.000    0.000 
#
# Total GULP energy -89208.229727 kJ/mol
# GULP energy per Si atom -5575.514358 kJ/mol
# Density = 2.172497 g / cm^3
# Si number density = 21.774525 Si / 1000 Ang^3
#
#
#
# Elastic Constant Matrix: (Units=GPa)
#
#
# Indices 1 2 3 4 5 6 
#
# 1 184.9145 59.2803 61.7577 29.2906 -13.1914 18.6750
# 2 59.2803 104.8749 33.7065 34.7666 5.4036 22.6786
# 3 61.7577 33.7065 64.5365 20.7429 -4.7533 8.0674
# 4 29.2906 34.7666 20.7429 29.1421 -0.5428 6.6983
# 5 -13.1914 5.4036 -4.7533 -0.5428 41.8955 3.2769
# 6 18.6750 22.6786 8.0674 6.6983 3.2769 38.5831
#
#
#
# Elastic Compliance Matrix: (Units=1/GPa)
#
#
# Indices 1 2 3 4 5 6 
#
# 1 0.008834 -0.002341 -0.006520 -0.001039 0.002452 -0.001564
# 2 -0.002341 0.018582 -0.001273 -0.017535 -0.003019 -0.006222
# 3 -0.006520 -0.001273 0.025742 -0.010287 0.000880 0.000233
# 4 -0.001039 -0.017535 -0.010287 0.063198 0.001440 0.001867
# 5 0.002452 -0.003019 0.000880 0.001440 0.025305 -0.001996
# 6 -0.001564 -0.006222 0.000233 0.001867 -0.001996 0.030129
#
#
# Mechanical properties :
#
#
# Convention : Reuss Voigt Hill
#
# Bulk Modulus (GPa) = 30.40657 73.75721 52.08189
# Shear Modulus (GPa) = 24.62797 35.22957 29.92877
#
# Velocity S-wave (km/s) = 3.36675 4.02671 3.71143
# Velocity P-wave (km/s) = 5.39518 7.45425 6.50668
#
# Compressibility (1/GPa) = 0.03288763
#
# Stress axis : x y z
#
# Youngs Moduli (GPa) = 113.20360 53.81684 38.84737
#
# Poissons Ratio (x) = 0.12599 0.25330
# Poissons Ratio (y) = 0.26503 0.04946
# Poissons Ratio (z) = 0.73812 0.06852
#
# Static dielectric constant tensor:
#      x y z
#    x 1.778150 0.031810 0.082940 
#    y 0.031810 2.086670 -0.051160 
#    z 0.082940 -0.051160 1.865930 
# 
# From -- ./inp_files/271387.got.cif
#   From: 2010.05.17/outbox.ucp.g08.bks.cvg/sg2_136_cif.got.tgz:271387.got - 2010.06.11 11:32:03.
