data_PCOD9073950
_publ_section_title
;
Structure prediction by ZEFSAII (Michael W. Deem and Ramdas Pophale) SiO2 
 PCOD9073950
Probable space group: P -1
;
_chemical_formula_sum "Si O2"
_cell_formula_units_Z 14
_cell_length_a 15.000000
_cell_length_b 30.000000
_cell_length_c 24.000000
_cell_angle_alpha 10.000000
_cell_angle_beta 160.000000
_cell_angle_gamma 160.000000
_cell_volume 622.618477
_symmetry_space_group_name_H-M "P -1"
_symmetry_group_IT_number 2
_symmetry_cell_setting 'triclinic'
loop_
_space_group_symop_operation_xyz
x,y,z
-x,-y,-z
loop_
_atom_site_type_symbol
_atom_site_label
_atom_site_fract_x
_atom_site_fract_y
_atom_site_fract_z
Si Si1 0.261717 0.116345 0.145611
Si Si2 0.794362 0.569457 0.432225
Si Si3 0.315680 0.779075 0.302896
Si Si4 0.444074 0.300255 0.660703
Si Si5 0.146030 0.702354 0.687309
Si Si6 0.315769 0.909142 0.311511
Si Si7 0.250241 0.172784 0.402070
O O1 0.578404 0.257668 0.164867
O O2 0.201587 0.912305 0.412431
O O3 0.265028 0.974371 0.264257
O O4 0.995582 0.234734 0.846206
O O5 0.662672 0.457972 0.433687
O O6 0.664833 0.399711 0.618873
O O7 0.113741 0.617773 0.547426
O O8 0.755766 0.867380 0.045701
O O9 0.503544 0.786190 0.458514
O O10 0.416787 0.024921 0.016537
O O11 0.500000 0.500000 0.500000
O O12 0.149859 0.293393 0.469329
O O13 0.134015 0.411190 0.017456
O O14 0.620297 0.926816 0.453071
O O15 0.000000 0.000000 0.500000
#
# Coordination Sequence:
#
# PCOD9073950 Si02
#       7
#     2   2   2   2   2   2   2
#     4  10  22  42  64  91 121 161 206 253 307 359
#     4  11  22  38  63  95 121 160 210 249 302 365
#     4  11  23  41  66  90 124 165 204 252 306 365
#     4  11  22  42  66  91 126 164 203 252 305 363
#     4  10  22  40  63  89 125 160 200 255 305 359
#     4  11  23  38  62  90 124 162 204 254 304 363
#     4  12  25  41  61  91 124 161 204 253 308 364
#
# _framework density 22.485679999999999
#
# number of rings (size 3 to 8) (size 9 to 14) (size 15 to 20)
#    0.000    1.143    0.000    8.143    0.000    3.429 
#    0.000    8.571    0.000    0.000    0.000    0.000 
#    0.000    0.000    0.000    0.000    0.000    0.000 
#
# Total GULP energy -77982.932719 kJ/mol
# GULP energy per Si atom -5570.209480 kJ/mol
# Density = 2.243450 g / cm^3
# Si number density = 22.485680 Si / 1000 Ang^3
#
#
#
# Elastic Constant Matrix: (Units=GPa)
#
#
# Indices 1 2 3 4 5 6 
#
# 1 82.4052 36.9600 -25.2147 2.6431 19.2387 5.0090
# 2 36.9600 100.5787 28.4968 9.6270 -0.0664 23.2399
# 3 -25.2147 28.4968 48.7957 18.6065 7.5801 -2.5454
# 4 2.6431 9.6270 18.6065 25.3179 -6.7543 -0.3986
# 5 19.2387 -0.0664 7.5801 -6.7543 13.3060 3.9248
# 6 5.0090 23.2399 -2.5454 -0.3986 3.9248 38.9605
#
#
#
# Elastic Compliance Matrix: (Units=1/GPa)
#
#
# Indices 1 2 3 4 5 6 
#
# 1 -0.004950 0.007436 -0.020194 0.020852 0.031671 -0.008096
# 2 0.007436 0.006095 0.011218 -0.018290 -0.025975 -0.001430
# 3 -0.020194 0.011218 -0.012076 0.019619 0.048928 -0.009612
# 4 0.020852 -0.018290 0.019619 0.020791 -0.034764 0.013226
# 5 0.031671 -0.025975 0.048928 -0.034764 -0.021123 0.016391
# 6 -0.008096 -0.001430 -0.009612 0.013226 0.016391 0.025417
#
#
# Mechanical properties :
#
#
# Convention : Reuss Voigt Hill
#
# Bulk Modulus (GPa) = -71.37294 34.69596 -18.33849
# Shear Modulus (GPa) = 397.93781 28.28605 213.11193
#
# Velocity S-wave (km/s) = 13.31759 3.55062 9.74590
# Velocity P-wave (km/s) = 14.30619 5.68093 10.88439
#
# Compressibility (1/GPa) = -0.01401091
#
# Stress axis : x y z
#
# Youngs Moduli (GPa) = -202.01673 164.05937 -82.81056
#
# Poissons Ratio (x) = -1.21999 -1.67229
# Poissons Ratio (y) = 1.50225 0.92894
# Poissons Ratio (z) = -4.07956 -1.84036
#
# Static dielectric constant tensor:
#      x y z
#    x 1.729350 -0.052760 0.007070 
#    y -0.052760 1.995720 -0.154050 
#    z 0.007070 -0.154050 1.908170 
# 
# From -- ./inp_files/174911.got.cif
#   From: 2010.05.17/outbox.ucp.g08.bks.cvg/sg2_88_cif.got.tgz:174911.got - 2010.06.11 11:32:03.
