data_PCOD9073965
_publ_section_title
;
Structure prediction by ZEFSAII (Michael W. Deem and Ramdas Pophale) SiO2 
 PCOD9073965
Probable space group: P -1
;
_chemical_formula_sum "Si O2"
_cell_formula_units_Z 14
_cell_length_a 12.000000
_cell_length_b 21.000000
_cell_length_c 15.000000
_cell_angle_alpha 160.000000
_cell_angle_beta 150.000000
_cell_angle_gamma 30.000000
_cell_volume 615.533390
_symmetry_space_group_name_H-M "P -1"
_symmetry_group_IT_number 2
_symmetry_cell_setting 'triclinic'
loop_
_space_group_symop_operation_xyz
x,y,z
-x,-y,-z
loop_
_atom_site_type_symbol
_atom_site_label
_atom_site_fract_x
_atom_site_fract_y
_atom_site_fract_z
Si Si1 0.204542 0.583003 0.159298
Si Si2 0.444289 0.180678 0.777636
Si Si3 0.020289 0.064234 0.406390
Si Si4 0.719359 0.774117 0.470660
Si Si5 0.576213 0.170656 0.140906
Si Si6 0.173770 0.530061 0.379015
Si Si7 0.602769 0.167044 0.512194
O O1 0.352489 0.692241 0.346970
O O2 0.084666 0.729884 0.346331
O O3 0.380213 0.380136 0.049871
O O4 0.998979 0.528483 0.890130
O O5 0.227633 0.091645 0.524251
O O6 0.421911 0.247697 0.746821
O O7 0.671328 0.010276 0.742057
O O8 0.798911 0.027915 0.159010
O O9 0.150842 0.906028 0.360806
O O10 0.594277 0.735753 0.422783
O O11 0.984801 0.639466 0.466598
O O12 0.378348 0.326188 0.267175
O O13 0.701604 0.311138 0.359914
O O14 0.455872 0.028174 0.819030
#
# Coordination Sequence:
#
# PCOD9073965 Si02
#       7
#     2   2   2   2   2   2   2
#     4  11  21  40  65  97 128 164 213 256 323 371
#     4   9  19  35  67  98 114 171 220 252 308 380
#     4  11  21  40  67  91 130 166 209 265 306 375
#     4   9  19  40  64  93 127 164 211 262 311 373
#     4  11  23  40  64  99 126 161 219 258 312 372
#     4  10  22  40  65  96 125 163 218 262 305 378
#     4  11  25  40  66  96 130 169 202 260 327 377
#
# _framework density 22.744501
#
# number of rings (size 3 to 8) (size 9 to 14) (size 15 to 20)
#    0.000    1.714    4.286    0.857    0.000    4.571 
#    0.000    0.000    0.000    1.714    0.000    0.000 
#    0.000    0.000    0.000    0.000    0.000    0.000 
#
# Total GULP energy -78174.496791 kJ/mol
# GULP energy per Si atom -5583.892628 kJ/mol
# Density = 2.269273 g / cm^3
# Si number density = 22.744501 Si / 1000 Ang^3
#
#
#
# Elastic Constant Matrix: (Units=GPa)
#
#
# Indices 1 2 3 4 5 6 
#
# 1 115.2183 37.5950 29.3689 9.3157 2.8683 -29.5741
# 2 37.5950 89.4749 1.2975 -7.3454 -2.6241 -31.1362
# 3 29.3689 1.2975 35.5632 -7.7120 18.3010 -2.2758
# 4 9.3157 -7.3454 -7.7120 26.2290 -4.2540 -10.5350
# 5 2.8683 -2.6241 18.3010 -4.2540 23.9428 9.4558
# 6 -29.5741 -31.1362 -2.2758 -10.5350 9.4558 37.2447
#
#
#
# Elastic Compliance Matrix: (Units=1/GPa)
#
#
# Indices 1 2 3 4 5 6 
#
# 1 0.018620 -0.009333 -0.026621 -0.015761 0.015493 -0.003036
# 2 -0.009333 0.026673 0.026433 0.026834 -0.023240 0.029993
# 3 -0.026621 0.026433 0.105450 0.051763 -0.082275 0.042932
# 4 -0.015761 0.026834 0.051763 0.078281 -0.038610 0.045027
# 5 0.015493 -0.023240 -0.082275 -0.038610 0.113928 -0.051999
# 6 -0.003036 0.029993 0.042932 0.045027 -0.051999 0.078074
#
#
# Mechanical properties :
#
#
# Convention : Reuss Voigt Hill
#
# Bulk Modulus (GPa) = 7.59302 41.86437 24.72870
# Shear Modulus (GPa) = 10.33123 28.94961 19.64042
#
# Velocity S-wave (km/s) = 2.13358 3.57153 2.94177
# Velocity P-wave (km/s) = 3.06842 5.95433 4.73652
#
# Compressibility (1/GPa) = 0.13169985
#
# Stress axis : x y z
#
# Youngs Moduli (GPa) = 53.70687 37.49050 9.48314
#
# Poissons Ratio (x) = 0.34992 0.25245
# Poissons Ratio (y) = 0.50127 -0.25067
# Poissons Ratio (z) = 1.42973 -0.99098
#
# Static dielectric constant tensor:
#      x y z
#    x 1.882320 0.008110 -0.073230 
#    y 0.008110 1.899990 0.008800 
#    z -0.073230 0.008800 1.862850 
# 
# From -- ./inp_files/524160.got.cif
#   From: 2010.05.17/outbox.ucp.g08.bks.cvg/sg2_263_cif.got.tgz:524160.got - 2010.06.11 11:32:03.
