data_PCOD9073687
_publ_section_title
;
Structure prediction by ZEFSAII (Michael W. Deem and Ramdas Pophale) SiO2 
 PCOD9073687
Probable space group: P -1
;
_chemical_formula_sum "Si O2"
_cell_formula_units_Z 14
_cell_length_a 15.000000
_cell_length_b 15.000000
_cell_length_c 9.000000
_cell_angle_alpha 40.000000
_cell_angle_beta 40.000000
_cell_angle_gamma 30.000000
_cell_volume 616.747849
_symmetry_space_group_name_H-M "P -1"
_symmetry_group_IT_number 2
_symmetry_cell_setting 'triclinic'
loop_
_space_group_symop_operation_xyz
x,y,z
-x,-y,-z
loop_
_atom_site_type_symbol
_atom_site_label
_atom_site_fract_x
_atom_site_fract_y
_atom_site_fract_z
Si Si1 0.149032 0.663158 0.516052
Si Si2 0.998055 0.046906 0.114234
Si Si3 0.237055 0.143040 0.086107
Si Si4 0.695938 0.428852 0.887618
Si Si5 0.739899 0.630091 0.784516
Si Si6 0.439817 0.273083 0.794684
Si Si7 0.837464 0.779109 0.251161
O O1 0.175748 0.623552 0.354345
O O2 0.342231 0.471739 0.585135
O O3 0.976533 0.711667 0.765141
O O4 0.076694 0.871470 0.340797
O O5 0.794438 0.260932 0.098127
O O6 0.134982 0.079931 0.929517
O O7 0.000000 0.000000 0.000000
O O8 0.343994 0.922658 0.256906
O O9 0.332670 0.206819 0.963709
O O10 0.259906 0.162930 0.857572
O O11 0.655107 0.600205 0.797445
O O12 0.500000 0.500000 0.000000
O O13 0.749927 0.775307 0.517152
O O14 0.957220 0.430987 0.772451
O O15 0.617951 0.680744 0.018630
#
# Coordination Sequence:
#
# PCOD9073687 Si02
#       7
#     2   2   2   2   2   2   2
#     4  11  23  44  70  90 142 178 213 279 339 396
#     4   9  22  40  64  97 128 183 219 270 331 394
#     4  11  25  42  66 101 136 176 225 275 341 397
#     4  10  23  43  68 104 134 175 230 271 335 401
#     4  10  22  41  72  98 131 180 222 282 330 393
#     4  11  25  42  67 105 132 177 225 277 339 396
#     4  10  21  42  67  99 133 173 235 265 334 404
#
# _framework density 22.699714
#
# number of rings (size 3 to 8) (size 9 to 14) (size 15 to 20)
#    0.000    1.714    1.429    1.286   10.000    3.429 
#    0.000    1.429    0.000    0.000    0.000    0.000 
#    0.000    0.000    0.000    0.000    0.000    0.000 
#
# Total GULP energy -77992.008254 kJ/mol
# GULP energy per Si atom -5570.857732 kJ/mol
# Density = 2.264805 g / cm^3
# Si number density = 22.699714 Si / 1000 Ang^3
#
#
#
# Elastic Constant Matrix: (Units=GPa)
#
#
# Indices 1 2 3 4 5 6 
#
# 1 13.4148 2.0410 17.9413 7.3438 13.2768 5.0581
# 2 2.0410 74.7995 25.1149 -7.6834 6.7767 -9.0657
# 3 17.9413 25.1149 77.0470 -20.4478 18.7667 6.2087
# 4 7.3438 -7.6834 -20.4478 33.9926 0.8979 11.2665
# 5 13.2768 6.7767 18.7667 0.8979 23.4200 0.5614
# 6 5.0581 -9.0657 6.2087 11.2665 0.5614 25.8290
#
#
#
# Elastic Compliance Matrix: (Units=1/GPa)
#
#
# Indices 1 2 3 4 5 6 
#
# 1 0.669148 0.044059 -0.183336 -0.253258 -0.236526 0.044104
# 2 0.044059 0.019373 -0.019444 -0.020458 -0.014507 0.012085
# 3 -0.183336 -0.019444 0.077666 0.090745 0.044569 -0.030142
# 4 -0.253258 -0.020458 0.090745 0.147153 0.072218 -0.045154
# 5 -0.236526 -0.014507 0.044569 0.072218 0.142598 -0.004086
# 6 0.044104 0.012085 -0.030142 -0.045154 -0.004086 0.061351
#
#
# Mechanical properties :
#
#
# Convention : Reuss Voigt Hill
#
# Bulk Modulus (GPa) = 2.22845 28.38399 15.30622
# Shear Modulus (GPa) = 3.15594 24.65924 13.90759
#
# Velocity S-wave (km/s) = 1.18039 3.29952 2.47792
# Velocity P-wave (km/s) = 1.68570 5.20068 3.86579
#
# Compressibility (1/GPa) = 0.44874207
#
# Stress axis : x y z
#
# Youngs Moduli (GPa) = 1.49444 51.61801 12.87571
#
# Poissons Ratio (x) = -2.27422 2.36059
# Poissons Ratio (y) = -0.06584 0.25036
# Poissons Ratio (z) = 0.27398 1.00368
#
# Static dielectric constant tensor:
#      x y z
#    x 1.820360 0.018780 -0.060270 
#    y 0.018780 2.502660 0.501500 
#    z -0.060270 0.501500 2.350570 
# 
# From -- ./inp_files/314442.got.cif
#   From: 2010.05.17/outbox.ucp.g08.bks.cvg/sg2_158_cif.got.tgz:314442.got - 2010.06.11 11:32:03.
