data_PCOD9073209
_publ_section_title
;
Structure prediction by ZEFSAII (Michael W. Deem and Ramdas Pophale) SiO2 
 PCOD9073209
Probable space group: P -1
;
_chemical_formula_sum "Si O2"
_cell_formula_units_Z 16
_cell_length_a 15.000000
_cell_length_b 18.000000
_cell_length_c 15.000000
_cell_angle_alpha 40.000000
_cell_angle_beta 160.000000
_cell_angle_gamma 130.000000
_cell_volume 833.890543
_symmetry_space_group_name_H-M "P -1"
_symmetry_group_IT_number 2
_symmetry_cell_setting 'triclinic'
loop_
_space_group_symop_operation_xyz
x,y,z
-x,-y,-z
loop_
_atom_site_type_symbol
_atom_site_label
_atom_site_fract_x
_atom_site_fract_y
_atom_site_fract_z
Si Si1 0.808469 0.169380 0.337319
Si Si2 0.514720 0.236214 0.706532
Si Si3 0.899458 0.302541 0.134356
Si Si4 0.825338 0.430555 0.452243
Si Si5 0.560647 0.529887 0.685040
Si Si6 0.970937 0.497629 0.702614
Si Si7 0.547646 0.979848 0.953903
Si Si8 0.239331 0.655363 0.710720
O O1 0.814189 0.277022 0.176699
O O2 0.623028 0.095707 0.186274
O O3 0.733131 0.233646 0.304921
O O4 0.130152 0.084077 0.709054
O O5 0.552555 0.332607 0.584444
O O6 0.222059 0.282613 0.443262
O O7 0.484969 0.119317 0.736411
O O8 0.776935 0.218578 0.035068
O O9 0.723259 0.446516 0.831317
O O10 0.807922 0.330875 0.453823
O O11 0.000000 0.500000 0.500000
O O12 0.973985 0.400405 0.715898
O O13 0.519243 0.532145 0.091192
O O14 0.309960 0.487727 0.521757
O O15 0.778224 0.532121 0.964596
O O16 0.994478 0.616516 0.562614
O O17 0.500000 0.000000 0.000000
#
# Coordination Sequence:
#
# PCOD9073209 Si02
#       8
#     2   2   2   2   2   2   2   2
#     4  12  23  36  64  85 115 155 198 242 290 344
#     4  12  25  40  55  78 116 158 206 243 286 335
#     4  12  21  37  59  80 116 149 196 249 300 339
#     4   9  19  35  60  87 132 147 172 228 308 374
#     4  12  24  36  57  86 115 155 197 239 288 354
#     4  11  20  36  56  85 122 150 180 221 297 358
#     4  12  24  41  57  80 113 164 206 245 287 319
#     4  10  21  36  58  94 124 149 184 234 297 367
#
# _framework density 19.187169999999998
#
# number of rings (size 3 to 8) (size 9 to 14) (size 15 to 20)
#    0.000    0.750    5.000    3.375    5.250    0.000 
#    0.000    0.000    0.000    0.000    0.000    5.250 
#    0.000    0.000    0.000    0.000    0.000    0.000 
#
# Total GULP energy -89125.192500 kJ/mol
# GULP energy per Si atom -5570.324531 kJ/mol
# Density = 1.914350 g / cm^3
# Si number density = 19.187170 Si / 1000 Ang^3
#
#
#
# Elastic Constant Matrix: (Units=GPa)
#
#
# Indices 1 2 3 4 5 6 
#
# 1 43.2879 35.7548 13.2873 2.2534 19.1826 -18.2479
# 2 35.7548 107.3508 26.7956 19.1096 10.6386 -22.1111
# 3 13.2873 26.7956 46.2319 16.5252 18.0565 2.6279
# 4 2.2534 19.1096 16.5252 38.8770 1.3654 0.3489
# 5 19.1826 10.6386 18.0565 1.3654 28.7806 12.7222
# 6 -18.2479 -22.1111 2.6279 0.3489 12.7222 46.9103
#
#
#
# Elastic Compliance Matrix: (Units=1/GPa)
#
#
# Indices 1 2 3 4 5 6 
#
# 1 0.090241 -0.014148 0.013363 -0.001402 -0.085758 0.050954
# 2 -0.014148 0.015695 -0.006545 -0.004391 0.007873 0.000159
# 3 0.013363 -0.006545 0.039277 -0.013120 -0.034667 0.009412
# 4 -0.001402 -0.004391 -0.013120 0.033180 0.011537 -0.005255
# 5 -0.085758 0.007873 -0.034667 0.011537 0.139165 -0.065534
# 6 0.050954 0.000159 0.009412 -0.005255 -0.065534 0.058498
#
#
# Mechanical properties :
#
#
# Convention : Reuss Voigt Hill
#
# Bulk Modulus (GPa) = 7.65975 38.72734 23.19354
# Shear Modulus (GPa) = 11.51452 30.98245 21.24848
#
# Velocity S-wave (km/s) = 2.45238 4.02275 3.33142
# Velocity P-wave (km/s) = 3.46694 6.46564 5.18769
#
# Compressibility (1/GPa) = 0.13055252
#
# Stress axis : x y z
#
# Youngs Moduli (GPa) = 11.08146 63.71359 25.46013
#
# Poissons Ratio (x) = 0.90144 -0.34022
# Poissons Ratio (y) = 0.15678 0.16663
# Poissons Ratio (z) = -0.14808 0.41700
#
# Static dielectric constant tensor:
#      x y z
#    x 1.719030 -0.107730 0.112010 
#    y -0.107730 2.061720 -0.612220 
#    z 0.112010 -0.612220 2.784290 
# 
# From -- ./inp_files/81114.got.cif
#   From: 2010.05.17/outbox.ucp.g08.bks.cvg/sg2_41_cif.got.tgz:81114.got - 2010.06.11 11:32:03.
