data_PCOD9073825
_publ_section_title
;
Structure prediction by ZEFSAII (Michael W. Deem and Ramdas Pophale) SiO2 
 PCOD9073825
Probable space group: P -1
;
_chemical_formula_sum "Si O2"
_cell_formula_units_Z 14
_cell_length_a 8.660759
_cell_length_b 9.861568
_cell_length_c 9.147385
_cell_angle_alpha 127.570315
_cell_angle_beta 75.640700
_cell_angle_gamma 74.952682
_cell_volume 506.801377
_symmetry_space_group_name_H-M "P -1"
_symmetry_group_IT_number 2
_symmetry_cell_setting 'triclinic'
loop_
_space_group_symop_operation_xyz
x,y,z
-x,-y,-z
loop_
_atom_site_type_symbol
_atom_site_label
_atom_site_fract_x
_atom_site_fract_y
_atom_site_fract_z
Si Si1 0.268573 0.461405 0.284279
Si Si2 0.647720 0.786781 0.446012
Si Si3 0.738892 0.441315 0.970328
Si Si4 0.123404 0.876175 0.057527
Si Si5 0.956323 0.406310 0.295812
Si Si6 0.110721 0.070422 0.623317
Si Si7 0.423505 0.890206 0.847372
O O1 0.313134 0.536112 0.173798
O O2 0.097014 0.601997 0.528601
O O3 0.445262 0.340176 0.270684
O O4 0.170516 0.341562 0.169639
O O5 0.817142 0.634665 0.417032
O O6 0.699266 0.948564 0.484691
O O7 0.471126 0.885012 0.662948
O O8 0.653178 0.643252 0.219633
O O9 0.730617 0.262982 0.938366
O O10 0.968962 0.315983 0.833526
O O11 0.919576 0.008900 0.268441
O O12 0.112338 0.716379 0.857186
O O13 0.214178 0.970637 0.004166
O O14 0.000000 0.000000 0.500000
O O15 0.500000 0.000000 0.000000
#
# Coordination Sequence:
#
# PCOD9073825 Si02
#       7
#     2   2   2   2   2   2   2
#     4  10  19  33  60  85 115 145 192 247 276 335
#     4  10  18  35  63  78 115 154 195 228 277 358
#     4   9  19  34  58  87 107 144 202 230 281 326
#     4   9  20  37  58  82 116 147 195 225 285 352
#     4   9  17  34  58  89 105 148 198 235 276 328
#     4  10  18  31  57  85 113 148 190 235 276 341
#     4  11  24  39  56  84 121 156 187 233 303 342
#
# _framework density 27.624237000000001
#
# number of rings (size 3 to 8) (size 9 to 14) (size 15 to 20)
#    0.857    1.429    1.429    2.143    0.000    5.714 
#    0.000    1.429    3.143    0.000    0.000    0.000 
#    0.000    0.000    0.000    0.000    0.000    0.000 
#
# Total GULP energy -78131.864486 kJ/mol
# GULP energy per Si atom -5580.847463 kJ/mol
# Density = 2.756136 g / cm^3
# Si number density = 27.624237 Si / 1000 Ang^3
#
#
#
# Elastic Constant Matrix: (Units=GPa)
#
#
# Indices 1 2 3 4 5 6 
#
# 1 72.4468 27.9298 35.2184 -13.3774 -25.0030 14.2028
# 2 27.9298 125.4514 44.8059 -37.8641 -10.5295 2.3028
# 3 35.2184 44.8059 176.2628 -46.8753 -10.9613 16.1040
# 4 -13.3774 -37.8641 -46.8753 56.1134 3.6666 -7.4765
# 5 -25.0030 -10.5295 -10.9613 3.6666 48.1742 -6.7138
# 6 14.2028 2.3028 16.1040 -7.4765 -6.7138 52.0325
#
#
#
# Elastic Compliance Matrix: (Units=1/GPa)
#
#
# Indices 1 2 3 4 5 6 
#
# 1 0.019649 -0.002799 -0.002437 -0.000256 0.008575 -0.003415
# 2 -0.002799 0.010698 -0.000613 0.006199 0.000474 0.001432
# 3 -0.002437 -0.000613 0.007841 0.005436 -0.000164 -0.000974
# 4 -0.000256 0.006199 0.005436 0.026710 0.000711 0.002043
# 5 0.008575 0.000474 -0.000164 0.000711 0.025369 0.001065
# 6 -0.003415 0.001432 -0.000974 0.002043 0.001065 0.020820
#
#
# Mechanical properties :
#
#
# Convention : Reuss Voigt Hill
#
# Bulk Modulus (GPa) = 37.75076 65.56324 51.65700
# Shear Modulus (GPa) = 37.98986 49.01114 43.50050
#
# Velocity S-wave (km/s) = 3.71244 4.21670 3.97258
# Velocity P-wave (km/s) = 5.66319 6.89151 6.30733
#
# Compressibility (1/GPa) = 0.02648953
#
# Stress axis : x y z
#
# Youngs Moduli (GPa) = 50.89355 93.47728 127.54153
#
# Poissons Ratio (x) = 0.26162 0.31084
# Poissons Ratio (y) = 0.14244 0.07817
# Poissons Ratio (z) = 0.12404 0.05729
#
# Static dielectric constant tensor:
#      x y z
#    x 2.193540 -0.016580 -0.025200 
#    y -0.016580 2.257690 -0.005740 
#    z -0.025200 -0.005740 2.240960 
# 
# From -- ./inp_files/182250.got.cif
#   From: 2010.05.17/outbox.cif.g08.bks.cpg/sg2_92_cif.got.tgz:182250.got - 2010.06.03 11:33:40.
