data_PCOD9073679
_publ_section_title
;
Structure prediction by ZEFSAII (Michael W. Deem and Ramdas Pophale) SiO2 
 PCOD9073679
Probable space group: P -1
;
_chemical_formula_sum "Si O2"
_cell_formula_units_Z 16
_cell_length_a 12.000000
_cell_length_b 18.000000
_cell_length_c 21.000000
_cell_angle_alpha 150.000000
_cell_angle_beta 20.000000
_cell_angle_gamma 150.000000
_cell_volume 738.640068
_symmetry_space_group_name_H-M "P -1"
_symmetry_group_IT_number 2
_symmetry_cell_setting 'triclinic'
loop_
_space_group_symop_operation_xyz
x,y,z
-x,-y,-z
loop_
_atom_site_type_symbol
_atom_site_label
_atom_site_fract_x
_atom_site_fract_y
_atom_site_fract_z
Si Si1 0.369807 0.353008 0.413965
Si Si2 0.317017 0.455219 0.878541
Si Si3 0.416492 0.931620 0.896933
Si Si4 0.923199 0.915978 0.257493
Si Si5 0.391216 0.460521 0.694213
Si Si6 0.654116 0.098677 0.636757
Si Si7 0.558385 0.165967 0.334491
Si Si8 0.656054 0.631514 0.958196
O O1 0.500000 0.500000 0.500000
O O2 0.625425 0.248869 0.196570
O O3 0.344079 0.417964 0.405330
O O4 0.031286 0.228796 0.532005
O O5 0.250303 0.270144 0.788383
O O6 0.478179 0.480583 0.738193
O O7 0.502541 0.554602 0.914863
O O8 0.964532 0.499750 0.094033
O O9 0.476129 0.926839 0.784566
O O10 0.754905 0.040325 0.832354
O O11 0.099367 0.966568 0.130549
O O12 0.679269 0.007826 0.489245
O O13 0.352473 0.287146 0.557510
O O14 0.538214 0.966918 0.656858
O O15 0.430887 0.214916 0.854735
O O16 0.938158 0.291544 0.216335
O O17 0.500000 0.500000 0.000000
#
# Coordination Sequence:
#
# PCOD9073679 Si02
#       8
#     2   2   2   2   2   2   2   2
#     4  11  20  37  69 104 142 182 240 291 355 423
#     4  11  24  45  73 110 150 180 247 299 367 429
#     4  10  22  37  68 105 150 182 231 298 362 429
#     4  10  21  42  67 105 146 182 232 301 365 425
#     4  11  23  41  75 110 145 185 236 313 360 422
#     4  11  26  46  69 101 144 189 246 294 360 437
#     4  12  25  46  74 108 148 192 245 297 366 436
#     4  12  28  50  76 103 143 203 245 296 359 444
#
# _framework density 21.661429999999999
#
# number of rings (size 3 to 8) (size 9 to 14) (size 15 to 20)
#    0.000    1.000    3.750    2.625    1.750    5.500 
#    0.000    2.500    0.000    0.000    0.000    0.000 
#    0.000    0.000    0.000    0.000    0.000    0.000 
#
# Total GULP energy -89245.225849 kJ/mol
# GULP energy per Si atom -5577.826616 kJ/mol
# Density = 2.161213 g / cm^3
# Si number density = 21.661430 Si / 1000 Ang^3
#
#
#
# Elastic Constant Matrix: (Units=GPa)
#
#
# Indices 1 2 3 4 5 6 
#
# 1 107.0611 20.8289 24.3698 -6.4116 44.1895 -1.9022
# 2 20.8289 117.6227 31.4601 6.9874 7.3842 -13.2016
# 3 24.3698 31.4601 126.6063 23.3235 34.9906 -0.7140
# 4 -6.4116 6.9874 23.3235 51.7578 0.4500 10.0644
# 5 44.1895 7.3842 34.9906 0.4500 42.2204 -1.6747
# 6 -1.9022 -13.2016 -0.7140 10.0644 -1.6747 56.0122
#
#
#
# Elastic Compliance Matrix: (Units=1/GPa)
#
#
# Indices 1 2 3 4 5 6 
#
# 1 0.017749 -0.002761 0.002530 0.001791 -0.020248 -0.000943
# 2 -0.002761 0.009823 -0.002686 -0.000968 0.003506 0.002466
# 3 0.002530 -0.002686 0.012393 -0.004822 -0.012394 0.000107
# 4 0.001791 -0.000968 -0.004822 0.022655 0.001881 -0.004243
# 5 -0.020248 0.003506 -0.012394 0.001881 0.054567 0.001274
# 6 -0.000943 0.002466 0.000107 -0.004243 0.001274 0.019204
#
#
# Mechanical properties :
#
#
# Convention : Reuss Voigt Hill
#
# Bulk Modulus (GPa) = 29.29797 56.06754 42.68275
# Shear Modulus (GPa) = 32.55150 48.30682 40.42916
#
# Velocity S-wave (km/s) = 3.88072 4.72750 4.32489
# Velocity P-wave (km/s) = 5.79955 7.46584 6.68482
#
# Compressibility (1/GPa) = 0.03413206
#
# Stress axis : x y z
#
# Youngs Moduli (GPa) = 56.33962 101.79845 80.68973
#
# Poissons Ratio (x) = 0.28106 -0.20418
# Poissons Ratio (y) = 0.15555 0.21676
# Poissons Ratio (z) = -0.14256 0.27347
#
# Static dielectric constant tensor:
#      x y z
#    x 1.838920 -0.005340 -0.040840 
#    y -0.005340 1.768840 -0.024730 
#    z -0.040840 -0.024730 1.897870 
# 
# From -- ./inp_files/596002.got.cif
#   From: 2010.05.17/outbox.ucp.g08.bks.cvg/sg2_299_cif.got.tgz:596002.got - 2010.06.11 11:32:03.
