data_PCOD9073274
_publ_section_title
;
Structure prediction by ZEFSAII (Michael W. Deem and Ramdas Pophale) SiO2 
 PCOD9073274
Probable space group: P -1
;
_chemical_formula_sum "Si O2"
_cell_formula_units_Z 16
_cell_length_a 9.000000
_cell_length_b 15.000000
_cell_length_c 21.000000
_cell_angle_alpha 160.000000
_cell_angle_beta 110.000000
_cell_angle_gamma 60.000000
_cell_volume 757.501203
_symmetry_space_group_name_H-M "P -1"
_symmetry_group_IT_number 2
_symmetry_cell_setting 'triclinic'
loop_
_space_group_symop_operation_xyz
x,y,z
-x,-y,-z
loop_
_atom_site_type_symbol
_atom_site_label
_atom_site_fract_x
_atom_site_fract_y
_atom_site_fract_z
Si Si1 0.875687 0.287716 0.782806
Si Si2 0.066482 0.356872 0.605786
Si Si3 0.882285 0.462679 0.403756
Si Si4 0.201676 0.396070 0.879580
Si Si5 0.324146 0.096013 0.892554
Si Si6 0.379073 0.288737 0.222508
Si Si7 0.449324 0.803525 0.581382
Si Si8 0.037919 0.767752 0.986451
O O1 0.708196 0.570666 0.905877
O O2 0.058588 0.276642 0.774286
O O3 0.885681 0.970559 0.578089
O O4 0.855392 0.401019 0.928662
O O5 0.131706 0.371763 0.554205
O O6 0.120959 0.513925 0.772682
O O7 0.838421 0.584174 0.721588
O O8 0.671046 0.607581 0.496207
O O9 0.000000 0.500000 0.500000
O O10 0.987007 0.088951 0.163465
O O11 0.181498 0.607013 0.959051
O O12 0.400971 0.078258 0.709911
O O13 0.158107 0.154582 0.955626
O O14 0.521529 0.840151 0.781507
O O15 0.323530 0.959484 0.731613
O O16 0.398227 0.567561 0.390045
O O17 0.500000 0.000000 0.000000
#
# Coordination Sequence:
#
# PCOD9073274 Si02
#       8
#     2   2   2   2   2   2   2   2
#     4   9  19  36  61  94 118 160 199 257 302 356
#     4  12  24  40  62  92 131 162 199 247 316 370
#     4  12  26  42  63  89 123 169 205 247 309 370
#     4   9  19  37  64  90 123 154 211 253 300 351
#     4  10  21  37  64  92 124 151 209 256 302 349
#     4  12  22  37  60  96 123 157 202 256 301 357
#     4  11  22  41  64  92 121 160 207 257 299 356
#     4  11  23  40  61  93 125 162 201 256 310 362
#
# _framework density 21.122078999999999
#
# number of rings (size 3 to 8) (size 9 to 14) (size 15 to 20)
#    0.000    1.250    3.750    3.000    1.750    3.000 
#    0.000    7.500    0.000    0.000    0.000    0.000 
#    0.000    0.000    0.000    0.000    0.000    0.000 
#
# Total GULP energy -89270.395525 kJ/mol
# GULP energy per Si atom -5579.399720 kJ/mol
# Density = 2.107400 g / cm^3
# Si number density = 21.122079 Si / 1000 Ang^3
#
#
#
# Elastic Constant Matrix: (Units=GPa)
#
#
# Indices 1 2 3 4 5 6 
#
# 1 19.1361 5.3951 4.5847 -13.7250 -1.7286 21.0398
# 2 5.3951 -20.0168 -16.6209 24.7990 -10.1394 -24.4201
# 3 4.5847 -16.6209 94.9662 17.7525 8.5877 -0.7031
# 4 -13.7250 24.7990 17.7525 34.4032 10.4251 3.0946
# 5 -1.7286 -10.1394 8.5877 10.4251 19.7633 2.1840
# 6 21.0398 -24.4201 -0.7031 3.0946 2.1840 12.3717
#
#
#
# Elastic Compliance Matrix: (Units=1/GPa)
#
#
# Indices 1 2 3 4 5 6 
#
# 1 0.096661 0.055883 0.002581 -0.012622 0.049233 -0.059467
# 2 0.055883 0.024094 -0.001552 0.003872 0.021667 -0.052361
# 3 0.002581 -0.001552 0.010755 -0.001771 -0.003674 -0.005750
# 4 -0.012622 0.003872 -0.001771 0.024065 -0.013853 0.025433
# 5 0.049233 0.021667 -0.003674 -0.013853 0.080665 -0.051943
# 6 -0.059467 -0.052361 -0.005750 0.025433 -0.051943 0.081089
#
#
# Mechanical properties :
#
#
# Convention : Reuss Voigt Hill
#
# Bulk Modulus (GPa) = 4.07607 8.97813 6.52710
# Shear Modulus (GPa) = 17.52658 20.02273 18.77466
#
# Velocity S-wave (km/s) = 2.88371 3.08222 2.98462
# Velocity P-wave (km/s) = 3.60855 4.11420 3.86964
#
# Compressibility (1/GPa) = 0.24533461
#
# Stress axis : x y z
#
# Youngs Moduli (GPa) = 10.34540 41.50477 92.98423
#
# Poissons Ratio (x) = -2.31942 -0.24001
# Poissons Ratio (y) = -0.57813 0.14429
# Poissons Ratio (z) = -0.02670 0.06441
#
# Static dielectric constant tensor:
#      x y z
#    x 1.749670 -0.033420 0.004930 
#    y -0.033420 1.841460 -0.000820 
#    z 0.004930 -0.000820 1.804840 
# 
# From -- ./inp_files/204239.got.cif
#   From: 2010.05.17/outbox.ucp.g08.bks.cvg/sg2_103_cif.got.tgz:204239.got - 2010.06.11 11:32:03.
