data_PCOD9073529
_publ_section_title
;
Structure prediction by ZEFSAII (Michael W. Deem and Ramdas Pophale) SiO2 
 PCOD9073529
Probable space group: P -1
;
_chemical_formula_sum "Si O2"
_cell_formula_units_Z 16
_cell_length_a 18.000000
_cell_length_b 12.000000
_cell_length_c 9.000000
_cell_angle_alpha 120.000000
_cell_angle_beta 130.000000
_cell_angle_gamma 30.000000
_cell_volume 736.400153
_symmetry_space_group_name_H-M "P -1"
_symmetry_group_IT_number 2
_symmetry_cell_setting 'triclinic'
loop_
_space_group_symop_operation_xyz
x,y,z
-x,-y,-z
loop_
_atom_site_type_symbol
_atom_site_label
_atom_site_fract_x
_atom_site_fract_y
_atom_site_fract_z
Si Si1 0.293975 0.308965 0.804750
Si Si2 0.333801 0.206174 0.121282
Si Si3 0.671153 0.526172 0.528189
Si Si4 0.487569 0.361941 0.115648
Si Si5 0.756962 0.165173 0.553715
Si Si6 0.809929 0.897441 0.045952
Si Si7 0.932335 0.337316 0.511646
Si Si8 0.692378 0.183327 0.821642
O O1 0.151141 0.479852 0.603983
O O2 0.464256 0.047255 0.797158
O O3 0.257167 0.289217 0.908800
O O4 0.360925 0.380223 0.973637
O O5 0.311215 0.367850 0.276082
O O6 0.247036 0.188850 0.096304
O O7 0.742797 0.323753 0.573130
O O8 0.775338 0.432942 0.447726
O O9 0.474441 0.721125 0.361310
O O10 0.582453 0.291051 0.347022
O O11 0.387922 0.593592 0.078231
O O12 0.647880 0.145329 0.078127
O O13 0.763410 0.144858 0.725538
O O14 0.924889 0.909708 0.541901
O O15 0.964600 0.727378 0.250219
O O16 0.819978 0.967171 0.951049
#
# Coordination Sequence:
#
# PCOD9073529 Si02
#       8
#     2   2   2   2   2   2   2   2
#     4  10  21  40  66  91 120 162 207 256 301 360
#     4  10  22  41  64  90 121 162 213 250 295 367
#     4  11  22  41  67  94 122 160 208 254 300 365
#     4   9  18  38  63  91 120 160 210 252 303 360
#     4  10  22  40  64  96 128 156 196 257 318 362
#     4  10  23  39  58  89 128 165 201 251 308 364
#     4  11  25  41  60  91 129 162 200 255 314 359
#     4  11  21  38  66  92 122 164 208 251 299 364
#
# _framework density 21.727318
#
# number of rings (size 3 to 8) (size 9 to 14) (size 15 to 20)
#    0.000    1.750    0.000    5.250    0.000    8.000 
#    0.000    1.875    0.000    0.000    0.000    0.000 
#    0.000    0.000    0.000    0.000    0.000    0.000 
#
# Total GULP energy -89406.691111 kJ/mol
# GULP energy per Si atom -5587.918194 kJ/mol
# Density = 2.167787 g / cm^3
# Si number density = 21.727318 Si / 1000 Ang^3
#
#
#
# Elastic Constant Matrix: (Units=GPa)
#
#
# Indices 1 2 3 4 5 6 
#
# 1 74.1342 21.6222 13.7897 -9.6127 -22.5192 15.2407
# 2 21.6222 97.2832 36.7512 -21.5373 -8.2089 11.9813
# 3 13.7897 36.7512 71.2925 -19.5453 -18.1724 18.2217
# 4 -9.6127 -21.5373 -19.5453 32.5028 15.0731 -16.8369
# 5 -22.5192 -8.2089 -18.1724 15.0731 34.4296 -9.5967
# 6 15.2407 11.9813 18.2217 -16.8369 -9.5967 32.1281
#
#
#
# Elastic Compliance Matrix: (Units=1/GPa)
#
#
# Indices 1 2 3 4 5 6 
#
# 1 0.019199 -0.004382 0.002275 -0.006124 0.013152 -0.008044
# 2 -0.004382 0.014863 -0.006692 0.008936 -0.005856 0.003265
# 3 0.002275 -0.006692 0.021503 0.001283 0.008577 -0.007545
# 4 -0.006124 0.008936 0.001283 0.056430 -0.019614 0.022558
# 5 0.013152 -0.005856 0.008577 -0.019614 0.048011 -0.004858
# 6 -0.008044 0.003265 -0.007545 0.022558 -0.004858 0.048374
#
#
# Mechanical properties :
#
#
# Convention : Reuss Voigt Hill
#
# Bulk Modulus (GPa) = 26.33844 43.00404 34.67124
# Shear Modulus (GPa) = 20.95279 31.18188 26.06733
#
# Velocity S-wave (km/s) = 3.10877 3.79244 3.46750
# Velocity P-wave (km/s) = 5.00345 6.24599 5.65893
#
# Compressibility (1/GPa) = 0.03796733
#
# Stress axis : x y z
#
# Youngs Moduli (GPa) = 52.08706 67.28044 46.50564
#
# Poissons Ratio (x) = 0.29480 -0.10579
# Poissons Ratio (y) = 0.22823 0.31121
# Poissons Ratio (z) = -0.11849 0.45023
#
# Static dielectric constant tensor:
#      x y z
#    x 1.819800 -0.027730 -0.000380 
#    y -0.027730 1.776420 0.029680 
#    z -0.000380 0.029680 1.830040 
# 
# From -- ./inp_files/333635.got.cif
#   From: 2010.05.17/outbox.ucp.g08.bks.cvg/sg2_167_cif.got.tgz:333635.got - 2010.06.11 11:32:03.
