data_PCOD9073234
_publ_section_title
;
Structure prediction by ZEFSAII (Michael W. Deem and Ramdas Pophale) SiO2 
 PCOD9073234
Probable space group: P -1
;
_chemical_formula_sum "Si O2"
_cell_formula_units_Z 16
_cell_length_a 18.000000
_cell_length_b 9.000000
_cell_length_c 6.000000
_cell_angle_alpha 50.000000
_cell_angle_beta 90.000000
_cell_angle_gamma 100.000000
_cell_volume 725.212580
_symmetry_space_group_name_H-M "P -1"
_symmetry_group_IT_number 2
_symmetry_cell_setting 'triclinic'
loop_
_space_group_symop_operation_xyz
x,y,z
-x,-y,-z
loop_
_atom_site_type_symbol
_atom_site_label
_atom_site_fract_x
_atom_site_fract_y
_atom_site_fract_z
Si Si1 0.588683 0.755802 0.828461
Si Si2 0.803806 0.905223 0.045173
Si Si3 0.831115 0.257108 0.053200
Si Si4 0.954224 0.349242 0.324344
Si Si5 0.681768 0.516305 0.382881
Si Si6 0.712458 0.138943 0.505660
Si Si7 0.908612 0.636860 0.413798
Si Si8 0.446134 0.540090 0.264013
O O1 0.585178 0.665126 0.669735
O O2 0.630895 0.984621 0.637240
O O3 0.633823 0.616640 0.106275
O O4 0.500652 0.702589 0.956171
O O5 0.739417 0.708065 0.301473
O O6 0.874096 0.798935 0.127688
O O7 0.831600 0.085821 0.040456
O O8 0.764636 0.004913 0.752835
O O9 0.886400 0.231849 0.284161
O O10 0.746632 0.207269 0.199802
O O11 0.855854 0.480359 0.737455
O O12 0.925286 0.483332 0.378539
O O13 0.015841 0.259168 0.546657
O O14 0.000000 0.500000 0.000000
O O15 0.716738 0.345804 0.435511
O O16 0.625168 0.402203 0.679327
O O17 0.500000 0.500000 0.500000
#
# Coordination Sequence:
#
# PCOD9073234 Si02
#       8
#     2   2   2   2   2   2   2   2
#     4   9  20  38  60  87 118 155 198 242 295 355
#     4  11  23  38  60  88 120 157 201 248 294 352
#     4  11  22  38  60  88 121 157 200 247 298 358
#     4   9  20  40  64  88 118 155 197 246 300 356
#     4  10  21  37  58  85 120 158 197 246 297 347
#     4  11  24  39  59  90 122 158 203 244 294 356
#     4  10  22  42  63  87 120 157 198 247 299 354
#     4   9  18  38  62  85 118 155 194 245 297 347
#
# _framework density 22.062495999999999
#
# number of rings (size 3 to 8) (size 9 to 14) (size 15 to 20)
#    0.000    2.000    0.000    3.000    0.000    7.000 
#    0.000   14.375    0.000    0.000    0.000    0.000 
#    0.000    0.000    0.000    0.000    0.000    0.000 
#
# Total GULP energy -89170.255096 kJ/mol
# GULP energy per Si atom -5573.140943 kJ/mol
# Density = 2.201228 g / cm^3
# Si number density = 22.062496 Si / 1000 Ang^3
#
#
#
# Elastic Constant Matrix: (Units=GPa)
#
#
# Indices 1 2 3 4 5 6 
#
# 1 43.5702 5.3200 27.7104 -7.9355 -0.5028 4.9659
# 2 5.3200 62.2876 17.7819 -10.5458 -2.9755 25.3028
# 3 27.7104 17.7819 50.1337 -10.4417 -10.8286 -6.5832
# 4 -7.9355 -10.5458 -10.4417 33.2535 7.7431 4.5767
# 5 -0.5028 -2.9755 -10.8286 7.7431 34.2279 3.3301
# 6 4.9659 25.3028 -6.5832 4.5767 3.3301 38.2813
#
#
#
# Elastic Compliance Matrix: (Units=1/GPa)
#
#
# Indices 1 2 3 4 5 6 
#
# 1 0.048377 0.017594 -0.035840 0.011422 -0.009287 -0.024625
# 2 0.017594 0.036908 -0.025199 0.013455 -0.004413 -0.032235
# 3 -0.035840 -0.025199 0.054065 -0.006755 0.012970 0.030282
# 4 0.011422 0.013455 -0.006755 0.038963 -0.008107 -0.015490
# 5 -0.009287 -0.004413 0.012970 -0.008107 0.034210 0.004345
# 6 -0.024625 -0.032235 0.030282 -0.015490 0.004345 0.057305
#
#
# Mechanical properties :
#
#
# Convention : Reuss Voigt Hill
#
# Bulk Modulus (GPa) = 19.06263 28.62399 23.84331
# Shear Modulus (GPa) = 13.36161 28.16448 20.76304
#
# Velocity S-wave (km/s) = 2.46362 3.57680 3.07107
# Velocity P-wave (km/s) = 4.09287 5.48272 4.83796
#
# Compressibility (1/GPa) = 0.05245865
#
# Stress axis : x y z
#
# Youngs Moduli (GPa) = 20.67084 27.09461 18.49618
#
# Poissons Ratio (x) = -0.47669 0.66291
# Poissons Ratio (y) = -0.36367 0.46608
# Poissons Ratio (z) = 0.74085 0.68275
#
# Static dielectric constant tensor:
#      x y z
#    x 1.915050 0.016850 -0.035680 
#    y 0.016850 1.789830 0.041630 
#    z -0.035680 0.041630 1.814470 
# 
# From -- ./inp_files/10752.got.cif
#   From: 2010.05.17/outbox.ucp.g08.bks.cvg/sg2_6_cif.got.tgz:10752.got - 2010.06.11 11:32:03.
