data_PCOD9073055
_publ_section_title
;
Structure prediction by ZEFSAII (Michael W. Deem and Ramdas Pophale) SiO2 
 PCOD9073055
Probable space group: P -1
;
_chemical_formula_sum "Si O2"
_cell_formula_units_Z 16
_cell_length_a 15.000000
_cell_length_b 9.000000
_cell_length_c 9.000000
_cell_angle_alpha 70.000000
_cell_angle_beta 70.000000
_cell_angle_gamma 40.000000
_cell_volume 727.419504
_symmetry_space_group_name_H-M "P -1"
_symmetry_group_IT_number 2
_symmetry_cell_setting 'triclinic'
loop_
_space_group_symop_operation_xyz
x,y,z
-x,-y,-z
loop_
_atom_site_type_symbol
_atom_site_label
_atom_site_fract_x
_atom_site_fract_y
_atom_site_fract_z
Si Si1 0.135626 0.760846 0.578998
Si Si2 0.554044 0.947527 0.211107
Si Si3 0.375488 0.682336 0.394537
Si Si4 0.558007 0.656074 0.080398
Si Si5 0.138629 0.766886 0.920718
Si Si6 0.176953 0.348507 0.642547
Si Si7 0.740024 0.848198 0.644783
Si Si8 0.943128 0.487333 0.891286
O O1 0.275249 0.653310 0.452874
O O2 0.144380 0.802215 0.731584
O O3 0.121890 0.588727 0.636392
O O4 0.000000 0.000000 0.500000
O O5 0.407752 0.059467 0.314628
O O6 0.596828 0.746495 0.149292
O O7 0.670414 0.843001 0.302663
O O8 0.517586 0.149358 0.069883
O O9 0.500000 0.500000 0.500000
O O10 0.450396 0.663949 0.212710
O O11 0.283552 0.937044 0.428206
O O12 0.706173 0.393709 0.045573
O O13 0.113124 0.612584 0.002754
O O14 0.000000 0.000000 0.000000
O O15 0.174539 0.333247 0.473678
O O16 0.078281 0.330250 0.763607
O O17 0.816001 0.728982 0.798219
O O18 0.000000 0.500000 0.000000
#
# Coordination Sequence:
#
# PCOD9073055 Si02
#       8
#     2   2   2   2   2   2   2   2
#     4  12  26  43  65 100 145 184 222 283 352 411
#     4  10  20  40  72  97 135 170 233 284 339 399
#     4  11  23  41  71  96 138 181 226 278 352 414
#     4  10  20  41  69 102 128 184 229 281 340 407
#     4  12  26  45  69 101 139 181 228 290 347 406
#     4  12  25  43  68 103 138 177 234 286 338 413
#     4  11  25  42  70 102 133 183 229 286 337 405
#     4  12  25  45  70  98 134 183 238 275 337 409
#
# _framework density 21.995560999999999
#
# number of rings (size 3 to 8) (size 9 to 14) (size 15 to 20)
#    0.000    0.750    5.000    2.250    7.000    0.000 
#    0.000    0.000    0.000    3.000    0.000    0.000 
#    0.000    0.000    0.000    0.000    0.000    0.000 
#
# Total GULP energy -89399.661854 kJ/mol
# GULP energy per Si atom -5587.478866 kJ/mol
# Density = 2.194550 g / cm^3
# Si number density = 21.995561 Si / 1000 Ang^3
#
#
#
# Elastic Constant Matrix: (Units=GPa)
#
#
# Indices 1 2 3 4 5 6 
#
# 1 58.2897 10.3168 20.3986 -5.6891 -19.3994 -28.8063
# 2 10.3168 70.2284 44.0372 -0.3180 19.1324 -24.4484
# 3 20.3986 44.0372 75.1581 -12.8568 -18.4188 -2.4156
# 4 -5.6891 -0.3180 -12.8568 39.5435 -16.0936 2.5625
# 5 -19.3994 19.1324 -18.4188 -16.0936 31.9925 2.7121
# 6 -28.8063 -24.4484 -2.4156 2.5625 2.7121 30.6130
#
#
#
# Elastic Compliance Matrix: (Units=1/GPa)
#
#
# Indices 1 2 3 4 5 6 
#
# 1 0.055914 0.003888 -0.005009 0.016416 0.032625 0.051059
# 2 0.003888 -0.019390 0.025132 0.027324 0.043523 -0.015987
# 3 -0.005009 0.025132 -0.012113 -0.020846 -0.037175 0.019441
# 4 0.016416 0.027324 -0.020846 0.012629 -0.015078 0.035903
# 5 0.032625 0.043523 -0.037175 -0.015078 -0.009454 0.064625
# 6 0.051059 -0.015987 0.019441 0.035903 0.064625 0.060747
#
#
# Mechanical properties :
#
#
# Convention : Reuss Voigt Hill
#
# Bulk Modulus (GPa) = 13.80571 39.24239 26.52405
# Shear Modulus (GPa) = 77.57419 29.02470 53.29945
#
# Velocity S-wave (km/s) = 5.94514 3.63653 4.92793
# Velocity P-wave (km/s) = 7.30866 5.95922 6.66816
#
# Compressibility (1/GPa) = 0.07243381
#
# Stress axis : x y z
#
# Youngs Moduli (GPa) = 17.88475 -51.57222 -82.55739
#
# Poissons Ratio (x) = 0.20051 -0.41351
# Poissons Ratio (y) = -0.06954 2.07487
# Poissons Ratio (z) = 0.08958 1.29614
#
# Static dielectric constant tensor:
#      x y z
#    x 1.732350 0.024710 -0.046290 
#    y 0.024710 1.850890 0.108190 
#    z -0.046290 0.108190 1.855510 
# 
# From -- ./inp_files/297830.got.cif
#   From: 2010.05.17/outbox.ucp.g08.bks.cvg/sg2_149_cif.got.tgz:297830.got - 2010.06.11 11:32:03.
