data_PCOD9073327
_publ_section_title
;
Structure prediction by ZEFSAII (Michael W. Deem and Ramdas Pophale) SiO2 
 PCOD9073327
Probable space group: P -1
;
_chemical_formula_sum "Si O2"
_cell_formula_units_Z 16
_cell_length_a 12.173033
_cell_length_b 10.815503
_cell_length_c 9.059078
_cell_angle_alpha 91.219099
_cell_angle_beta 125.789459
_cell_angle_gamma 108.489630
_cell_volume 883.787572
_symmetry_space_group_name_H-M "P -1"
_symmetry_group_IT_number 2
_symmetry_cell_setting 'triclinic'
loop_
_space_group_symop_operation_xyz
x,y,z
-x,-y,-z
loop_
_atom_site_type_symbol
_atom_site_label
_atom_site_fract_x
_atom_site_fract_y
_atom_site_fract_z
Si Si1 0.463107 0.684045 0.002573
Si Si2 0.975126 0.343640 0.458927
Si Si3 0.743363 0.627861 0.140970
Si Si4 0.670107 0.222463 0.379337
Si Si5 0.085975 0.336083 0.008748
Si Si6 0.811506 0.391870 0.766080
Si Si7 0.539270 0.056775 0.866468
Si Si8 0.143357 0.779744 0.954802
O O1 0.342847 0.535256 0.946885
O O2 0.407440 0.722615 0.805323
O O3 0.620103 0.677750 0.098889
O O4 0.476450 0.801198 0.131622
O O5 0.831122 0.251467 0.438254
O O6 0.000000 0.500000 0.500000
O O7 0.123760 0.336672 0.636994
O O8 0.935144 0.293207 0.258368
O O9 0.816720 0.686890 0.042247
O O10 0.696236 0.307340 0.551445
O O11 0.573482 0.063541 0.323686
O O12 0.972294 0.394031 0.844788
O O13 0.978627 0.214432 0.024896
O O14 0.178799 0.459580 0.193444
O O15 0.794610 0.314372 0.905443
O O16 0.710119 0.089385 0.965151
O O17 0.500000 0.000000 0.000000
#
# Coordination Sequence:
#
# PCOD9073327 Si02
#       8
#     2   2   2   2   2   2   2   2
#     4  10  22  35  56  82 118 143 171 233 285 316
#     4  12  17  30  60  83 100 136 192 230 254 320
#     4  11  21  36  57  84 113 142 180 226 286 324
#     4  11  20  34  59  83 106 146 191 220 264 327
#     4   9  18  31  52  79 114 132 175 232 272 309
#     4   9  18  30  52  86 102 137 182 227 270 307
#     4  10  19  35  56  82 111 141 186 227 269 318
#     4  10  18  31  54  79 109 136 181 234 263 304
#
# _framework density 18.103898999999998
#
# number of rings (size 3 to 8) (size 9 to 14) (size 15 to 20)
#    0.750    1.000    5.000    2.250    0.000    0.500 
#    0.000    1.250    2.750    3.000    0.000    0.000 
#    0.000    0.000    0.000    0.000    0.000    0.000 
#
# Total GULP energy -89079.595951 kJ/mol
# GULP energy per Si atom -5567.474747 kJ/mol
# Density = 1.806269 g / cm^3
# Si number density = 18.103899 Si / 1000 Ang^3
#
#
#
# Elastic Constant Matrix: (Units=GPa)
#
#
# Indices 1 2 3 4 5 6 
#
# 1 111.3636 32.9263 48.8957 0.6903 10.5748 22.0648
# 2 32.9263 38.5680 25.1720 14.5552 8.6116 10.9299
# 3 48.8957 25.1720 111.5575 16.2473 10.2053 5.0999
# 4 0.6903 14.5552 16.2473 22.7502 2.6074 4.6333
# 5 10.5748 8.6116 10.2053 2.6074 26.4042 -1.9935
# 6 22.0648 10.9299 5.0999 4.6333 -1.9935 29.6082
#
#
#
# Elastic Compliance Matrix: (Units=1/GPa)
#
#
# Indices 1 2 3 4 5 6 
#
# 1 0.017709 -0.013279 -0.006227 0.014669 -0.002535 -0.009689
# 2 -0.013279 0.052770 -0.000522 -0.030876 -0.009040 -0.005272
# 3 -0.006227 -0.000522 0.013123 -0.009527 -0.001166 0.003986
# 4 0.014669 -0.030876 -0.009527 0.071920 0.000085 -0.009142
# 5 -0.002535 -0.009040 -0.001166 0.000085 0.042906 0.008303
# 6 -0.009689 -0.005272 0.003986 -0.009142 0.008303 0.044244
#
#
# Mechanical properties :
#
#
# Convention : Reuss Voigt Hill
#
# Bulk Modulus (GPa) = 22.96431 52.83081 37.89756
# Shear Modulus (GPa) = 16.82117 26.05218 21.43667
#
# Velocity S-wave (km/s) = 3.05150 3.79758 3.44480
# Velocity P-wave (km/s) = 5.01276 6.96234 6.06638
#
# Compressibility (1/GPa) = 0.04354583
#
# Stress axis : x y z
#
# Youngs Moduli (GPa) = 56.46717 18.95020 76.20010
#
# Poissons Ratio (x) = 0.25163 0.47453
# Poissons Ratio (y) = 0.74980 0.03981
# Poissons Ratio (z) = 0.35165 0.00990
#
# Static dielectric constant tensor:
#      x y z
#    x 1.653940 0.037740 -0.002920 
#    y 0.037740 1.647690 0.017130 
#    z -0.002920 0.017130 1.642170 
# 
# From -- ./inp_files/259653.got.cif
#   From: 2010.05.17/outbox.cif.g08.bks.cpg/sg2_130_cif.got.tgz:259653.got - 2010.06.03 11:33:40.
