data_PCOD9073201
_publ_section_title
;
Structure prediction by ZEFSAII (Michael W. Deem and Ramdas Pophale) SiO2 
 PCOD9073201
Probable space group: P -1
;
_chemical_formula_sum "Si O2"
_cell_formula_units_Z 16
_cell_length_a 21.000000
_cell_length_b 21.000000
_cell_length_c 9.000000
_cell_angle_alpha 140.000000
_cell_angle_beta 140.000000
_cell_angle_gamma 20.000000
_cell_volume 853.086973
_symmetry_space_group_name_H-M "P -1"
_symmetry_group_IT_number 2
_symmetry_cell_setting 'triclinic'
loop_
_space_group_symop_operation_xyz
x,y,z
-x,-y,-z
loop_
_atom_site_type_symbol
_atom_site_label
_atom_site_fract_x
_atom_site_fract_y
_atom_site_fract_z
Si Si1 0.402348 0.310721 0.753927
Si Si2 0.776806 0.322364 0.341668
Si Si3 0.567397 0.079368 0.903116
Si Si4 0.842050 0.315032 0.110779
Si Si5 0.253072 0.887970 0.161717
Si Si6 0.226223 0.279230 0.502135
Si Si7 0.200820 0.983546 0.587838
Si Si8 0.410704 0.625285 0.417470
O O1 0.504361 0.224365 0.942839
O O2 0.212210 0.537190 0.801913
O O3 0.558911 0.220989 0.762356
O O4 0.327819 0.261555 0.525750
O O5 0.781452 0.368882 0.271737
O O6 0.591135 0.507714 0.434054
O O7 0.761930 0.216513 0.089838
O O8 0.970652 0.185788 0.530996
O O9 0.362237 0.194336 0.736200
O O10 0.718221 0.879753 0.728841
O O11 0.674900 0.029652 0.151972
O O12 0.709067 0.350733 0.850997
O O13 0.063172 0.097191 0.122820
O O14 0.246942 0.912371 0.372067
O O15 0.000000 0.500000 0.500000
O O16 0.264094 0.840701 0.554456
O O17 0.500000 0.500000 0.500000
#
# Coordination Sequence:
#
# PCOD9073201 Si02
#       8
#     2   2   2   2   2   2   2   2
#     4  10  21  35  63  92 107 152 201 243 286 356
#     4  11  22  39  56  79 128 177 194 226 283 348
#     4   9  22  40  62  90 114 145 196 247 303 349
#     4  11  20  36  57  82 120 162 204 227 284 345
#     4  11  21  37  60  82 122 170 198 231 281 350
#     4   9  21  43  68  84 115 151 187 245 319 359
#     4  11  22  39  56  86 123 158 196 239 294 333
#     4  12  23  33  53  85 119 160 202 245 273 330
#
# _framework density 18.755414999999999
#
# number of rings (size 3 to 8) (size 9 to 14) (size 15 to 20)
#    0.750    0.750    3.750    2.625    1.750    2.500 
#    0.000    0.625    0.000    3.750    0.000    0.000 
#    0.000    0.000    0.000    0.000    0.000    0.000 
#
# Total GULP energy -89080.765933 kJ/mol
# GULP energy per Si atom -5567.547871 kJ/mol
# Density = 1.871273 g / cm^3
# Si number density = 18.755415 Si / 1000 Ang^3
#
#
#
# Elastic Constant Matrix: (Units=GPa)
#
#
# Indices 1 2 3 4 5 6 
#
# 1 25.2931 15.3969 1.7389 -8.4145 7.6918 5.3021
# 2 15.3969 132.7604 30.0607 -28.2516 -3.1383 12.1953
# 3 1.7389 30.0607 76.6010 -34.2923 -0.9725 10.3576
# 4 -8.4145 -28.2516 -34.2923 28.9306 3.4592 3.3536
# 5 7.6918 -3.1383 -0.9725 3.4592 15.7545 -2.3797
# 6 5.3021 12.1953 10.3576 3.3536 -2.3797 35.8720
#
#
#
# Elastic Compliance Matrix: (Units=1/GPa)
#
#
# Indices 1 2 3 4 5 6 
#
# 1 0.100178 0.001150 0.046580 0.099297 -0.074081 -0.042845
# 2 0.001150 0.010564 0.004207 0.016765 -0.002896 -0.006736
# 3 0.046580 0.004207 0.057457 0.095392 -0.044861 -0.036799
# 4 0.099297 0.016765 0.095392 0.213132 -0.097273 -0.074298
# 5 -0.074081 -0.002896 -0.044861 -0.097273 0.124031 0.042209
# 6 -0.042845 -0.006736 -0.036799 -0.074298 0.042209 0.056871
#
#
# Mechanical properties :
#
#
# Convention : Reuss Voigt Hill
#
# Bulk Modulus (GPa) = 3.67546 36.56082 20.11814
# Shear Modulus (GPa) = 9.10665 28.60862 18.85763
#
# Velocity S-wave (km/s) = 2.20591 3.90981 3.17432
# Velocity P-wave (km/s) = 2.90722 6.31807 4.91782
#
# Compressibility (1/GPa) = 0.27207491
#
# Stress axis : x y z
#
# Youngs Moduli (GPa) = 9.98220 94.65931 17.40431
#
# Poissons Ratio (x) = -0.10884 -0.81070
# Poissons Ratio (y) = -0.01148 -0.07323
# Poissons Ratio (z) = -0.46498 -0.39827
#
# Static dielectric constant tensor:
#      x y z
#    x 1.674630 0.014630 0.023090 
#    y 0.014630 1.668920 0.023860 
#    z 0.023090 0.023860 1.682540 
# 
# From -- ./inp_files/349630.got.cif
#   From: 2010.05.17/outbox.ucp.g08.bks.cvg/sg2_175_cif.got.tgz:349630.got - 2010.06.11 11:32:03.
