data_PCOD9073837
_publ_section_title
;
Structure prediction by ZEFSAII (Michael W. Deem and Ramdas Pophale) SiO2 
 PCOD9073837
Probable space group: P -1
;
_chemical_formula_sum "Si O2"
_cell_formula_units_Z 16
_cell_length_a 8.844971
_cell_length_b 11.824327
_cell_length_c 12.253631
_cell_angle_alpha 47.185324
_cell_angle_beta 72.484951
_cell_angle_gamma 53.278911
_cell_volume 741.329539
_symmetry_space_group_name_H-M "P -1"
_symmetry_group_IT_number 2
_symmetry_cell_setting 'triclinic'
loop_
_space_group_symop_operation_xyz
x,y,z
-x,-y,-z
loop_
_atom_site_type_symbol
_atom_site_label
_atom_site_fract_x
_atom_site_fract_y
_atom_site_fract_z
Si Si1 0.472365 0.260788 0.656452
Si Si2 0.853183 0.893792 0.853916
Si Si3 0.688454 0.967939 0.083883
Si Si4 0.930476 0.942699 0.239257
Si Si5 0.430596 0.904647 0.656769
Si Si6 0.314665 0.300793 0.047663
Si Si7 0.349084 0.594649 0.316526
Si Si8 0.447951 0.547862 0.852314
O O1 0.334877 0.195358 0.763203
O O2 0.395539 0.400983 0.480713
O O3 0.510324 0.361881 0.679921
O O4 0.681078 0.073125 0.708490
O O5 0.862205 0.716410 0.922910
O O6 0.771483 0.930607 0.970471
O O7 0.033171 0.907809 0.816373
O O8 0.824774 0.994873 0.112645
O O9 0.477357 0.153763 0.022862
O O10 0.136932 0.755480 0.296729
O O11 0.777179 0.939867 0.350268
O O12 0.582448 0.792763 0.796668
O O13 0.403125 0.751292 0.709882
O O14 0.500000 0.000000 0.500000
O O15 0.295688 0.492866 0.906097
O O16 0.385825 0.578560 0.189891
O O17 0.500000 0.500000 0.000000
#
# Coordination Sequence:
#
# PCOD9073837 Si02
#       8
#     2   2   2   2   2   2   2   2
#     4   9  19  33  57  91 122 164 200 250 307 366
#     4  10  18  33  59  88 123 155 202 251 302 358
#     4  10  18  31  57  90 125 153 199 247 313 351
#     4  10  22  37  59  92 121 158 207 256 305 353
#     4  10  23  41  61  84 121 164 203 247 312 376
#     4   9  18  35  59  83 114 159 210 234 296 371
#     4  10  20  37  62  88 128 153 211 258 299 354
#     4  10  21  37  61  89 119 164 207 243 301 368
#
# _framework density 21.582846
#
# number of rings (size 3 to 8) (size 9 to 14) (size 15 to 20)
#    0.000    2.250    0.000    4.125    5.250    2.500 
#    0.000    1.250    0.000    0.000    0.000    0.000 
#    0.000    0.000    0.000    0.000    0.000    0.000 
#
# Total GULP energy -89269.003656 kJ/mol
# GULP energy per Si atom -5579.312728 kJ/mol
# Density = 2.153372 g / cm^3
# Si number density = 21.582846 Si / 1000 Ang^3
#
#
#
# Elastic Constant Matrix: (Units=GPa)
#
#
# Indices 1 2 3 4 5 6 
#
# 1 134.5749 38.2846 49.8087 -0.4296 -24.2754 5.3082
# 2 38.2846 92.7475 46.3693 11.2633 -17.5165 3.2098
# 3 49.8087 46.3693 124.5307 0.8683 -35.4713 3.6165
# 4 -0.4296 11.2633 0.8683 30.0282 7.0566 -9.7243
# 5 -24.2754 -17.5165 -35.4713 7.0566 28.9779 -5.2103
# 6 5.3082 3.2098 3.6165 -9.7243 -5.2103 25.0609
#
#
#
# Elastic Compliance Matrix: (Units=1/GPa)
#
#
# Indices 1 2 3 4 5 6 
#
# 1 0.009517 -0.002171 -0.001679 -0.000285 0.004555 -0.000659
# 2 -0.002171 0.015279 -0.003354 -0.007746 0.004649 -0.003052
# 3 -0.001679 -0.003354 0.014075 -0.002299 0.014512 0.000880
# 4 -0.000285 -0.007746 -0.002299 0.045046 -0.015907 0.015556
# 5 0.004555 0.004649 0.014512 -0.015907 0.063376 0.003349
# 6 -0.000659 -0.003052 0.000880 0.015556 0.003349 0.047039
#
#
# Mechanical properties :
#
#
# Convention : Reuss Voigt Hill
#
# Bulk Modulus (GPa) = 40.87946 68.97537 54.92741
# Shear Modulus (GPa) = 23.05271 31.30609 27.17940
#
# Velocity S-wave (km/s) = 3.27173 3.81269 3.55252
# Velocity P-wave (km/s) = 5.76664 7.17007 6.50631
#
# Compressibility (1/GPa) = 0.02446217
#
# Stress axis : x y z
#
# Youngs Moduli (GPa) = 105.07734 65.44762 71.04825
#
# Poissons Ratio (x) = 0.14209 0.11932
# Poissons Ratio (y) = 0.22813 0.23830
# Poissons Ratio (z) = 0.17647 0.21951
#
# Static dielectric constant tensor:
#      x y z
#    x 1.840670 0.030360 -0.009720 
#    y 0.030360 1.835180 -0.012650 
#    z -0.009720 -0.012650 1.791680 
# 
# From -- ./inp_files/392059.got.cif
#   From: 2010.05.17/outbox.cif.g08.bks.cpg/sg2_197_cif.got.tgz:392059.got - 2010.06.03 11:33:40.
