data_PCOD9073824
_publ_section_title
;
Structure prediction by ZEFSAII (Michael W. Deem and Ramdas Pophale) SiO2 
 PCOD9073824
Probable space group: P -1
;
_chemical_formula_sum "Si O2"
_cell_formula_units_Z 14
_cell_length_a 12.000000
_cell_length_b 15.000000
_cell_length_c 15.000000
_cell_angle_alpha 20.000000
_cell_angle_beta 60.000000
_cell_angle_gamma 70.000000
_cell_volume 721.429718
_symmetry_space_group_name_H-M "P -1"
_symmetry_group_IT_number 2
_symmetry_cell_setting 'triclinic'
loop_
_space_group_symop_operation_xyz
x,y,z
-x,-y,-z
loop_
_atom_site_type_symbol
_atom_site_label
_atom_site_fract_x
_atom_site_fract_y
_atom_site_fract_z
Si Si1 0.294898 0.671751 0.058577
Si Si2 0.829054 0.974737 0.339089
Si Si3 0.297705 0.384409 0.833122
Si Si4 0.007636 0.225030 0.208742
Si Si5 0.797362 0.352511 0.686534
Si Si6 0.120171 0.130339 0.967043
Si Si7 0.482590 0.066454 0.129161
O O1 0.264389 0.368037 0.311211
O O2 0.192938 0.612017 0.243431
O O3 0.449663 0.832118 0.893929
O O4 0.256490 0.862970 0.824471
O O5 0.885983 0.081396 0.316030
O O6 0.970785 0.050372 0.151424
O O7 0.240955 0.280341 0.853710
O O8 0.402043 0.723064 0.476662
O O9 0.157723 0.324591 0.003816
O O10 0.379166 0.206885 0.007952
O O11 0.000000 0.000000 0.500000
O O12 0.000000 0.500000 0.000000
O O13 0.857488 0.648276 0.330396
O O14 0.625325 0.191574 0.893877
O O15 0.864119 0.145496 0.818457
#
# Coordination Sequence:
#
# PCOD9073824 Si02
#       7
#     2   2   2   2   2   2   2
#     4  10  22  38  56  85 117 169 192 225 281 336
#     4  11  22  39  62  83 119 153 188 248 290 344
#     4  11  22  39  62  83 119 153 188 248 290 344
#     4  11  24  43  68  94 110 138 188 245 310 351
#     4  10  22  35  52  89 118 163 200 233 266 332
#     4  11  22  34  54  89 116 157 206 238 288 311
#     4  10  22  38  56  85 117 169 192 225 281 336
#
# _framework density 19.405909999999999
#
# number of rings (size 3 to 8) (size 9 to 14) (size 15 to 20)
#    0.857    0.571    0.000    6.000    0.000   11.429 
#    0.000    0.000    0.000   17.143    0.000    0.000 
#    0.000    0.000    0.000    0.000    0.000    0.000 
#
# Total GULP energy -78235.407887 kJ/mol
# GULP energy per Si atom -5588.243421 kJ/mol
# Density = 1.936174 g / cm^3
# Si number density = 19.405910 Si / 1000 Ang^3
#
#
#
# Elastic Constant Matrix: (Units=GPa)
#
#
# Indices 1 2 3 4 5 6 
#
# 1 108.4852 11.1083 32.1686 -22.5440 26.4365 13.5278
# 2 11.1083 68.9937 14.3023 -18.0407 21.7066 11.7192
# 3 32.1686 14.3023 61.1915 -28.7435 22.3240 1.8313
# 4 -22.5440 -18.0407 -28.7435 35.8199 -4.9554 -3.4990
# 5 26.4365 21.7066 22.3240 -4.9554 45.2294 -3.5958
# 6 13.5278 11.7192 1.8313 -3.4990 -3.5958 32.8143
#
#
#
# Elastic Compliance Matrix: (Units=1/GPa)
#
#
# Indices 1 2 3 4 5 6 
#
# 1 0.013990 0.004369 -0.000720 0.008373 -0.009593 -0.007446
# 2 0.004369 0.023554 0.005835 0.016076 -0.015816 -0.010558
# 3 -0.000720 0.005835 0.034421 0.027565 -0.016554 -0.002583
# 4 0.008373 0.016076 0.027565 0.059974 -0.020164 -0.006546
# 5 -0.009593 -0.015816 -0.016554 -0.020164 0.042303 0.013013
# 6 -0.007446 -0.010558 -0.002583 -0.006546 0.013013 0.038187
#
#
# Mechanical properties :
#
#
# Convention : Reuss Voigt Hill
#
# Bulk Modulus (GPa) = 10.99695 39.31432 25.15563
# Shear Modulus (GPa) = 22.34410 34.84547 28.59478
#
# Velocity S-wave (km/s) = 3.39692 4.24206 3.84280
# Velocity P-wave (km/s) = 4.58961 6.65555 5.71668
#
# Compressibility (1/GPa) = 0.09093433
#
# Stress axis : x y z
#
# Youngs Moduli (GPa) = 71.47787 42.45585 29.05172
#
# Poissons Ratio (x) = -0.18550 0.02092
# Poissons Ratio (y) = -0.31231 -0.16952
# Poissons Ratio (z) = 0.05147 -0.24773
#
# Static dielectric constant tensor:
#      x y z
#    x 1.677590 0.003830 -0.022580 
#    y 0.003830 1.655040 0.005050 
#    z -0.022580 0.005050 1.655560 
# 
# From -- ./inp_files/432858.got.cif
#   From: 2010.05.17/outbox.ucp.g08.bks.cvg/sg2_217_cif.got.tgz:432858.got - 2010.06.11 11:32:03.
