data_PCOD9073779
_publ_section_title
;
Structure prediction by ZEFSAII (Michael W. Deem and Ramdas Pophale) SiO2 
 PCOD9073779
Probable space group: P -1
;
_chemical_formula_sum "Si O2"
_cell_formula_units_Z 16
_cell_length_a 15.000000
_cell_length_b 15.000000
_cell_length_c 9.000000
_cell_angle_alpha 100.000000
_cell_angle_beta 50.000000
_cell_angle_gamma 140.000000
_cell_volume 759.999475
_symmetry_space_group_name_H-M "P -1"
_symmetry_group_IT_number 2
_symmetry_cell_setting 'triclinic'
loop_
_space_group_symop_operation_xyz
x,y,z
-x,-y,-z
loop_
_atom_site_type_symbol
_atom_site_label
_atom_site_fract_x
_atom_site_fract_y
_atom_site_fract_z
Si Si1 0.782121 0.618749 0.639546
Si Si2 0.999195 0.635313 0.193325
Si Si3 0.474754 0.878347 0.620601
Si Si4 0.339405 0.187537 0.048215
Si Si5 0.643895 0.404965 0.239238
Si Si6 0.311547 0.726916 0.424459
Si Si7 0.042254 0.716560 0.664316
Si Si8 0.789787 0.814119 0.515783
O O1 0.974013 0.698036 0.354803
O O2 0.755711 0.698825 0.615227
O O3 0.909291 0.692160 0.683382
O O4 0.529308 0.394618 0.855014
O O5 0.811031 0.536232 0.239714
O O6 0.888105 0.473452 0.349961
O O7 0.256649 0.787509 0.899388
O O8 0.440150 0.753989 0.686710
O O9 0.430236 0.847694 0.481854
O O10 0.739464 0.085713 0.434436
O O11 0.282484 0.158532 0.276381
O O12 0.490107 0.199418 0.848921
O O13 0.066924 0.007666 0.226978
O O14 0.411630 0.308940 0.429423
O O15 0.829380 0.540554 0.946255
O O16 0.178034 0.714772 0.470126
#
# Coordination Sequence:
#
# PCOD9073779 Si02
#       8
#     2   2   2   2   2   2   2   2
#     4  11  26  42  63 101 131 165 219 267 309 383
#     4  10  22  44  66  95 137 164 207 272 323 376
#     4  11  23  40  67  98 134 162 213 264 324 387
#     4  10  24  42  68  88 130 172 211 268 317 365
#     4  11  23  43  68  93 127 177 212 257 328 376
#     4  10  21  44  65  97 131 165 211 272 319 381
#     4  12  24  37  71  98 127 172 209 263 329 377
#     4  11  25  44  66  90 132 175 217 260 315 380
#
# _framework density 21.052645999999999
#
# number of rings (size 3 to 8) (size 9 to 14) (size 15 to 20)
#    0.000    1.250    3.750    1.500    5.250    4.000 
#    0.000    5.625    0.000    0.000    0.000    0.000 
#    0.000    0.000    0.000    0.000    0.000    0.000 
#
# Total GULP energy -89287.466618 kJ/mol
# GULP energy per Si atom -5580.466664 kJ/mol
# Density = 2.100473 g / cm^3
# Si number density = 21.052646 Si / 1000 Ang^3
#
#
#
# Elastic Constant Matrix: (Units=GPa)
#
#
# Indices 1 2 3 4 5 6 
#
# 1 115.9711 13.1401 12.2586 -25.5340 -3.8861 6.2964
# 2 13.1401 43.5052 20.4637 -21.1687 -1.0236 -0.0986
# 3 12.2586 20.4637 112.3666 -25.8178 -22.2627 -6.7953
# 4 -25.5340 -21.1687 -25.8178 40.6814 10.1302 -7.9991
# 5 -3.8861 -1.0236 -22.2627 10.1302 29.0095 -8.5060
# 6 6.2964 -0.0986 -6.7953 -7.9991 -8.5060 20.4564
#
#
#
# Elastic Compliance Matrix: (Units=1/GPa)
#
#
# Indices 1 2 3 4 5 6 
#
# 1 0.010050 0.000041 0.000101 0.006478 -0.001129 -0.000996
# 2 0.000041 0.032680 -0.003005 0.017328 -0.006221 0.003336
# 3 0.000101 -0.003005 0.014141 0.006920 0.011958 0.012330
# 4 0.006478 0.017328 0.006920 0.046466 -0.004549 0.016666
# 5 -0.001129 -0.006221 0.011958 -0.004549 0.051935 0.024106
# 6 -0.000996 0.003336 0.012330 0.016666 0.024106 0.069844
#
#
# Mechanical properties :
#
#
# Convention : Reuss Voigt Hill
#
# Bulk Modulus (GPa) = 19.55309 40.39643 29.97476
# Shear Modulus (GPa) = 20.17020 33.09483 26.63251
#
# Velocity S-wave (km/s) = 3.09865 3.96915 3.56060
# Velocity P-wave (km/s) = 4.70213 6.34315 5.58326
#
# Compressibility (1/GPa) = 0.05114280
#
# Stress axis : x y z
#
# Youngs Moduli (GPa) = 99.50008 30.59991 70.71796
#
# Poissons Ratio (x) = -0.00124 -0.00712
# Poissons Ratio (y) = -0.00404 0.21253
# Poissons Ratio (z) = -0.01002 0.09196
#
# Static dielectric constant tensor:
#      x y z
#    x 1.804930 -0.023870 0.024730 
#    y -0.023870 1.870190 0.032290 
#    z 0.024730 0.032290 1.728510 
# 
# From -- ./inp_files/315385.got.cif
#   From: 2010.05.17/outbox.ucp.g08.bks.cvg/sg2_158_cif.got.tgz:315385.got - 2010.06.11 11:32:03.
