data_PCOD9073347
_publ_section_title
;
Structure prediction by ZEFSAII (Michael W. Deem and Ramdas Pophale) SiO2 
 PCOD9073347
Probable space group: P -1
;
_chemical_formula_sum "Si O2"
_cell_formula_units_Z 16
_cell_length_a 23.770272
_cell_length_b 8.611180
_cell_length_c 15.301190
_cell_angle_alpha 48.211915
_cell_angle_beta 19.445580
_cell_angle_gamma 44.787091
_cell_volume 734.485736
_symmetry_space_group_name_H-M "P -1"
_symmetry_group_IT_number 2
_symmetry_cell_setting 'triclinic'
loop_
_space_group_symop_operation_xyz
x,y,z
-x,-y,-z
loop_
_atom_site_type_symbol
_atom_site_label
_atom_site_fract_x
_atom_site_fract_y
_atom_site_fract_z
Si Si1 0.958690 0.798015 0.685651
Si Si2 0.328148 0.682910 0.149038
Si Si3 0.723000 0.005731 0.655216
Si Si4 0.588916 0.942818 0.687996
Si Si5 0.957535 0.802306 0.873862
Si Si6 0.295564 0.303125 0.034299
Si Si7 0.555963 0.491198 0.132754
Si Si8 0.236424 0.306975 0.645862
O O1 0.866804 0.863299 0.888749
O O2 0.863055 0.676587 0.807749
O O3 0.165950 0.665524 0.449437
O O4 0.000000 0.000000 0.500000
O O5 0.500000 0.500000 0.000000
O O6 0.401505 0.886173 0.974208
O O7 0.311852 0.615927 0.099683
O O8 0.568497 0.249730 0.799277
O O9 0.905917 0.061965 0.362931
O O10 0.684018 0.900988 0.659758
O O11 0.724992 0.850801 0.794380
O O12 0.713274 0.825609 0.469844
O O13 0.488661 0.204029 0.739820
O O14 0.075394 0.541250 0.791342
O O15 0.823823 0.828677 0.140097
O O16 0.317176 0.515440 0.969112
O O17 0.412661 0.364537 0.394569
#
# Coordination Sequence:
#
# PCOD9073347 Si02
#       8
#     2   2   2   2   2   2   2   2
#     4  12  22  35  56  85 116 144 175 232 289 321
#     4  11  19  33  55  80 111 144 184 219 270 336
#     4  10  18  31  55  85 112 141 180 230 281 320
#     4  10  18  31  54  80 108 143 187 226 268 330
#     4  10  20  37  55  78 111 149 188 230 268 323
#     4  11  20  33  53  83 117 140 174 231 287 326
#     4   9  19  33  54  79 107 145 185 224 265 328
#     4   9  20  37  58  78 106 150 196 223 261 325
#
# _framework density 21.783950000000001
#
# number of rings (size 3 to 8) (size 9 to 14) (size 15 to 20)
#    0.000    1.750    2.500    5.250    0.000    1.000 
#    0.000    1.250    0.000    0.000    0.000    0.000 
#    0.000    0.000    0.000    0.000    0.000    0.000 
#
# Total GULP energy -89140.159252 kJ/mol
# GULP energy per Si atom -5571.259953 kJ/mol
# Density = 2.173437 g / cm^3
# Si number density = 21.783950 Si / 1000 Ang^3
#
#
#
# Elastic Constant Matrix: (Units=GPa)
#
#
# Indices 1 2 3 4 5 6 
#
# 1 165.9008 25.0717 55.9112 -6.0122 8.8434 43.6482
# 2 25.0717 25.9621 15.2207 -0.3149 12.0670 17.9414
# 3 55.9112 15.2207 90.4792 -3.7245 32.7688 13.7684
# 4 -6.0122 -0.3149 -3.7245 21.4231 6.4991 1.5128
# 5 8.8434 12.0670 32.7688 6.4991 35.9250 5.6698
# 6 43.6482 17.9414 13.7684 1.5128 5.6698 38.4946
#
#
#
# Elastic Compliance Matrix: (Units=1/GPa)
#
#
# Indices 1 2 3 4 5 6 
#
# 1 0.011065 -0.002613 -0.007065 0.000703 0.006004 -0.009713
# 2 -0.002613 0.068660 0.002625 0.009391 -0.022241 -0.027070
# 3 -0.007065 0.002625 0.023073 0.008633 -0.021977 0.001433
# 4 0.000703 0.009391 0.008633 0.055107 -0.019990 -0.007483
# 5 0.006004 -0.022241 -0.021977 -0.019990 0.056887 0.003825
# 6 -0.009713 -0.027070 0.001433 -0.007483 0.003825 0.048826
#
#
# Mechanical properties :
#
#
# Convention : Reuss Voigt Hill
#
# Bulk Modulus (GPa) = 11.27502 52.74992 32.01247
# Shear Modulus (GPa) = 16.27134 31.57777 23.92456
#
# Velocity S-wave (km/s) = 2.73599 3.81148 3.31760
# Velocity P-wave (km/s) = 3.89460 6.60586 5.42242
#
# Compressibility (1/GPa) = 0.08869167
#
# Stress axis : x y z
#
# Youngs Moduli (GPa) = 90.37834 14.56447 43.34017
#
# Poissons Ratio (x) = 0.03806 0.30622
# Poissons Ratio (y) = 0.23616 -0.11378
# Poissons Ratio (z) = 0.63856 -0.03823
#
# Static dielectric constant tensor:
#      x y z
#    x 1.761780 -0.284420 -0.109320 
#    y -0.284420 1.756960 -0.096900 
#    z -0.109320 -0.096900 1.630080 
# 
# From -- ./inp_files/347049.got.cif
#   From: 2010.05.17/outbox.cif.g08.bks.cpg/sg2_174_cif.got.tgz:347049.got - 2010.06.03 11:33:40.
