data_PCOD9073106
_publ_section_title
;
Structure prediction by ZEFSAII (Michael W. Deem and Ramdas Pophale) SiO2 
 PCOD9073106
Probable space group: P -1
;
_chemical_formula_sum "Si O2"
_cell_formula_units_Z 14
_cell_length_a 9.000000
_cell_length_b 27.000000
_cell_length_c 12.000000
_cell_angle_alpha 150.000000
_cell_angle_beta 140.000000
_cell_angle_gamma 30.000000
_cell_volume 727.497153
_symmetry_space_group_name_H-M "P -1"
_symmetry_group_IT_number 2
_symmetry_cell_setting 'triclinic'
loop_
_space_group_symop_operation_xyz
x,y,z
-x,-y,-z
loop_
_atom_site_type_symbol
_atom_site_label
_atom_site_fract_x
_atom_site_fract_y
_atom_site_fract_z
Si Si1 0.759373 0.178155 0.823795
Si Si2 0.316627 0.860283 0.894834
Si Si3 0.716434 0.698893 0.017942
Si Si4 0.709203 0.812405 0.817206
Si Si5 0.232263 0.711358 0.389000
Si Si6 0.792208 0.115280 0.472251
Si Si7 0.887119 0.538080 0.382516
O O1 0.490070 0.271917 0.937128
O O2 0.697616 0.193538 0.685533
O O3 0.905166 0.029455 0.630643
O O4 0.023386 0.183670 0.012645
O O5 0.523562 0.857158 0.913881
O O6 0.266346 0.763281 0.625422
O O7 0.494117 0.806978 0.008938
O O8 0.000000 0.000000 0.000000
O O9 0.969189 0.704365 0.219723
O O10 0.898700 0.568480 0.794365
O O11 0.467984 0.888164 0.727469
O O12 0.841952 0.667006 0.588046
O O13 0.165249 0.813894 0.459162
O O14 0.554013 0.582244 0.284846
O O15 0.000000 0.500000 0.500000
#
# Coordination Sequence:
#
# PCOD9073106 Si02
#       7
#     2   2   2   2   2   2   2
#     4  11  23  36  59  87 121 158 186 236 300 353
#     4  10  21  37  61  91 116 152 203 245 287 344
#     4  12  22  37  61  92 117 151 204 244 290 350
#     4  10  21  40  60  81 120 158 191 239 299 342
#     4  10  22  39  63  86 116 157 196 248 293 341
#     4   9  21  40  56  84 119 156 193 227 297 357
#     4  10  20  42  63  86 111 156 202 248 297 340
#
# _framework density 19.244062
#
# number of rings (size 3 to 8) (size 9 to 14) (size 15 to 20)
#    0.000    2.000    2.857    3.429    0.000    6.286 
#    0.000    2.857    0.000    0.000    0.000    0.000 
#    0.000    0.000    0.000    0.000    0.000    0.000 
#
# Total GULP energy -78084.587608 kJ/mol
# GULP energy per Si atom -5577.470543 kJ/mol
# Density = 1.920026 g / cm^3
# Si number density = 19.244062 Si / 1000 Ang^3
#
#
#
# Elastic Constant Matrix: (Units=GPa)
#
#
# Indices 1 2 3 4 5 6 
#
# 1 83.3926 11.9528 43.7285 -6.1813 -7.1292 -39.0094
# 2 11.9528 54.1923 16.3344 1.7621 6.8550 -20.1589
# 3 43.7285 16.3344 79.5751 -9.5486 -12.5097 -28.4397
# 4 -6.1813 1.7621 -9.5486 38.3810 -9.7450 -8.6369
# 5 -7.1292 6.8550 -12.5097 -9.7450 31.6505 -0.3547
# 6 -39.0094 -20.1589 -28.4397 -8.6369 -0.3547 36.9773
#
#
#
# Elastic Compliance Matrix: (Units=1/GPa)
#
#
# Indices 1 2 3 4 5 6 
#
# 1 0.033877 0.006685 -0.000520 0.017783 0.011937 0.043251
# 2 0.006685 0.025384 -0.001886 0.003064 -0.003568 0.020122
# 3 -0.000520 -0.001886 0.024931 0.014764 0.014928 0.021189
# 4 0.017783 0.003064 0.014764 0.048443 0.024578 0.043337
# 5 0.011937 -0.003568 0.014928 0.024578 0.048842 0.028338
# 6 0.043251 0.020122 0.021189 0.043337 0.028338 0.110332
#
#
# Mechanical properties :
#
#
# Convention : Reuss Voigt Hill
#
# Bulk Modulus (GPa) = 10.78174 40.13239 25.45707
# Shear Modulus (GPa) = 15.91508 31.07805 23.49656
#
# Velocity S-wave (km/s) = 2.87890 4.02299 3.49804
# Velocity P-wave (km/s) = 4.08235 6.51759 5.43804
#
# Compressibility (1/GPa) = 0.09274941
#
# Stress axis : x y z
#
# Youngs Moduli (GPa) = 29.51895 39.39546 40.11036
#
# Poissons Ratio (x) = -0.26338 0.02087
# Poissons Ratio (y) = -0.19735 0.07565
# Poissons Ratio (z) = 0.01536 0.07431
#
# Static dielectric constant tensor:
#      x y z
#    x 1.653440 0.027510 0.015800 
#    y 0.027510 1.742790 -0.001340 
#    z 0.015800 -0.001340 1.682330 
# 
# From -- ./inp_files/252746.got.cif
#   From: 2010.05.17/outbox.ucp.g08.bks.cvg/sg2_127_cif.got.tgz:252746.got - 2010.06.11 11:32:03.
