data_PCOD9073537
_publ_section_title
;
Structure prediction by ZEFSAII (Michael W. Deem and Ramdas Pophale) SiO2 
 PCOD9073537
Probable space group: P -1
;
_chemical_formula_sum "Si O2"
_cell_formula_units_Z 16
_cell_length_a 12.000000
_cell_length_b 15.000000
_cell_length_c 9.000000
_cell_angle_alpha 50.000000
_cell_angle_beta 70.000000
_cell_angle_gamma 40.000000
_cell_volume 759.581896
_symmetry_space_group_name_H-M "P -1"
_symmetry_group_IT_number 2
_symmetry_cell_setting 'triclinic'
loop_
_space_group_symop_operation_xyz
x,y,z
-x,-y,-z
loop_
_atom_site_type_symbol
_atom_site_label
_atom_site_fract_x
_atom_site_fract_y
_atom_site_fract_z
Si Si1 0.865450 0.426216 0.170286
Si Si2 0.976981 0.076245 0.092072
Si Si3 0.789874 0.719921 0.976075
Si Si4 0.515263 0.791027 0.483883
Si Si5 0.327517 0.971819 0.105687
Si Si6 0.573375 0.006575 0.281567
Si Si7 0.332203 0.536483 0.054802
Si Si8 0.826796 0.960589 0.438990
O O1 0.009148 0.386479 0.041425
O O2 0.989642 0.245509 0.397065
O O3 0.794392 0.578600 0.150244
O O4 0.731793 0.458137 0.085622
O O5 0.893176 0.036197 0.274450
O O6 0.826880 0.287689 0.962135
O O7 0.165158 0.998404 0.138534
O O8 0.000000 0.000000 0.000000
O O9 0.722483 0.866276 0.967359
O O10 0.647337 0.829242 0.784393
O O11 0.497946 0.796968 0.309085
O O12 0.609117 0.842407 0.431993
O O13 0.604429 0.622588 0.713584
O O14 0.299060 0.944128 0.460146
O O15 0.385496 0.963912 0.924319
O O16 0.691257 0.993529 0.354620
O O17 0.500000 0.500000 0.000000
#
# Coordination Sequence:
#
# PCOD9073537 Si02
#       8
#     2   2   2   2   2   2   2   2
#     4  11  24  39  67 102 132 166 222 288 331 384
#     4  12  26  47  65  95 143 182 223 278 343 404
#     4  10  21  40  66  97 134 164 215 280 336 385
#     4  11  23  41  72  98 125 176 236 278 331 397
#     4  11  23  47  68  95 139 180 219 279 344 406
#     4  11  23  42  68  99 139 176 220 276 346 403
#     4  12  26  45  70  99 136 178 231 286 328 401
#     4  12  23  41  70  99 130 184 224 276 335 406
#
# _framework density 21.064219999999999
#
# number of rings (size 3 to 8) (size 9 to 14) (size 15 to 20)
#    0.000    0.750    6.250    2.625    5.250    1.000 
#    4.500    1.875    0.000    0.000    0.000    0.000 
#    0.000    0.000    0.000    0.000    0.000    0.000 
#
# Total GULP energy -89223.915800 kJ/mol
# GULP energy per Si atom -5576.494737 kJ/mol
# Density = 2.101628 g / cm^3
# Si number density = 21.064220 Si / 1000 Ang^3
#
#
#
# Elastic Constant Matrix: (Units=GPa)
#
#
# Indices 1 2 3 4 5 6 
#
# 1 182.3331 26.4485 41.6055 -3.0735 5.1413 -3.9408
# 2 26.4485 36.9823 19.4321 6.0074 5.2504 -6.1076
# 3 41.6055 19.4321 90.1875 -8.2059 -7.4472 3.8291
# 4 -3.0735 6.0074 -8.2059 37.9176 3.5720 -3.7158
# 5 5.1413 5.2504 -7.4472 3.5720 36.4645 7.9669
# 6 -3.9408 -6.1076 3.8291 -3.7158 7.9669 23.4560
#
#
#
# Elastic Compliance Matrix: (Units=1/GPa)
#
#
# Indices 1 2 3 4 5 6 
#
# 1 0.006577 -0.003142 -0.002452 0.000748 -0.001323 0.001255
# 2 -0.003142 0.038237 -0.008639 -0.006059 -0.009065 0.012958
# 3 -0.002452 -0.008639 0.015135 0.003254 0.005801 -0.006587
# 4 0.000748 -0.006059 0.003254 0.028613 -0.002083 0.003257
# 5 -0.001323 -0.009065 0.005801 -0.002083 0.033645 -0.015287
# 6 0.001255 0.012958 -0.006587 0.003257 -0.015287 0.053002
#
#
# Mechanical properties :
#
#
# Convention : Reuss Voigt Hill
#
# Bulk Modulus (GPa) = 31.76211 53.83056 42.79634
# Shear Modulus (GPa) = 23.34615 34.36876 28.85745
#
# Velocity S-wave (km/s) = 3.33277 4.04371 3.70533
# Velocity P-wave (km/s) = 5.47003 6.88571 6.21829
#
# Compressibility (1/GPa) = 0.03148405
#
# Stress axis : x y z
#
# Youngs Moduli (GPa) = 152.05393 26.15240 66.07137
#
# Poissons Ratio (x) = 0.08216 0.16197
# Poissons Ratio (y) = 0.47770 0.57082
# Poissons Ratio (z) = 0.37276 0.22594
#
# Static dielectric constant tensor:
#      x y z
#    x 1.731460 0.008210 0.002310 
#    y 0.008210 1.825550 -0.022860 
#    z 0.002310 -0.022860 1.827200 
# 
# From -- ./inp_files/271814.got.cif
#   From: 2010.05.17/outbox.ucp.g08.bks.cvg/sg2_136_cif.got.tgz:271814.got - 2010.06.11 11:32:03.
