data_PCOD9073850
_publ_section_title
;
Structure prediction by ZEFSAII (Michael W. Deem and Ramdas Pophale) SiO2 
 PCOD9073850
Probable space group: P -1
;
_chemical_formula_sum "Si O2"
_cell_formula_units_Z 16
_cell_length_a 11.979306
_cell_length_b 19.439593
_cell_length_c 9.086378
_cell_angle_alpha 123.738706
_cell_angle_beta 122.174107
_cell_angle_gamma 24.004659
_cell_volume 713.846584
_symmetry_space_group_name_H-M "P -1"
_symmetry_group_IT_number 2
_symmetry_cell_setting 'triclinic'
loop_
_space_group_symop_operation_xyz
x,y,z
-x,-y,-z
loop_
_atom_site_type_symbol
_atom_site_label
_atom_site_fract_x
_atom_site_fract_y
_atom_site_fract_z
Si Si1 0.825117 0.267877 0.629695
Si Si2 0.752217 0.424290 0.275268
Si Si3 0.989452 0.132063 0.046598
Si Si4 0.422390 0.142215 0.919791
Si Si5 0.937891 0.357782 0.012980
Si Si6 0.021953 0.938377 0.734186
Si Si7 0.344101 0.378604 0.122147
Si Si8 0.018646 0.302166 0.599690
O O1 0.527045 0.399639 0.627104
O O2 0.005166 0.095169 0.478342
O O3 0.835353 0.329828 0.577628
O O4 0.917649 0.274873 0.838174
O O5 0.822952 0.429012 0.179435
O O6 0.008895 0.292514 0.409865
O O7 0.740677 0.332477 0.123998
O O8 0.082830 0.050849 0.179847
O O9 0.251502 0.035631 0.050351
O O10 0.919859 0.088805 0.852755
O O11 0.297639 0.155450 0.715023
O O12 0.344017 0.280572 0.994159
O O13 0.252763 0.210619 0.027059
O O14 0.761515 0.515048 0.969315
O O15 0.348447 0.764433 0.789455
O O16 0.139725 0.525136 0.276735
#
# Coordination Sequence:
#
# PCOD9073850 Si02
#       8
#     2   2   2   2   2   2   2   2
#     4  10  19  36  58  82 107 137 190 227 263 312
#     4  12  21  34  53  89 112 140 177 226 278 318
#     4  10  21  33  58  81 114 138 181 223 271 322
#     4   9  20  38  54  79 108 149 180 222 266 319
#     4  10  22  33  55  84 111 145 174 227 275 321
#     4  10  18  35  60  86  99 142 187 229 262 312
#     4   9  17  36  60  77 107 136 187 228 265 310
#     4  10  18  31  58  80 104 140 183 228 258 317
#
# _framework density 22.413779000000002
#
# number of rings (size 3 to 8) (size 9 to 14) (size 15 to 20)
#    0.000    2.250    2.500    3.750    0.000    1.000 
#    0.000    3.125    0.000    0.000    0.000    0.000 
#    0.000    0.000    0.000    0.000    0.000    0.000 
#
# Total GULP energy -89307.118039 kJ/mol
# GULP energy per Si atom -5581.694877 kJ/mol
# Density = 2.236276 g / cm^3
# Si number density = 22.413779 Si / 1000 Ang^3
#
#
#
# Elastic Constant Matrix: (Units=GPa)
#
#
# Indices 1 2 3 4 5 6 
#
# 1 78.6486 12.8734 43.7242 -8.6787 -8.4230 -15.0554
# 2 12.8734 33.0061 15.1990 7.5161 -0.1308 -2.4239
# 3 43.7242 15.1990 121.4726 9.9039 -11.5880 9.8528
# 4 -8.6787 7.5161 9.9039 28.8331 6.7733 5.2857
# 5 -8.4230 -0.1308 -11.5880 6.7733 23.1806 2.5152
# 6 -15.0554 -2.4239 9.8528 5.2857 2.5152 27.0805
#
#
#
# Elastic Compliance Matrix: (Units=1/GPa)
#
#
# Indices 1 2 3 4 5 6 
#
# 1 0.022244 -0.005483 -0.009210 0.008956 -0.000638 0.013538
# 2 -0.005483 0.036015 -0.001863 -0.010984 0.000166 0.002982
# 3 -0.009210 -0.001863 0.013732 -0.006783 0.006528 -0.009566
# 4 0.008956 -0.010984 -0.006783 0.045972 -0.013495 -0.001255
# 5 -0.000638 0.000166 0.006528 -0.013495 0.050634 -0.004784
# 6 0.013538 0.002982 -0.009566 -0.001255 -0.004784 0.048890
#
#
# Mechanical properties :
#
#
# Convention : Reuss Voigt Hill
#
# Bulk Modulus (GPa) = 25.72074 41.85785 33.78929
# Shear Modulus (GPa) = 18.97119 26.57421 22.77270
#
# Velocity S-wave (km/s) = 2.91246 3.44702 3.19095
# Velocity P-wave (km/s) = 4.77601 5.87862 5.35576
#
# Compressibility (1/GPa) = 0.03887913
#
# Stress axis : x y z
#
# Youngs Moduli (GPa) = 44.95638 27.76644 72.82166
#
# Poissons Ratio (x) = 0.15223 0.67068
# Poissons Ratio (y) = 0.24648 0.13569
# Poissons Ratio (z) = 0.41404 0.05174
#
# Static dielectric constant tensor:
#      x y z
#    x 1.863430 -0.011310 0.019830 
#    y -0.011310 1.853290 -0.004900 
#    z 0.019830 -0.004900 1.861100 
# 
# From -- ./inp_files/282175.got.cif
#   From: 2010.05.17/outbox.cif.g08.bks.cpg/sg2_142_cif.got.tgz:282175.got - 2010.06.03 11:33:40.
