data_PCOD9073123
_publ_section_title
;
Structure prediction by ZEFSAII (Michael W. Deem and Ramdas Pophale) SiO2 
 PCOD9073123
Probable space group: P -1
;
_chemical_formula_sum "Si O2"
_cell_formula_units_Z 16
_cell_length_a 15.536658
_cell_length_b 11.728169
_cell_length_c 10.346327
_cell_angle_alpha 62.128627
_cell_angle_beta 122.428515
_cell_angle_gamma 153.489752
_cell_volume 709.899284
_symmetry_space_group_name_H-M "P -1"
_symmetry_group_IT_number 2
_symmetry_cell_setting 'triclinic'
loop_
_space_group_symop_operation_xyz
x,y,z
-x,-y,-z
loop_
_atom_site_type_symbol
_atom_site_label
_atom_site_fract_x
_atom_site_fract_y
_atom_site_fract_z
Si Si1 0.649180 0.015236 0.215081
Si Si2 0.633213 0.534063 0.657118
Si Si3 0.870718 0.955846 0.833362
Si Si4 0.732747 0.251254 0.606101
Si Si5 0.597762 0.999354 0.895988
Si Si6 0.509971 0.648925 0.864429
Si Si7 0.188137 0.877532 0.452877
Si Si8 0.329822 0.533082 0.529051
O O1 0.485572 0.720218 0.249610
O O2 0.553016 0.046522 0.167975
O O3 0.813391 0.158181 0.378817
O O4 0.707526 0.090761 0.071887
O O5 0.500000 0.500000 0.500000
O O6 0.742168 0.720915 0.763671
O O7 0.763904 0.631191 0.587462
O O8 0.733418 0.890897 0.853839
O O9 0.943849 0.146596 0.691515
O O10 0.000000 0.000000 0.000000
O O11 0.844827 0.280081 0.582788
O O12 0.776037 0.448540 0.539222
O O13 0.500000 0.000000 0.500000
O O14 0.731097 0.193624 0.780102
O O15 0.491769 0.753089 0.887068
O O16 0.353351 0.481832 0.707744
O O17 0.500000 0.500000 0.000000
O O18 0.430653 0.178633 0.468279
#
# Coordination Sequence:
#
# PCOD9073123 Si02
#       8
#     2   2   2   2   2   2   2   2
#     4  10  19  28  49  82 108 138 173 238 273 309
#     4  11  17  32  51  74 106 136 185 222 260 317
#     4  11  22  34  52  80 111 147 184 218 268 333
#     4  10  13  28  47  72 105 131 174 226 269 311
#     4  11  18  27  47  82 114 128 179 235 279 304
#     4  11  20  32  52  80 111 143 177 229 271 318
#     4   9  15  30  49  68 103 139 177 210 265 318
#     4   9  16  27  50  75  98 132 178 224 262 307
#
# _framework density 22.538408
#
# number of rings (size 3 to 8) (size 9 to 14) (size 15 to 20)
#    0.000    1.750   11.250    0.750    0.000    0.000 
#    0.000    0.000    0.000    6.000    0.000   12.250 
#    0.000    0.000    0.000    0.000    0.000    0.000 
#
# Total GULP energy -89225.479381 kJ/mol
# GULP energy per Si atom -5576.592461 kJ/mol
# Density = 2.248711 g / cm^3
# Si number density = 22.538408 Si / 1000 Ang^3
#
#
#
# Elastic Constant Matrix: (Units=GPa)
#
#
# Indices 1 2 3 4 5 6 
#
# 1 102.6043 47.6373 64.5886 3.9774 -4.4885 -34.1187
# 2 47.6373 42.6774 37.2779 -6.4502 2.5993 -24.2352
# 3 64.5886 37.2779 224.3714 -20.1933 -17.1691 -12.9515
# 4 3.9774 -6.4502 -20.1933 33.3666 -5.7863 1.4659
# 5 -4.4885 2.5993 -17.1691 -5.7863 42.6315 -4.0420
# 6 -34.1187 -24.2352 -12.9515 1.4659 -4.0420 41.7320
#
#
#
# Elastic Compliance Matrix: (Units=1/GPa)
#
#
# Indices 1 2 3 4 5 6 
#
# 1 0.025541 -0.022702 -0.003918 -0.009795 0.001830 0.007003
# 2 -0.022702 0.061496 -0.001981 0.012043 -0.003810 0.015745
# 3 -0.003918 -0.001981 0.006395 0.004519 0.002682 -0.002268
# 4 -0.009795 0.012043 0.004519 0.037095 0.005049 -0.000426
# 5 0.001830 -0.003810 0.002682 0.005049 0.025879 0.002445
# 6 0.007003 0.015745 -0.002268 -0.000426 0.002445 0.038380
#
#
# Mechanical properties :
#
#
# Convention : Reuss Voigt Hill
#
# Bulk Modulus (GPa) = 27.60129 74.29565 50.94847
# Shear Modulus (GPa) = 18.93478 38.22262 28.57870
#
# Velocity S-wave (km/s) = 2.90161 4.12258 3.56476
# Velocity P-wave (km/s) = 4.84755 7.46301 6.29266
#
# Compressibility (1/GPa) = 0.03623020
#
# Stress axis : x y z
#
# Youngs Moduli (GPa) = 39.15260 16.26119 156.37662
#
# Poissons Ratio (x) = 0.36917 0.61265
# Poissons Ratio (y) = 0.88886 0.30975
# Poissons Ratio (z) = 0.15339 0.03221
#
# Static dielectric constant tensor:
#      x y z
#    x 2.148670 0.030320 -0.106500 
#    y 0.030320 1.952310 -0.043130 
#    z -0.106500 -0.043130 1.894650 
# 
# From -- ./inp_files/464467.got.cif
#   From: 2010.05.17/outbox.cif.g08.bks.cpg/sg2_233_cif.got.tgz:464467.got - 2010.06.03 11:33:40.
