data_PCOD9073845
_publ_section_title
;
Structure prediction by ZEFSAII (Michael W. Deem and Ramdas Pophale) SiO2 
 PCOD9073845
Probable space group: P -1
;
_chemical_formula_sum "Si O2"
_cell_formula_units_Z 16
_cell_length_a 20.469930
_cell_length_b 11.800581
_cell_length_c 9.017604
_cell_angle_alpha 66.533034
_cell_angle_beta 127.513108
_cell_angle_gamma 148.026016
_cell_volume 877.882687
_symmetry_space_group_name_H-M "P -1"
_symmetry_group_IT_number 2
_symmetry_cell_setting 'triclinic'
loop_
_space_group_symop_operation_xyz
x,y,z
-x,-y,-z
loop_
_atom_site_type_symbol
_atom_site_label
_atom_site_fract_x
_atom_site_fract_y
_atom_site_fract_z
Si Si1 0.411795 0.746292 0.090959
Si Si2 0.742428 0.360950 0.608735
Si Si3 0.642992 0.065846 0.987273
Si Si4 0.056646 0.478554 0.961981
Si Si5 0.153581 0.530129 0.632517
Si Si6 0.563459 0.885692 0.666522
Si Si7 0.856083 0.187312 0.564080
Si Si8 0.547601 0.700024 0.466922
O O1 0.423431 0.634238 0.254574
O O2 0.421740 0.874345 0.152823
O O3 0.553567 0.920555 0.086439
O O4 0.270660 0.608271 0.864555
O O5 0.816955 0.472845 0.493922
O O6 0.605073 0.279000 0.482220
O O7 0.671045 0.133003 0.634687
O O8 0.855555 0.511774 0.823821
O O9 0.601389 0.921442 0.873571
O O10 0.820176 0.303742 0.088966
O O11 0.928201 0.272949 0.783892
O O12 0.000000 0.500000 0.000000
O O13 0.173618 0.704502 0.566136
O O14 0.985880 0.301665 0.575662
O O15 0.575499 0.786210 0.626386
O O16 0.704944 0.922303 0.488155
O O17 0.500000 0.500000 0.500000
#
# Coordination Sequence:
#
# PCOD9073845 Si02
#       8
#     2   2   2   2   2   2   2   2
#     4  11  21  36  60  89 116 153 189 235 299 345
#     4  10  18  31  57  93 120 144 176 242 300 354
#     4  10  19  32  61  93 117 144 184 245 301 351
#     4  11  19  28  49  87 130 147 165 224 309 354
#     4  11  20  35  60  93 123 141 179 249 305 345
#     4  10  19  34  56  85 119 149 196 236 282 338
#     4  11  22  36  55  91 123 147 186 236 305 347
#     4  12  26  43  58  78 116 164 207 235 271 349
#
# _framework density 18.225670000000001
#
# number of rings (size 3 to 8) (size 9 to 14) (size 15 to 20)
#    0.000    1.250    5.000    4.500    1.750    0.000 
#    0.000    1.250    0.000    0.750    0.000    0.000 
#    0.000    0.000    0.000    0.000    0.000    0.000 
#
# Total GULP energy -89224.101937 kJ/mol
# GULP energy per Si atom -5576.506371 kJ/mol
# Density = 1.818419 g / cm^3
# Si number density = 18.225670 Si / 1000 Ang^3
#
#
#
# Elastic Constant Matrix: (Units=GPa)
#
#
# Indices 1 2 3 4 5 6 
#
# 1 95.6774 49.6585 19.3967 -6.2553 -10.2856 17.2717
# 2 49.6585 84.8466 29.6333 3.0678 9.0550 3.4439
# 3 19.3967 29.6333 107.6846 13.0882 1.9785 -1.8876
# 4 -6.2553 3.0678 13.0882 20.3137 5.9643 4.9969
# 5 -10.2856 9.0550 1.9785 5.9643 27.0756 -3.3786
# 6 17.2717 3.4439 -1.8876 4.9969 -3.3786 36.2483
#
#
#
# Elastic Compliance Matrix: (Units=1/GPa)
#
#
# Indices 1 2 3 4 5 6 
#
# 1 0.020242 -0.012153 -0.001687 0.008769 0.008827 -0.008964
# 2 -0.012153 0.021051 -0.003039 -0.002629 -0.010479 0.003018
# 3 -0.001687 -0.003039 0.011513 -0.008779 0.001852 0.003075
# 4 0.008769 -0.002629 -0.008779 0.064808 -0.011217 -0.014365
# 5 0.008827 -0.010479 0.001852 -0.011217 0.046472 0.002764
# 6 -0.008964 0.003018 0.003075 -0.014365 0.002764 0.033970
#
#
# Mechanical properties :
#
#
# Convention : Reuss Voigt Hill
#
# Bulk Modulus (GPa) = 52.49700 53.95397 53.22548
# Shear Modulus (GPa) = 20.99393 29.36218 25.17806
#
# Velocity S-wave (km/s) = 3.39763 4.01812 3.72083
# Velocity P-wave (km/s) = 6.65269 7.15504 6.90843
#
# Compressibility (1/GPa) = 0.01904871
#
# Stress axis : x y z
#
# Youngs Moduli (GPa) = 49.40228 47.50320 86.85594
#
# Poissons Ratio (x) = 0.57732 0.14651
# Poissons Ratio (y) = 0.60040 0.26395
# Poissons Ratio (z) = 0.08333 0.14436
#
# Static dielectric constant tensor:
#      x y z
#    x 1.650130 0.048300 -0.018000 
#    y 0.048300 1.614390 0.017820 
#    z -0.018000 0.017820 1.730820 
# 
# From -- ./inp_files/346042.got.cif
#   From: 2010.05.17/outbox.cif.g08.bks.cpg/sg2_174_cif.got.tgz:346042.got - 2010.06.03 11:33:40.
