data_PCOD9073908
_publ_section_title
;
Structure prediction by ZEFSAII (Michael W. Deem and Ramdas Pophale) SiO2 
 PCOD9073908
Probable space group: P -1
;
_chemical_formula_sum "Si O2"
_cell_formula_units_Z 16
_cell_length_a 9.000000
_cell_length_b 12.000000
_cell_length_c 12.000000
_cell_angle_alpha 110.000000
_cell_angle_beta 120.000000
_cell_angle_gamma 50.000000
_cell_volume 859.368815
_symmetry_space_group_name_H-M "P -1"
_symmetry_group_IT_number 2
_symmetry_cell_setting 'triclinic'
loop_
_space_group_symop_operation_xyz
x,y,z
-x,-y,-z
loop_
_atom_site_type_symbol
_atom_site_label
_atom_site_fract_x
_atom_site_fract_y
_atom_site_fract_z
Si Si1 0.918346 0.081693 0.617405
Si Si2 0.672610 0.945840 0.453711
Si Si3 0.147935 0.133184 0.905864
Si Si4 0.709342 0.438031 0.892909
Si Si5 0.053780 0.401365 0.596184
Si Si6 0.295233 0.573988 0.372270
Si Si7 0.501935 0.067276 0.849398
Si Si8 0.407974 0.365357 0.870425
O O1 0.804838 0.253724 0.615457
O O2 0.068759 0.053269 0.770679
O O3 0.770405 0.029566 0.563653
O O4 0.000000 0.000000 0.500000
O O5 0.836026 0.769378 0.451897
O O6 0.563360 0.984349 0.302006
O O7 0.500000 0.000000 0.500000
O O8 0.296848 0.143973 0.878846
O O9 0.945527 0.289266 0.923236
O O10 0.297385 0.048072 0.039292
O O11 0.661428 0.484488 0.759724
O O12 0.555256 0.399409 0.872632
O O13 0.673030 0.555855 0.011798
O O14 0.213911 0.413644 0.734204
O O15 0.000000 0.500000 0.500000
O O16 0.863695 0.444514 0.623256
O O17 0.500000 0.500000 0.500000
O O18 0.529684 0.192362 0.868190
#
# Coordination Sequence:
#
# PCOD9073908 Si02
#       8
#     2   2   2   2   2   2   2   2
#     4  11  20  42  63  90 124 160 207 251 303 367
#     4  11  24  40  63  91 125 165 199 252 311 364
#     4  10  22  39  64  89 120 159 205 254 298 366
#     4  10  22  41  61  88 120 162 204 246 304 359
#     4  11  24  42  62  92 127 159 203 258 305 362
#     4  11  24  40  65  92 121 163 207 252 305 365
#     4  10  22  41  59  91 123 156 204 253 306 355
#     4  10  22  41  61  86 126 159 199 254 301 359
#
# _framework density 18.618316
#
# number of rings (size 3 to 8) (size 9 to 14) (size 15 to 20)
#    0.000    1.500    2.500    3.000    8.750    4.500 
#    4.500    0.000    0.000    0.000    0.000    0.000 
#    0.000    0.000    0.000    0.000    0.000    0.000 
#
# Total GULP energy -89130.417468 kJ/mol
# GULP energy per Si atom -5570.651092 kJ/mol
# Density = 1.857594 g / cm^3
# Si number density = 18.618316 Si / 1000 Ang^3
#
#
#
# Elastic Constant Matrix: (Units=GPa)
#
#
# Indices 1 2 3 4 5 6 
#
# 1 105.9554 12.5490 20.2695 -11.8091 -4.9072 -1.2609
# 2 12.5490 34.3617 32.7532 -10.8894 -0.3495 1.5382
# 3 20.2695 32.7532 120.7962 -18.8093 -9.0275 3.9372
# 4 -11.8091 -10.8894 -18.8093 35.3852 -0.3737 0.5239
# 5 -4.9072 -0.3495 -9.0275 -0.3737 41.7091 6.9999
# 6 -1.2609 1.5382 3.9372 0.5239 6.9999 35.2281
#
#
#
# Elastic Compliance Matrix: (Units=1/GPa)
#
#
# Indices 1 2 3 4 5 6 
#
# 1 0.010149 -0.002369 -0.000633 0.002328 0.001007 0.000303
# 2 -0.002369 0.041592 -0.009966 0.006698 -0.001943 -0.000501
# 3 -0.000633 -0.009966 0.011810 0.003050 0.002675 -0.001484
# 4 0.002328 0.006698 0.003050 0.032755 0.001508 -0.001337
# 5 0.001007 -0.001943 0.002675 0.001508 0.025556 -0.005278
# 6 0.000303 -0.000501 -0.001484 -0.001337 -0.005278 0.029654
#
#
# Mechanical properties :
#
#
# Convention : Reuss Voigt Hill
#
# Bulk Modulus (GPa) = 26.58442 43.58407 35.08425
# Shear Modulus (GPa) = 26.31714 35.50060 30.90887
#
# Velocity S-wave (km/s) = 3.76374 4.37138 4.07889
# Velocity P-wave (km/s) = 5.76171 6.99562 6.40843
#
# Compressibility (1/GPa) = 0.03761601
#
# Stress axis : x y z
#
# Youngs Moduli (GPa) = 98.52924 24.04310 84.67457
#
# Poissons Ratio (x) = 0.05696 0.05358
# Poissons Ratio (y) = 0.23341 0.84385
# Poissons Ratio (z) = 0.06235 0.23961
#
# Static dielectric constant tensor:
#      x y z
#    x 1.550050 -0.027680 -0.021870 
#    y -0.027680 1.634580 -0.028900 
#    z -0.021870 -0.028900 1.632180 
# 
# From -- ./inp_files/175300.got.cif
#   From: 2010.05.17/outbox.ucp.g08.bks.cvg/sg2_88_cif.got.tgz:175300.got - 2010.06.11 11:32:03.
