data_PCOD9073677
_publ_section_title
;
Structure prediction by ZEFSAII (Michael W. Deem and Ramdas Pophale) SiO2 
 PCOD9073677
Probable space group: P -1
;
_chemical_formula_sum "Si O2"
_cell_formula_units_Z 16
_cell_length_a 9.000000
_cell_length_b 9.000000
_cell_length_c 15.000000
_cell_angle_alpha 100.000000
_cell_angle_beta 110.000000
_cell_angle_gamma 130.000000
_cell_volume 732.374747
_symmetry_space_group_name_H-M "P -1"
_symmetry_group_IT_number 2
_symmetry_cell_setting 'triclinic'
loop_
_space_group_symop_operation_xyz
x,y,z
-x,-y,-z
loop_
_atom_site_type_symbol
_atom_site_label
_atom_site_fract_x
_atom_site_fract_y
_atom_site_fract_z
Si Si1 0.845949 0.504610 0.907165
Si Si2 0.301959 0.964443 0.002385
Si Si3 0.439825 0.439427 0.632793
Si Si4 0.243651 0.271231 0.966680
Si Si5 0.381124 0.847847 0.549233
Si Si6 0.160065 0.379551 0.401975
Si Si7 0.693207 0.926613 0.781020
Si Si8 0.683257 0.929250 0.316007
O O1 0.591465 0.255297 0.796075
O O2 0.784523 0.620891 0.951997
O O3 0.000000 0.500000 0.000000
O O4 0.048521 0.698661 0.898193
O O5 0.336014 0.007170 0.122658
O O6 0.276336 0.120295 0.984357
O O7 0.500000 0.000000 0.000000
O O8 0.266524 0.367038 0.508817
O O9 0.664170 0.523108 0.635534
O O10 0.548140 0.663307 0.728634
O O11 0.313426 0.231249 0.652467
O O12 0.500000 0.500000 0.000000
O O13 0.982192 0.103452 0.846229
O O14 0.194103 0.580170 0.455574
O O15 0.575754 0.920874 0.668730
O O16 0.500000 0.000000 0.500000
O O17 0.267811 0.907682 0.582937
O O18 0.890740 0.117526 0.306306
#
# Coordination Sequence:
#
# PCOD9073677 Si02
#       8
#     2   2   2   2   2   2   2   2
#     4  11  24  44  64  99 141 178 233 292 342 419
#     4  11  23  45  72 102 142 185 236 295 363 433
#     4  10  21  42  66  97 135 176 234 287 353 418
#     4  11  23  41  67 105 139 180 234 292 353 432
#     4  11  23  45  66  98 144 183 234 296 352 415
#     4  10  23  41  65  97 136 180 232 293 347 421
#     4  10  23  45  69  99 143 186 227 296 356 421
#     4  12  22  40  70  96 131 185 228 287 357 417
#
# _framework density 21.846738999999999
#
# number of rings (size 3 to 8) (size 9 to 14) (size 15 to 20)
#    0.000    1.250    1.250    6.000    1.750    0.000 
#    4.500    5.000    0.000    0.000    0.000    0.000 
#    0.000    0.000    0.000    0.000    0.000    0.000 
#
# Total GULP energy -89394.613021 kJ/mol
# GULP energy per Si atom -5587.163314 kJ/mol
# Density = 2.179701 g / cm^3
# Si number density = 21.846739 Si / 1000 Ang^3
#
#
#
# Elastic Constant Matrix: (Units=GPa)
#
#
# Indices 1 2 3 4 5 6 
#
# 1 115.9652 38.9871 16.6965 12.8134 -4.3321 1.2170
# 2 38.9871 161.0635 35.0207 21.9490 15.2625 -10.0232
# 3 16.6965 35.0207 78.7043 14.1760 3.7248 0.3789
# 4 12.8134 21.9490 14.1760 44.8164 -2.9756 7.8925
# 5 -4.3321 15.2625 3.7248 -2.9756 31.4549 8.0052
# 6 1.2170 -10.0232 0.3789 7.8925 8.0052 49.7524
#
#
#
# Elastic Compliance Matrix: (Units=1/GPa)
#
#
# Indices 1 2 3 4 5 6 
#
# 1 0.009774 -0.002342 -0.000981 -0.000979 0.002759 -0.000992
# 2 -0.002342 0.008500 -0.002389 -0.003660 -0.005331 0.003226
# 3 -0.000981 -0.002389 0.014613 -0.003262 -0.001044 0.000117
# 4 -0.000979 -0.003660 -0.003262 0.026865 0.006077 -0.005928
# 5 0.002759 -0.005331 -0.001044 0.006077 0.037527 -0.008136
# 6 -0.000992 0.003226 0.000117 -0.005928 -0.008136 0.023022
#
#
# Mechanical properties :
#
#
# Convention : Reuss Voigt Hill
#
# Bulk Modulus (GPa) = 46.59298 59.68241 53.13770
# Shear Modulus (GPa) = 36.00238 42.87331 39.43784
#
# Velocity S-wave (km/s) = 4.06390 4.43477 4.25338
# Velocity P-wave (km/s) = 6.58740 7.32126 6.96401
#
# Compressibility (1/GPa) = 0.02146246
#
# Stress axis : x y z
#
# Youngs Moduli (GPa) = 102.31669 117.64854 68.43054
#
# Poissons Ratio (x) = 0.27557 0.06710
# Poissons Ratio (y) = 0.23965 0.16350
# Poissons Ratio (z) = 0.10033 0.28110
#
# Static dielectric constant tensor:
#      x y z
#    x 1.877560 0.014890 0.034110 
#    y 0.014890 1.848250 -0.010270 
#    z 0.034110 -0.010270 1.819710 
# 
# From -- ./inp_files/495271.got.cif
#   From: 2010.05.17/outbox.ucp.g08.bks.cvg/sg2_248_cif.got.tgz:495271.got - 2010.06.11 11:32:03.
