data_PCOD9073655
_publ_section_title
;
Structure prediction by ZEFSAII (Michael W. Deem and Ramdas Pophale) SiO2 
 PCOD9073655
Probable space group: P -1
;
_chemical_formula_sum "Si O2"
_cell_formula_units_Z 14
_cell_length_a 9.000000
_cell_length_b 9.000000
_cell_length_c 9.000000
_cell_angle_alpha 120.000000
_cell_angle_beta 90.000000
_cell_angle_gamma 80.000000
_cell_volume 618.510989
_symmetry_space_group_name_H-M "P -1"
_symmetry_group_IT_number 2
_symmetry_cell_setting 'triclinic'
loop_
_space_group_symop_operation_xyz
x,y,z
-x,-y,-z
loop_
_atom_site_type_symbol
_atom_site_label
_atom_site_fract_x
_atom_site_fract_y
_atom_site_fract_z
Si Si1 0.842084 0.431155 0.285976
Si Si2 0.451720 0.069833 0.755635
Si Si3 0.193381 0.101217 0.956534
Si Si4 0.348726 0.648247 0.045310
Si Si5 0.964142 0.905578 0.734713
Si Si6 0.111979 0.500509 0.138371
Si Si7 0.286939 0.192791 0.519690
O O1 0.737965 0.606763 0.433564
O O2 0.910326 0.270305 0.312909
O O3 0.990660 0.509097 0.274705
O O4 0.747580 0.371623 0.115957
O O5 0.356071 0.004509 0.853550
O O6 0.574022 0.183944 0.862145
O O7 0.325269 0.170260 0.685702
O O8 0.555949 0.906796 0.596791
O O9 0.142533 0.065839 0.104278
O O10 0.206787 0.303606 0.051882
O O11 0.062098 0.057932 0.824561
O O12 0.226267 0.628937 0.166028
O O13 0.500000 0.500000 0.000000
O O14 0.855946 0.885138 0.584861
O O15 0.000000 0.500000 0.000000
#
# Coordination Sequence:
#
# PCOD9073655 Si02
#       7
#     2   2   2   2   2   2   2
#     4  10  21  42  62  91 124 167 211 253 304 376
#     4  11  24  41  65  96 129 159 206 264 318 365
#     4  10  21  42  61  98 117 167 217 253 301 374
#     4  11  19  38  67  93 123 163 213 257 304 371
#     4  10  24  41  67  87 128 168 213 252 305 373
#     4   9  18  33  64  91 117 155 215 257 293 354
#     4  11  24  43  61  94 133 161 200 267 321 363
#
# _framework density 22.635006000000001
#
# number of rings (size 3 to 8) (size 9 to 14) (size 15 to 20)
#    0.000    1.714    2.857    1.286    8.000    1.143 
#    5.143    0.714    0.000    0.000    0.000    0.000 
#    0.000    0.000    0.000    0.000    0.000    0.000 
#
# Total GULP energy -78102.457913 kJ/mol
# GULP energy per Si atom -5578.746994 kJ/mol
# Density = 2.258349 g / cm^3
# Si number density = 22.635006 Si / 1000 Ang^3
#
#
#
# Elastic Constant Matrix: (Units=GPa)
#
#
# Indices 1 2 3 4 5 6 
#
# 1 140.7237 31.0451 38.9203 -3.2692 18.0321 12.2773
# 2 31.0451 54.5806 12.4851 11.1835 -2.7687 -12.0358
# 3 38.9203 12.4851 61.9295 10.6419 13.4367 2.8459
# 4 -3.2692 11.1835 10.6419 17.9336 -11.1960 1.8673
# 5 18.0321 -2.7687 13.4367 -11.1960 48.4319 -1.1807
# 6 12.2773 -12.0358 2.8459 1.8673 -1.1807 53.4682
#
#
#
# Elastic Compliance Matrix: (Units=1/GPa)
#
#
# Indices 1 2 3 4 5 6 
#
# 1 0.011800 -0.008558 -0.007628 0.012507 0.000011 -0.004667
# 2 -0.008558 0.029187 0.003406 -0.023554 -0.001312 0.009148
# 3 -0.007628 0.003406 0.026948 -0.026220 -0.010460 0.001769
# 4 0.012507 -0.023554 -0.026220 0.105135 0.025334 -0.009891
# 5 0.000011 -0.001312 -0.010460 0.025334 0.029327 0.000022
# 6 -0.004667 0.009148 0.001769 -0.009891 0.000022 0.022085
#
#
# Mechanical properties :
#
#
# Convention : Reuss Voigt Hill
#
# Bulk Modulus (GPa) = 23.59834 46.90388 35.25111
# Shear Modulus (GPa) = 18.92742 35.61896 27.27319
#
# Velocity S-wave (km/s) = 2.89485 3.97120 3.47495
# Velocity P-wave (km/s) = 4.64992 6.46483 5.63098
#
# Compressibility (1/GPa) = 0.04237587
#
# Stress axis : x y z
#
# Youngs Moduli (GPa) = 84.74575 34.26180 37.10823
#
# Poissons Ratio (x) = 0.29322 0.28305
# Poissons Ratio (y) = 0.72527 -0.12640
# Poissons Ratio (z) = 0.64641 -0.11670
#
# Static dielectric constant tensor:
#      x y z
#    x 1.831390 -0.042340 -0.061770 
#    y -0.042340 1.941700 0.022560 
#    z -0.061770 0.022560 1.955180 
# 
# From -- ./inp_files/160133.got.cif
#   From: 2010.05.17/outbox.ucp.g08.bks.cvg/sg2_81_cif.got.tgz:160133.got - 2010.06.11 11:32:03.
