data_PCOD9073273
_publ_section_title
;
Structure prediction by ZEFSAII (Michael W. Deem and Ramdas Pophale) SiO2 
 PCOD9073273
Probable space group: P -1
;
_chemical_formula_sum "Si O2"
_cell_formula_units_Z 10
_cell_length_a 9.000000
_cell_length_b 9.000000
_cell_length_c 12.000000
_cell_angle_alpha 110.000000
_cell_angle_beta 120.000000
_cell_angle_gamma 120.000000
_cell_volume 447.555233
_symmetry_space_group_name_H-M "P -1"
_symmetry_group_IT_number 2
_symmetry_cell_setting 'triclinic'
loop_
_space_group_symop_operation_xyz
x,y,z
-x,-y,-z
loop_
_atom_site_type_symbol
_atom_site_label
_atom_site_fract_x
_atom_site_fract_y
_atom_site_fract_z
Si Si1 0.756723 0.738611 0.993374
Si Si2 0.244018 0.369220 0.287216
Si Si3 0.597258 0.040302 0.174962
Si Si4 0.800472 0.557823 0.159916
Si Si5 0.801304 0.370393 0.530028
O O1 0.721350 0.637365 0.832183
O O2 0.427672 0.518952 0.866213
O O3 0.919233 0.753818 0.152325
O O4 0.938879 0.041372 0.123104
O O5 0.500000 0.500000 0.500000
O O6 0.258366 0.564800 0.369906
O O7 0.547934 0.123510 0.282035
O O8 0.961352 0.337524 0.375940
O O9 0.500000 0.000000 0.000000
O O10 0.417858 0.743342 0.053878
O O11 0.039769 0.659666 0.359937
#
# Coordination Sequence:
#
# PCOD9073273 Si02
#       5
#     2   2   2   2   2
#     4  10  24  42  61  93 125 162 199 256 311 352
#     4  11  25  40  61  90 130 163 198 250 312 370
#     4   9  19  34  63  90 117 152 205 252 293 356
#     4  10  21  41  68  89 119 160 212 256 292 361
#     4  10  21  37  64  92 116 164 209 245 302 364
#
# _framework density 22.343610999999999
#
# number of rings (size 3 to 8) (size 9 to 14) (size 15 to 20)
#    0.000    2.000    2.000    0.000    8.400    4.000 
#    0.000    6.000    0.000    0.000    0.000    0.000 
#    0.000    0.000    0.000    0.000    0.000    0.000 
#
# Total GULP energy -55753.414880 kJ/mol
# GULP energy per Si atom -5575.341488 kJ/mol
# Density = 2.229276 g / cm^3
# Si number density = 22.343611 Si / 1000 Ang^3
#
#
#
# Elastic Constant Matrix: (Units=GPa)
#
#
# Indices 1 2 3 4 5 6 
#
# 1 92.9840 41.8737 45.1199 -19.2969 -39.4780 5.2503
# 2 41.8737 110.1711 31.2024 -29.3862 -15.8461 7.1826
# 3 45.1199 31.2024 92.9508 -24.6109 -36.8801 4.7774
# 4 -19.2969 -29.3862 -24.6109 36.7563 -2.7560 -3.0851
# 5 -39.4780 -15.8461 -36.8801 -2.7560 49.9455 -8.0570
# 6 5.2503 7.1826 4.7774 -3.0851 -8.0570 27.7052
#
#
#
# Elastic Compliance Matrix: (Units=1/GPa)
#
#
# Indices 1 2 3 4 5 6 
#
# 1 0.021255 -0.003138 -0.000100 0.010072 0.016737 0.002792
# 2 -0.003138 0.012979 0.000638 0.009243 0.002434 -0.001143
# 3 -0.000100 0.000638 0.021873 0.016689 0.017693 0.003086
# 4 0.010072 0.009243 0.016689 0.053666 0.027262 0.006721
# 5 0.016737 0.002434 0.017693 0.027262 0.050338 0.010821
# 6 0.002792 -0.001143 0.003086 0.006721 0.010821 0.039225
#
#
# Mechanical properties :
#
#
# Convention : Reuss Voigt Hill
#
# Bulk Modulus (GPa) = 19.64372 59.16644 39.40508
# Shear Modulus (GPa) = 22.57284 34.74205 28.65745
#
# Velocity S-wave (km/s) = 3.18191 3.94750 3.58520
# Velocity P-wave (km/s) = 4.72336 6.87857 5.90020
#
# Compressibility (1/GPa) = 0.05090685
#
# Stress axis : x y z
#
# Youngs Moduli (GPa) = 47.04790 77.04866 45.71826
#
# Poissons Ratio (x) = 0.24181 0.00457
# Poissons Ratio (y) = 0.14766 -0.02919
# Poissons Ratio (z) = 0.00470 -0.04919
#
# Static dielectric constant tensor:
#      x y z
#    x 2.058750 -0.052980 0.067550 
#    y -0.052980 1.842290 -0.006300 
#    z 0.067550 -0.006300 1.825680 
# 
# From -- ./inp_files/17557.got.cif
#   From: 2010.05.17/outbox.ucp.g08.bks.cvg/sg2_9_cif.got.tgz:17557.got - 2010.06.11 11:32:03.
