data_PCOD9073942
_publ_section_title
;
Structure prediction by ZEFSAII (Michael W. Deem and Ramdas Pophale) SiO2 
 PCOD9073942
Probable space group: P -1
;
_chemical_formula_sum "Si O2"
_cell_formula_units_Z 14
_cell_length_a 9.000000
_cell_length_b 9.000000
_cell_length_c 9.000000
_cell_angle_alpha 120.000000
_cell_angle_beta 100.000000
_cell_angle_gamma 90.000000
_cell_volume 618.510989
_symmetry_space_group_name_H-M "P -1"
_symmetry_group_IT_number 2
_symmetry_cell_setting 'triclinic'
loop_
_space_group_symop_operation_xyz
x,y,z
-x,-y,-z
loop_
_atom_site_type_symbol
_atom_site_label
_atom_site_fract_x
_atom_site_fract_y
_atom_site_fract_z
Si Si1 0.588854 0.666325 0.684687
Si Si2 0.942608 0.188013 0.571346
Si Si3 0.192574 0.483942 0.725169
Si Si4 0.215949 0.729339 0.129860
Si Si5 0.180625 0.043960 0.074741
Si Si6 0.514721 0.424844 0.803444
Si Si7 0.291972 0.831949 0.732474
O O1 0.500000 0.500000 0.500000
O O2 0.754769 0.771807 0.751796
O O3 0.598382 0.580203 0.803004
O O4 0.468434 0.807503 0.734124
O O5 0.911126 0.257501 0.763687
O O6 0.791479 0.163618 0.435400
O O7 0.056534 0.340260 0.596003
O O8 0.000000 0.000000 0.500000
O O9 0.345624 0.387147 0.694354
O O10 0.220355 0.653460 0.711146
O O11 0.183419 0.569483 0.930453
O O12 0.374561 0.720427 0.237556
O O13 0.228364 0.900456 0.122250
O O14 0.257358 0.995241 0.907685
O O15 0.000000 0.000000 0.000000
O O16 0.500000 0.500000 0.000000
#
# Coordination Sequence:
#
# PCOD9073942 Si02
#       7
#     2   2   2   2   2   2   2
#     4  11  24  43  67  93 124 165 209 254 310 375
#     4  12  24  37  58  95 128 160 206 262 310 360
#     4   9  21  41  63  86 123 166 209 253 310 373
#     4  10  22  40  62  89 122 165 207 256 310 366
#     4  11  25  44  64  91 127 168 209 252 307 373
#     4   9  20  39  64  91 117 157 207 256 304 362
#     4  10  23  42  63  87 121 167 206 251 310 375
#
# _framework density 22.635006000000001
#
# number of rings (size 3 to 8) (size 9 to 14) (size 15 to 20)
#    0.000    1.714    0.000    3.857    0.000   14.857 
#    0.000    2.143    0.000    0.000    0.000    0.000 
#    0.000    0.000    0.000    0.000    0.000    0.000 
#
# Total GULP energy -78094.706636 kJ/mol
# GULP energy per Si atom -5578.193331 kJ/mol
# Density = 2.258349 g / cm^3
# Si number density = 22.635006 Si / 1000 Ang^3
#
#
#
# Elastic Constant Matrix: (Units=GPa)
#
#
# Indices 1 2 3 4 5 6 
#
# 1 76.9436 30.4118 45.3240 10.1797 1.3484 -5.3705
# 2 30.4118 69.9394 34.6503 -2.2302 14.9482 -8.8823
# 3 45.3240 34.6503 76.0402 5.9215 10.5737 5.2445
# 4 10.1797 -2.2302 5.9215 30.0231 3.9254 8.2158
# 5 1.3484 14.9482 10.5737 3.9254 31.0931 6.4953
# 6 -5.3705 -8.8823 5.2445 8.2158 6.4953 36.1147
#
#
#
# Elastic Compliance Matrix: (Units=1/GPa)
#
#
# Indices 1 2 3 4 5 6 
#
# 1 0.023432 -0.004967 -0.012184 -0.007958 0.005506 0.004852
# 2 -0.004967 0.023155 -0.006933 0.004264 -0.010536 0.006888
# 3 -0.012184 -0.006933 0.024394 0.001060 -0.003162 -0.006732
# 4 -0.007958 0.004264 0.001060 0.039054 -0.005278 -0.008224
# 5 0.005506 -0.010536 -0.003162 -0.005278 0.040266 -0.007355
# 6 0.004852 0.006888 -0.006732 -0.008224 -0.007355 0.034276
#
#
# Mechanical properties :
#
#
# Convention : Reuss Voigt Hill
#
# Bulk Modulus (GPa) = 43.83379 49.29946 46.56662
# Shear Modulus (GPa) = 20.80305 26.94866 23.87586
#
# Velocity S-wave (km/s) = 3.03490 3.45421 3.25132
# Velocity P-wave (km/s) = 5.62924 6.14298 5.89171
#
# Compressibility (1/GPa) = 0.02281345
#
# Stress axis : x y z
#
# Youngs Moduli (GPa) = 42.67725 43.18646 40.99420
#
# Poissons Ratio (x) = 0.21450 0.49946
# Poissons Ratio (y) = 0.21198 0.28421
# Poissons Ratio (z) = 0.51997 0.29941
#
# Static dielectric constant tensor:
#      x y z
#    x 1.961600 0.019060 -0.061020 
#    y 0.019060 1.823550 -0.056240 
#    z -0.061020 -0.056240 1.890440 
# 
# From -- ./inp_files/158065.got.cif
#   From: 2010.05.17/outbox.ucp.g08.bks.cvg/sg2_80_cif.got.tgz:158065.got - 2010.06.11 11:32:03.
