data_PCOD9073081
_publ_section_title
;
Structure prediction by ZEFSAII (Michael W. Deem and Ramdas Pophale) SiO2 
 PCOD9073081
Probable space group: P -1
;
_chemical_formula_sum "Si O2"
_cell_formula_units_Z 16
_cell_length_a 10.076335
_cell_length_b 9.384583
_cell_length_c 13.588286
_cell_angle_alpha 80.059632
_cell_angle_beta 66.060962
_cell_angle_gamma 131.746307
_cell_volume 666.369555
_symmetry_space_group_name_H-M "P -1"
_symmetry_group_IT_number 2
_symmetry_cell_setting 'triclinic'
loop_
_space_group_symop_operation_xyz
x,y,z
-x,-y,-z
loop_
_atom_site_type_symbol
_atom_site_label
_atom_site_fract_x
_atom_site_fract_y
_atom_site_fract_z
Si Si1 0.014212 0.130454 0.091604
Si Si2 0.352161 0.025210 0.935038
Si Si3 0.178877 0.596316 0.346586
Si Si4 0.071606 0.277449 0.767504
Si Si5 0.915167 0.742903 0.467545
Si Si6 0.633207 0.811895 0.577619
Si Si7 0.969899 0.234033 0.295781
Si Si8 0.465678 0.527013 0.117023
O O1 0.812678 0.024281 0.089282
O O2 0.965263 0.926742 0.172011
O O3 0.006139 0.241330 0.168841
O O4 0.286202 0.343598 0.928870
O O5 0.569583 0.117322 0.799612
O O6 0.502680 0.274997 0.915749
O O7 0.151277 0.812604 0.101370
O O8 0.000000 0.500000 0.500000
O O9 0.254664 0.507158 0.387751
O O10 0.023315 0.423221 0.317269
O O11 0.335259 0.548617 0.699284
O O12 0.059192 0.279169 0.652261
O O13 0.755858 0.758306 0.521622
O O14 0.191659 0.983485 0.409421
O O15 0.698825 0.964535 0.445717
O O16 0.177369 0.279917 0.265604
O O17 0.500000 0.500000 0.000000
#
# Coordination Sequence:
#
# PCOD9073081 Si02
#       8
#     2   2   2   2   2   2   2   2
#     4  10  18  31  52  84 121 146 170 224 286 341
#     4  10  21  34  52  81 112 148 187 225 285 329
#     4  10  22  42  60  76 103 147 201 244 270 322
#     4  11  20  34  54  89 123 148 175 227 284 352
#     4  10  21  35  59  83 114 155 186 222 285 337
#     4  10  20  33  54  88 122 146 177 221 286 353
#     4   9  18  33  54  82 111 144 183 223 271 341
#     4   8  15  28  46  75 113 144 170 214 263 332
#
# _framework density 24.010701999999998
#
# number of rings (size 3 to 8) (size 9 to 14) (size 15 to 20)
#    0.000    2.250    1.250    2.625    1.750    4.000 
#    6.750    1.250    0.000    3.000    0.000    0.000 
#    0.000    0.000    0.000    0.000    0.000    0.000 
#
# Total GULP energy -89085.323220 kJ/mol
# GULP energy per Si atom -5567.832701 kJ/mol
# Density = 2.395605 g / cm^3
# Si number density = 24.010702 Si / 1000 Ang^3
#
#
#
# Elastic Constant Matrix: (Units=GPa)
#
#
# Indices 1 2 3 4 5 6 
#
# 1 20.2086 4.4570 12.7478 1.1072 7.7955 8.4296
# 2 4.4570 85.6045 58.0098 13.0825 -6.8355 20.4168
# 3 12.7478 58.0098 167.6442 -2.1593 -10.9061 11.7689
# 4 1.1072 13.0825 -2.1593 52.2772 4.8447 2.1115
# 5 7.7955 -6.8355 -10.9061 4.8447 29.6628 6.5478
# 6 8.4296 20.4168 11.7689 2.1115 6.5478 20.0516
#
#
#
# Elastic Compliance Matrix: (Units=1/GPa)
#
#
# Indices 1 2 3 4 5 6 
#
# 1 0.068387 0.006392 -0.006330 -0.001036 -0.012629 -0.027310
# 2 0.006392 0.022858 -0.006286 -0.005841 0.007556 -0.024125
# 3 -0.006330 -0.006286 0.008587 0.001714 0.002419 0.003051
# 4 -0.001036 -0.005841 0.001714 0.020946 -0.004919 0.004777
# 5 -0.012629 0.007556 0.002419 -0.004919 0.044390 -0.017781
# 6 -0.027310 -0.024125 0.003051 0.004777 -0.017781 0.089429
#
#
# Mechanical properties :
#
#
# Convention : Reuss Voigt Hill
#
# Bulk Modulus (GPa) = 11.44360 47.09849 29.27105
# Shear Modulus (GPa) = 16.88210 33.61450 25.24830
#
# Velocity S-wave (km/s) = 2.65449 3.74569 3.24627
# Velocity P-wave (km/s) = 3.76451 6.19396 5.12526
#
# Compressibility (1/GPa) = 0.08738506
#
# Stress axis : x y z
#
# Youngs Moduli (GPa) = 14.62265 43.74817 116.46041
#
# Poissons Ratio (x) = -0.27965 0.73717
# Poissons Ratio (y) = -0.09347 0.73204
# Poissons Ratio (z) = 0.09256 0.27499
#
# Static dielectric constant tensor:
#      x y z
#    x 2.038830 -0.041300 -0.035930 
#    y -0.041300 2.030070 -0.024390 
#    z -0.035930 -0.024390 2.011850 
# 
# From -- ./inp_files/519706.got.cif
#   From: 2010.05.17/outbox.cif.g08.bks.cpg/sg2_260_cif.got.tgz:519706.got - 2010.06.03 11:33:40.
