data_PCOD9073350
_publ_section_title
;
Structure prediction by ZEFSAII (Michael W. Deem and Ramdas Pophale) SiO2 
 PCOD9073350
Probable space group: P -1
;
_chemical_formula_sum "Si O2"
_cell_formula_units_Z 16
_cell_length_a 15.000000
_cell_length_b 15.000000
_cell_length_c 12.000000
_cell_angle_alpha 140.000000
_cell_angle_beta 120.000000
_cell_angle_gamma 30.000000
_cell_volume 747.221570
_symmetry_space_group_name_H-M "P -1"
_symmetry_group_IT_number 2
_symmetry_cell_setting 'triclinic'
loop_
_space_group_symop_operation_xyz
x,y,z
-x,-y,-z
loop_
_atom_site_type_symbol
_atom_site_label
_atom_site_fract_x
_atom_site_fract_y
_atom_site_fract_z
Si Si1 0.586269 0.189320 0.185486
Si Si2 0.462805 0.406990 0.735529
Si Si3 0.281442 0.652506 0.612979
Si Si4 0.174684 0.883197 0.195066
Si Si5 0.164976 0.328089 0.037300
Si Si6 0.337493 0.125054 0.597751
Si Si7 0.488381 0.953818 0.159271
Si Si8 0.039684 0.578316 0.425931
O O1 0.393540 0.422277 0.373405
O O2 0.647248 0.274931 0.289374
O O3 0.775724 0.883002 0.065205
O O4 0.537801 0.171171 0.020997
O O5 0.361071 0.521295 0.660366
O O6 0.653137 0.289443 0.767944
O O7 0.572848 0.130249 0.557698
O O8 0.287670 0.660545 0.957328
O O9 0.035228 0.938634 0.722836
O O10 0.082775 0.141124 0.343155
O O11 0.384762 0.120537 0.930280
O O12 0.085627 0.528076 0.272897
O O13 0.000000 0.500000 0.000000
O O14 0.125734 0.353166 0.615907
O O15 0.500000 0.000000 0.500000
O O16 0.358412 0.198806 0.788499
O O17 0.257083 0.289805 0.345336
#
# Coordination Sequence:
#
# PCOD9073350 Si02
#       8
#     2   2   2   2   2   2   2   2
#     4  10  24  39  62  97 122 161 208 248 309 373
#     4  10  23  40  63  89 118 166 209 249 304 366
#     4  11  22  44  62  87 130 160 204 255 303 366
#     4  10  21  39  64  88 119 165 209 248 302 362
#     4  11  20  38  66  92 123 161 201 250 312 365
#     4  11  24  40  62  93 126 160 207 256 305 364
#     4  11  22  41  63  91 127 160 200 258 307 367
#     4  10  21  38  64  95 119 164 206 246 311 369
#
# _framework density 21.412658
#
# number of rings (size 3 to 8) (size 9 to 14) (size 15 to 20)
#    0.000    1.500    1.250    4.875    1.750    5.500 
#    2.250    1.250    0.000    0.000    0.000    0.000 
#    0.000    0.000    0.000    0.000    0.000    0.000 
#
# Total GULP energy -89235.462483 kJ/mol
# GULP energy per Si atom -5577.216405 kJ/mol
# Density = 2.136392 g / cm^3
# Si number density = 21.412658 Si / 1000 Ang^3
#
#
#
# Elastic Constant Matrix: (Units=GPa)
#
#
# Indices 1 2 3 4 5 6 
#
# 1 54.1370 14.7243 6.9881 -2.4081 -1.8592 -23.1984
# 2 14.7243 33.2822 4.3120 10.1908 -4.8767 -28.6939
# 3 6.9881 4.3120 88.5529 5.0460 1.2432 -15.5791
# 4 -2.4081 10.1908 5.0460 36.0377 -8.0104 -4.8117
# 5 -1.8592 -4.8767 1.2432 -8.0104 29.1335 3.7519
# 6 -23.1984 -28.6939 -15.5791 -4.8117 3.7519 31.7098
#
#
#
# Elastic Compliance Matrix: (Units=1/GPa)
#
#
# Indices 1 2 3 4 5 6 
#
# 1 0.034076 0.039022 0.006621 -0.001247 -0.000073 0.063312
# 2 0.039022 0.242533 0.032731 -0.036372 -0.001634 0.258769
# 3 0.006621 0.032731 0.016952 -0.005985 -0.001890 0.042106
# 4 -0.001247 -0.036372 -0.005985 0.036313 0.008222 -0.032228
# 5 -0.000073 -0.001634 -0.001890 0.008222 0.037110 -0.005604
# 6 0.063312 0.258769 0.042106 -0.032228 -0.005604 0.328471
#
#
# Mechanical properties :
#
#
# Convention : Reuss Voigt Hill
#
# Bulk Modulus (GPa) = 2.22069 25.33567 13.77818
# Shear Modulus (GPa) = 7.25891 29.37273 18.31582
#
# Velocity S-wave (km/s) = 1.84320 3.70773 2.92785
# Velocity P-wave (km/s) = 2.35991 5.49431 4.22827
#
# Compressibility (1/GPa) = 0.45030999
#
# Stress axis : x y z
#
# Youngs Moduli (GPa) = 29.34624 4.12315 58.99154
#
# Poissons Ratio (x) = -0.16089 -0.39061
# Poissons Ratio (y) = -1.14515 -1.93086
# Poissons Ratio (z) = -0.19431 -0.13496
#
# Static dielectric constant tensor:
#      x y z
#    x 1.859620 0.007250 -0.017060 
#    y 0.007250 1.785190 -0.010230 
#    z -0.017060 -0.010230 1.749700 
# 
# From -- ./inp_files/255833.got.cif
#   From: 2010.05.17/outbox.ucp.g08.bks.cvg/sg2_128_cif.got.tgz:255833.got - 2010.06.11 11:32:03.
