data_PCOD9073940
_publ_section_title
;
Structure prediction by ZEFSAII (Michael W. Deem and Ramdas Pophale) SiO2 
 PCOD9073940
Probable space group: P -1
;
_chemical_formula_sum "Si O2"
_cell_formula_units_Z 14
_cell_length_a 12.728319
_cell_length_b 13.974330
_cell_length_c 11.963192
_cell_angle_alpha 30.921726
_cell_angle_beta 91.660503
_cell_angle_gamma 118.329221
_cell_volume 528.241341
_symmetry_space_group_name_H-M "P -1"
_symmetry_group_IT_number 2
_symmetry_cell_setting 'triclinic'
loop_
_space_group_symop_operation_xyz
x,y,z
-x,-y,-z
loop_
_atom_site_type_symbol
_atom_site_label
_atom_site_fract_x
_atom_site_fract_y
_atom_site_fract_z
Si Si1 0.660240 0.498694 0.508606
Si Si2 0.894542 0.193063 0.527898
Si Si3 0.488649 0.302223 0.474090
Si Si4 0.253009 0.620693 0.686426
Si Si5 0.232837 0.245996 0.495941
Si Si6 0.058419 0.389611 0.567305
Si Si7 0.165349 0.409356 0.142598
O O1 0.480352 0.276482 0.635146
O O2 0.648610 0.513063 0.626404
O O3 0.736397 0.403939 0.585875
O O4 0.858801 0.942808 0.036142
O O5 0.795119 0.243478 0.485699
O O6 0.066791 0.421514 0.402681
O O7 0.021294 0.339639 0.272029
O O8 0.693950 0.743722 0.995244
O O9 0.548008 0.191165 0.542934
O O10 0.293339 0.123498 0.600597
O O11 0.271818 0.649531 0.792723
O O12 0.030611 0.166681 0.093623
O O13 0.295931 0.485488 0.159603
O O14 0.000000 0.500000 0.500000
O O15 0.000000 0.000000 0.500000
#
# Coordination Sequence:
#
# PCOD9073940 Si02
#       7
#     2   2   2   2   2   2   2
#     4  10  19  35  55  87 122 152 198 242 295 359
#     4  11  20  40  63  88 123 157 200 250 298 354
#     4  11  23  39  62  91 121 158 201 249 298 356
#     4  11  23  42  62  87 121 158 203 248 299 354
#     4  11  21  41  63  87 124 161 197 248 302 355
#     4  10  18  31  61  88 116 159 194 239 299 353
#     4  10  20  40  65  86 118 164 199 246 302 350
#
# _framework density 26.503036999999999
#
# number of rings (size 3 to 8) (size 9 to 14) (size 15 to 20)
#    0.000    1.429    4.286    4.286    0.000    0.571 
#    2.571    0.714    0.000    6.000    0.000    0.000 
#    0.000    0.000    0.000    0.000    0.000    0.000 
#
# Total GULP energy -78453.762508 kJ/mol
# GULP energy per Si atom -5603.840179 kJ/mol
# Density = 2.644271 g / cm^3
# Si number density = 26.503037 Si / 1000 Ang^3
#
#
#
# Elastic Constant Matrix: (Units=GPa)
#
#
# Indices 1 2 3 4 5 6 
#
# 1 209.7515 39.3555 45.6384 7.0124 17.9907 5.1852
# 2 39.3555 114.3652 40.1596 32.0298 -0.9048 -4.9589
# 3 45.6384 40.1596 83.3822 7.9802 10.8384 5.9082
# 4 7.0124 32.0298 7.9802 47.7890 1.5581 1.6650
# 5 17.9907 -0.9048 10.8384 1.5581 52.4179 3.5416
# 6 5.1852 -4.9589 5.9082 1.6650 3.5416 49.8255
#
#
#
# Elastic Compliance Matrix: (Units=1/GPa)
#
#
# Indices 1 2 3 4 5 6 
#
# 1 0.005627 -0.001297 -0.002285 0.000486 -0.001472 -0.000355
# 2 -0.001297 0.013461 -0.005405 -0.008069 0.001883 0.002251
# 3 -0.002285 -0.005405 0.016192 0.001410 -0.002558 -0.002085
# 4 0.000486 -0.008069 0.001410 0.026130 -0.001252 -0.001805
# 5 -0.001472 0.001883 -0.002558 -0.001252 0.020232 -0.000752
# 6 -0.000355 0.002251 -0.002085 -0.001805 -0.000752 0.020692
#
#
# Mechanical properties :
#
#
# Convention : Reuss Voigt Hill
#
# Bulk Modulus (GPa) = 57.78631 73.08957 65.43794
# Shear Modulus (GPa) = 39.65826 48.82952 44.24389
#
# Velocity S-wave (km/s) = 3.87249 4.29699 4.09025
# Velocity P-wave (km/s) = 6.46884 7.22887 6.85939
#
# Compressibility (1/GPa) = 0.01730514
#
# Stress axis : x y z
#
# Youngs Moduli (GPa) = 177.71862 74.29127 61.75738
#
# Poissons Ratio (x) = 0.09635 0.14113
# Poissons Ratio (y) = 0.23048 0.33381
# Poissons Ratio (z) = 0.40612 0.40156
#
# Static dielectric constant tensor:
#      x y z
#    x 2.011510 -0.019170 -0.007160 
#    y -0.019170 2.110020 -0.044760 
#    z -0.007160 -0.044760 2.128700 
# 
# From -- ./inp_files/254387.got.cif
#   From: 2010.05.17/outbox.cif.g08.bks.cpg/sg2_128_cif.got.tgz:254387.got - 2010.06.03 11:33:40.
