data_PCOD9073415
_publ_section_title
;
Structure prediction by ZEFSAII (Michael W. Deem and Ramdas Pophale) SiO2 
 PCOD9073415
Probable space group: P -1
;
_chemical_formula_sum "Si O2"
_cell_formula_units_Z 16
_cell_length_a 15.000000
_cell_length_b 15.000000
_cell_length_c 9.000000
_cell_angle_alpha 80.000000
_cell_angle_beta 50.000000
_cell_angle_gamma 40.000000
_cell_volume 759.999475
_symmetry_space_group_name_H-M "P -1"
_symmetry_group_IT_number 2
_symmetry_cell_setting 'triclinic'
loop_
_space_group_symop_operation_xyz
x,y,z
-x,-y,-z
loop_
_atom_site_type_symbol
_atom_site_label
_atom_site_fract_x
_atom_site_fract_y
_atom_site_fract_z
Si Si1 0.939774 0.682539 0.240490
Si Si2 0.784628 0.782306 0.048087
Si Si3 0.110287 0.092150 0.634746
Si Si4 0.682499 0.560035 0.492245
Si Si5 0.470676 0.340990 0.715201
Si Si6 0.561064 0.816735 0.734645
Si Si7 0.538393 0.075624 0.880823
Si Si8 0.442327 0.544272 0.875493
O O1 0.871623 0.835421 0.288642
O O2 0.797623 0.715779 0.495571
O O3 0.844380 0.716071 0.171990
O O4 0.218002 0.482899 0.015309
O O5 0.036433 0.621193 0.747584
O O6 0.621527 0.819510 0.126734
O O7 0.644792 0.972195 0.144454
O O8 0.300575 0.880568 0.478219
O O9 0.191531 0.090104 0.399796
O O10 0.839496 0.248357 0.893342
O O11 0.606267 0.600581 0.390897
O O12 0.573549 0.721742 0.642567
O O13 0.586104 0.533820 0.672866
O O14 0.512201 0.408213 0.740142
O O15 0.529156 0.814348 0.942921
O O16 0.500000 0.000000 0.000000
O O17 0.500000 0.500000 0.000000
#
# Coordination Sequence:
#
# PCOD9073415 Si02
#       8
#     2   2   2   2   2   2   2   2
#     4  10  21  39  64 101 131 165 210 255 319 384
#     4  10  22  38  65  95 137 166 204 264 312 381
#     4  11  23  44  69  93 131 169 214 263 322 371
#     4  11  26  43  66  97 127 170 218 262 319 375
#     4  10  25  44  70  93 126 170 215 270 317 375
#     4  11  23  37  62  97 132 171 208 254 319 385
#     4  10  22  38  61  95 134 171 203 255 320 380
#     4  11  28  47  67  93 126 168 221 269 313 385
#
# _framework density 21.052645999999999
#
# number of rings (size 3 to 8) (size 9 to 14) (size 15 to 20)
#    0.000    1.500    2.500    1.500    8.750    3.500 
#    0.000    0.000    0.000    0.000    0.000    0.000 
#    0.000    0.000    0.000    0.000    0.000    0.000 
#
# Total GULP energy -89220.048674 kJ/mol
# GULP energy per Si atom -5576.253042 kJ/mol
# Density = 2.100473 g / cm^3
# Si number density = 21.052646 Si / 1000 Ang^3
#
#
#
# Elastic Constant Matrix: (Units=GPa)
#
#
# Indices 1 2 3 4 5 6 
#
# 1 120.9601 14.9836 25.6664 14.2904 27.1593 18.4093
# 2 14.9836 57.6018 13.0202 26.1275 11.8972 18.6310
# 3 25.6664 13.0202 99.0535 17.2798 15.3136 7.0480
# 4 14.2904 26.1275 17.2798 34.5723 4.1139 9.6134
# 5 27.1593 11.8972 15.3136 4.1139 32.4399 6.0248
# 6 18.4093 18.6310 7.0480 9.6134 6.0248 35.3603
#
#
#
# Elastic Compliance Matrix: (Units=1/GPa)
#
#
# Indices 1 2 3 4 5 6 
#
# 1 0.011172 0.002010 -0.000949 -0.003463 -0.008402 -0.004313
# 2 0.002010 0.031487 0.001205 -0.021206 -0.009150 -0.010552
# 3 -0.000949 0.001205 0.011918 -0.005900 -0.004498 -0.000146
# 4 -0.003463 -0.021206 -0.005900 0.048538 0.007362 -0.000298
# 5 -0.008402 -0.009150 -0.004498 0.007362 0.042240 0.000894
# 6 -0.004313 -0.010552 -0.000146 -0.000298 0.000894 0.036044
#
#
# Mechanical properties :
#
#
# Convention : Reuss Voigt Hill
#
# Bulk Modulus (GPa) = 16.91795 42.77289 29.84542
# Shear Modulus (GPa) = 25.43623 35.40418 30.42020
#
# Velocity S-wave (km/s) = 3.47972 4.10530 3.80538
# Velocity P-wave (km/s) = 4.91915 6.54466 5.78924
#
# Compressibility (1/GPa) = 0.05910882
#
# Stress axis : x y z
#
# Youngs Moduli (GPa) = 89.51231 31.75888 83.90655
#
# Poissons Ratio (x) = -0.06383 0.07962
# Poissons Ratio (y) = -0.17989 -0.10112
# Poissons Ratio (z) = 0.08494 -0.03828
#
# Static dielectric constant tensor:
#      x y z
#    x 1.741420 -0.012960 0.042150 
#    y -0.012960 1.840900 -0.046700 
#    z 0.042150 -0.046700 1.813470 
# 
# From -- ./inp_files/271740.got.cif
#   From: 2010.05.17/outbox.ucp.g08.bks.cvg/sg2_136_cif.got.tgz:271740.got - 2010.06.11 11:32:03.
