data_PCOD9073280
_publ_section_title
;
Structure prediction by ZEFSAII (Michael W. Deem and Ramdas Pophale) SiO2 
 PCOD9073280
Probable space group: P -1
;
_chemical_formula_sum "Si O2"
_cell_formula_units_Z 11
_cell_length_a 9.000000
_cell_length_b 9.000000
_cell_length_c 12.000000
_cell_angle_alpha 130.000000
_cell_angle_beta 40.000000
_cell_angle_gamma 110.000000
_cell_volume 455.749138
_symmetry_space_group_name_H-M "P -1"
_symmetry_group_IT_number 2
_symmetry_cell_setting 'triclinic'
loop_
_space_group_symop_operation_xyz
x,y,z
-x,-y,-z
loop_
_atom_site_type_symbol
_atom_site_label
_atom_site_fract_x
_atom_site_fract_y
_atom_site_fract_z
Si Si1 0.955590 0.153413 0.763719
Si Si2 0.844775 0.603856 0.402036
Si Si3 0.260280 0.938536 0.681972
Si Si4 0.207977 0.192043 0.046543
Si Si5 0.410526 0.522392 0.721520
Si Si6 0.500000 0.000000 0.000000
O O1 0.069208 0.217880 0.617587
O O2 0.182134 0.061930 0.672796
O O3 0.782766 0.009720 0.804014
O O4 0.775773 0.362055 0.022120
O O5 0.609272 0.647176 0.642848
O O6 0.745519 0.486226 0.303442
O O7 0.082747 0.435146 0.229980
O O8 0.444888 0.712191 0.451618
O O9 0.318239 0.079700 0.813588
O O10 0.016480 0.892487 0.839360
O O11 0.390574 0.125530 0.010521
#
# Coordination Sequence:
#
# PCOD9073280 Si02
#       6
#     2   2   2   2   2   1
#     4  11  22  43  61  93 126 161 201 255 297 371
#     4  10  21  37  65  96 121 153 211 251 306 355
#     4   9  19  36  64  89 122 153 208 247 305 355
#     4   9  18  38  58  89 123 160 197 257 293 363
#     4  10  21  38  66  95 122 158 196 264 306 346
#     4  10  24  38  64  82 128 174 194 242 322 346
#
# _framework density 24.136085000000001
#
# number of rings (size 3 to 8) (size 9 to 14) (size 15 to 20)
#    0.000    2.182    1.818    0.545    7.636    1.455 
#    0.000    9.091    0.000    0.000    0.000    0.000 
#    0.000    0.000    0.000    0.000    0.000    0.000 
#
# Total GULP energy -61331.415746 kJ/mol
# GULP energy per Si atom -5575.583250 kJ/mol
# Density = 2.408115 g / cm^3
# Si number density = 24.136085 Si / 1000 Ang^3
#
#
#
# Elastic Constant Matrix: (Units=GPa)
#
#
# Indices 1 2 3 4 5 6 
#
# 1 126.5766 33.7989 13.8617 6.8047 -29.4746 -43.9521
# 2 33.7989 132.5884 8.9947 -31.7653 -16.0891 -22.1582
# 3 13.8617 8.9947 101.2862 -13.8318 -15.9364 -31.3207
# 4 6.8047 -31.7653 -13.8318 36.3102 -10.7682 -18.5421
# 5 -29.4746 -16.0891 -15.9364 -10.7682 25.8625 9.1217
# 6 -43.9521 -22.1582 -31.3207 -18.5421 9.1217 49.9137
#
#
#
# Elastic Compliance Matrix: (Units=1/GPa)
#
#
# Indices 1 2 3 4 5 6 
#
# 1 0.003706 -0.013065 -0.012352 -0.031801 -0.018130 -0.018788
# 2 -0.013065 -0.004929 -0.016800 -0.033317 -0.031284 -0.030894
# 3 -0.012352 -0.016800 -0.009089 -0.043863 -0.036521 -0.033658
# 4 -0.031801 -0.033317 -0.043863 -0.081682 -0.088188 -0.084544
# 5 -0.018130 -0.031284 -0.036521 -0.088188 -0.032617 -0.079569
# 6 -0.018788 -0.030894 -0.033658 -0.084544 -0.079569 -0.048210
#
#
# Mechanical properties :
#
#
# Convention : Reuss Voigt Hill
#
# Bulk Modulus (GPa) = -10.55443 52.64022 21.04289
# Shear Modulus (GPa) = -41.67766 42.67035 0.49635
#
# Velocity S-wave (km/s) = -4.15996 4.20921 0.45397
# Velocity P-wave (km/s) = 5.23985 6.74391 3.00202
#
# Compressibility (1/GPa) = -0.09474692
#
# Stress axis : x y z
#
# Youngs Moduli (GPa) = 269.85938 -202.88263 -110.02582
#
# Poissons Ratio (x) = -2.65075 -1.35906
# Poissons Ratio (y) = 3.52583 -1.84841
# Poissons Ratio (z) = 3.33336 -3.40838
#
# Static dielectric constant tensor:
#      x y z
#    x 1.995790 0.068740 0.170690 
#    y 0.068740 2.018790 0.055400 
#    z 0.170690 0.055400 2.219340 
# 
# From -- ./inp_files/165237.got.cif
#   From: 2010.05.17/outbox.ucp.g08.bks.cvg/sg2_83_cif.got.tgz:165237.got - 2010.06.11 11:32:03.
