data_PCOD9073104
_publ_section_title
;
Structure prediction by ZEFSAII (Michael W. Deem and Ramdas Pophale) SiO2 
 PCOD9073104
Probable space group: P -1
;
_chemical_formula_sum "Si O2"
_cell_formula_units_Z 12
_cell_length_a 12.748292
_cell_length_b 7.161619
_cell_length_c 7.930960
_cell_angle_alpha 80.173938
_cell_angle_beta 63.461680
_cell_angle_gamma 127.254766
_cell_volume 404.756882
_symmetry_space_group_name_H-M "P -1"
_symmetry_group_IT_number 2
_symmetry_cell_setting 'triclinic'
loop_
_space_group_symop_operation_xyz
x,y,z
-x,-y,-z
loop_
_atom_site_type_symbol
_atom_site_label
_atom_site_fract_x
_atom_site_fract_y
_atom_site_fract_z
Si Si1 0.782643 0.676175 0.415188
Si Si2 0.487449 0.981941 0.776423
Si Si3 0.743718 0.797529 0.088794
Si Si4 0.131749 0.440854 0.941032
Si Si5 0.869288 0.346407 0.779056
Si Si6 0.617490 0.736693 0.728742
O O1 0.789359 0.812490 0.558349
O O2 0.602320 0.318324 0.632295
O O3 0.212668 0.146297 0.753418
O O4 0.892242 0.656100 0.222364
O O5 0.342560 0.785673 0.752447
O O6 0.321989 0.769791 0.070555
O O7 0.620676 0.966968 0.700501
O O8 0.529874 0.476025 0.283367
O O9 0.851480 0.746487 0.953174
O O10 0.786029 0.035493 0.918905
O O11 0.035315 0.459174 0.143659
O O12 0.000000 0.500000 0.500000
O O13 0.500000 0.500000 0.000000
#
# Coordination Sequence:
#
# PCOD9073104 Si02
#       6
#     2   2   2   2   2   2
#     4  10  18  31  53  74 104 126 159 214 252 295
#     4   9  19  30  50  75 105 122 166 201 253 288
#     4   9  19  31  51  74 105 127 163 203 251 285
#     4   7  18  27  48  74  96 125 155 202 252 278
#     4  10  19  31  49  77 104 128 166 209 250 283
#     4  11  21  31  47  77 110 134 154 195 259 311
#
# _framework density 29.647428000000001
#
# number of rings (size 3 to 8) (size 9 to 14) (size 15 to 20)
#    2.000    0.667    1.667    1.000    2.333    1.333 
#    0.000    0.000    0.000    0.000    0.000    7.000 
#    0.000    0.000    0.000    0.000    0.000    0.000 
#
# Total GULP energy -66860.000654 kJ/mol
# GULP energy per Si atom -5571.666721 kJ/mol
# Density = 2.957995 g / cm^3
# Si number density = 29.647428 Si / 1000 Ang^3
#
#
#
# Elastic Constant Matrix: (Units=GPa)
#
#
# Indices 1 2 3 4 5 6 
#
# 1 70.6358 10.5203 33.5250 1.0952 -31.2925 -2.8594
# 2 10.5203 136.0499 36.4521 16.9718 -19.2462 -27.6987
# 3 33.5250 36.4521 228.1277 18.8032 -46.4287 -13.6046
# 4 1.0952 16.9718 18.8032 61.0738 -15.4925 -0.6839
# 5 -31.2925 -19.2462 -46.4287 -15.4925 48.3486 11.4642
# 6 -2.8594 -27.6987 -13.6046 -0.6839 11.4642 44.1319
#
#
#
# Elastic Compliance Matrix: (Units=1/GPa)
#
#
# Indices 1 2 3 4 5 6 
#
# 1 0.020751 -0.000429 -0.000467 0.003568 0.014622 -0.002811
# 2 -0.000429 0.008990 -0.000756 -0.002022 0.000702 0.005168
# 3 -0.000467 -0.000756 0.005538 -0.000316 0.004614 -0.000001
# 4 0.003568 -0.002022 -0.000316 0.018957 0.007966 -0.002911
# 5 0.014622 0.000702 0.004614 0.007966 0.039123 -0.007229
# 6 -0.002811 0.005168 -0.000001 -0.002911 -0.007229 0.027553
#
#
# Mechanical properties :
#
#
# Convention : Reuss Voigt Hill
#
# Bulk Modulus (GPa) = 31.27361 66.20093 48.73727
# Shear Modulus (GPa) = 37.07193 54.33193 45.70193
#
# Velocity S-wave (km/s) = 3.53997 4.28553 3.93047
# Velocity P-wave (km/s) = 5.22302 6.84585 6.08874
#
# Compressibility (1/GPa) = 0.03197584
#
# Stress axis : x y z
#
# Youngs Moduli (GPa) = 48.19048 111.24088 180.57362
#
# Poissons Ratio (x) = 0.04767 0.08433
# Poissons Ratio (y) = 0.02065 0.13646
# Poissons Ratio (z) = 0.02251 0.08406
#
# Static dielectric constant tensor:
#      x y z
#    x 2.599570 0.175490 -0.137070 
#    y 0.175490 2.370050 0.116740 
#    z -0.137070 0.116740 2.511930 
# 
# From -- ./inp_files/341061.got.cif
#   From: 2010.05.17/outbox.cif.g08.bks.cpg/sg2_171_cif.got.tgz:341061.got - 2010.06.03 11:33:40.
