data_PCOD9073107
_publ_section_title
;
Structure prediction by ZEFSAII (Michael W. Deem and Ramdas Pophale) SiO2 
 PCOD9073107
Probable space group: P -1
;
_chemical_formula_sum "Si O2"
_cell_formula_units_Z 16
_cell_length_a 9.000000
_cell_length_b 12.000000
_cell_length_c 18.000000
_cell_angle_alpha 140.000000
_cell_angle_beta 100.000000
_cell_angle_gamma 50.000000
_cell_volume 729.599496
_symmetry_space_group_name_H-M "P -1"
_symmetry_group_IT_number 2
_symmetry_cell_setting 'triclinic'
loop_
_space_group_symop_operation_xyz
x,y,z
-x,-y,-z
loop_
_atom_site_type_symbol
_atom_site_label
_atom_site_fract_x
_atom_site_fract_y
_atom_site_fract_z
Si Si1 0.126293 0.046265 0.945603
Si Si2 0.017051 0.630522 0.192377
Si Si3 0.721229 0.942174 0.748085
Si Si4 0.195916 0.544925 0.488993
Si Si5 0.302979 0.508966 0.306789
Si Si6 0.860349 0.422495 0.987950
Si Si7 0.522486 0.278870 0.521585
Si Si8 0.938748 0.291439 0.205346
O O1 0.412953 0.834169 0.843515
O O2 0.143625 0.833316 0.867190
O O3 0.952841 0.187523 0.930239
O O4 0.008112 0.271238 0.116514
O O5 0.175260 0.547764 0.238712
O O6 0.008268 0.445589 0.057166
O O7 0.079639 0.672508 0.141627
O O8 0.733249 0.943103 0.350147
O O9 0.732132 0.724047 0.634232
O O10 0.918523 0.828141 0.645446
O O11 0.823194 0.899694 0.817185
O O12 0.436845 0.266443 0.875620
O O13 0.194628 0.577178 0.416182
O O14 0.388171 0.456789 0.521691
O O15 0.344413 0.681019 0.403769
O O16 0.301445 0.402609 0.617527
#
# Coordination Sequence:
#
# PCOD9073107 Si02
#       8
#     2   2   2   2   2   2   2   2
#     4  10  22  40  61  92 120 160 201 245 304 354
#     4  11  24  39  58  93 125 157 205 247 300 354
#     4  10  21  39  59  87 122 160 194 248 299 359
#     4  10  21  38  62  90 119 155 203 243 302 363
#     4  11  23  38  65  90 118 161 206 250 296 356
#     4  11  24  40  60  86 128 163 195 251 299 358
#     4  10  20  42  63  87 124 155 197 257 299 351
#     4   9  21  40  64  89 121 156 202 249 296 361
#
# _framework density 21.929839999999999
#
# number of rings (size 3 to 8) (size 9 to 14) (size 15 to 20)
#    0.000    1.750    1.250    2.250    3.500    4.000 
#    0.000    2.500    0.000    0.000    0.000    0.000 
#    0.000    0.000    0.000    0.000    0.000    0.000 
#
# Total GULP energy -89127.412853 kJ/mol
# GULP energy per Si atom -5570.463303 kJ/mol
# Density = 2.187993 g / cm^3
# Si number density = 21.929840 Si / 1000 Ang^3
#
#
#
# Elastic Constant Matrix: (Units=GPa)
#
#
# Indices 1 2 3 4 5 6 
#
# 1 26.5811 16.5476 -7.9913 -14.9465 2.1171 -15.5009
# 2 16.5476 143.0096 36.9959 -42.6600 -25.0806 -22.7771
# 3 -7.9913 36.9959 80.4211 -26.3017 -14.1448 -1.4600
# 4 -14.9465 -42.6600 -26.3017 43.2967 -2.4488 1.0888
# 5 2.1171 -25.0806 -14.1448 -2.4488 28.1817 -9.5951
# 6 -15.5009 -22.7771 -1.4600 1.0888 -9.5951 37.5144
#
#
#
# Elastic Compliance Matrix: (Units=1/GPa)
#
#
# Indices 1 2 3 4 5 6 
#
# 1 0.236017 0.073054 0.095094 0.216574 0.176640 0.184472
# 2 0.073054 0.045280 0.033495 0.093096 0.086396 0.078377
# 3 0.095094 0.033495 0.057344 0.103604 0.088165 0.081404
# 4 0.216574 0.093096 0.103604 0.259353 0.207732 0.195649
# 5 0.176640 0.086396 0.088165 0.207732 0.222617 0.179784
# 6 0.184472 0.078377 0.081404 0.195649 0.179784 0.193941
#
#
# Mechanical properties :
#
#
# Convention : Reuss Voigt Hill
#
# Bulk Modulus (GPa) = 1.34784 37.90181 19.62483
# Shear Modulus (GPa) = 5.82360 35.42921 20.62640
#
# Velocity S-wave (km/s) = 1.63136 4.02378 3.07019
# Velocity P-wave (km/s) = 2.04068 6.23766 4.64073
#
# Compressibility (1/GPa) = 0.74192595
#
# Stress axis : x y z
#
# Youngs Moduli (GPa) = 4.23698 22.08474 17.43868
#
# Poissons Ratio (x) = -1.61338 -1.65831
# Poissons Ratio (y) = -0.30953 -0.58410
# Poissons Ratio (z) = -0.40291 -0.73972
#
# Static dielectric constant tensor:
#      x y z
#    x 1.921280 0.083510 0.017700 
#    y 0.083510 1.854750 0.004690 
#    z 0.017700 0.004690 1.845350 
# 
# From -- ./inp_files/254661.got.cif
#   From: 2010.05.17/outbox.ucp.g08.bks.cvg/sg2_128_cif.got.tgz:254661.got - 2010.06.11 11:32:03.
