data_PCOD9073342
_publ_section_title
;
Structure prediction by ZEFSAII (Michael W. Deem and Ramdas Pophale) SiO2 
 PCOD9073342
Probable space group: P -1
;
_chemical_formula_sum "Si O2"
_cell_formula_units_Z 14
_cell_length_a 11.457639
_cell_length_b 8.615532
_cell_length_c 13.697054
_cell_angle_alpha 59.197613
_cell_angle_beta 50.193589
_cell_angle_gamma 98.873912
_cell_volume 609.168567
_symmetry_space_group_name_H-M "P -1"
_symmetry_group_IT_number 2
_symmetry_cell_setting 'triclinic'
loop_
_space_group_symop_operation_xyz
x,y,z
-x,-y,-z
loop_
_atom_site_type_symbol
_atom_site_label
_atom_site_fract_x
_atom_site_fract_y
_atom_site_fract_z
Si Si1 0.465549 0.245633 0.222546
Si Si2 0.195272 0.749166 0.982678
Si Si3 0.023463 0.279424 0.340281
Si Si4 0.819401 0.681806 0.191975
Si Si5 0.544172 0.373819 0.638220
Si Si6 0.948522 0.664351 0.467007
Si Si7 0.682496 0.773053 0.902688
O O1 0.660452 0.279816 0.139664
O O2 0.433263 0.221706 0.127379
O O3 0.231494 0.969245 0.473393
O O4 0.512139 0.495628 0.138945
O O5 0.374496 0.058829 0.814630
O O6 0.100673 0.548826 0.187857
O O7 0.976642 0.652227 0.084342
O O8 0.051146 0.268336 0.443284
O O9 0.162074 0.249506 0.218644
O O10 0.699755 0.533987 0.406980
O O11 0.611587 0.585396 0.275887
O O12 0.000000 0.000000 0.000000
O O13 0.720050 0.490469 0.590326
O O14 0.000000 0.500000 0.500000
O O15 0.156228 0.952653 0.214815
#
# Coordination Sequence:
#
# PCOD9073342 Si02
#       7
#     2   2   2   2   2   2   2
#     4   9  16  30  51  71  99 141 182 217 248 299
#     4  10  18  31  54  80 103 138 182 218 260 315
#     4  10  20  35  54  79 112 148 180 208 259 330
#     4   9  19  36  53  73 104 144 183 218 269 324
#     4  10  20  34  52  77 111 142 173 225 273 311
#     4  11  20  32  53  84 116 139 171 220 268 316
#     4   9  19  34  51  75 109 151 182 205 258 326
#
# _framework density 22.982144000000002
#
# number of rings (size 3 to 8) (size 9 to 14) (size 15 to 20)
#    0.000    2.286    0.000    5.143    0.000    0.571 
#    0.000   18.571    0.000    3.429    0.000   41.000 
#    0.000    0.000    0.000    0.000    0.000    0.000 
#
# Total GULP energy -78120.713369 kJ/mol
# GULP energy per Si atom -5580.050955 kJ/mol
# Density = 2.292984 g / cm^3
# Si number density = 22.982144 Si / 1000 Ang^3
#
#
#
# Elastic Constant Matrix: (Units=GPa)
#
#
# Indices 1 2 3 4 5 6 
#
# 1 135.6259 38.5338 48.9333 -4.1293 -38.9718 -28.9920
# 2 38.5338 55.8358 38.7777 -17.1591 -7.5807 -17.9243
# 3 48.9333 38.7777 153.7980 -32.1299 -11.9166 -12.7487
# 4 -4.1293 -17.1591 -32.1299 38.3752 -10.8315 -1.9717
# 5 -38.9718 -7.5807 -11.9166 -10.8315 51.4881 6.4452
# 6 -28.9920 -17.9243 -12.7487 -1.9717 6.4452 34.6200
#
#
#
# Elastic Compliance Matrix: (Units=1/GPa)
#
#
# Indices 1 2 3 4 5 6 
#
# 1 0.012972 -0.004386 -0.001732 0.000600 0.008087 0.006483
# 2 -0.004386 0.030345 -0.002707 0.011865 0.001588 0.011421
# 3 -0.001732 -0.002707 0.009406 0.007039 0.001865 0.000665
# 4 0.000600 0.011865 0.007039 0.040989 0.011267 0.009474
# 5 0.008087 0.001588 0.001865 0.011267 0.028117 0.003688
# 6 0.006483 0.011421 0.000665 0.009474 0.003688 0.040326
#
#
# Mechanical properties :
#
#
# Convention : Reuss Voigt Hill
#
# Bulk Modulus (GPa) = 28.51223 66.41659 47.46441
# Shear Modulus (GPa) = 26.11039 39.49766 32.80402
#
# Velocity S-wave (km/s) = 3.37429 4.15013 3.78215
# Velocity P-wave (km/s) = 5.25493 7.20602 6.30638
#
# Compressibility (1/GPa) = 0.03507267
#
# Stress axis : x y z
#
# Youngs Moduli (GPa) = 77.08809 32.95461 106.31776
#
# Poissons Ratio (x) = 0.14453 0.18415
# Poissons Ratio (y) = 0.33810 0.28781
# Poissons Ratio (z) = 0.13352 0.08921
#
# Static dielectric constant tensor:
#      x y z
#    x 1.859100 -0.009610 0.016760 
#    y -0.009610 1.863170 0.012010 
#    z 0.016760 0.012010 1.982450 
# 
# From -- ./inp_files/514081.got.cif
#   From: 2010.05.17/outbox.cif.g08.bks.cpg/sg2_258_cif.got.tgz:514081.got - 2010.06.03 11:33:40.
