data_PCOD9073878
_publ_section_title
;
Structure prediction by ZEFSAII (Michael W. Deem and Ramdas Pophale) SiO2 
 PCOD9073878
Probable space group: P -1
;
_chemical_formula_sum "Si O2"
_cell_formula_units_Z 16
_cell_length_a 21.000000
_cell_length_b 6.000000
_cell_length_c 12.000000
_cell_angle_alpha 120.000000
_cell_angle_beta 140.000000
_cell_angle_gamma 50.000000
_cell_volume 744.426066
_symmetry_space_group_name_H-M "P -1"
_symmetry_group_IT_number 2
_symmetry_cell_setting 'triclinic'
loop_
_space_group_symop_operation_xyz
x,y,z
-x,-y,-z
loop_
_atom_site_type_symbol
_atom_site_label
_atom_site_fract_x
_atom_site_fract_y
_atom_site_fract_z
Si Si1 0.053008 0.696515 0.059931
Si Si2 0.314003 0.029410 0.462253
Si Si3 0.876600 0.315077 0.611929
Si Si4 0.877007 0.786991 0.134958
Si Si5 0.302057 0.185602 0.934819
Si Si6 0.682120 0.246553 0.839794
Si Si7 0.496791 0.759302 0.236107
Si Si8 0.692091 0.135580 0.335352
O O1 0.102837 0.770438 0.252605
O O2 0.121852 0.477255 0.000747
O O3 0.000000 0.500000 0.000000
O O4 0.000000 0.000000 0.000000
O O5 0.202951 0.339006 0.403327
O O6 0.422219 0.087244 0.607598
O O7 0.305076 0.863732 0.298280
O O8 0.315149 0.883279 0.545416
O O9 0.796502 0.175746 0.436280
O O10 0.997299 0.240555 0.699211
O O11 0.814078 0.784404 0.162877
O O12 0.793737 0.056854 0.015061
O O13 0.304167 0.139849 0.793546
O O14 0.329363 0.435661 0.079403
O O15 0.403165 0.901720 0.052197
O O16 0.576579 0.224099 0.748208
O O17 0.580356 0.429795 0.234435
#
# Coordination Sequence:
#
# PCOD9073878 Si02
#       8
#     2   2   2   2   2   2   2   2
#     4  10  22  38  70 101 138 185 238 288 351 412
#     4  11  24  42  69 101 132 170 223 285 352 411
#     4  10  24  41  66  99 137 180 226 281 344 410
#     4  10  24  41  66  99 137 180 226 281 344 410
#     4  11  26  43  67  96 132 181 227 283 347 421
#     4  11  24  42  69 101 132 170 223 285 352 411
#     4  10  24  46  68  92 130 170 232 282 350 416
#     4  11  26  43  67  96 132 181 227 283 347 421
#
# _framework density 21.493068000000001
#
# number of rings (size 3 to 8) (size 9 to 14) (size 15 to 20)
#    0.000    1.500    1.250    1.500    8.750    9.500 
#    0.000    1.250    0.000    0.000    0.000    0.000 
#    0.000    0.000    0.000    0.000    0.000    0.000 
#
# Total GULP energy -89183.639234 kJ/mol
# GULP energy per Si atom -5573.977452 kJ/mol
# Density = 2.144415 g / cm^3
# Si number density = 21.493068 Si / 1000 Ang^3
#
#
#
# Elastic Constant Matrix: (Units=GPa)
#
#
# Indices 1 2 3 4 5 6 
#
# 1 105.3763 21.3747 37.8668 7.5220 30.8938 -4.3455
# 2 21.3747 65.4938 8.3324 -3.6638 9.6995 7.7309
# 3 37.8668 8.3324 23.8674 11.1246 27.6791 -13.9279
# 4 7.5220 -3.6638 11.1246 38.1470 -12.3913 -0.6701
# 5 30.8938 9.6995 27.6791 -12.3913 39.5884 -4.7999
# 6 -4.3455 7.7309 -13.9279 -0.6701 -4.7999 23.2795
#
#
#
# Elastic Compliance Matrix: (Units=1/GPa)
#
#
# Indices 1 2 3 4 5 6 
#
# 1 0.013925 -0.003858 0.006467 -0.010545 -0.017273 0.003885
# 2 -0.003858 0.017066 0.006498 -0.001754 -0.006741 -0.003940
# 3 0.006467 0.006498 -0.085638 0.043913 0.062367 -0.038064
# 4 -0.010545 -0.001754 0.043913 0.010468 -0.016116 0.021865
# 5 -0.017273 -0.006741 0.062367 -0.016116 -0.004011 0.035037
# 6 0.003885 -0.003940 -0.038064 0.021865 0.035037 0.030070
#
#
# Mechanical properties :
#
#
# Convention : Reuss Voigt Hill
#
# Bulk Modulus (GPa) = -27.44829 36.65393 4.60282
# Shear Modulus (GPa) = -103.14137 28.68055 -37.23041
#
# Velocity S-wave (km/s) = -6.93487 3.65692 -4.16649
# Velocity P-wave (km/s) = 8.77050 5.90945 4.58258
#
# Compressibility (1/GPa) = -0.03643215
#
# Stress axis : x y z
#
# Youngs Moduli (GPa) = 71.81173 58.59509 -11.67705
#
# Poissons Ratio (x) = 0.22605 0.07552
# Poissons Ratio (y) = 0.27704 0.07587
# Poissons Ratio (z) = -0.46442 -0.38074
#
# Static dielectric constant tensor:
#      x y z
#    x 1.777400 0.012740 -0.002200 
#    y 0.012740 1.818000 -0.085570 
#    z -0.002200 -0.085570 1.814710 
# 
# From -- ./inp_files/468474.got.cif
#   From: 2010.05.17/outbox.ucp.g08.bks.cvg/sg2_235_cif.got.tgz:468474.got - 2010.06.11 11:32:03.
