data_PCOD9073370
_publ_section_title
;
Structure prediction by ZEFSAII (Michael W. Deem and Ramdas Pophale) SiO2 
 PCOD9073370
Probable space group: P -1
;
_chemical_formula_sum "Si O2"
_cell_formula_units_Z 16
_cell_length_a 27.000000
_cell_length_b 15.000000
_cell_length_c 9.000000
_cell_angle_alpha 130.000000
_cell_angle_beta 140.000000
_cell_angle_gamma 20.000000
_cell_volume 750.501489
_symmetry_space_group_name_H-M "P -1"
_symmetry_group_IT_number 2
_symmetry_cell_setting 'triclinic'
loop_
_space_group_symop_operation_xyz
x,y,z
-x,-y,-z
loop_
_atom_site_type_symbol
_atom_site_label
_atom_site_fract_x
_atom_site_fract_y
_atom_site_fract_z
Si Si1 0.921014 0.451434 0.346949
Si Si2 0.831054 0.303918 0.996959
Si Si3 0.005567 0.369688 0.788200
Si Si4 0.243506 0.090973 0.512479
Si Si5 0.599697 0.839743 0.401075
Si Si6 0.562406 0.635194 0.967176
Si Si7 0.584557 0.260853 0.964872
Si Si8 0.495162 0.788856 0.527522
O O1 0.869601 0.389202 0.188270
O O2 0.767379 0.759697 0.297521
O O3 0.000746 0.391678 0.621529
O O4 0.065063 0.269310 0.349485
O O5 0.761500 0.349991 0.044198
O O6 0.668527 0.517203 0.732091
O O7 0.000000 0.000000 0.000000
O O8 0.820592 0.556153 0.611787
O O9 0.000000 0.500000 0.000000
O O10 0.199113 0.039082 0.894893
O O11 0.303029 0.007953 0.390916
O O12 0.420596 0.800101 0.688697
O O13 0.557983 0.772979 0.164705
O O14 0.500000 0.000000 0.500000
O O15 0.523750 0.046926 0.344666
O O16 0.478776 0.675825 0.947897
O O17 0.493188 0.283943 0.683216
O O18 0.500000 0.500000 0.000000
#
# Coordination Sequence:
#
# PCOD9073370 Si02
#       8
#     2   2   2   2   2   2   2   2
#     4  11  21  39  66 100 127 165 221 278 335 391
#     4  11  26  44  66  93 137 182 227 269 336 413
#     4  12  22  43  70 100 136 174 228 282 337 399
#     4  10  21  38  69  95 127 163 220 279 335 389
#     4  12  22  40  70 102 134 168 226 284 340 393
#     4  11  22  43  67  95 131 179 218 282 337 397
#     4  12  27  45  66  98 139 181 224 279 340 406
#     4  11  23  44  64  97 133 173 222 278 335 398
#
# _framework density 21.319078000000001
#
# number of rings (size 3 to 8) (size 9 to 14) (size 15 to 20)
#    0.000    0.750    6.250    0.750    1.750    3.000 
#    4.500    3.750    0.000    0.000    0.000    0.000 
#    0.000    0.000    0.000    0.000    0.000    0.000 
#
# Total GULP energy -89158.337370 kJ/mol
# GULP energy per Si atom -5572.396086 kJ/mol
# Density = 2.127056 g / cm^3
# Si number density = 21.319078 Si / 1000 Ang^3
#
#
#
# Elastic Constant Matrix: (Units=GPa)
#
#
# Indices 1 2 3 4 5 6 
#
# 1 60.4769 38.8090 -13.8738 -32.5769 -2.8218 -24.9683
# 2 38.8090 121.8920 8.4250 -31.3800 -3.3555 -17.6016
# 3 -13.8738 8.4250 10.6025 -27.0915 -12.2962 8.9474
# 4 -32.5769 -31.3800 -27.0915 9.1412 -5.0763 0.4340
# 5 -2.8218 -3.3555 -12.2962 -5.0763 18.7509 10.0639
# 6 -24.9683 -17.6016 8.9474 0.4340 10.0639 26.0093
#
#
#
# Elastic Compliance Matrix: (Units=1/GPa)
#
#
# Indices 1 2 3 4 5 6 
#
# 1 0.044030 0.002276 -0.038723 0.014751 -0.056664 0.078808
# 2 0.002276 0.013817 -0.012160 0.011186 -0.013210 0.020643
# 3 -0.038723 -0.012160 0.035218 -0.049403 0.040570 -0.072392
# 4 0.014751 0.011186 -0.049403 0.020913 -0.054410 0.059430
# 5 -0.056664 -0.013210 0.040570 -0.054410 0.120293 -0.122930
# 6 0.078808 0.020643 -0.072392 0.059430 -0.122930 0.199550
#
#
# Mechanical properties :
#
#
# Convention : Reuss Voigt Hill
#
# Bulk Modulus (GPa) = -240.90555 28.85467 -106.02544
# Shear Modulus (GPa) = 9.44015 21.42103 15.43059
#
# Velocity S-wave (km/s) = 2.10657 3.17327 2.69326
# Velocity P-wave (km/s) = 10.35994 5.19521 6.33791
#
# Compressibility (1/GPa) = -0.00415100
#
# Stress axis : x y z
#
# Youngs Moduli (GPa) = 22.71183 72.37461 28.39465
#
# Poissons Ratio (x) = -0.16470 1.09954
# Poissons Ratio (y) = -0.05169 0.34528
# Poissons Ratio (z) = 0.87948 0.88009
#
# Static dielectric constant tensor:
#      x y z
#    x 1.801450 0.008310 -0.060080 
#    y 0.008310 1.755780 -0.029900 
#    z -0.060080 -0.029900 1.755370 
# 
# From -- ./inp_files/188587.got.cif
#   From: 2010.05.17/outbox.ucp.g08.bks.cvg/sg2_95_cif.got.tgz:188587.got - 2010.06.11 11:32:03.
