data_PCOD9073460
_publ_section_title
;
Structure prediction by ZEFSAII (Michael W. Deem and Ramdas Pophale) SiO2 
 PCOD9073460
Probable space group: P -1
;
_chemical_formula_sum "Si O2"
_cell_formula_units_Z 16
_cell_length_a 27.000000
_cell_length_b 12.000000
_cell_length_c 27.000000
_cell_angle_alpha 30.000000
_cell_angle_beta 10.000000
_cell_angle_gamma 30.000000
_cell_volume 750.765935
_symmetry_space_group_name_H-M "P -1"
_symmetry_group_IT_number 2
_symmetry_cell_setting 'triclinic'
loop_
_space_group_symop_operation_xyz
x,y,z
-x,-y,-z
loop_
_atom_site_type_symbol
_atom_site_label
_atom_site_fract_x
_atom_site_fract_y
_atom_site_fract_z
Si Si1 0.486422 0.326598 0.127421
Si Si2 0.746494 0.454876 0.624133
Si Si3 0.692249 0.782144 0.462524
Si Si4 0.450181 0.786449 0.497191
Si Si5 0.740200 0.773801 0.850512
Si Si6 0.820615 0.450200 0.987432
Si Si7 0.094973 0.991629 0.668347
Si Si8 0.960336 0.513414 0.943016
O O1 0.313852 0.467033 0.289577
O O2 0.295136 0.125885 0.384802
O O3 0.500000 0.500000 0.000000
O O4 0.799938 0.181391 0.891389
O O5 0.799884 0.651206 0.457957
O O6 0.987125 0.244264 0.449380
O O7 0.438410 0.403624 0.930009
O O8 0.953917 0.755686 0.177009
O O9 0.590314 0.032002 0.487495
O O10 0.476297 0.641133 0.699626
O O11 0.288927 0.906589 0.560078
O O12 0.787505 0.679550 0.208957
O O13 0.311925 0.563694 0.732001
O O14 0.829441 0.670722 0.857271
O O15 0.500000 0.000000 0.000000
O O16 0.896651 0.497294 0.952022
O O17 0.014521 0.763292 0.810134
#
# Coordination Sequence:
#
# PCOD9073460 Si02
#       8
#     2   2   2   2   2   2   2   2
#     4  12  26  46  73 105 134 184 239 295 359 404
#     4  10  21  40  65  95 134 171 223 288 337 406
#     4  10  21  39  67  93 132 179 225 282 339 416
#     4  12  24  42  72  99 133 190 237 277 359 418
#     4  10  21  39  67  97 129 181 228 273 348 423
#     4  10  23  40  61  98 138 178 225 286 352 404
#     4  12  26  47  70  99 144 181 238 295 346 423
#     4  12  26  43  66 101 143 183 228 290 351 424
#
# _framework density 21.311568999999999
#
# number of rings (size 3 to 8) (size 9 to 14) (size 15 to 20)
#    0.000    1.000    1.250    5.250    3.500    4.000 
#    0.000    3.750    0.000    0.000    0.000    0.000 
#    0.000    0.000    0.000    0.000    0.000    0.000 
#
# Total GULP energy -89161.553268 kJ/mol
# GULP energy per Si atom -5572.597079 kJ/mol
# Density = 2.126306 g / cm^3
# Si number density = 21.311569 Si / 1000 Ang^3
#
#
#
# Elastic Constant Matrix: (Units=GPa)
#
#
# Indices 1 2 3 4 5 6 
#
# 1 146.5048 40.1336 12.3535 -2.0752 -1.1241 -3.7773
# 2 40.1336 106.9966 9.3942 7.3667 -1.6980 -2.0155
# 3 12.3535 9.3942 86.2532 9.4634 -0.3427 -6.4670
# 4 -2.0752 7.3667 9.4634 50.4200 -2.5354 -0.7226
# 5 -1.1241 -1.6980 -0.3427 -2.5354 31.8298 -3.2990
# 6 -3.7773 -2.0155 -6.4670 -0.7226 -3.2990 34.9429
#
#
#
# Elastic Compliance Matrix: (Units=1/GPa)
#
#
# Indices 1 2 3 4 5 6 
#
# 1 0.007712 -0.002867 -0.000850 0.000916 0.000240 0.000553
# 2 -0.002867 0.010586 -0.000557 -0.001539 0.000356 0.000199
# 3 -0.000850 -0.000557 0.012175 -0.002203 0.000113 0.002094
# 4 0.000916 -0.001539 -0.002203 0.020592 0.001585 0.000178
# 5 0.000240 0.000356 0.000113 0.001585 0.031895 0.003111
# 6 0.000553 0.000199 0.002094 0.000178 0.003111 0.029374
#
#
# Mechanical properties :
#
#
# Convention : Reuss Voigt Hill
#
# Bulk Modulus (GPa) = 45.61133 51.50194 48.55663
# Shear Modulus (GPa) = 39.00448 41.96341 40.48394
#
# Velocity S-wave (km/s) = 4.28273 4.44220 4.36319
# Velocity P-wave (km/s) = 6.77527 7.10841 6.94384
#
# Compressibility (1/GPa) = 0.02192438
#
# Stress axis : x y z
#
# Youngs Moduli (GPa) = 129.67102 94.46705 82.13254
#
# Poissons Ratio (x) = 0.27082 0.06984
# Poissons Ratio (y) = 0.37174 0.04576
# Poissons Ratio (z) = 0.11027 0.05263
#
# Static dielectric constant tensor:
#      x y z
#    x 1.771790 -0.005950 0.004380 
#    y -0.005950 1.805470 -0.000690 
#    z 0.004380 -0.000690 1.851930 
# 
# From -- ./inp_files/621234.got.cif
#   From: 2010.05.17/outbox.ucp.g08.bks.cvg/sg2_311_cif.got.tgz:621234.got - 2010.06.11 11:32:03.
