data_PCOD9073122
_publ_section_title
;
Structure prediction by ZEFSAII (Michael W. Deem and Ramdas Pophale) SiO2 
 PCOD9073122
Probable space group: P -1
;
_chemical_formula_sum "Si O2"
_cell_formula_units_Z 16
_cell_length_a 9.000000
_cell_length_b 27.000000
_cell_length_c 27.000000
_cell_angle_alpha 170.000000
_cell_angle_beta 40.000000
_cell_angle_gamma 140.000000
_cell_volume 728.340053
_symmetry_space_group_name_H-M "P -1"
_symmetry_group_IT_number 2
_symmetry_cell_setting 'triclinic'
loop_
_space_group_symop_operation_xyz
x,y,z
-x,-y,-z
loop_
_atom_site_type_symbol
_atom_site_label
_atom_site_fract_x
_atom_site_fract_y
_atom_site_fract_z
Si Si1 0.604275 0.435249 0.356644
Si Si2 0.444872 0.783768 0.550360
Si Si3 0.132172 0.612085 0.371270
Si Si4 0.237152 0.170864 0.830299
Si Si5 0.328526 0.895258 0.849446
Si Si6 0.792984 0.777545 0.896839
Si Si7 0.993479 0.039158 0.658441
Si Si8 0.305189 0.570499 0.079046
O O1 0.500000 0.500000 0.500000
O O2 0.473966 0.627924 0.541318
O O3 0.878905 0.536132 0.385718
O O4 0.504966 0.112268 0.050218
O O5 0.342223 0.641924 0.386208
O O6 0.362112 0.527400 0.357712
O O7 0.716411 0.923916 0.616235
O O8 0.285646 0.032995 0.851014
O O9 0.182737 0.887846 0.596374
O O10 0.139561 0.384338 0.102634
O O11 0.513779 0.266832 0.846001
O O12 0.085888 0.144427 0.792648
O O13 0.075071 0.785134 0.829687
O O14 0.274124 0.060202 0.975868
O O15 0.139137 0.780158 0.352410
O O16 0.119563 0.295269 0.843185
O O17 0.500000 0.500000 0.000000
#
# Coordination Sequence:
#
# PCOD9073122 Si02
#       8
#     2   2   2   2   2   2   2   2
#     4  12  25  42  66  92 135 176 225 263 331 391
#     4  12  26  44  65  95 140 172 215 269 341 386
#     4  12  26  42  64 100 136 173 218 274 336 382
#     4  11  23  42  69  97 132 168 222 275 320 387
#     4  11  24  42  66  95 120 173 234 268 325 389
#     4  11  24  43  66  91 133 170 218 285 326 378
#     4  11  23  41  71  98 128 175 220 260 331 396
#     4  10  20  42  67 100 130 168 215 272 324 388
#
# _framework density 21.967760999999999
#
# number of rings (size 3 to 8) (size 9 to 14) (size 15 to 20)
#    0.000    0.750    0.000    9.375    5.250    2.000 
#    0.000    3.750    0.000    0.000    0.000    0.000 
#    0.000    0.000    0.000    0.000    0.000    0.000 
#
# Total GULP energy -89217.704320 kJ/mol
# GULP energy per Si atom -5576.106520 kJ/mol
# Density = 2.191776 g / cm^3
# Si number density = 21.967761 Si / 1000 Ang^3
#
#
#
# Elastic Constant Matrix: (Units=GPa)
#
#
# Indices 1 2 3 4 5 6 
#
# 1 100.8971 50.5315 33.0095 0.3345 37.7045 25.8031
# 2 50.5315 180.7853 37.8851 30.3345 13.5556 41.2743
# 3 33.0095 37.8851 149.9649 9.3803 41.3913 11.6357
# 4 0.3345 30.3345 9.3803 45.2484 -14.8172 3.9204
# 5 37.7045 13.5556 41.3913 -14.8172 64.5906 14.4955
# 6 25.8031 41.2743 11.6357 3.9204 14.4955 50.2628
#
#
#
# Elastic Compliance Matrix: (Units=1/GPa)
#
#
# Indices 1 2 3 4 5 6 
#
# 1 0.014952 -0.002792 -0.000307 -0.000289 -0.007297 -0.003185
# 2 -0.002792 0.008438 -0.000960 -0.004839 0.000495 -0.005039
# 3 -0.000307 -0.000960 0.008840 -0.003321 -0.006263 0.000965
# 4 -0.000289 -0.004839 -0.003321 0.029377 0.010123 -0.000321
# 5 -0.007297 0.000495 -0.006263 0.010123 0.026811 -0.003733
# 6 -0.003185 -0.005039 0.000965 -0.000321 -0.003733 0.026546
#
#
# Mechanical properties :
#
#
# Convention : Reuss Voigt Hill
#
# Bulk Modulus (GPa) = 41.47292 74.94440 58.20866
# Shear Modulus (GPa) = 38.13289 52.70179 45.41734
#
# Velocity S-wave (km/s) = 4.17088 4.90333 4.55186
# Velocity P-wave (km/s) = 6.48961 8.13919 7.36076
#
# Compressibility (1/GPa) = 0.02411212
#
# Stress axis : x y z
#
# Youngs Moduli (GPa) = 66.87955 118.50750 113.12683
#
# Poissons Ratio (x) = 0.33091 0.03468
# Poissons Ratio (y) = 0.18675 0.10862
# Poissons Ratio (z) = 0.02050 0.11379
#
# Static dielectric constant tensor:
#      x y z
#    x 1.845860 -0.119370 -0.060460 
#    y -0.119370 2.027380 0.163600 
#    z -0.060460 0.163600 1.979710 
# 
# From -- ./inp_files/357990.got.cif
#   From: 2010.05.17/outbox.ucp.g08.bks.cvg/sg2_179_cif.got.tgz:357990.got - 2010.06.11 11:32:03.
