data_PCOD9073217
_publ_section_title
;
Structure prediction by ZEFSAII (Michael W. Deem and Ramdas Pophale) SiO2 
 PCOD9073217
Probable space group: P -1
;
_chemical_formula_sum "Si O2"
_cell_formula_units_Z 16
_cell_length_a 9.000000
_cell_length_b 15.000000
_cell_length_c 12.000000
_cell_angle_alpha 150.000000
_cell_angle_beta 110.000000
_cell_angle_gamma 70.000000
_cell_volume 757.522634
_symmetry_space_group_name_H-M "P -1"
_symmetry_group_IT_number 2
_symmetry_cell_setting 'triclinic'
loop_
_space_group_symop_operation_xyz
x,y,z
-x,-y,-z
loop_
_atom_site_type_symbol
_atom_site_label
_atom_site_fract_x
_atom_site_fract_y
_atom_site_fract_z
Si Si1 0.430702 0.531636 0.721536
Si Si2 0.852240 0.242299 0.733331
Si Si3 0.392067 0.149666 0.963154
Si Si4 0.781614 0.844406 0.314161
Si Si5 0.276166 0.410298 0.780549
Si Si6 0.175134 0.340147 0.309664
Si Si7 0.704967 0.231003 0.435953
Si Si8 0.001674 0.692638 0.556976
O O1 0.395087 0.477318 0.785139
O O2 0.285977 0.459548 0.539755
O O3 0.588334 0.411436 0.590061
O O4 0.460966 0.732467 0.902788
O O5 0.778840 0.244233 0.592629
O O6 0.040033 0.245395 0.761930
O O7 0.809526 0.053160 0.571999
O O8 0.787374 0.409315 0.973847
O O9 0.303667 0.159938 0.831984
O O10 0.402619 0.938004 0.770408
O O11 0.284209 0.233724 0.129268
O O12 0.689615 0.738018 0.270325
O O13 0.141182 0.315606 0.576103
O O14 0.058279 0.483834 0.368883
O O15 0.073770 0.240466 0.269441
O O16 0.848656 0.222496 0.372031
#
# Coordination Sequence:
#
# PCOD9073217 Si02
#       8
#     2   2   2   2   2   2   2   2
#     4  11  25  42  59  88 125 160 199 244 295 357
#     4  10  21  36  61  94 123 152 195 248 298 351
#     4  11  23  39  63  88 123 160 196 242 304 350
#     4  10  21  37  61  94 122 151 198 249 292 354
#     4  11  22  39  65  89 121 161 195 241 303 352
#     4  10  22  42  64  86 121 156 200 255 294 345
#     4  11  23  39  63  91 120 156 203 243 295 362
#     4  10  21  40  65  92 115 153 206 251 292 350
#
# _framework density 21.121480999999999
#
# number of rings (size 3 to 8) (size 9 to 14) (size 15 to 20)
#    0.000    1.500    2.500    2.250    0.000    4.000 
#    0.000    2.500    0.000    0.000    0.000    0.000 
#    0.000    0.000    0.000    0.000    0.000    0.000 
#
# Total GULP energy -89251.111599 kJ/mol
# GULP energy per Si atom -5578.194475 kJ/mol
# Density = 2.107341 g / cm^3
# Si number density = 21.121481 Si / 1000 Ang^3
#
#
#
# Elastic Constant Matrix: (Units=GPa)
#
#
# Indices 1 2 3 4 5 6 
#
# 1 96.8673 15.1410 7.0959 4.7714 9.5674 42.5258
# 2 15.1410 74.0660 15.5498 -1.1352 -0.7838 34.1925
# 3 7.0959 15.5498 53.0376 8.6394 0.0042 19.8039
# 4 4.7714 -1.1352 8.6394 28.8984 11.2995 4.6530
# 5 9.5674 -0.7838 0.0042 11.2995 31.7322 -1.4639
# 6 42.5258 34.1925 19.8039 4.6530 -1.4639 52.9334
#
#
#
# Elastic Compliance Matrix: (Units=1/GPa)
#
#
# Indices 1 2 3 4 5 6 
#
# 1 0.018419 0.004392 0.003066 0.002061 -0.007063 -0.019159
# 2 0.004392 0.020692 -0.001023 0.004359 -0.003149 -0.016982
# 3 0.003066 -0.001023 0.023510 -0.006282 0.000822 -0.010024
# 4 0.002061 0.004359 -0.006282 0.043756 -0.016390 -0.006421
# 5 -0.007063 -0.003149 0.000822 -0.016390 0.039861 0.009944
# 6 -0.019159 -0.016982 -0.010024 -0.006421 0.009944 0.049843
#
#
# Mechanical properties :
#
#
# Convention : Reuss Voigt Hill
#
# Bulk Modulus (GPa) = 13.24629 33.28269 23.26449
# Shear Modulus (GPa) = 23.99552 35.12507 29.56029
#
# Velocity S-wave (km/s) = 3.37422 4.08242 3.74510
# Velocity P-wave (km/s) = 4.63310 6.16551 5.45340
#
# Compressibility (1/GPa) = 0.07549281
#
# Stress axis : x y z
#
# Youngs Moduli (GPa) = 54.29117 48.32886 42.53463
#
# Poissons Ratio (x) = -0.21227 -0.13043
# Poissons Ratio (y) = -0.23846 0.04351
# Poissons Ratio (z) = -0.16648 0.04944
#
# Static dielectric constant tensor:
#      x y z
#    x 1.789600 -0.021660 0.012550 
#    y -0.021660 1.812800 0.009540 
#    z 0.012550 0.009540 1.763230 
# 
# From -- ./inp_files/256018.got.cif
#   From: 2010.05.17/outbox.ucp.g08.bks.cvg/sg2_129_cif.got.tgz:256018.got - 2010.06.11 11:32:03.
