data_PCOD9073339
_publ_section_title
;
Structure prediction by ZEFSAII (Michael W. Deem and Ramdas Pophale) SiO2 
 PCOD9073339
Probable space group: P -1
;
_chemical_formula_sum "Si O2"
_cell_formula_units_Z 10
_cell_length_a 9.828157
_cell_length_b 11.480192
_cell_length_c 8.541103
_cell_angle_alpha 26.676788
_cell_angle_beta 91.206055
_cell_angle_gamma 90.623693
_cell_volume 432.490028
_symmetry_space_group_name_H-M "P -1"
_symmetry_group_IT_number 2
_symmetry_cell_setting 'triclinic'
loop_
_space_group_symop_operation_xyz
x,y,z
-x,-y,-z
loop_
_atom_site_type_symbol
_atom_site_label
_atom_site_fract_x
_atom_site_fract_y
_atom_site_fract_z
Si Si1 0.169261 0.445733 0.748625
Si Si2 0.354150 0.554833 0.338874
Si Si3 0.558499 0.904374 0.287338
Si Si4 0.942303 0.293433 0.121679
Si Si5 0.281850 0.862688 0.495115
O O1 0.229717 0.498346 0.517427
O O2 0.214805 0.693497 0.555594
O O3 0.010679 0.392110 0.844197
O O4 0.243581 0.170012 0.125971
O O5 0.500000 0.500000 0.500000
O O6 0.357381 0.351136 0.444342
O O7 0.356372 0.856555 0.939252
O O8 0.440401 0.845876 0.477981
O O9 0.500000 0.000000 0.000000
O O10 0.786112 0.261838 0.204799
O O11 0.000000 0.000000 0.500000
O O12 0.000000 0.500000 0.000000
#
# Coordination Sequence:
#
# PCOD9073339 Si02
#       5
#     2   2   2   2   2
#     4  10  14  20  24  28  34  38  44  48  52  58
#     4  10  14  18  24  30  34  38  42  48  54  58
#     4  10  14  18  24  30  34  38  42  48  54  58
#     4   8  16  20  24  28  32  40  44  48  52  56
#     4  10  14  20  24  28  34  38  44  48  52  58
#
# _framework density 23.121922000000001
#
# number of rings (size 3 to 8) (size 9 to 14) (size 15 to 20)
#    0.000    2.400    8.000    0.000    0.000    0.000 
#    0.000    0.000    0.000    0.000    0.000    0.000 
#    0.000    0.000    0.000    0.000    0.000    0.000 
#
# Total GULP energy -55713.122834 kJ/mol
# GULP energy per Si atom -5571.312283 kJ/mol
# Density = 2.306930 g / cm^3
# Si number density = 23.121922 Si / 1000 Ang^3
#
#
#
# Elastic Constant Matrix: (Units=GPa)
#
#
# Indices 1 2 3 4 5 6 
#
# 1 38.1307 69.7458 56.3518 45.9442 -18.6363 -15.0252
# 2 69.7458 119.3690 50.2746 3.4687 -26.6242 -49.9629
# 3 56.3518 50.2746 129.2115 -16.7298 -42.5708 -8.7421
# 4 45.9442 3.4687 -16.7298 49.1895 -22.5975 -41.0481
# 5 -18.6363 -26.6242 -42.5708 -22.5975 45.2883 25.2102
# 6 -15.0252 -49.9629 -8.7421 -41.0481 25.2102 50.9905
#
#
#
# Elastic Compliance Matrix: (Units=1/GPa)
#
#
# Indices 1 2 3 4 5 6 
#
# 1 0.001014 0.006961 0.001357 0.016212 0.003472 0.018686
# 2 0.006961 0.010266 -0.011247 -0.009320 -0.010782 0.008009
# 3 0.001357 -0.011247 0.015948 -0.002371 0.018222 -0.018804
# 4 0.016212 -0.009320 -0.002371 0.003596 0.002479 -0.003093
# 5 0.003472 -0.010782 0.018222 0.002479 0.052427 -0.030342
# 6 0.018686 0.008009 -0.018804 -0.003093 -0.030342 0.042253
#
#
# Mechanical properties :
#
#
# Convention : Reuss Voigt Hill
#
# Bulk Modulus (GPa) = 46.79766 71.05062 58.92414
# Shear Modulus (GPa) = 36.10504 36.44958 36.27731
#
# Velocity S-wave (km/s) = 3.95588 3.97471 3.96530
# Velocity P-wave (km/s) = 6.41473 7.20137 6.81940
#
# Compressibility (1/GPa) = 0.02136859
#
# Stress axis : x y z
#
# Youngs Moduli (GPa) = 986.26203 97.41223 62.70452
#
# Poissons Ratio (x) = -0.67807 -0.08508
# Poissons Ratio (y) = -6.86525 0.70524
# Poissons Ratio (z) = -1.33818 1.09560
#
# Static dielectric constant tensor:
#      x y z
#    x 1.893070 0.003380 -0.004960 
#    y 0.003380 1.922090 -0.052940 
#    z -0.004960 -0.052940 1.921710 
# 
# From -- ./inp_files/19161.got.cif
#   From: 2010.05.17/outbox.cif.g08.bks.cpg/sg2_10_cif.got.tgz:19161.got - 2010.06.03 11:33:40.
