data_PCOD9073987
_publ_section_title
;
Structure prediction by ZEFSAII (Michael W. Deem and Ramdas Pophale) SiO2 
 PCOD9073987
Probable space group: P -1
;
_chemical_formula_sum "Si O2"
_cell_formula_units_Z 15
_cell_length_a 12.000000
_cell_length_b 9.000000
_cell_length_c 15.000000
_cell_angle_alpha 30.000000
_cell_angle_beta 60.000000
_cell_angle_gamma 50.000000
_cell_volume 613.666794
_symmetry_space_group_name_H-M "P -1"
_symmetry_group_IT_number 2
_symmetry_cell_setting 'triclinic'
loop_
_space_group_symop_operation_xyz
x,y,z
-x,-y,-z
loop_
_atom_site_type_symbol
_atom_site_label
_atom_site_fract_x
_atom_site_fract_y
_atom_site_fract_z
Si Si1 0.653551 0.068754 0.020979
Si Si2 0.994034 0.162581 0.323090
Si Si3 0.108906 0.094610 0.661721
Si Si4 0.473916 0.063233 0.695448
Si Si5 0.324771 0.833882 0.302516
Si Si6 0.955210 0.905694 0.973698
Si Si7 0.500000 0.000000 0.000000
Si Si8 0.451846 0.772373 0.695652
O O1 0.631348 0.769461 0.143028
O O2 0.502374 0.367749 0.875704
O O3 0.781231 0.148386 0.904113
O O4 0.636176 0.003798 0.163776
O O5 0.152885 0.991261 0.301754
O O6 0.000000 0.000000 0.500000
O O7 0.900212 0.063768 0.346061
O O8 0.956149 0.547961 0.155969
O O9 0.000000 0.500000 0.500000
O O10 0.278443 0.983497 0.666228
O O11 0.053823 0.931766 0.844207
O O12 0.394699 0.425813 0.489530
O O13 0.605500 0.062458 0.697188
O O14 0.532652 0.754005 0.765109
O O15 0.367953 0.979503 0.125792
O O16 0.000000 0.000000 0.000000
O O17 0.500000 0.000000 0.500000
#
# Coordination Sequence:
#
# PCOD9073987 Si02
#       8
#     2   2   2   2   2   2   1   2
#     4  11  24  41  68  95 139 178 234 288 354 425
#     4  12  27  45  75 106 150 194 250 294 377 445
#     4  12  27  48  73 106 147 191 244 309 371 441
#     4  10  22  41  65  98 133 178 229 289 353 419
#     4  10  22  41  69  98 139 180 234 296 356 433
#     4  12  27  46  74 106 150 196 245 302 368 435
#     4  10  22  40  68  96 138 176 232 296 360 410
#     4  12  26  41  70  98 137 182 237 292 364 427
#
# _framework density 24.443231999999998
#
# number of rings (size 3 to 8) (size 9 to 14) (size 15 to 20)
#    0.000    0.800    0.000    6.400    9.333    0.000 
#    0.000    0.000    0.000    0.000    0.000    0.000 
#    0.000    0.000    0.000    0.000    0.000    0.000 
#
# Total GULP energy -83641.128897 kJ/mol
# GULP energy per Si atom -5576.075260 kJ/mol
# Density = 2.438760 g / cm^3
# Si number density = 24.443232 Si / 1000 Ang^3
#
#
#
# Elastic Constant Matrix: (Units=GPa)
#
#
# Indices 1 2 3 4 5 6 
#
# 1 117.5016 38.8654 23.4286 0.4841 -14.0206 6.0676
# 2 38.8654 91.7708 59.4706 4.8906 -1.1348 7.8262
# 3 23.4286 59.4706 113.6657 12.6211 -27.8755 2.9549
# 4 0.4841 4.8906 12.6211 60.8960 -5.0843 -8.6066
# 5 -14.0206 -1.1348 -27.8755 -5.0843 28.0842 6.4214
# 6 6.0676 7.8262 2.9549 -8.6066 6.4214 62.8272
#
#
#
# Elastic Compliance Matrix: (Units=1/GPa)
#
#
# Indices 1 2 3 4 5 6 
#
# 1 0.011223 -0.006808 0.003490 0.000315 0.009144 -0.001291
# 2 -0.006808 0.023328 -0.015088 -0.000121 -0.017508 0.000234
# 3 0.003490 -0.015088 0.021855 -0.001719 0.022987 -0.002070
# 4 0.000315 -0.000121 -0.001719 0.017198 0.001030 0.002316
# 5 0.009144 -0.017508 0.022987 0.001030 0.063878 -0.006171
# 6 -0.001291 0.000234 -0.002070 0.002316 -0.006171 0.017058
#
#
# Mechanical properties :
#
#
# Convention : Reuss Voigt Hill
#
# Bulk Modulus (GPa) = 51.04001 62.94079 56.99040
# Shear Modulus (GPa) = 25.26741 43.77307 34.52024
#
# Velocity S-wave (km/s) = 3.21864 4.23638 3.76208
# Velocity P-wave (km/s) = 5.89400 7.05230 6.49900
#
# Compressibility (1/GPa) = 0.01959247
#
# Stress axis : x y z
#
# Youngs Moduli (GPa) = 89.10216 42.86764 45.75687
#
# Poissons Ratio (x) = 0.29185 -0.15969
# Poissons Ratio (y) = 0.60662 0.69039
# Poissons Ratio (z) = -0.31096 0.64679
#
# Static dielectric constant tensor:
#      x y z
#    x 2.038640 0.022660 0.049000 
#    y 0.022660 2.230610 -0.165940 
#    z 0.049000 -0.165940 1.981210 
# 
# From -- ./inp_files/514790.got.cif
#   From: 2010.05.17/outbox.ucp.g08.bks.cvg/sg2_258_cif.got.tgz:514790.got - 2010.06.11 11:32:03.
