data_PCOD9073171
_publ_section_title
;
Structure prediction by ZEFSAII (Michael W. Deem and Ramdas Pophale) SiO2 
 PCOD9073171
Probable space group: P -1
;
_chemical_formula_sum "Si O2"
_cell_formula_units_Z 14
_cell_length_a 9.000000
_cell_length_b 12.000000
_cell_length_c 18.000000
_cell_angle_alpha 140.000000
_cell_angle_beta 130.000000
_cell_angle_gamma 80.000000
_cell_volume 729.599496
_symmetry_space_group_name_H-M "P -1"
_symmetry_group_IT_number 2
_symmetry_cell_setting 'triclinic'
loop_
_space_group_symop_operation_xyz
x,y,z
-x,-y,-z
loop_
_atom_site_type_symbol
_atom_site_label
_atom_site_fract_x
_atom_site_fract_y
_atom_site_fract_z
Si Si1 0.438474 0.061698 0.895920
Si Si2 0.882238 0.788464 0.617896
Si Si3 0.490786 0.047953 0.290587
Si Si4 0.227816 0.434454 0.377213
Si Si5 0.452725 0.703647 0.803753
Si Si6 0.898092 0.694000 0.898591
Si Si7 0.544155 0.163222 0.530015
O O1 0.498394 0.086744 0.840852
O O2 0.453516 0.875563 0.840330
O O3 0.158639 0.979064 0.772425
O O4 0.592236 0.263121 0.108693
O O5 0.911045 0.735060 0.684712
O O6 0.768202 0.553489 0.421768
O O7 0.689348 0.835989 0.563056
O O8 0.682808 0.313442 0.461565
O O9 0.571444 0.071348 0.414544
O O10 0.185406 0.906341 0.122544
O O11 0.500000 0.500000 0.500000
O O12 0.106220 0.322623 0.201286
O O13 0.705936 0.733940 0.884807
O O14 0.779017 0.437911 0.756049
O O15 0.500000 0.000000 0.500000
#
# Coordination Sequence:
#
# PCOD9073171 Si02
#       7
#     2   2   2   2   2   2   2
#     4  11  23  32  52  87 125 158 177 214 288 357
#     4  11  21  38  56  83 121 153 185 237 280 338
#     4  11  22  37  58  88 120 149 189 235 286 344
#     4  11  19  33  56  89 118 153 188 228 286 340
#     4  10  21  33  50  84 121 158 177 213 276 354
#     4  10  22  37  61  86 117 150 189 241 283 338
#     4  10  23  44  65  82 102 148 209 250 284 321
#
# _framework density 19.188610000000001
#
# number of rings (size 3 to 8) (size 9 to 14) (size 15 to 20)
#    0.000    1.429    5.714    1.286    4.000    2.857 
#    0.000    0.714    0.000    4.286    0.000    0.000 
#    0.000    0.000    0.000    0.000    0.000    0.000 
#
# Total GULP energy -78066.989687 kJ/mol
# GULP energy per Si atom -5576.213549 kJ/mol
# Density = 1.914494 g / cm^3
# Si number density = 19.188610 Si / 1000 Ang^3
#
#
#
# Elastic Constant Matrix: (Units=GPa)
#
#
# Indices 1 2 3 4 5 6 
#
# 1 71.1660 27.7894 11.3691 -7.1059 -28.0728 17.5120
# 2 27.7894 106.3955 23.2522 2.3880 -17.1501 19.7640
# 3 11.3691 23.2522 79.4600 -3.7141 -25.6820 4.3429
# 4 -7.1059 2.3880 -3.7141 14.9887 1.7514 -6.9033
# 5 -28.0728 -17.1501 -25.6820 1.7514 47.1962 -9.6201
# 6 17.5120 19.7640 4.3429 -6.9033 -9.6201 25.3301
#
#
#
# Elastic Compliance Matrix: (Units=1/GPa)
#
#
# Indices 1 2 3 4 5 6 
#
# 1 0.021794 -0.003257 0.002196 0.006989 0.011353 -0.006686
# 2 -0.003257 0.012932 -0.003458 -0.008973 -0.000826 -0.010005
# 3 0.002196 -0.003458 0.016450 0.006250 0.009519 0.003678
# 4 0.006989 -0.008973 0.006250 0.084504 0.006590 0.026630
# 5 0.011353 -0.000826 0.009519 0.006590 0.033754 0.005779
# 6 -0.006686 -0.010005 0.003678 0.026630 0.005779 0.060729
#
#
# Mechanical properties :
#
#
# Convention : Reuss Voigt Hill
#
# Bulk Modulus (GPa) = 23.73116 42.42700 33.07908
# Shear Modulus (GPa) = 19.74355 30.47706 25.11031
#
# Velocity S-wave (km/s) = 3.21116 3.98966 3.62139
# Velocity P-wave (km/s) = 5.11301 6.58648 5.89595
#
# Compressibility (1/GPa) = 0.04213870
#
# Stress axis : x y z
#
# Youngs Moduli (GPa) = 45.88387 77.32726 60.78912
#
# Poissons Ratio (x) = 0.25188 -0.13351
# Poissons Ratio (y) = 0.14946 0.21020
# Poissons Ratio (z) = -0.10077 0.26738
#
# Static dielectric constant tensor:
#      x y z
#    x 1.820270 0.097720 -0.062230 
#    y 0.097720 1.730270 -0.055920 
#    z -0.062230 -0.055920 1.785130 
# 
# From -- ./inp_files/253320.got.cif
#   From: 2010.05.17/outbox.ucp.g08.bks.cvg/sg2_127_cif.got.tgz:253320.got - 2010.06.11 11:32:03.
