data_PCOD9073855
_publ_section_title
;
Structure prediction by ZEFSAII (Michael W. Deem and Ramdas Pophale) SiO2 
 PCOD9073855
Probable space group: P -1
;
_chemical_formula_sum "Si O2"
_cell_formula_units_Z 16
_cell_length_a 12.455877
_cell_length_b 8.061982
_cell_length_c 13.770711
_cell_angle_alpha 113.010379
_cell_angle_beta 80.410793
_cell_angle_gamma 143.780855
_cell_volume 723.386762
_symmetry_space_group_name_H-M "P -1"
_symmetry_group_IT_number 2
_symmetry_cell_setting 'triclinic'
loop_
_space_group_symop_operation_xyz
x,y,z
-x,-y,-z
loop_
_atom_site_type_symbol
_atom_site_label
_atom_site_fract_x
_atom_site_fract_y
_atom_site_fract_z
Si Si1 0.946830 0.216656 0.429992
Si Si2 0.530277 0.101054 0.629744
Si Si3 0.087001 0.484786 0.267887
Si Si4 0.245813 0.100813 0.917744
Si Si5 0.428203 0.703805 0.031539
Si Si6 0.555691 0.633693 0.266896
Si Si7 0.581748 0.275676 0.184412
Si Si8 0.857732 0.532947 0.356951
O O1 0.033942 0.237208 0.514573
O O2 0.000000 0.500000 0.500000
O O3 0.034403 0.297615 0.330108
O O4 0.724669 0.892410 0.377838
O O5 0.578083 0.376889 0.700111
O O6 0.690361 0.200097 0.680215
O O7 0.500000 0.000000 0.500000
O O8 0.329789 0.806203 0.644397
O O9 0.988943 0.548242 0.302818
O O10 0.973908 0.236950 0.141053
O O11 0.363230 0.107661 0.958846
O O12 0.346067 0.228956 0.823902
O O13 0.295176 0.363874 0.012299
O O14 0.456145 0.926531 0.135397
O O15 0.361716 0.656693 0.922046
O O16 0.480400 0.330755 0.224785
O O17 0.767536 0.523397 0.280785
#
# Coordination Sequence:
#
# PCOD9073855 Si02
#       8
#     2   2   2   2   2   2   2   2
#     4   9  15  31  52  76 108 136 187 224 254 319
#     4  12  20  33  60  81 111 151 190 226 264 320
#     4  10  18  31  58  87 106 138 195 233 261 319
#     4   9  16  33  60  84 107 137 197 235 262 325
#     4   9  17  32  58  88 101 147 191 226 282 332
#     4  10  19  33  54  86 112 150 179 225 285 323
#     4  10  20  32  56  82 117 145 178 225 294 342
#     4  11  19  36  55  82 114 149 178 230 279 320
#
# _framework density 22.118182999999998
#
# number of rings (size 3 to 8) (size 9 to 14) (size 15 to 20)
#    0.000    2.000    6.250    0.750    0.000    0.500 
#    0.000    0.625    8.250   13.500    0.000    0.000 
#    0.000    0.000    0.000    0.000    0.000    0.000 
#
# Total GULP energy -89187.859494 kJ/mol
# GULP energy per Si atom -5574.241218 kJ/mol
# Density = 2.206784 g / cm^3
# Si number density = 22.118183 Si / 1000 Ang^3
#
#
#
# Elastic Constant Matrix: (Units=GPa)
#
#
# Indices 1 2 3 4 5 6 
#
# 1 112.8046 23.4679 24.4791 -1.3182 3.6552 -3.3866
# 2 23.4679 13.8572 5.9121 2.9837 -4.7227 -4.9117
# 3 24.4791 5.9121 95.2136 -4.2836 27.5238 -6.0031
# 4 -1.3182 2.9837 -4.2836 27.1846 -8.0302 3.8652
# 5 3.6552 -4.7227 27.5238 -8.0302 49.1979 5.2391
# 6 -3.3866 -4.9117 -6.0031 3.8652 5.2391 28.2847
#
#
#
# Elastic Compliance Matrix: (Units=1/GPa)
#
#
# Indices 1 2 3 4 5 6 
#
# 1 0.014832 -0.026956 -0.001666 0.003348 -0.001852 -0.003373
# 2 -0.026956 0.134259 -0.004663 -0.015633 0.012942 0.018836
# 3 -0.001666 -0.004663 0.013899 -0.000413 -0.008548 0.003580
# 4 0.003348 -0.015633 -0.000413 0.041775 0.006288 -0.009275
# 5 -0.001852 0.012942 -0.008548 0.006288 0.028139 -0.005860
# 6 -0.003373 0.018836 0.003580 -0.009275 -0.005860 0.041335
#
#
# Mechanical properties :
#
#
# Convention : Reuss Voigt Hill
#
# Bulk Modulus (GPa) = 10.37138 36.62153 23.49646
# Shear Modulus (GPa) = 13.40668 32.13454 22.77061
#
# Velocity S-wave (km/s) = 2.46466 3.81577 3.21206
# Velocity P-wave (km/s) = 3.57752 6.00055 4.93990
#
# Compressibility (1/GPa) = 0.09641914
#
# Stress axis : x y z
#
# Youngs Moduli (GPa) = 67.42075 7.44830 71.94807
#
# Poissons Ratio (x) = 0.20078 0.11989
# Poissons Ratio (y) = 1.81738 0.33551
# Poissons Ratio (z) = 0.11235 0.03473
#
# Static dielectric constant tensor:
#      x y z
#    x 1.855460 -0.028400 0.014950 
#    y -0.028400 1.895130 0.001800 
#    z 0.014950 0.001800 1.881660 
# 
# From -- ./inp_files/565459.got.cif
#   From: 2010.05.17/outbox.cif.g08.bks.cpg/sg2_283_cif.got.tgz:565459.got - 2010.06.03 11:33:40.
