data_PCOD9073029
_publ_section_title
;
Structure prediction by ZEFSAII (Michael W. Deem and Ramdas Pophale) SiO2 
 PCOD9073029
Probable space group: P -1
;
_chemical_formula_sum "Si O2"
_cell_formula_units_Z 16
_cell_length_a 15.000000
_cell_length_b 12.000000
_cell_length_c 9.000000
_cell_angle_alpha 80.000000
_cell_angle_beta 40.000000
_cell_angle_gamma 60.000000
_cell_volume 835.587839
_symmetry_space_group_name_H-M "P -1"
_symmetry_group_IT_number 2
_symmetry_cell_setting 'triclinic'
loop_
_space_group_symop_operation_xyz
x,y,z
-x,-y,-z
loop_
_atom_site_type_symbol
_atom_site_label
_atom_site_fract_x
_atom_site_fract_y
_atom_site_fract_z
Si Si1 0.372968 0.335727 0.900755
Si Si2 0.114776 0.782990 0.513684
Si Si3 0.782829 0.697813 0.354169
Si Si4 0.475571 0.533795 0.200090
Si Si5 0.530102 0.870403 0.899882
Si Si6 0.786310 0.090082 0.891367
Si Si7 0.953540 0.628246 0.843195
Si Si8 0.477713 0.709112 0.598521
O O1 0.366784 0.463640 0.948689
O O2 0.498277 0.297636 0.607711
O O3 0.435699 0.234112 0.985872
O O4 0.205139 0.355689 0.042923
O O5 0.289908 0.683639 0.406925
O O6 0.172178 0.817141 0.279634
O O7 0.029771 0.698836 0.641245
O O8 0.959609 0.937701 0.727931
O O9 0.692311 0.798031 0.592889
O O10 0.617503 0.730529 0.473748
O O11 0.900984 0.536673 0.290649
O O12 0.893280 0.695874 0.072677
O O13 0.476084 0.427301 0.336957
O O14 0.500000 0.500000 0.000000
O O15 0.360422 0.910208 0.014961
O O16 0.500000 0.000000 0.000000
O O17 0.702192 0.165516 0.136619
#
# Coordination Sequence:
#
# PCOD9073029 Si02
#       8
#     2   2   2   2   2   2   2   2
#     4  11  24  38  62  95 122 155 206 260 293 368
#     4  11  21  38  68  87 120 160 206 245 307 363
#     4   9  20  39  63  87 122 162 203 252 302 368
#     4  12  21  41  65  89 120 168 201 245 310 364
#     4  11  22  40  60  88 126 166 206 249 306 364
#     4  10  22  40  63  89 119 165 205 247 301 373
#     4  10  21  39  62  93 121 155 204 257 308 349
#     4  10  20  40  65  91 121 158 208 249 307 360
#
# _framework density 19.148195999999999
#
# number of rings (size 3 to 8) (size 9 to 14) (size 15 to 20)
#    0.000    1.500    3.750    1.875    0.000    1.500 
#    2.250    4.375    0.000    0.000    0.000    0.000 
#    0.000    0.000    0.000    0.000    0.000    0.000 
#
# Total GULP energy -89094.898101 kJ/mol
# GULP energy per Si atom -5568.431131 kJ/mol
# Density = 1.910461 g / cm^3
# Si number density = 19.148196 Si / 1000 Ang^3
#
#
#
# Elastic Constant Matrix: (Units=GPa)
#
#
# Indices 1 2 3 4 5 6 
#
# 1 77.3774 11.5929 40.0885 0.6270 16.1337 5.6699
# 2 11.5929 40.4518 27.9927 7.7679 0.7978 2.6172
# 3 40.0885 27.9927 107.9682 7.1791 -0.3703 10.4419
# 4 0.6270 7.7679 7.1791 35.7980 -0.7278 -11.0139
# 5 16.1337 0.7978 -0.3703 -0.7278 31.9854 2.9368
# 6 5.6699 2.6172 10.4419 -11.0139 2.9368 29.9239
#
#
#
# Elastic Compliance Matrix: (Units=1/GPa)
#
#
# Indices 1 2 3 4 5 6 
#
# 1 0.018485 -0.000604 -0.006834 0.001063 -0.009387 0.000247
# 2 -0.000604 0.031224 -0.007256 -0.006012 -0.000489 -0.002249
# 3 -0.006834 -0.007256 0.014277 -0.002423 0.004138 -0.004350
# 4 0.001063 -0.006012 -0.002423 0.033916 -0.000904 0.013742
# 5 -0.009387 -0.000489 0.004138 -0.000904 0.036362 -0.003524
# 6 0.000247 -0.002249 -0.004350 0.013742 -0.003524 0.040490
#
#
# Mechanical properties :
#
#
# Convention : Reuss Voigt Hill
#
# Bulk Modulus (GPa) = 28.90192 42.79395 35.84794
# Shear Modulus (GPa) = 23.18322 29.28303 26.23312
#
# Velocity S-wave (km/s) = 3.48332 3.91485 3.70537
# Velocity P-wave (km/s) = 5.59505 6.54462 6.08838
#
# Compressibility (1/GPa) = 0.03459978
#
# Stress axis : x y z
#
# Youngs Moduli (GPa) = 54.09783 32.02632 70.04469
#
# Poissons Ratio (x) = 0.01933 0.47867
# Poissons Ratio (y) = 0.03265 0.50823
# Poissons Ratio (z) = 0.36969 0.23237
#
# Static dielectric constant tensor:
#      x y z
#    x 1.669740 0.028100 0.016370 
#    y 0.028100 1.713620 -0.007690 
#    z 0.016370 -0.007690 1.719050 
# 
# From -- ./inp_files/305054.got.cif
#   From: 2010.05.17/outbox.ucp.g08.bks.cvg/sg2_153_cif.got.tgz:305054.got - 2010.06.11 11:32:03.
