data_PCOD9073561
_publ_section_title
;
Structure prediction by ZEFSAII (Michael W. Deem and Ramdas Pophale) SiO2 
 PCOD9073561
Probable space group: P -1
;
_chemical_formula_sum "Si O2"
_cell_formula_units_Z 15
_cell_length_a 13.407860
_cell_length_b 8.159647
_cell_length_c 7.228912
_cell_angle_alpha 53.165277
_cell_angle_beta 101.582353
_cell_angle_gamma 117.807149
_cell_volume 556.402458
_symmetry_space_group_name_H-M "P -1"
_symmetry_group_IT_number 2
_symmetry_cell_setting 'triclinic'
loop_
_space_group_symop_operation_xyz
x,y,z
-x,-y,-z
loop_
_atom_site_type_symbol
_atom_site_label
_atom_site_fract_x
_atom_site_fract_y
_atom_site_fract_z
Si Si1 0.250732 0.781652 0.315041
Si Si2 0.555071 0.536014 0.277513
Si Si3 0.499599 0.950320 0.249884
Si Si4 0.843235 0.655134 0.660042
Si Si5 0.347434 0.565816 0.981985
Si Si6 0.000000 0.000000 0.000000
Si Si7 0.213648 0.093147 0.802217
Si Si8 0.056149 0.725727 0.501773
O O1 0.229307 0.534128 0.396528
O O2 0.185137 0.769702 0.489127
O O3 0.382135 0.950367 0.274092
O O4 0.203949 0.868432 0.059605
O O5 0.441066 0.550488 0.166264
O O6 0.652877 0.751232 0.268253
O O7 0.518309 0.296848 0.527231
O O8 0.627023 0.533058 0.126452
O O9 0.609792 0.165177 0.216735
O O10 0.500000 0.000000 0.000000
O O11 0.775580 0.559378 0.888015
O O12 0.834774 0.883724 0.433182
O O13 0.970343 0.675282 0.676523
O O14 0.952141 0.068765 0.749140
O O15 0.130057 0.147001 0.868353
O O16 0.000000 0.500000 0.500000
#
# Coordination Sequence:
#
# PCOD9073561 Si02
#       8
#     2   2   2   2   2   1   2   2
#     4  10  18  31  55  84 105 133 176 233 273 311
#     4  11  24  38  53  78 114 155 177 220 275 335
#     4  12  22  36  58  84 107 140 188 234 273 317
#     4  10  19  34  56  81 105 139 183 232 265 316
#     4  11  24  38  53  79 114 150 186 217 273 328
#     4   8  16  28  50  80 102 132 170 226 264 308
#     4  10  18  33  56  81 107 136 183 225 272 316
#     4   8  16  29  49  79 105 130 167 223 278 311
#
# _framework density 26.958901999999998
#
# number of rings (size 3 to 8) (size 9 to 14) (size 15 to 20)
#    0.000    1.867    4.000    0.400    1.867    1.067 
#    0.000    0.000    0.000    8.000    0.000    0.000 
#    0.000    0.000    0.000    0.000    0.000    0.000 
#
# Total GULP energy -83544.291012 kJ/mol
# GULP energy per Si atom -5569.619401 kJ/mol
# Density = 2.689754 g / cm^3
# Si number density = 26.958902 Si / 1000 Ang^3
#
#
#
# Elastic Constant Matrix: (Units=GPa)
#
#
# Indices 1 2 3 4 5 6 
#
# 1 140.2834 32.4479 74.7088 -2.0886 -70.2034 13.5739
# 2 32.4479 43.0997 23.1776 -9.2889 -6.4559 9.1418
# 3 74.7088 23.1776 149.3929 -16.3573 -33.7615 9.4131
# 4 -2.0886 -9.2889 -16.3573 35.7524 -0.9778 -6.6658
# 5 -70.2034 -6.4559 -33.7615 -0.9778 69.6441 1.0540
# 6 13.5739 9.1418 9.4131 -6.6658 1.0540 25.2569
#
#
#
# Elastic Compliance Matrix: (Units=1/GPa)
#
#
# Indices 1 2 3 4 5 6 
#
# 1 0.023223 -0.010821 -0.005459 -0.005029 0.019821 -0.008684
# 2 -0.010821 0.032653 -0.000485 0.006719 -0.007966 -0.003717
# 3 -0.005459 -0.000485 0.009734 0.004098 -0.000780 0.000596
# 4 -0.005029 0.006719 0.004098 0.032627 -0.002115 0.007443
# 5 0.019821 -0.007966 -0.000780 -0.002115 0.033335 -0.009428
# 6 -0.008684 -0.003717 0.000596 0.007443 -0.009428 0.047741
#
#
# Mechanical properties :
#
#
# Convention : Reuss Voigt Hill
#
# Bulk Modulus (GPa) = 31.17177 65.93828 48.55503
# Shear Modulus (GPa) = 22.36780 39.62678 30.99729
#
# Velocity S-wave (km/s) = 2.88358 3.83808 3.39455
# Velocity P-wave (km/s) = 4.76177 6.64478 5.78047
#
# Compressibility (1/GPa) = 0.03208031
#
# Stress axis : x y z
#
# Youngs Moduli (GPa) = 43.06043 30.62537 102.73694
#
# Poissons Ratio (x) = 0.33140 0.56081
# Poissons Ratio (y) = 0.46596 0.04980
# Poissons Ratio (z) = 0.23506 0.01485
#
# Static dielectric constant tensor:
#      x y z
#    x 2.152060 -0.055200 0.027990 
#    y -0.055200 2.216490 0.006420 
#    z 0.027990 0.006420 2.066580 
# 
# From -- ./inp_files/284508.got.cif
#   From: 2010.05.17/outbox.cif.g08.bks.cpg/sg2_143_cif.got.tgz:284508.got - 2010.06.03 11:33:40.
