data_PCOD9073469
_publ_section_title
;
Structure prediction by ZEFSAII (Michael W. Deem and Ramdas Pophale) SiO2 
 PCOD9073469
Probable space group: P -1
;
_chemical_formula_sum "Si O2"
_cell_formula_units_Z 16
_cell_length_a 21.000000
_cell_length_b 9.000000
_cell_length_c 6.000000
_cell_angle_alpha 100.000000
_cell_angle_beta 60.000000
_cell_angle_gamma 130.000000
_cell_volume 733.417773
_symmetry_space_group_name_H-M "P -1"
_symmetry_group_IT_number 2
_symmetry_cell_setting 'triclinic'
loop_
_space_group_symop_operation_xyz
x,y,z
-x,-y,-z
loop_
_atom_site_type_symbol
_atom_site_label
_atom_site_fract_x
_atom_site_fract_y
_atom_site_fract_z
Si Si1 0.521743 0.855074 0.376147
Si Si2 0.136177 0.409163 0.160398
Si Si3 0.747549 0.729314 0.019111
Si Si4 0.092349 0.615867 0.025362
Si Si5 0.234277 0.996630 0.598474
Si Si6 0.313218 0.844020 0.124612
Si Si7 0.427249 0.685805 0.987810
Si Si8 0.914124 0.129063 0.560992
O O1 0.489640 0.746556 0.654039
O O2 0.500000 0.000000 0.500000
O O3 0.471879 0.737637 0.184157
O O4 0.635615 0.018250 0.151284
O O5 0.207652 0.622663 0.222389
O O6 0.026808 0.224955 0.389559
O O7 0.203282 0.355328 0.991084
O O8 0.113055 0.470009 0.995035
O O9 0.660253 0.553227 0.965523
O O10 0.718849 0.804901 0.288902
O O11 0.837256 0.928894 0.785796
O O12 0.183574 0.814841 0.807602
O O13 0.076880 0.693780 0.295699
O O14 0.000000 0.500000 0.000000
O O15 0.302386 0.978488 0.329843
O O16 0.143576 0.934715 0.588814
O O17 0.381402 0.795772 0.079348
#
# Coordination Sequence:
#
# PCOD9073469 Si02
#       8
#     2   2   2   2   2   2   2   2
#     4  10  21  42  71 104 135 166 224 296 347 397
#     4  11  21  41  65  94 129 174 230 274 331 403
#     4  10  26  42  63  96 132 184 223 272 337 411
#     4  11  21  37  62  92 124 174 227 279 331 386
#     4  11  23  41  61  92 138 175 220 276 337 400
#     4  10  21  39  68  99 123 174 224 281 339 404
#     4  10  23  44  71 101 135 174 228 286 344 406
#     4  11  22  42  60  88 142 173 220 274 331 405
#
# _framework density 21.815670000000001
#
# number of rings (size 3 to 8) (size 9 to 14) (size 15 to 20)
#    0.000    1.500    2.500    3.000    1.750    4.500 
#    4.500    1.250    0.000    0.000    0.000    0.000 
#    0.000    0.000    0.000    0.000    0.000    0.000 
#
# Total GULP energy -89101.918300 kJ/mol
# GULP energy per Si atom -5568.869894 kJ/mol
# Density = 2.176602 g / cm^3
# Si number density = 21.815670 Si / 1000 Ang^3
#
#
#
# Elastic Constant Matrix: (Units=GPa)
#
#
# Indices 1 2 3 4 5 6 
#
# 1 66.8173 30.3380 11.1654 7.6645 13.1800 12.7203
# 2 30.3380 139.6002 46.6011 14.2365 1.3257 12.8799
# 3 11.1654 46.6011 106.0333 15.4712 -6.4029 1.2437
# 4 7.6645 14.2365 15.4712 40.9052 -0.4483 1.9008
# 5 13.1800 1.3257 -6.4029 -0.4483 31.0760 6.3103
# 6 12.7203 12.8799 1.2437 1.9008 6.3103 42.0490
#
#
#
# Elastic Compliance Matrix: (Units=1/GPa)
#
#
# Indices 1 2 3 4 5 6 
#
# 1 0.018920 -0.003292 -0.000645 -0.002073 -0.007336 -0.003501
# 2 -0.003292 0.009338 -0.003522 -0.001211 0.000620 -0.001798
# 3 -0.000645 -0.003522 0.011645 -0.003060 0.002643 0.000671
# 4 -0.002073 -0.001211 -0.003060 0.026432 0.000725 -0.000215
# 5 -0.007336 0.000620 0.002643 0.000725 0.036543 -0.003566
# 6 -0.003501 -0.001798 0.000671 -0.000215 -0.003566 0.025917
#
#
# Mechanical properties :
#
#
# Convention : Reuss Voigt Hill
#
# Bulk Modulus (GPa) = 40.02455 54.29554 47.16004
# Shear Modulus (GPa) = 32.88566 37.76246 35.32406
#
# Velocity S-wave (km/s) = 3.88678 4.16502 4.02830
# Velocity P-wave (km/s) = 6.20719 6.93341 6.58033
#
# Compressibility (1/GPa) = 0.02498467
#
# Stress axis : x y z
#
# Youngs Moduli (GPa) = 52.85359 107.08830 85.87337
#
# Poissons Ratio (x) = 0.35258 0.05537
# Poissons Ratio (y) = 0.17401 0.30246
# Poissons Ratio (z) = 0.03408 0.37718
#
# Static dielectric constant tensor:
#      x y z
#    x 1.857930 0.013970 0.013550 
#    y 0.013970 1.809350 -0.020180 
#    z 0.013550 -0.020180 1.901250 
# 
# From -- ./inp_files/52450.got.cif
#   From: 2010.05.17/outbox.ucp.g08.bks.cvg/sg2_27_cif.got.tgz:52450.got - 2010.06.11 11:32:03.
