data_PCOD9073513
_publ_section_title
;
Structure prediction by ZEFSAII (Michael W. Deem and Ramdas Pophale) SiO2 
 PCOD9073513
Probable space group: P -1
;
_chemical_formula_sum "Si O2"
_cell_formula_units_Z 16
_cell_length_a 15.000000
_cell_length_b 12.000000
_cell_length_c 9.000000
_cell_angle_alpha 110.000000
_cell_angle_beta 150.000000
_cell_angle_gamma 70.000000
_cell_volume 757.522634
_symmetry_space_group_name_H-M "P -1"
_symmetry_group_IT_number 2
_symmetry_cell_setting 'triclinic'
loop_
_space_group_symop_operation_xyz
x,y,z
-x,-y,-z
loop_
_atom_site_type_symbol
_atom_site_label
_atom_site_fract_x
_atom_site_fract_y
_atom_site_fract_z
Si Si1 0.962991 0.436791 0.262752
Si Si2 0.396605 0.960744 0.108503
Si Si3 0.650507 0.589624 0.724151
Si Si4 0.117284 0.813535 0.092599
Si Si5 0.498557 0.189189 0.212769
Si Si6 0.580123 0.295396 0.086454
Si Si7 0.782789 0.949936 0.816903
Si Si8 0.304920 0.456511 0.568849
O O1 0.000000 0.500000 0.500000
O O2 0.142582 0.429743 0.424237
O O3 0.819009 0.533045 0.029350
O O4 0.891723 0.305968 0.074247
O O5 0.335711 0.832908 0.911973
O O6 0.592717 0.932393 0.455709
O O7 0.431584 0.059102 0.078741
O O8 0.263757 0.027721 0.067602
O O9 0.500000 0.500000 0.500000
O O10 0.588000 0.721669 0.747262
O O11 0.703752 0.585782 0.629369
O O12 0.288270 0.809143 0.448301
O O13 0.149609 0.925964 0.086587
O O14 0.935129 0.847819 0.938829
O O15 0.458116 0.250491 0.023149
O O16 0.475013 0.375692 0.845594
O O17 0.689075 0.399601 0.358995
#
# Coordination Sequence:
#
# PCOD9073513 Si02
#       8
#     2   2   2   2   2   2   2   2
#     4  12  26  41  68 103 135 173 219 279 330 391
#     4  10  22  38  69  91 129 167 228 268 333 385
#     4  12  24  45  68  96 135 179 223 265 335 403
#     4  10  21  40  65  89 140 166 220 264 338 386
#     4  11  23  42  66  95 130 179 216 272 329 398
#     4  11  23  42  66  98 135 169 222 271 337 384
#     4   9  21  39  62 100 117 176 218 273 320 404
#     4  11  26  41  70  97 134 177 218 274 330 402
#
# _framework density 21.121480999999999
#
# number of rings (size 3 to 8) (size 9 to 14) (size 15 to 20)
#    0.000    1.250    2.500    2.250   10.500    0.000 
#    0.000    1.875    0.000    0.000    0.000    0.000 
#    0.000    0.000    0.000    0.000    0.000    0.000 
#
# Total GULP energy -89306.061283 kJ/mol
# GULP energy per Si atom -5581.628830 kJ/mol
# Density = 2.107341 g / cm^3
# Si number density = 21.121481 Si / 1000 Ang^3
#
#
#
# Elastic Constant Matrix: (Units=GPa)
#
#
# Indices 1 2 3 4 5 6 
#
# 1 101.4506 20.3690 5.2279 -1.7419 -31.3178 -23.6151
# 2 20.3690 127.6605 5.6149 12.3138 -13.8567 -6.8796
# 3 5.2279 5.6149 -34.5350 -17.6680 -40.0328 -29.9378
# 4 -1.7419 12.3138 -17.6680 24.2336 -4.4618 2.0186
# 5 -31.3178 -13.8567 -40.0328 -4.4618 20.1735 -10.7769
# 6 -23.6151 -6.8796 -29.9378 2.0186 -10.7769 32.7675
#
#
#
# Elastic Compliance Matrix: (Units=1/GPa)
#
#
# Indices 1 2 3 4 5 6 
#
# 1 0.013436 -0.000464 -0.007898 -0.003741 0.006588 0.004768
# 2 -0.000464 0.008856 -0.001123 -0.004949 0.002996 0.001790
# 3 -0.007898 -0.001123 0.000753 -0.001811 -0.017805 -0.010983
# 4 -0.003741 -0.004949 -0.001811 0.041350 -0.009578 -0.011087
# 5 0.006588 0.002996 -0.017805 -0.009578 0.022931 -0.002759
# 6 0.004768 0.001790 -0.010983 -0.011087 -0.002759 0.024070
#
#
# Mechanical properties :
#
#
# Convention : Reuss Voigt Hill
#
# Bulk Modulus (GPa) = 245.26540 28.55553 136.91047
# Shear Modulus (GPa) = 37.95819 26.32587 32.14203
#
# Velocity S-wave (km/s) = 4.24386 3.53427 3.90522
# Velocity P-wave (km/s) = 11.84851 5.49580 9.23556
#
# Compressibility (1/GPa) = 0.00407722
#
# Stress axis : x y z
#
# Youngs Moduli (GPa) = 74.42485 112.92190 1327.64767
#
# Poissons Ratio (x) = 0.05236 10.48514
# Poissons Ratio (y) = 0.03451 1.49071
# Poissons Ratio (z) = 0.58777 0.12679
#
# Static dielectric constant tensor:
#      x y z
#    x 1.761000 -0.003310 -0.029010 
#    y -0.003310 1.752910 0.027870 
#    z -0.029010 0.027870 1.832530 
# 
# From -- ./inp_files/244994.got.cif
#   From: 2010.05.17/outbox.ucp.g08.bks.cvg/sg2_123_cif.got.tgz:244994.got - 2010.06.11 11:32:03.
