data_PCOD9073345
_publ_section_title
;
Structure prediction by ZEFSAII (Michael W. Deem and Ramdas Pophale) SiO2 
 PCOD9073345
Probable space group: P -1
;
_chemical_formula_sum "Si O2"
_cell_formula_units_Z 16
_cell_length_a 12.232625
_cell_length_b 9.478653
_cell_length_c 7.495949
_cell_angle_alpha 114.035379
_cell_angle_beta 90.951113
_cell_angle_gamma 85.067447
_cell_volume 790.684463
_symmetry_space_group_name_H-M "P -1"
_symmetry_group_IT_number 2
_symmetry_cell_setting 'triclinic'
loop_
_space_group_symop_operation_xyz
x,y,z
-x,-y,-z
loop_
_atom_site_type_symbol
_atom_site_label
_atom_site_fract_x
_atom_site_fract_y
_atom_site_fract_z
Si Si1 0.044232 0.425674 0.274589
Si Si2 0.317780 0.936366 0.409100
Si Si3 0.190154 0.543525 0.744132
Si Si4 0.597893 0.663425 0.789544
Si Si5 0.577364 0.504644 0.177428
Si Si6 0.446414 0.163128 0.758010
Si Si7 0.228137 0.624833 0.376906
Si Si8 0.781181 0.771365 0.614737
O O1 0.118626 0.553697 0.263287
O O2 0.127534 0.278252 0.256742
O O3 0.000000 0.500000 0.500000
O O4 0.930640 0.397546 0.161722
O O5 0.423718 0.886262 0.263080
O O6 0.259790 0.789062 0.398164
O O7 0.375586 0.028779 0.616219
O O8 0.229880 0.057466 0.373473
O O9 0.296634 0.559022 0.874927
O O10 0.213647 0.618406 0.589394
O O11 0.192925 0.359128 0.604118
O O12 0.477840 0.601743 0.733698
O O13 0.674376 0.504146 0.735158
O O14 0.662404 0.745798 0.681808
O O15 0.592704 0.773709 0.018323
O O16 0.570647 0.689228 0.300642
O O17 0.500000 0.500000 0.000000
#
# Coordination Sequence:
#
# PCOD9073345 Si02
#       8
#     2   2   2   2   2   2   2   2
#     4   7  15  33  54  80 103 140 184 228 260 318
#     4  11  20  32  50  85 115 144 175 223 277 315
#     4   9  17  34  55  81 106 144 183 226 266 317
#     4   9  19  35  52  77 108 146 183 215 264 325
#     4  10  18  31  54  80 104 139 181 222 256 322
#     4  10  21  32  48  76 124 142 169 222 276 329
#     4   9  18  32  57  81 109 137 187 225 261 326
#     4   9  18  32  55  78 107 144 179 223 268 322
#
# _framework density 20.235631000000001
#
# number of rings (size 3 to 8) (size 9 to 14) (size 15 to 20)
#    0.000    3.250    2.500    0.000    0.000    4.500 
#    0.000    6.875    0.000   12.000    0.000   35.000 
#    0.000    0.000    0.000    0.000    0.000    0.000 
#
# Total GULP energy -89086.899296 kJ/mol
# GULP energy per Si atom -5567.931206 kJ/mol
# Density = 2.018957 g / cm^3
# Si number density = 20.235631 Si / 1000 Ang^3
#
#
#
# Elastic Constant Matrix: (Units=GPa)
#
#
# Indices 1 2 3 4 5 6 
#
# 1 157.9831 55.0626 19.5142 4.4692 23.1965 -0.3676
# 2 55.0626 131.1028 26.3422 22.7205 1.5517 0.2573
# 3 19.5142 26.3422 55.4754 0.9748 4.2814 -0.5895
# 4 4.4692 22.7205 0.9748 17.2783 -4.6628 3.6193
# 5 23.1965 1.5517 4.2814 -4.6628 16.0709 -5.9462
# 6 -0.3676 0.2573 -0.5895 3.6193 -5.9462 20.4723
#
#
#
# Elastic Compliance Matrix: (Units=1/GPa)
#
#
# Indices 1 2 3 4 5 6 
#
# 1 0.010047 -0.003725 -0.000568 -0.001067 -0.015856 -0.004206
# 2 -0.003725 0.012819 -0.004615 -0.015743 0.001901 0.002974
# 3 -0.000568 -0.004615 0.020588 0.004380 -0.003359 -0.001109
# 4 -0.001067 -0.015743 0.004380 0.086795 0.024101 -0.008040
# 5 -0.015856 0.001901 -0.003359 0.024101 0.102056 0.024976
# 6 -0.004206 0.002974 -0.001109 -0.008040 0.024976 0.057377
#
#
# Mechanical properties :
#
#
# Convention : Reuss Voigt Hill
#
# Bulk Modulus (GPa) = 39.00420 60.71102 49.85761
# Shear Modulus (GPa) = 15.82061 27.00712 21.41387
#
# Velocity S-wave (km/s) = 2.79914 3.65723 3.25657
# Velocity P-wave (km/s) = 5.45562 6.92105 6.23156
#
# Compressibility (1/GPa) = 0.02563826
#
# Stress axis : x y z
#
# Youngs Moduli (GPa) = 99.53612 78.00691 48.57251
#
# Poissons Ratio (x) = 0.29055 0.02757
# Poissons Ratio (y) = 0.37074 0.22418
# Poissons Ratio (z) = 0.05650 0.36004
#
# Static dielectric constant tensor:
#      x y z
#    x 1.797010 0.002770 0.033890 
#    y 0.002770 1.766450 -0.054700 
#    z 0.033890 -0.054700 1.793140 
# 
# From -- ./inp_files/241014.got.cif
#   From: 2010.05.17/outbox.cif.g08.bks.cpg/sg2_121_cif.got.tgz:241014.got - 2010.06.03 11:33:40.
