data_PCOD9073773
_publ_section_title
;
Structure prediction by ZEFSAII (Michael W. Deem and Ramdas Pophale) SiO2 
 PCOD9073773
Probable space group: P -1
;
_chemical_formula_sum "Si O2"
_cell_formula_units_Z 15
_cell_length_a 11.348591
_cell_length_b 9.707518
_cell_length_c 13.220210
_cell_angle_alpha 76.772874
_cell_angle_beta 31.760733
_cell_angle_gamma 97.122822
_cell_volume 584.555318
_symmetry_space_group_name_H-M "P -1"
_symmetry_group_IT_number 2
_symmetry_cell_setting 'triclinic'
loop_
_space_group_symop_operation_xyz
x,y,z
-x,-y,-z
loop_
_atom_site_type_symbol
_atom_site_label
_atom_site_fract_x
_atom_site_fract_y
_atom_site_fract_z
Si Si1 0.730499 0.746861 0.062172
Si Si2 0.494261 0.913596 0.864005
Si Si3 0.039973 0.268007 0.469977
Si Si4 0.393324 0.588544 0.679011
Si Si5 0.000000 0.000000 0.000000
Si Si6 0.117731 0.719591 0.982941
Si Si7 0.955656 0.895019 0.313434
Si Si8 0.344603 0.643954 0.172536
O O1 0.734185 0.847239 0.142028
O O2 0.700007 0.573372 0.148888
O O3 0.480195 0.667842 0.177840
O O4 0.000361 0.922557 0.774901
O O5 0.320169 0.781805 0.920515
O O6 0.550835 0.809288 0.919488
O O7 0.266252 0.942915 0.065435
O O8 0.796906 0.109018 0.602928
O O9 0.896539 0.331780 0.637669
O O10 0.146289 0.194157 0.486537
O O11 0.243893 0.456000 0.231849
O O12 0.733700 0.749660 0.414078
O O13 0.208922 0.468454 0.736049
O O14 0.262123 0.683980 0.796074
O O15 0.113996 0.882156 0.930466
#
# Coordination Sequence:
#
# PCOD9073773 Si02
#       8
#     2   2   2   2   1   2   2   2
#     4  11  19  38  62  91 124 162 200 247 302 357
#     4  11  20  36  61  93 122 153 209 257 283 351
#     4  10  18  31  56  93 122 159 197 249 297 350
#     4  10  24  41  62  86 127 165 195 243 319 363
#     4  10  20  38  68  88 114 158 204 254 294 348
#     4  10  22  45  61  87 126 159 197 260 302 357
#     4  11  19  35  64  91 118 161 208 242 299 363
#     4  10  18  31  57  91 123 157 199 245 305 348
#
# _framework density 25.660533000000001
#
# number of rings (size 3 to 8) (size 9 to 14) (size 15 to 20)
#    0.000    1.600    5.333    0.800    0.000    0.533 
#    0.000   10.000    0.000    0.000    0.000    0.000 
#    0.000    0.000    0.000    0.000    0.000    0.000 
#
# Total GULP energy -83503.910304 kJ/mol
# GULP energy per Si atom -5566.927354 kJ/mol
# Density = 2.560213 g / cm^3
# Si number density = 25.660533 Si / 1000 Ang^3
#
#
#
# Elastic Constant Matrix: (Units=GPa)
#
#
# Indices 1 2 3 4 5 6 
#
# 1 66.2485 33.3940 26.2088 -15.3738 -35.5763 -4.1946
# 2 33.3940 131.2626 63.1996 -34.2747 -0.8702 -17.7773
# 3 26.2088 63.1996 118.1500 -37.0499 -33.1854 1.9182
# 4 -15.3738 -34.2747 -37.0499 45.3307 13.3324 -1.7189
# 5 -35.5763 -0.8702 -33.1854 13.3324 43.5636 -15.7523
# 6 -4.1946 -17.7773 1.9182 -1.7189 -15.7523 40.7844
#
#
#
# Elastic Compliance Matrix: (Units=1/GPa)
#
#
# Indices 1 2 3 4 5 6 
#
# 1 0.050988 -0.016615 0.013647 -0.000775 0.059249 0.020211
# 2 -0.016615 0.018254 -0.010874 0.006330 -0.024274 -0.002349
# 3 0.013647 -0.010874 0.020480 0.005387 0.027207 0.006436
# 4 -0.000775 0.006330 0.005387 0.032774 -0.005877 0.001537
# 5 0.059249 -0.024274 0.027207 -0.005877 0.106011 0.034931
# 6 0.020211 -0.002349 0.006436 0.001537 0.034931 0.038827
#
#
# Mechanical properties :
#
#
# Convention : Reuss Voigt Hill
#
# Bulk Modulus (GPa) = 16.11867 62.36286 39.24076
# Shear Modulus (GPa) = 15.83798 38.79300 27.31549
#
# Velocity S-wave (km/s) = 2.48707 3.89238 3.26620
# Velocity P-wave (km/s) = 3.81346 6.67507 5.43595
#
# Compressibility (1/GPa) = 0.06203986
#
# Stress axis : x y z
#
# Youngs Moduli (GPa) = 19.61239 54.78107 48.82911
#
# Poissons Ratio (x) = 0.91019 -0.66639
# Poissons Ratio (y) = 0.32586 0.53095
# Poissons Ratio (z) = -0.26766 0.59567
#
# Static dielectric constant tensor:
#      x y z
#    x 2.136560 0.048040 0.084660 
#    y 0.048040 2.035940 0.047560 
#    z 0.084660 0.047560 2.150120 
# 
# From -- ./inp_files/430963.got.cif
#   From: 2010.05.17/outbox.cif.g08.bks.cpg/sg2_216_cif.got.tgz:430963.got - 2010.06.03 11:33:40.
