data_PCOD9073004
_publ_section_title
;
Structure prediction by ZEFSAII (Michael W. Deem and Ramdas Pophale) SiO2 
 PCOD9073004
Probable space group: P -1
;
_chemical_formula_sum "Si O2"
_cell_formula_units_Z 14
_cell_length_a 23.045489
_cell_length_b 8.122620
_cell_length_c 11.947308
_cell_angle_alpha 68.481398
_cell_angle_beta 150.165068
_cell_angle_gamma 135.841757
_cell_volume 523.641541
_symmetry_space_group_name_H-M "P -1"
_symmetry_group_IT_number 2
_symmetry_cell_setting 'triclinic'
loop_
_space_group_symop_operation_xyz
x,y,z
-x,-y,-z
loop_
_atom_site_type_symbol
_atom_site_label
_atom_site_fract_x
_atom_site_fract_y
_atom_site_fract_z
Si Si1 0.597380 0.421407 0.275155
Si Si2 0.642774 0.854686 0.693304
Si Si3 0.713328 0.192852 0.533222
Si Si4 0.872254 0.218930 0.205541
Si Si5 0.824776 0.661561 0.216834
Si Si6 0.611451 0.825199 0.260360
Si Si7 0.255210 0.561541 0.064959
O O1 0.756060 0.457146 0.553707
O O2 0.705405 0.750325 0.414805
O O3 0.514970 0.298492 0.038014
O O4 0.352511 0.097223 0.012581
O O5 0.500000 0.500000 0.500000
O O6 0.430173 0.710163 0.410279
O O7 0.782707 0.140919 0.757915
O O8 0.808047 0.045101 0.024884
O O9 0.746039 0.156581 0.472396
O O10 0.437266 0.833203 0.197884
O O11 0.095158 0.431353 0.584776
O O12 0.879010 0.438021 0.137087
O O13 0.591210 0.449234 0.919046
O O14 0.890058 0.765793 0.168869
O O15 0.000000 0.000000 0.500000
#
# Coordination Sequence:
#
# PCOD9073004 Si02
#       7
#     2   2   2   2   2   2   2
#     4  10  19  31  53  77 105 137 174 213 259 309
#     4  10  18  31  52  78 106 137 176 216 257 307
#     4   8  18  32  50  75 105 131 178 213 255 299
#     4  11  19  32  52  81 104 134 170 221 261 308
#     4  11  19  32  51  75 110 132 170 219 267 299
#     4  10  19  34  50  79 104 141 170 215 257 318
#     4   8  19  31  47  76 103 134 171 213 259 307
#
# _framework density 26.735847
#
# number of rings (size 3 to 8) (size 9 to 14) (size 15 to 20)
#    0.857    1.429    1.429    3.000    0.000    0.000 
#    0.000    0.000    0.000    0.857    3.714    4.000 
#    0.000    0.000    0.000    0.000    0.000    0.000 
#
# Total GULP energy -78014.817949 kJ/mol
# GULP energy per Si atom -5572.486996 kJ/mol
# Density = 2.667500 g / cm^3
# Si number density = 26.735847 Si / 1000 Ang^3
#
#
#
# Elastic Constant Matrix: (Units=GPa)
#
#
# Indices 1 2 3 4 5 6 
#
# 1 111.8006 40.4045 19.9567 11.7213 20.5842 -13.2208
# 2 40.4045 94.4527 4.7714 -15.6062 9.4292 -24.6274
# 3 19.9567 4.7714 88.3426 -26.4747 -5.1827 3.5846
# 4 11.7213 -15.6062 -26.4747 30.8434 -8.9690 5.3113
# 5 20.5842 9.4292 -5.1827 -8.9690 45.2180 -3.5366
# 6 -13.2208 -24.6274 3.5846 5.3113 -3.5366 42.2621
#
#
#
# Elastic Compliance Matrix: (Units=1/GPa)
#
#
# Indices 1 2 3 4 5 6 
#
# 1 0.023243 -0.011949 -0.015979 -0.034134 -0.016332 0.004586
# 2 -0.011949 0.019584 0.008922 0.023468 0.007392 0.004586
# 3 -0.015979 0.008922 0.027594 0.039939 0.016043 -0.005817
# 4 -0.034134 0.023468 0.039939 0.103513 0.034935 -0.010476
# 5 -0.016332 0.007392 0.016043 0.034935 0.036503 -0.003498
# 6 0.004586 0.004586 -0.005817 -0.010476 -0.003498 0.029286
#
#
# Mechanical properties :
#
#
# Convention : Reuss Voigt Hill
#
# Bulk Modulus (GPa) = 30.85592 47.20681 39.03136
# Shear Modulus (GPa) = 17.32876 38.96224 28.14550
#
# Velocity S-wave (km/s) = 2.54864 3.82161 3.24809
# Velocity P-wave (km/s) = 4.49742 6.09655 5.35699
#
# Compressibility (1/GPa) = 0.03240869
#
# Stress axis : x y z
#
# Youngs Moduli (GPa) = 43.02327 51.06290 36.24037
#
# Poissons Ratio (x) = 0.61016 0.57908
# Poissons Ratio (y) = 0.51410 -0.32335
# Poissons Ratio (z) = 0.68746 -0.45560
#
# Static dielectric constant tensor:
#      x y z
#    x 2.437540 -0.459020 -0.524710 
#    y -0.459020 2.733370 0.505380 
#    z -0.524710 0.505380 2.500470 
# 
# From -- ./inp_files/473878.got.cif
#   From: 2010.05.17/outbox.cif.g08.bks.cpg/sg2_237_cif.got.tgz:473878.got - 2010.06.03 11:33:40.
