data_PCOD9073330
_publ_section_title
;
Structure prediction by ZEFSAII (Michael W. Deem and Ramdas Pophale) SiO2 
 PCOD9073330
Probable space group: P -1
;
_chemical_formula_sum "Si O2"
_cell_formula_units_Z 16
_cell_length_a 9.000000
_cell_length_b 9.000000
_cell_length_c 30.000000
_cell_angle_alpha 140.000000
_cell_angle_beta 150.000000
_cell_angle_gamma 40.000000
_cell_volume 740.097418
_symmetry_space_group_name_H-M "P -1"
_symmetry_group_IT_number 2
_symmetry_cell_setting 'triclinic'
loop_
_space_group_symop_operation_xyz
x,y,z
-x,-y,-z
loop_
_atom_site_type_symbol
_atom_site_label
_atom_site_fract_x
_atom_site_fract_y
_atom_site_fract_z
Si Si1 0.063673 0.168411 0.517888
Si Si2 0.222231 0.260255 0.824538
Si Si3 0.190861 0.641096 0.034331
Si Si4 0.263264 0.377452 0.503443
Si Si5 0.488067 0.834609 0.865854
Si Si6 0.967503 0.854086 0.116748
Si Si7 0.604492 0.355791 0.737830
Si Si8 0.900297 0.074953 0.625474
O O1 0.380356 0.233716 0.625815
O O2 0.797132 0.431259 0.507493
O O3 0.047373 0.036356 0.436169
O O4 0.000000 0.000000 0.500000
O O5 0.483212 0.386079 0.911436
O O6 0.873137 0.395777 0.784268
O O7 0.169768 0.132659 0.735725
O O8 0.367238 0.064232 0.855298
O O9 0.148305 0.810399 0.106565
O O10 0.178126 0.368152 0.974936
O O11 0.862411 0.764406 0.951840
O O12 0.603568 0.315905 0.598603
O O13 0.000000 0.500000 0.500000
O O14 0.208098 0.123011 0.419985
O O15 0.418631 0.611312 0.771603
O O16 0.309353 0.907040 0.883550
O O17 0.216058 0.804669 0.210558
#
# Coordination Sequence:
#
# PCOD9073330 Si02
#       8
#     2   2   2   2   2   2   2   2
#     4  11  24  40  65  91 129 169 214 268 325 380
#     4  11  22  36  63  93 124 161 212 259 310 375
#     4  10  21  38  63  91 126 161 208 257 311 380
#     4   9  18  37  61  83 116 162 208 253 311 368
#     4  10  21  39  62  92 122 164 207 256 317 376
#     4   9  21  40  62  87 126 166 202 255 317 374
#     4  10  22  39  61  90 125 162 207 261 317 376
#     4  10  21  38  62  91 125 168 213 261 314 377
#
# _framework density 21.618776
#
# number of rings (size 3 to 8) (size 9 to 14) (size 15 to 20)
#    0.000    2.000    0.000    3.750    1.750    8.000 
#    0.000    0.000    0.000    0.000    0.000    0.000 
#    0.000    0.000    0.000    0.000    0.000    0.000 
#
# Total GULP energy -89212.496334 kJ/mol
# GULP energy per Si atom -5575.781021 kJ/mol
# Density = 2.156957 g / cm^3
# Si number density = 21.618776 Si / 1000 Ang^3
#
#
#
# Elastic Constant Matrix: (Units=GPa)
#
#
# Indices 1 2 3 4 5 6 
#
# 1 84.0678 37.8183 29.9095 8.1247 -9.2610 -10.7357
# 2 37.8183 79.7009 8.3733 -2.9663 1.4357 4.5649
# 3 29.9095 8.3733 57.1943 -0.5191 -20.5373 -7.1357
# 4 8.1247 -2.9663 -0.5191 19.8837 -3.3308 -10.8461
# 5 -9.2610 1.4357 -20.5373 -3.3308 36.3620 2.2472
# 6 -10.7357 4.5649 -7.1357 -10.8461 2.2472 33.7435
#
#
#
# Elastic Compliance Matrix: (Units=1/GPa)
#
#
# Indices 1 2 3 4 5 6 
#
# 1 0.020488 -0.009230 -0.009265 -0.008370 -0.000612 0.003158
# 2 -0.009230 0.017178 0.001299 0.004154 -0.001696 -0.003537
# 3 -0.009265 0.001299 0.027838 0.009745 0.013897 0.004970
# 4 -0.008370 0.004154 0.009745 0.066711 0.008099 0.019739
# 5 -0.000612 -0.001696 0.013897 0.008099 0.035806 0.003192
# 6 0.003158 -0.003537 0.004970 0.019739 0.003192 0.038302
#
#
# Mechanical properties :
#
#
# Convention : Reuss Voigt Hill
#
# Bulk Modulus (GPa) = 32.14066 41.46278 36.80172
# Shear Modulus (GPa) = 19.91364 27.65530 23.78447
#
# Velocity S-wave (km/s) = 3.03830 3.58051 3.32049
# Velocity P-wave (km/s) = 5.21609 6.02612 5.63568
#
# Compressibility (1/GPa) = 0.03111324
#
# Stress axis : x y z
#
# Youngs Moduli (GPa) = 48.80857 58.21497 35.92234
#
# Poissons Ratio (x) = 0.53731 0.33281
# Poissons Ratio (y) = 0.45049 -0.04667
# Poissons Ratio (z) = 0.45220 -0.07563
#
# Static dielectric constant tensor:
#      x y z
#    x 1.860670 -0.007090 -0.011540 
#    y -0.007090 1.864010 -0.017990 
#    z -0.011540 -0.017990 1.771170 
# 
# From -- ./inp_files/122934.got.cif
#   From: 2010.05.17/outbox.ucp.g08.bks.cvg/sg2_62_cif.got.tgz:122934.got - 2010.06.11 11:32:03.
