data_PCOD9073937
_publ_section_title
;
Structure prediction by ZEFSAII (Michael W. Deem and Ramdas Pophale) SiO2 
 PCOD9073937
Probable space group: P -1
;
_chemical_formula_sum "Si O2"
_cell_formula_units_Z 16
_cell_length_a 15.000000
_cell_length_b 15.000000
_cell_length_c 12.000000
_cell_angle_alpha 60.000000
_cell_angle_beta 40.000000
_cell_angle_gamma 30.000000
_cell_volume 747.221570
_symmetry_space_group_name_H-M "P -1"
_symmetry_group_IT_number 2
_symmetry_cell_setting 'triclinic'
loop_
_space_group_symop_operation_xyz
x,y,z
-x,-y,-z
loop_
_atom_site_type_symbol
_atom_site_label
_atom_site_fract_x
_atom_site_fract_y
_atom_site_fract_z
Si Si1 0.870595 0.682135 0.951111
Si Si2 0.036784 0.994305 0.272221
Si Si3 0.330940 0.877924 0.633210
Si Si4 0.912181 0.291183 0.122912
Si Si5 0.355985 0.013479 0.712850
Si Si6 0.115837 0.609844 0.563282
Si Si7 0.296230 0.711572 0.388084
Si Si8 0.345631 0.069472 0.349618
O O1 0.068478 0.643568 0.835315
O O2 0.917269 0.659435 0.789998
O O3 0.000000 0.500000 0.000000
O O4 0.557834 0.910995 0.143796
O O5 0.921132 0.007417 0.268469
O O6 0.072151 0.085910 0.135223
O O7 0.804514 0.155855 0.492968
O O8 0.280934 0.784697 0.241372
O O9 0.285964 0.954824 0.750698
O O10 0.579753 0.635765 0.561196
O O11 0.403324 0.931396 0.455822
O O12 0.598018 0.474587 0.276497
O O13 0.070368 0.237946 0.899676
O O14 0.561703 0.888177 0.699574
O O15 0.500000 0.000000 0.500000
O O16 0.107159 0.732651 0.539226
O O17 0.974068 0.713361 0.514293
#
# Coordination Sequence:
#
# PCOD9073937 Si02
#       8
#     2   2   2   2   2   2   2   2
#     4  11  22  37  60  92 128 162 199 248 307 376
#     4  11  22  38  64  94 128 159 196 250 310 374
#     4  11  21  39  64  84 119 165 206 252 309 349
#     4  11  22  42  63  89 125 162 203 251 309 358
#     4   9  23  45  63  83 122 167 210 261 297 352
#     4  12  21  37  64  91 123 162 199 250 314 364
#     4  11  23  38  63  97 128 155 195 254 309 375
#     4  10  22  40  59  88 124 162 207 252 300 365
#
# _framework density 21.412658
#
# number of rings (size 3 to 8) (size 9 to 14) (size 15 to 20)
#    0.000    1.250    5.000    1.500    0.000    1.000 
#    4.500    3.125    0.000    0.000    0.000    0.000 
#    0.000    0.000    0.000    0.000    0.000    0.000 
#
# Total GULP energy -89079.226613 kJ/mol
# GULP energy per Si atom -5567.451663 kJ/mol
# Density = 2.136392 g / cm^3
# Si number density = 21.412658 Si / 1000 Ang^3
#
#
#
# Elastic Constant Matrix: (Units=GPa)
#
#
# Indices 1 2 3 4 5 6 
#
# 1 81.4217 17.4667 -2.4045 0.7486 -15.4003 19.3645
# 2 17.4667 102.0161 0.5146 -13.9444 -6.2798 -12.7623
# 3 -2.4045 0.5146 23.8341 -8.9875 -0.4095 -11.8391
# 4 0.7486 -13.9444 -8.9875 10.9206 6.9432 -12.5969
# 5 -15.4003 -6.2798 -0.4095 6.9432 20.9487 4.3994
# 6 19.3645 -12.7623 -11.8391 -12.5969 4.3994 9.0530
#
#
#
# Elastic Compliance Matrix: (Units=1/GPa)
#
#
# Indices 1 2 3 4 5 6 
#
# 1 0.011321 0.000818 0.009360 0.013369 0.002990 0.006328
# 2 0.000818 0.008532 -0.005248 -0.005114 0.006156 -0.006691
# 3 0.009360 -0.005248 0.028247 -0.015141 0.014815 -0.018748
# 4 0.013369 -0.005114 -0.015141 0.013018 0.012872 -0.043747
# 5 0.002990 0.006156 0.014815 0.012872 0.043982 0.018194
# 6 0.006328 -0.006691 -0.018748 -0.043747 0.018194 -0.006738
#
#
# Mechanical properties :
#
#
# Convention : Reuss Voigt Hill
#
# Bulk Modulus (GPa) = 17.25366 26.49172 21.87269
# Shear Modulus (GPa) = 46.37277 20.96412 33.66844
#
# Velocity S-wave (km/s) = 4.65873 3.13238 3.96960
# Velocity P-wave (km/s) = 6.08387 5.04789 5.58993
#
# Compressibility (1/GPa) = 0.05795873
#
# Stress axis : x y z
#
# Youngs Moduli (GPa) = 88.33486 117.20929 35.40214
#
# Poissons Ratio (x) = -0.09583 -0.33137
# Poissons Ratio (y) = -0.07222 0.18579
# Poissons Ratio (z) = -0.82683 0.61512
#
# Static dielectric constant tensor:
#      x y z
#    x 1.773630 -0.095950 -0.028380 
#    y -0.095950 1.692460 -0.067890 
#    z -0.028380 -0.067890 1.833720 
# 
# From -- ./inp_files/426156.got.cif
#   From: 2010.05.17/outbox.ucp.g08.bks.cvg/sg2_214_cif.got.tgz:426156.got - 2010.06.11 11:32:03.
