data_PCOD9073665
_publ_section_title
;
Structure prediction by ZEFSAII (Michael W. Deem and Ramdas Pophale) SiO2 
 PCOD9073665
Probable space group: P -1
;
_chemical_formula_sum "Si O2"
_cell_formula_units_Z 14
_cell_length_a 12.000000
_cell_length_b 12.000000
_cell_length_c 6.000000
_cell_angle_alpha 60.000000
_cell_angle_beta 110.000000
_cell_angle_gamma 80.000000
_cell_volume 636.948721
_symmetry_space_group_name_H-M "P -1"
_symmetry_group_IT_number 2
_symmetry_cell_setting 'triclinic'
loop_
_space_group_symop_operation_xyz
x,y,z
-x,-y,-z
loop_
_atom_site_type_symbol
_atom_site_label
_atom_site_fract_x
_atom_site_fract_y
_atom_site_fract_z
Si Si1 0.868109 0.858734 0.693193
Si Si2 0.802758 0.636359 0.114113
Si Si3 0.987637 0.633220 0.611639
Si Si4 0.446722 0.378548 0.136524
Si Si5 0.124943 0.760147 0.231245
Si Si6 0.287810 0.830901 0.614381
Si Si7 0.651835 0.434034 0.744720
O O1 0.918421 0.755689 0.619247
O O2 0.767172 0.022188 0.437035
O O3 0.798856 0.785314 0.879330
O O4 0.004675 0.848995 0.899762
O O5 0.881400 0.603316 0.431175
O O6 0.896228 0.521750 0.108920
O O7 0.665906 0.631690 0.078146
O O8 0.062497 0.692992 0.433506
O O9 0.571670 0.229747 0.352006
O O10 0.363078 0.430967 0.253704
O O11 0.500000 0.500000 0.000000
O O12 0.187011 0.845376 0.332672
O O13 0.242918 0.634444 0.308046
O O14 0.306077 0.702265 0.924319
O O15 0.500000 0.500000 0.500000
#
# Coordination Sequence:
#
# PCOD9073665 Si02
#       7
#     2   2   2   2   2   2   2
#     4  11  24  42  62  96 131 175 212 255 329 386
#     4  10  22  40  65  90 126 170 215 266 319 379
#     4  10  22  41  65  93 129 167 218 269 311 376
#     4  10  21  42  65  92 125 161 212 270 317 373
#     4  11  22  40  69  96 127 167 217 268 322 370
#     4  11  24  40  63  95 137 166 211 270 317 383
#     4  11  23  40  66  98 124 165 216 267 323 373
#
# _framework density 21.979790999999999
#
# number of rings (size 3 to 8) (size 9 to 14) (size 15 to 20)
#    0.000    1.429    1.429    4.286    2.000    7.429 
#    0.000    0.714    0.000    0.000    0.000    0.000 
#    0.000    0.000    0.000    0.000    0.000    0.000 
#
# Total GULP energy -78029.970255 kJ/mol
# GULP energy per Si atom -5573.569304 kJ/mol
# Density = 2.192976 g / cm^3
# Si number density = 21.979791 Si / 1000 Ang^3
#
#
#
# Elastic Constant Matrix: (Units=GPa)
#
#
# Indices 1 2 3 4 5 6 
#
# 1 116.7019 50.9331 30.1137 5.0428 36.1382 -0.3691
# 2 50.9331 134.9302 44.5549 -10.2144 24.5671 -32.4283
# 3 30.1137 44.5549 49.8794 -2.6147 23.4011 -10.8731
# 4 5.0428 -10.2144 -2.6147 29.8743 -3.5600 15.6626
# 5 36.1382 24.5671 23.4011 -3.5600 37.2759 11.5479
# 6 -0.3691 -32.4283 -10.8731 15.6626 11.5479 28.2991
#
#
#
# Elastic Compliance Matrix: (Units=1/GPa)
#
#
# Indices 1 2 3 4 5 6 
#
# 1 0.029547 0.026852 0.049172 -0.087326 -0.132820 0.152581
# 2 0.026852 0.070544 0.086806 -0.155968 -0.233685 0.296223
# 3 0.049172 0.086806 0.191232 -0.261781 -0.399043 0.481312
# 4 -0.087326 -0.155968 -0.261781 0.470839 0.646045 -0.804671
# 5 -0.132820 -0.233685 -0.399043 0.646045 0.988554 -1.183798
# 6 0.152581 0.296223 0.481312 -0.804671 -1.183798 1.490133
#
#
# Mechanical properties :
#
#
# Convention : Reuss Voigt Hill
#
# Bulk Modulus (GPa) = 1.62079 61.41277 31.51678
# Shear Modulus (GPa) = 1.60213 30.81718 16.20965
#
# Velocity S-wave (km/s) = 0.85469 3.74848 2.71860
# Velocity P-wave (km/s) = 1.30881 6.83638 4.92184
#
# Compressibility (1/GPa) = 0.61698324
#
# Stress axis : x y z
#
# Youngs Moduli (GPa) = 33.84478 14.17549 5.22925
#
# Poissons Ratio (x) = -0.38065 -0.25713
# Poissons Ratio (y) = -0.90882 -0.45393
# Poissons Ratio (z) = -1.66421 -1.23051
#
# Static dielectric constant tensor:
#      x y z
#    x 1.840810 0.047410 -0.009250 
#    y 0.047410 1.908240 0.100370 
#    z -0.009250 0.100370 1.918010 
# 
# From -- ./inp_files/68744.got.cif
#   From: 2010.05.17/outbox.ucp.g08.bks.cvg/sg2_35_cif.got.tgz:68744.got - 2010.06.11 11:32:03.
