data_PCOD9073056
_publ_section_title
;
Structure prediction by ZEFSAII (Michael W. Deem and Ramdas Pophale) SiO2 
 PCOD9073056
Probable space group: P -1
;
_chemical_formula_sum "Si O2"
_cell_formula_units_Z 14
_cell_length_a 13.945427
_cell_length_b 11.053897
_cell_length_c 14.395425
_cell_angle_alpha 150.705379
_cell_angle_beta 132.745128
_cell_angle_gamma 65.674690
_cell_volume 690.101161
_symmetry_space_group_name_H-M "P -1"
_symmetry_group_IT_number 2
_symmetry_cell_setting 'triclinic'
loop_
_space_group_symop_operation_xyz
x,y,z
-x,-y,-z
loop_
_atom_site_type_symbol
_atom_site_label
_atom_site_fract_x
_atom_site_fract_y
_atom_site_fract_z
Si Si1 0.515687 0.264741 0.444211
Si Si2 0.118946 0.870645 0.598020
Si Si3 0.803253 0.619643 0.151943
Si Si4 0.490524 0.163791 0.693802
Si Si5 0.837818 0.166653 0.737634
Si Si6 0.415280 0.146860 0.092449
Si Si7 0.854149 0.492128 0.779945
O O1 0.426723 0.141283 0.207782
O O2 0.494947 0.511838 0.644128
O O3 0.691592 0.453526 0.657907
O O4 0.497920 0.014690 0.332076
O O5 0.172895 0.132308 0.736314
O O6 0.135382 0.626987 0.391868
O O7 0.241854 0.990202 0.839716
O O8 0.938412 0.741980 0.398051
O O9 0.637557 0.471302 0.987589
O O10 0.821216 0.392385 0.945899
O O11 0.500000 0.000000 0.500000
O O12 0.322798 0.119423 0.552901
O O13 0.856640 0.284946 0.724273
O O14 0.997506 0.205304 0.899323
O O15 0.500000 0.000000 0.000000
#
# Coordination Sequence:
#
# PCOD9073056 Si02
#       7
#     2   2   2   2   2   2   2
#     4  10  21  35  56  82 107 146 188 223 275 323
#     4  10  18  31  52  82 108 141 185 229 273 317
#     4   9  18  31  53  79 112 143 177 230 279 321
#     4   9  16  32  54  80 112 147 177 225 280 327
#     4   8  15  26  47  73 103 142 170 212 271 322
#     4  11  21  36  57  82 108 144 187 232 264 322
#     4   9  15  28  47  75 107 135 178 222 261 321
#
# _framework density 20.286881000000001
#
# number of rings (size 3 to 8) (size 9 to 14) (size 15 to 20)
#    0.000    2.571    1.429    2.571    0.000    1.143 
#    0.000    3.571    3.143    0.857    7.429    0.000 
#    0.000    0.000    0.000    0.000    0.000    0.000 
#
# Total GULP energy -78033.808451 kJ/mol
# GULP energy per Si atom -5573.843461 kJ/mol
# Density = 2.024071 g / cm^3
# Si number density = 20.286881 Si / 1000 Ang^3
#
#
#
# Elastic Constant Matrix: (Units=GPa)
#
#
# Indices 1 2 3 4 5 6 
#
# 1 54.2083 10.6696 58.3208 -13.6306 23.4184 -5.3787
# 2 10.6696 54.8529 39.0404 -33.5077 13.3556 -4.3594
# 3 58.3208 39.0404 143.3925 -39.4658 20.0945 -0.5998
# 4 -13.6306 -33.5077 -39.4658 42.9480 -1.1695 -1.4881
# 5 23.4184 13.3556 20.0945 -1.1695 54.6985 0.1366
# 6 -5.3787 -4.3594 -0.5998 -1.4881 0.1366 20.3783
#
#
#
# Elastic Compliance Matrix: (Units=1/GPa)
#
#
# Indices 1 2 3 4 5 6 
#
# 1 0.045494 0.015135 -0.017379 0.010365 -0.016606 0.015602
# 2 0.015135 0.046266 -0.007169 0.034484 -0.014446 0.016296
# 3 -0.017379 -0.007169 0.016654 0.004096 0.003174 -0.005352
# 4 0.010365 0.034484 0.004096 0.057386 -0.013172 0.014512
# 5 -0.016606 -0.014446 0.003174 -0.013172 0.027493 -0.008526
# 6 0.015602 0.016296 -0.005352 0.014512 -0.008526 0.057635
#
#
# Mechanical properties :
#
#
# Convention : Reuss Voigt Hill
#
# Bulk Modulus (GPa) = 11.16201 52.05726 31.60964
# Shear Modulus (GPa) = 16.68794 33.23316 24.96055
#
# Velocity S-wave (km/s) = 2.87121 4.05181 3.51148
# Velocity P-wave (km/s) = 4.06273 6.89970 5.66178
#
# Compressibility (1/GPa) = 0.08958956
#
# Stress axis : x y z
#
# Youngs Moduli (GPa) = 21.98087 21.61398 60.04449
#
# Poissons Ratio (x) = -0.32713 1.04351
# Poissons Ratio (y) = -0.33268 0.43044
# Poissons Ratio (z) = 0.38200 0.15494
#
# Static dielectric constant tensor:
#      x y z
#    x 1.795540 -0.064640 -0.028060 
#    y -0.064640 1.722660 0.010290 
#    z -0.028060 0.010290 1.808430 
# 
# From -- ./inp_files/346820.got.cif
#   From: 2010.05.17/outbox.cif.g08.bks.cpg/sg2_174_cif.got.tgz:346820.got - 2010.06.03 11:33:40.
