data_PCOD9073630
_publ_section_title
;
Structure prediction by ZEFSAII (Michael W. Deem and Ramdas Pophale) SiO2 
 PCOD9073630
Probable space group: P -1
;
_chemical_formula_sum "Si O2"
_cell_formula_units_Z 14
_cell_length_a 7.921380
_cell_length_b 8.138777
_cell_length_c 15.567248
_cell_angle_alpha 41.933456
_cell_angle_beta 113.434918
_cell_angle_gamma 92.115424
_cell_volume 557.793510
_symmetry_space_group_name_H-M "P -1"
_symmetry_group_IT_number 2
_symmetry_cell_setting 'triclinic'
loop_
_space_group_symop_operation_xyz
x,y,z
-x,-y,-z
loop_
_atom_site_type_symbol
_atom_site_label
_atom_site_fract_x
_atom_site_fract_y
_atom_site_fract_z
Si Si1 0.932492 0.536388 0.602099
Si Si2 0.271594 0.198162 0.394246
Si Si3 0.721957 0.874745 0.266653
Si Si4 0.236384 0.734728 0.675508
Si Si5 0.099559 0.532663 0.885536
Si Si6 0.641994 0.032623 0.938057
Si Si7 0.314230 0.645364 0.037114
O O1 0.791066 0.553192 0.647775
O O2 0.788083 0.763606 0.418449
O O3 0.057071 0.260426 0.683484
O O4 0.127533 0.580355 0.659293
O O5 0.141664 0.327431 0.233534
O O6 0.500000 0.000000 0.500000
O O7 0.194881 0.002721 0.508936
O O8 0.536822 0.796465 0.231667
O O9 0.632026 0.181501 0.093904
O O10 0.160905 0.726339 0.759984
O O11 0.477472 0.582149 0.796103
O O12 0.207974 0.238437 0.975726
O O13 0.176950 0.543493 0.992043
O O14 0.764138 0.164797 0.967748
O O15 0.500000 0.000000 0.000000
#
# Coordination Sequence:
#
# PCOD9073630 Si02
#       7
#     2   2   2   2   2   2   2
#     4  10  20  35  60  88 117 155 192 244 298 343
#     4  11  24  39  54  81 124 162 197 238 288 357
#     4  10  18  32  58  93 122 142 189 255 302 337
#     4  11  19  34  57  87 113 149 198 244 290 346
#     4  11  21  36  62  88 114 156 193 242 300 343
#     4  10  18  31  55  91 125 138 182 251 303 334
#     4  11  19  32  58  92 121 142 186 250 304 342
#
# _framework density 25.098894000000001
#
# number of rings (size 3 to 8) (size 9 to 14) (size 15 to 20)
#    0.000    1.429    4.286    6.429    2.000    0.000 
#    0.000    0.714    0.000   17.143    0.000    0.000 
#    0.000    0.000    0.000    0.000    0.000    0.000 
#
# Total GULP energy -78007.126700 kJ/mol
# GULP energy per Si atom -5571.937621 kJ/mol
# Density = 2.504177 g / cm^3
# Si number density = 25.098894 Si / 1000 Ang^3
#
#
#
# Elastic Constant Matrix: (Units=GPa)
#
#
# Indices 1 2 3 4 5 6 
#
# 1 79.8994 37.8994 30.0307 6.3766 25.1811 -12.9985
# 2 37.8994 135.3982 79.8500 37.6533 36.3072 -0.4508
# 3 30.0307 79.8500 200.7295 41.2738 39.6700 -2.3509
# 4 6.3766 37.6533 41.2738 56.8990 1.2321 10.8427
# 5 25.1811 36.3072 39.6700 1.2321 55.0992 -5.2332
# 6 -12.9985 -0.4508 -2.3509 10.8427 -5.2332 17.9847
#
#
#
# Elastic Compliance Matrix: (Units=1/GPa)
#
#
# Indices 1 2 3 4 5 6 
#
# 1 0.017719 -0.003007 0.000185 -0.002459 -0.004980 0.012789
# 2 -0.003007 0.012740 -0.002276 -0.006361 -0.005224 0.000163
# 3 0.000185 -0.002276 0.007513 -0.004390 -0.003645 0.002645
# 4 -0.002459 -0.006361 -0.004390 0.028527 0.006136 -0.017924
# 5 -0.004980 -0.005224 -0.003645 0.006136 0.026332 -0.000244
# 6 0.012789 0.000163 0.002645 -0.017924 -0.000244 0.075931
#
#
# Mechanical properties :
#
#
# Convention : Reuss Voigt Hill
#
# Bulk Modulus (GPa) = 36.00165 79.06527 57.53346
# Shear Modulus (GPa) = 26.56528 43.87970 35.22249
#
# Velocity S-wave (km/s) = 3.25687 4.18577 3.75019
# Velocity P-wave (km/s) = 5.34023 7.41153 6.45944
#
# Compressibility (1/GPa) = 0.02777650
#
# Stress axis : x y z
#
# Youngs Moduli (GPa) = 56.43729 78.49452 133.09482
#
# Poissons Ratio (x) = 0.23603 -0.02460
# Poissons Ratio (y) = 0.16970 0.30288
# Poissons Ratio (z) = -0.01043 0.17863
#
# Static dielectric constant tensor:
#      x y z
#    x 2.117250 0.088420 0.005900 
#    y 0.088420 2.265790 -0.056480 
#    z 0.005900 -0.056480 1.974130 
# 
# From -- ./inp_files/492083.got.cif
#   From: 2010.05.17/outbox.cif.g08.bks.cpg/sg2_247_cif.got.tgz:492083.got - 2010.06.03 11:33:40.
