data_PCOD9073268
_publ_section_title
;
Structure prediction by ZEFSAII (Michael W. Deem and Ramdas Pophale) SiO2 
 PCOD9073268
Probable space group: P -1
;
_chemical_formula_sum "Si O2"
_cell_formula_units_Z 16
_cell_length_a 15.000000
_cell_length_b 15.000000
_cell_length_c 12.000000
_cell_angle_alpha 130.000000
_cell_angle_beta 110.000000
_cell_angle_gamma 30.000000
_cell_volume 856.505752
_symmetry_space_group_name_H-M "P -1"
_symmetry_group_IT_number 2
_symmetry_cell_setting 'triclinic'
loop_
_space_group_symop_operation_xyz
x,y,z
-x,-y,-z
loop_
_atom_site_type_symbol
_atom_site_label
_atom_site_fract_x
_atom_site_fract_y
_atom_site_fract_z
Si Si1 0.656613 0.607885 0.957801
Si Si2 0.184759 0.336516 0.032977
Si Si3 0.780083 0.363145 0.596547
Si Si4 0.845248 0.162711 0.955359
Si Si5 0.846654 0.866873 0.417186
Si Si6 0.593602 0.139977 0.291520
Si Si7 0.905640 0.989743 0.257680
Si Si8 0.412087 0.776562 0.196746
O O1 0.634014 0.553721 0.794715
O O2 0.896035 0.308291 0.858646
O O3 0.672153 0.721880 0.011794
O O4 0.500209 0.752923 0.109839
O O5 0.334024 0.060935 0.895440
O O6 0.000000 0.500000 0.000000
O O7 0.035944 0.560625 0.243706
O O8 0.655741 0.555287 0.591135
O O9 0.010320 0.173067 0.555606
O O10 0.821454 0.181434 0.458682
O O11 0.623139 0.484373 0.111441
O O12 0.750050 0.142011 0.859501
O O13 0.001807 0.040212 0.829233
O O14 0.000000 0.000000 0.000000
O O15 0.690066 0.033286 0.374221
O O16 0.710468 0.018020 0.593721
O O17 0.713581 0.112531 0.257715
#
# Coordination Sequence:
#
# PCOD9073268 Si02
#       8
#     2   2   2   2   2   2   2   2
#     4  10  21  37  63  85 120 158 193 244 297 351
#     4   9  18  41  62  83 118 156 201 251 286 343
#     4  11  22  36  60  90 118 150 197 248 292 354
#     4  10  23  37  58  83 130 161 189 237 297 365
#     4  10  21  39  61  84 118 155 195 249 283 356
#     4  11  23  36  63  89 115 155 201 246 301 334
#     4  11  20  37  58  92 118 150 197 241 297 356
#     4  10  22  39  58  88 119 161 194 236 303 351
#
# _framework density 18.680551999999999
#
# number of rings (size 3 to 8) (size 9 to 14) (size 15 to 20)
#    0.000    1.750    5.000    0.750    3.500    2.000 
#    0.000    2.500    0.000    1.500    0.000    0.000 
#    0.000    0.000    0.000    0.000    0.000    0.000 
#
# Total GULP energy -89130.910198 kJ/mol
# GULP energy per Si atom -5570.681887 kJ/mol
# Density = 1.863803 g / cm^3
# Si number density = 18.680552 Si / 1000 Ang^3
#
#
#
# Elastic Constant Matrix: (Units=GPa)
#
#
# Indices 1 2 3 4 5 6 
#
# 1 71.2578 -1.7329 59.6052 -15.2988 -6.5724 -10.7672
# 2 -1.7329 80.2572 12.2302 -12.3577 -6.0193 -13.5364
# 3 59.6052 12.2302 110.3144 -6.8100 -7.6860 -0.2503
# 4 -15.2988 -12.3577 -6.8100 16.3747 7.8469 2.5942
# 5 -6.5724 -6.0193 -7.6860 7.8469 32.8306 -2.3820
# 6 -10.7672 -13.5364 -0.2503 2.5942 -2.3820 8.9923
#
#
#
# Elastic Compliance Matrix: (Units=1/GPa)
#
#
# Indices 1 2 3 4 5 6 
#
# 1 0.159954 0.085465 -0.086314 0.123560 0.018783 0.287107
# 2 0.085465 0.064224 -0.047417 0.073767 0.013206 0.179911
# 3 -0.086314 -0.047417 0.056031 -0.063936 -0.008972 -0.157101
# 4 0.123560 0.073767 -0.063936 0.174656 -0.003514 0.205895
# 5 0.018783 0.013206 -0.008972 -0.003514 0.039264 0.053534
# 6 0.287107 0.179911 -0.157101 0.205895 0.053534 0.676218
#
#
# Mechanical properties :
#
#
# Convention : Reuss Voigt Hill
#
# Bulk Modulus (GPa) = 5.44432 44.67050 25.05741
# Shear Modulus (GPa) = 3.76476 24.42131 14.09304
#
# Velocity S-wave (km/s) = 1.42117 3.61960 2.74966
# Velocity P-wave (km/s) = 2.36933 6.43688 4.85011
#
# Compressibility (1/GPa) = 0.18367770
#
# Stress axis : x y z
#
# Youngs Moduli (GPa) = 6.25180 15.57044 17.84734
#
# Poissons Ratio (x) = -1.33073 1.54048
# Poissons Ratio (y) = -0.53431 0.84627
# Poissons Ratio (z) = 0.53962 0.73830
#
# Static dielectric constant tensor:
#      x y z
#    x 1.649890 0.001350 0.018380 
#    y 0.001350 1.691960 -0.023630 
#    z 0.018380 -0.023630 1.670770 
# 
# From -- ./inp_files/274221.got.cif
#   From: 2010.05.17/outbox.ucp.g08.bks.cvg/sg2_138_cif.got.tgz:274221.got - 2010.06.11 11:32:03.
