data_PCOD9073309
_publ_section_title
;
Structure prediction by ZEFSAII (Michael W. Deem and Ramdas Pophale) SiO2 
 PCOD9073309
Probable space group: P -1
;
_chemical_formula_sum "Si O2"
_cell_formula_units_Z 16
_cell_length_a 18.000000
_cell_length_b 12.000000
_cell_length_c 21.000000
_cell_angle_alpha 20.000000
_cell_angle_beta 150.000000
_cell_angle_gamma 140.000000
_cell_volume 744.844803
_symmetry_space_group_name_H-M "P -1"
_symmetry_group_IT_number 2
_symmetry_cell_setting 'triclinic'
loop_
_space_group_symop_operation_xyz
x,y,z
-x,-y,-z
loop_
_atom_site_type_symbol
_atom_site_label
_atom_site_fract_x
_atom_site_fract_y
_atom_site_fract_z
Si Si1 0.347671 0.212333 0.235336
Si Si2 0.252313 0.710348 0.691315
Si Si3 0.099589 0.136772 0.185650
Si Si4 0.512723 0.325886 0.671273
Si Si5 0.217007 0.756461 0.284728
Si Si6 0.001983 0.318233 0.734044
Si Si7 0.789967 0.595603 0.746943
Si Si8 0.513966 0.417012 0.957359
O O1 0.200070 0.299367 0.125423
O O2 0.500000 0.000000 0.500000
O O3 0.291824 0.995041 0.255892
O O4 0.405555 0.507905 0.086930
O O5 0.101964 0.573836 0.652229
O O6 0.370243 0.523111 0.933894
O O7 0.232240 0.101019 0.483068
O O8 0.348925 0.663483 0.722497
O O9 0.148517 0.244062 0.232825
O O10 0.100222 0.774579 0.349411
O O11 0.916931 0.294472 0.970965
O O12 0.500000 0.500000 0.500000
O O13 0.355837 0.472625 0.512417
O O14 0.647744 0.453706 0.735488
O O15 0.529893 0.933228 0.887050
O O16 0.113929 0.583183 0.345245
O O17 0.120173 0.984208 0.033666
#
# Coordination Sequence:
#
# PCOD9073309 Si02
#       8
#     2   2   2   2   2   2   2   2
#     4  11  22  42  65  89 124 164 199 251 306 363
#     4  11  21  38  60  91 123 157 205 253 300 357
#     4  10  23  41  61  88 123 164 202 242 312 358
#     4  12  22  38  62  90 122 161 203 253 303 355
#     4  10  21  38  60  87 121 160 203 246 305 360
#     4  10  21  38  60  88 121 158 202 253 296 364
#     4  11  23  40  62  90 125 163 199 255 300 363
#     4  11  23  36  61  95 121 156 210 249 300 365
#
# _framework density 21.480985
#
# number of rings (size 3 to 8) (size 9 to 14) (size 15 to 20)
#    0.000    1.250    2.500    4.500    0.000    1.500 
#    0.000    8.750    0.000    0.000    0.000    0.000 
#    0.000    0.000    0.000    0.000    0.000    0.000 
#
# Total GULP energy -89081.436801 kJ/mol
# GULP energy per Si atom -5567.589800 kJ/mol
# Density = 2.143209 g / cm^3
# Si number density = 21.480985 Si / 1000 Ang^3
#
#
#
# Elastic Constant Matrix: (Units=GPa)
#
#
# Indices 1 2 3 4 5 6 
#
# 1 39.1475 42.3157 10.1947 -0.2672 -6.8591 4.8180
# 2 42.3157 98.9313 11.5715 17.1759 12.1599 33.6935
# 3 10.1947 11.5715 -15.4944 -7.5416 -4.1838 -22.6812
# 4 -0.2672 17.1759 -7.5416 18.7655 -1.1176 -15.5585
# 5 -6.8591 12.1599 -4.1838 -1.1176 5.6934 -19.0837
# 6 4.8180 33.6935 -22.6812 -15.5585 -19.0837 29.3004
#
#
#
# Elastic Compliance Matrix: (Units=1/GPa)
#
#
# Indices 1 2 3 4 5 6 
#
# 1 -0.007384 0.011688 0.047691 -0.008779 -0.056289 -0.016633
# 2 0.011688 -0.001207 -0.019825 0.003877 0.036749 0.010113
# 3 0.047691 -0.019825 -0.063564 -0.002463 0.056271 0.001094
# 4 -0.008779 0.003877 -0.002463 0.040596 -0.036398 -0.007070
# 5 -0.056289 0.036749 0.056271 -0.036398 -0.028857 -0.027567
# 6 -0.016633 0.010113 0.001094 -0.007070 -0.027567 0.004372
#
#
# Mechanical properties :
#
#
# Convention : Reuss Voigt Hill
#
# Bulk Modulus (GPa) = 143.84150 27.86092 85.85121
# Shear Modulus (GPa) = -37.64133 14.65201 -11.49466
#
# Velocity S-wave (km/s) = -4.19060 2.61452 -2.31575
# Velocity P-wave (km/s) = 6.61005 4.70239 5.73608
#
# Compressibility (1/GPa) = 0.00695210
#
# Stress axis : x y z
#
# Youngs Moduli (GPa) = -135.42044 -828.64400 -15.73227
#
# Poissons Ratio (x) = 9.68522 0.75028
# Poissons Ratio (y) = 1.58280 -0.31190
# Poissons Ratio (z) = 6.45830 -16.42812
#
# Static dielectric constant tensor:
#      x y z
#    x 1.860100 0.075740 -0.011010 
#    y 0.075740 1.877840 0.025230 
#    z -0.011010 0.025230 1.880570 
# 
# From -- ./inp_files/348854.got.cif
#   From: 2010.05.17/outbox.ucp.g08.bks.cvg/sg2_175_cif.got.tgz:348854.got - 2010.06.11 11:32:03.
