data_PCOD9073078
_publ_section_title
;
Structure prediction by ZEFSAII (Michael W. Deem and Ramdas Pophale) SiO2 
 PCOD9073078
Probable space group: P -1
;
_chemical_formula_sum "Si O2"
_cell_formula_units_Z 14
_cell_length_a 12.328548
_cell_length_b 5.686535
_cell_length_c 13.829700
_cell_angle_alpha 46.684750
_cell_angle_beta 130.962900
_cell_angle_gamma 109.272697
_cell_volume 519.912762
_symmetry_space_group_name_H-M "P -1"
_symmetry_group_IT_number 2
_symmetry_cell_setting 'triclinic'
loop_
_space_group_symop_operation_xyz
x,y,z
-x,-y,-z
loop_
_atom_site_type_symbol
_atom_site_label
_atom_site_fract_x
_atom_site_fract_y
_atom_site_fract_z
Si Si1 0.558760 0.623659 0.599265
Si Si2 0.860413 0.688265 0.136659
Si Si3 0.119556 0.463753 0.491805
Si Si4 0.202472 0.066019 0.408570
Si Si5 0.908412 0.352642 0.069097
Si Si6 0.560027 0.846665 0.193109
Si Si7 0.375612 0.622787 0.805151
O O1 0.500000 0.500000 0.500000
O O2 0.727358 0.643364 0.671567
O O3 0.522358 0.376304 0.726252
O O4 0.500000 0.000000 0.500000
O O5 0.833805 0.644153 0.018111
O O6 0.752050 0.503187 0.180139
O O7 0.020191 0.499481 0.328099
O O8 0.840926 0.066956 0.058666
O O9 0.259560 0.187431 0.687710
O O10 0.000000 0.500000 0.500000
O O11 0.220408 0.732160 0.450002
O O12 0.027647 0.152363 0.271065
O O13 0.287604 0.910201 0.597878
O O14 0.000000 0.500000 0.000000
O O15 0.540452 0.682584 0.125056
O O16 0.518048 0.196408 0.124481
#
# Coordination Sequence:
#
# PCOD9073078 Si02
#       7
#     2   2   2   2   2   2   2
#     4  12  21  35  50  79 119 159 182 216 279 352
#     4  11  22  36  59  83 118 145 181 243 288 341
#     4  10  18  31  52  84 120 143 172 220 294 345
#     4  10  21  35  56  83 118 150 184 233 278 338
#     4  11  25  41  57  81 113 158 200 228 273 333
#     4  11  20  32  47  77 121 147 176 216 266 363
#     4  11  20  33  54  87 113 141 176 226 304 335
#
# _framework density 26.927595
#
# number of rings (size 3 to 8) (size 9 to 14) (size 15 to 20)
#    0.000    1.143    7.143    2.143    2.000    1.143 
#    0.000    0.000    0.000    0.000    0.000    6.000 
#    0.000    0.000    0.000    0.000    0.000    0.000 
#
# Total GULP energy -78003.305680 kJ/mol
# GULP energy per Si atom -5571.664691 kJ/mol
# Density = 2.686631 g / cm^3
# Si number density = 26.927595 Si / 1000 Ang^3
#
#
#
# Elastic Constant Matrix: (Units=GPa)
#
#
# Indices 1 2 3 4 5 6 
#
# 1 89.0962 78.6941 11.4119 5.4920 -32.2537 9.4779
# 2 78.6941 289.3163 55.0818 -8.5129 -42.6670 -5.1128
# 3 11.4119 55.0818 55.5414 13.0480 0.9315 -1.1165
# 4 5.4920 -8.5129 13.0480 43.1904 5.7697 -18.7991
# 5 -32.2537 -42.6670 0.9315 5.7697 56.5258 6.1459
# 6 9.4779 -5.1128 -1.1165 -18.7991 6.1459 59.0074
#
#
#
# Elastic Compliance Matrix: (Units=1/GPa)
#
#
# Indices 1 2 3 4 5 6 
#
# 1 0.019918 -0.004910 0.002514 -0.008685 0.009300 -0.007313
# 2 -0.004910 0.006406 -0.006439 0.004782 0.001369 0.002603
# 3 0.002514 -0.006439 0.026387 -0.010844 -0.002354 -0.003672
# 4 -0.008685 0.004782 -0.010844 0.035163 -0.006219 0.013455
# 5 0.009300 0.001369 -0.002354 -0.006219 0.025361 -0.006043
# 6 -0.007313 0.002603 -0.003672 0.013455 -0.006043 0.023193
#
#
# Mechanical properties :
#
#
# Convention : Reuss Voigt Hill
#
# Bulk Modulus (GPa) = 28.53697 80.48105 54.50901
# Shear Modulus (GPa) = 30.16072 50.99579 40.57825
#
# Velocity S-wave (km/s) = 3.35037 4.35652 3.88614
# Velocity P-wave (km/s) = 5.05839 7.43360 6.35790
#
# Compressibility (1/GPa) = 0.03504226
#
# Stress axis : x y z
#
# Youngs Moduli (GPa) = 50.20562 156.09648 37.89812
#
# Poissons Ratio (x) = 0.76638 -0.09527
# Poissons Ratio (y) = 0.24649 0.24401
# Poissons Ratio (z) = -0.12621 1.00504
#
# Static dielectric constant tensor:
#      x y z
#    x 2.143130 -0.160760 0.110430 
#    y -0.160760 2.315500 -0.152740 
#    z 0.110430 -0.152740 2.363430 
# 
# From -- ./inp_files/96603.got.cif
#   From: 2010.05.17/outbox.cif.g08.bks.cpg/sg2_49_cif.got.tgz:96603.got - 2010.06.03 11:33:40.
