data_PCOD9073112
_publ_section_title
;
Structure prediction by ZEFSAII (Michael W. Deem and Ramdas Pophale) SiO2 
 PCOD9073112
Probable space group: P -1
;
_chemical_formula_sum "Si O2"
_cell_formula_units_Z 16
_cell_length_a 12.652178
_cell_length_b 8.144495
_cell_length_c 14.870244
_cell_angle_alpha 92.985266
_cell_angle_beta 38.100183
_cell_angle_gamma 120.826491
_cell_volume 607.986437
_symmetry_space_group_name_H-M "P -1"
_symmetry_group_IT_number 2
_symmetry_cell_setting 'triclinic'
loop_
_space_group_symop_operation_xyz
x,y,z
-x,-y,-z
loop_
_atom_site_type_symbol
_atom_site_label
_atom_site_fract_x
_atom_site_fract_y
_atom_site_fract_z
Si Si1 0.562102 0.871700 0.410710
Si Si2 0.303664 0.725473 0.211534
Si Si3 0.066868 0.824786 0.252739
Si Si4 0.823879 0.717388 0.031473
Si Si5 0.717152 0.842553 0.482514
Si Si6 0.734532 0.589877 0.899556
Si Si7 0.979856 0.210004 0.920009
Si Si8 0.431122 0.921224 0.325818
O O1 0.500000 0.000000 0.500000
O O2 0.567388 0.744621 0.484156
O O3 0.397503 0.767935 0.426448
O O4 0.869163 0.105814 0.182030
O O5 0.165134 0.785874 0.267924
O O6 0.175905 0.495740 0.224285
O O7 0.295960 0.743112 0.323919
O O8 0.618349 0.920754 0.985850
O O9 0.952985 0.699175 0.225406
O O10 0.811042 0.741466 0.460756
O O11 0.668422 0.518070 0.047448
O O12 0.835566 0.923716 0.019112
O O13 0.779936 0.628084 0.161928
O O14 0.023356 0.106549 0.252361
O O15 0.646837 0.949887 0.592096
O O16 0.500000 0.500000 0.000000
O O17 0.748374 0.166443 0.099996
#
# Coordination Sequence:
#
# PCOD9073112 Si02
#       8
#     2   2   2   2   2   2   2   2
#     4   8  14  26  46  74  95 113 157 208 240 268
#     4  10  21  32  48  70 102 133 161 194 242 290
#     4  10  18  34  50  70  96 132 165 198 236 295
#     4   9  16  26  50  73  96 122 161 201 247 278
#     4  10  18  31  53  74  95 126 163 202 250 283
#     4  11  18  32  48  74  98 130 158 200 243 290
#     4   9  15  30  50  77  94 120 163 211 235 276
#     4   9  18  30  46  76 101 122 160 208 241 282
#
# _framework density 26.316376000000002
#
# number of rings (size 3 to 8) (size 9 to 14) (size 15 to 20)
#    0.000    2.500    3.750    0.750    0.000    1.000 
#    0.000    0.625    0.000    0.000    0.000   29.750 
#    0.000    0.000    0.000    0.000    0.000    0.000 
#
# Total GULP energy -89068.809440 kJ/mol
# GULP energy per Si atom -5566.800590 kJ/mol
# Density = 2.625648 g / cm^3
# Si number density = 26.316376 Si / 1000 Ang^3
#
#
#
# Elastic Constant Matrix: (Units=GPa)
#
#
# Indices 1 2 3 4 5 6 
#
# 1 228.1284 61.7916 50.1475 26.9940 5.9468 35.1458
# 2 61.7916 61.2862 19.8241 22.1026 1.7335 34.5973
# 3 50.1475 19.8241 88.7143 39.2245 -26.0080 -6.4647
# 4 26.9940 22.1026 39.2245 48.1490 1.7236 -7.1257
# 5 5.9468 1.7335 -26.0080 1.7236 66.9426 11.8923
# 6 35.1458 34.5973 -6.4647 -7.1257 11.8923 44.6617
#
#
#
# Elastic Compliance Matrix: (Units=1/GPa)
#
#
# Indices 1 2 3 4 5 6 
#
# 1 0.006771 -0.006279 -0.004178 0.002550 -0.002110 -0.000100
# 2 -0.006279 0.065575 0.006165 -0.040106 0.011979 -0.054553
# 3 -0.004178 0.006165 0.024851 -0.021777 0.011200 -0.004348
# 4 0.002550 -0.040106 -0.021777 0.062021 -0.016381 0.040167
# 5 -0.002110 0.011979 0.011200 -0.016381 0.022167 -0.014514
# 6 -0.000100 -0.054553 -0.004348 0.040167 -0.014514 0.074373
#
#
# Mechanical properties :
#
#
# Convention : Reuss Voigt Hill
#
# Bulk Modulus (GPa) = 11.28492 71.29502 41.28997
# Shear Modulus (GPa) = 17.01374 48.37505 32.69439
#
# Velocity S-wave (km/s) = 2.54541 4.29209 3.52854
# Velocity P-wave (km/s) = 3.59671 7.19118 5.68548
#
# Compressibility (1/GPa) = 0.08861384
#
# Stress axis : x y z
#
# Youngs Moduli (GPa) = 147.67945 15.24974 40.23924
#
# Poissons Ratio (x) = 0.09576 0.16812
# Poissons Ratio (y) = 0.92731 -0.24809
# Poissons Ratio (z) = 0.61702 -0.09402
#
# Static dielectric constant tensor:
#      x y z
#    x 2.484800 0.125620 0.297820 
#    y 0.125620 2.527480 0.272560 
#    z 0.297820 0.272560 2.644560 
# 
# From -- ./inp_files/276157.got.cif
#   From: 2010.05.17/outbox.cif.g08.bks.cpg/sg2_139_cif.got.tgz:276157.got - 2010.06.03 11:33:40.
