data_PCOD9073499
_publ_section_title
;
Structure prediction by ZEFSAII (Michael W. Deem and Ramdas Pophale) SiO2 
 PCOD9073499
Probable space group: P -1
;
_chemical_formula_sum "Si O2"
_cell_formula_units_Z 14
_cell_length_a 15.500488
_cell_length_b 9.782433
_cell_length_c 8.197448
_cell_angle_alpha 59.398162
_cell_angle_beta 52.823300
_cell_angle_gamma 36.304266
_cell_volume 585.740989
_symmetry_space_group_name_H-M "P -1"
_symmetry_group_IT_number 2
_symmetry_cell_setting 'triclinic'
loop_
_space_group_symop_operation_xyz
x,y,z
-x,-y,-z
loop_
_atom_site_type_symbol
_atom_site_label
_atom_site_fract_x
_atom_site_fract_y
_atom_site_fract_z
Si Si1 0.890698 0.823413 0.020454
Si Si2 0.842421 0.115310 0.416543
Si Si3 0.693724 0.238440 0.189294
Si Si4 0.839611 0.735911 0.625420
Si Si5 0.785673 0.628996 0.102550
Si Si6 0.786349 0.222229 0.769451
Si Si7 0.535698 0.088329 0.546676
O O1 0.834897 0.704138 0.140898
O O2 0.779862 0.037009 0.893451
O O3 0.072038 0.646003 0.878659
O O4 0.850019 0.961710 0.145466
O O5 0.833875 0.931270 0.545138
O O6 0.774310 0.271029 0.563869
O O7 0.734390 0.277980 0.287092
O O8 0.031827 0.934274 0.299123
O O9 0.683072 0.363597 0.965328
O O10 0.565429 0.235615 0.354975
O O11 0.813726 0.675534 0.864470
O O12 0.000000 0.500000 0.500000
O O13 0.691663 0.864730 0.597987
O O14 0.611485 0.758676 0.255943
O O15 0.500000 0.000000 0.500000
#
# Coordination Sequence:
#
# PCOD9073499 Si02
#       7
#     2   2   2   2   2   2   2
#     4   9  19  32  56  77 112 142 180 233 268 323
#     4  10  18  31  55  81 106 141 187 228 274 320
#     4   9  18  34  49  79 106 140 181 227 267 324
#     4  11  23  36  55  85 114 141 186 231 274 334
#     4  11  19  35  52  82 114 144 181 225 281 328
#     4   9  18  33  53  82 105 142 186 232 267 322
#     4  11  21  33  54  80 112 150 178 222 285 329
#
# _framework density 23.901349
#
# number of rings (size 3 to 8) (size 9 to 14) (size 15 to 20)
#    0.857    1.143    2.857    2.571    2.000    0.000 
#    0.000    0.000    0.000    3.429    3.714    4.000 
#    0.000    0.000    0.000    0.000    0.000    0.000 
#
# Total GULP energy -78005.433792 kJ/mol
# GULP energy per Si atom -5571.816699 kJ/mol
# Density = 2.384695 g / cm^3
# Si number density = 23.901349 Si / 1000 Ang^3
#
#
#
# Elastic Constant Matrix: (Units=GPa)
#
#
# Indices 1 2 3 4 5 6 
#
# 1 115.3534 6.1260 47.1982 -0.7793 9.8703 -16.7100
# 2 6.1260 53.9539 21.9557 19.8704 -2.7297 -13.7828
# 3 47.1982 21.9557 186.5815 4.6830 15.0751 -21.5769
# 4 -0.7793 19.8704 4.6830 29.1633 -14.8957 -4.3245
# 5 9.8703 -2.7297 15.0751 -14.8957 36.1690 -1.5665
# 6 -16.7100 -13.7828 -21.5769 -4.3245 -1.5665 19.5204
#
#
#
# Elastic Compliance Matrix: (Units=1/GPa)
#
#
# Indices 1 2 3 4 5 6 
#
# 1 0.010635 0.001562 -0.001797 -0.000205 -0.001772 0.008033
# 2 0.001562 0.030453 -0.001089 -0.020926 -0.005575 0.016552
# 3 -0.001797 -0.001089 0.006721 -0.001025 -0.002612 0.004685
# 4 -0.000205 -0.020926 -0.001025 0.060824 0.023924 -0.000689
# 5 -0.001772 -0.005575 -0.002612 0.023924 0.038655 0.000061
# 6 0.008033 0.016552 0.004685 -0.000689 0.000061 0.074823
#
#
# Mechanical properties :
#
#
# Convention : Reuss Voigt Hill
#
# Bulk Modulus (GPa) = 22.14290 56.27205 39.20748
# Shear Modulus (GPa) = 20.84965 35.67778 28.26371
#
# Velocity S-wave (km/s) = 2.95671 3.86775 3.44250
# Velocity P-wave (km/s) = 4.57609 6.59853 5.67808
#
# Compressibility (1/GPa) = 0.04516120
#
# Stress axis : x y z
#
# Youngs Moduli (GPa) = 94.02803 32.83748 148.79092
#
# Poissons Ratio (x) = -0.05128 0.26734
# Poissons Ratio (y) = -0.14683 0.16199
# Poissons Ratio (z) = 0.16895 0.03575
#
# Static dielectric constant tensor:
#      x y z
#    x 1.920090 0.002910 0.024120 
#    y 0.002910 1.923230 -0.051960 
#    z 0.024120 -0.051960 2.047740 
# 
# From -- ./inp_files/169984.got.cif
#   From: 2010.05.17/outbox.cif.g08.bks.cpg/sg2_85_cif.got.tgz:169984.got - 2010.06.03 11:33:40.
