data_PCOD9073373
_publ_section_title
;
Structure prediction by ZEFSAII (Michael W. Deem and Ramdas Pophale) SiO2 
 PCOD9073373
Probable space group: P -1
;
_chemical_formula_sum "Si O2"
_cell_formula_units_Z 14
_cell_length_a 24.000000
_cell_length_b 12.000000
_cell_length_c 9.000000
_cell_angle_alpha 120.000000
_cell_angle_beta 50.000000
_cell_angle_gamma 160.000000
_cell_volume 623.291880
_symmetry_space_group_name_H-M "P -1"
_symmetry_group_IT_number 2
_symmetry_cell_setting 'triclinic'
loop_
_space_group_symop_operation_xyz
x,y,z
-x,-y,-z
loop_
_atom_site_type_symbol
_atom_site_label
_atom_site_fract_x
_atom_site_fract_y
_atom_site_fract_z
Si Si1 0.034650 0.848223 0.912992
Si Si2 0.017676 0.678055 0.132866
Si Si3 0.119002 0.134396 0.684879
Si Si4 0.460829 0.806743 0.342540
Si Si5 0.228011 0.583137 0.383323
Si Si6 0.807027 0.272946 0.709362
Si Si7 0.642371 0.852509 0.950638
O O1 0.884671 0.503663 0.854210
O O2 0.174649 0.130039 0.723859
O O3 0.097396 0.881633 0.982536
O O4 0.933993 0.814845 0.118479
O O5 0.846458 0.482030 0.373312
O O6 0.000000 0.500000 0.000000
O O7 0.152383 0.879119 0.182254
O O8 0.282666 0.437250 0.483616
O O9 0.935980 0.768575 0.663272
O O10 0.399702 0.765339 0.259293
O O11 0.613328 0.937931 0.150138
O O12 0.500000 0.000000 0.500000
O O13 0.271612 0.776221 0.329777
O O14 0.000000 0.500000 0.500000
O O15 0.644495 0.909060 0.817718
O O16 0.500000 0.500000 0.000000
#
# Coordination Sequence:
#
# PCOD9073373 Si02
#       7
#     2   2   2   2   2   2   2
#     4  10  21  38  70  96 122 164 236 270 305 380
#     4  12  21  42  68  95 125 181 227 257 324 410
#     4  10  22  41  67  98 125 168 229 275 312 394
#     4  12  25  43  65  97 143 170 214 279 350 384
#     4  11  23  41  75  92 123 182 234 262 317 409
#     4  11  22  44  69  96 131 177 229 266 325 406
#     4  12  27  41  64 103 141 167 210 288 343 377
#
# _framework density 22.461386999999998
#
# number of rings (size 3 to 8) (size 9 to 14) (size 15 to 20)
#    0.000    0.857    4.286    3.000    4.000    0.571 
#    2.571    0.714    0.000    0.000    0.000    0.000 
#    0.000    0.000    0.000    0.000    0.000    0.000 
#
# Total GULP energy -77982.626881 kJ/mol
# GULP energy per Si atom -5570.187634 kJ/mol
# Density = 2.241026 g / cm^3
# Si number density = 22.461387 Si / 1000 Ang^3
#
#
#
# Elastic Constant Matrix: (Units=GPa)
#
#
# Indices 1 2 3 4 5 6 
#
# 1 217.1610 31.6949 37.7764 -18.2486 23.0984 -22.5483
# 2 31.6949 52.8849 25.1370 9.4091 2.2915 -27.3035
# 3 37.7764 25.1370 57.1499 17.3904 -7.7761 -4.5456
# 4 -18.2486 9.4091 17.3904 32.8059 -7.5663 0.7537
# 5 23.0984 2.2915 -7.7761 -7.5663 53.7612 -1.1381
# 6 -22.5483 -27.3035 -4.5456 0.7537 -1.1381 41.9638
#
#
#
# Elastic Compliance Matrix: (Units=1/GPa)
#
#
# Indices 1 2 3 4 5 6 
#
# 1 0.007004 -0.001144 -0.006460 0.006937 -0.002874 0.002117
# 2 -0.001144 0.039295 -0.013231 -0.006235 -0.003477 0.023537
# 3 -0.006460 -0.013231 0.032427 -0.015492 0.005677 -0.008135
# 4 0.006937 -0.006235 -0.015492 0.044700 0.001277 -0.002776
# 5 -0.002874 -0.003477 0.005677 0.001277 0.020929 -0.002647
# 6 0.002117 0.023537 -0.008135 -0.002776 -0.002647 0.039379
#
#
# Mechanical properties :
#
#
# Convention : Reuss Voigt Hill
#
# Bulk Modulus (GPa) = 26.98608 57.37915 42.18261
# Shear Modulus (GPa) = 21.02989 41.21202 31.12095
#
# Velocity S-wave (km/s) = 3.06317 4.28810 3.72631
# Velocity P-wave (km/s) = 4.95492 7.07942 6.11021
#
# Compressibility (1/GPa) = 0.03705614
#
# Stress axis : x y z
#
# Youngs Moduli (GPa) = 142.77471 25.44833 30.83813
#
# Poissons Ratio (x) = 0.02911 0.19922
# Poissons Ratio (y) = 0.16331 0.40803
# Poissons Ratio (z) = 0.92236 0.33671
#
# Static dielectric constant tensor:
#      x y z
#    x 1.743040 -0.116730 0.106030 
#    y -0.116730 1.537110 0.138550 
#    z 0.106030 0.138550 1.759270 
# 
# From -- ./inp_files/159914.got.cif
#   From: 2010.05.17/outbox.ucp.g08.bks.cvg/sg2_80_cif.got.tgz:159914.got - 2010.06.11 11:32:03.
