data_PCOD9073074
_publ_section_title
;
Structure prediction by ZEFSAII (Michael W. Deem and Ramdas Pophale) SiO2 
 PCOD9073074
Probable space group: P -1
;
_chemical_formula_sum "Si O2"
_cell_formula_units_Z 16
_cell_length_a 12.036034
_cell_length_b 14.274386
_cell_length_c 11.576841
_cell_angle_alpha 37.997923
_cell_angle_beta 87.615745
_cell_angle_gamma 117.741524
_cell_volume 717.353746
_symmetry_space_group_name_H-M "P -1"
_symmetry_group_IT_number 2
_symmetry_cell_setting 'triclinic'
loop_
_space_group_symop_operation_xyz
x,y,z
-x,-y,-z
loop_
_atom_site_type_symbol
_atom_site_label
_atom_site_fract_x
_atom_site_fract_y
_atom_site_fract_z
Si Si1 0.664709 0.230032 0.681432
Si Si2 0.443229 0.185857 0.284156
Si Si3 0.711638 0.659583 0.137353
Si Si4 0.690565 0.544319 0.499277
Si Si5 0.879820 0.989309 0.218780
Si Si6 0.789249 0.770692 0.682369
Si Si7 0.424047 0.126383 0.592115
Si Si8 0.340973 0.065114 0.147309
O O1 0.776717 0.481243 0.506405
O O2 0.547590 0.165997 0.637910
O O3 0.760444 0.183542 0.675105
O O4 0.500000 0.000000 0.000000
O O5 0.317760 0.200334 0.290682
O O6 0.401790 0.045331 0.540171
O O7 0.391225 0.071485 0.269455
O O8 0.662222 0.481000 0.987941
O O9 0.621317 0.538755 0.385805
O O10 0.551942 0.422530 0.288862
O O11 0.768079 0.895496 0.884282
O O12 0.895089 0.757265 0.025314
O O13 0.825339 0.821502 0.277388
O O14 0.530430 0.320629 0.816794
O O15 0.808391 0.819394 0.498604
O O16 0.771275 0.030123 0.190498
O O17 0.000000 0.000000 0.500000
#
# Coordination Sequence:
#
# PCOD9073074 Si02
#       8
#     2   2   2   2   2   2   2   2
#     4   9  22  36  60  76 110 155 184 219 284 323
#     4  10  19  32  54  81 110 141 186 220 272 329
#     4  11  21  34  60  84 113 144 184 229 281 320
#     4  10  20  37  53  81 113 145 186 228 267 329
#     4  11  20  33  59  88 110 140 188 227 279 324
#     4  10  18  31  52  84 115 141 171 228 279 323
#     4  10  21  38  58  83 113 145 180 232 274 328
#     4  11  19  37  58  81 113 151 182 229 275 324
#
# _framework density 22.304199000000001
#
# number of rings (size 3 to 8) (size 9 to 14) (size 15 to 20)
#    0.000    1.750    2.500    3.750    3.500    0.500 
#    0.000    0.625    8.250    0.000    0.000   11.375 
#    0.000    0.000    0.000    0.000    0.000    0.000 
#
# Total GULP energy -89203.570480 kJ/mol
# GULP energy per Si atom -5575.223155 kJ/mol
# Density = 2.225343 g / cm^3
# Si number density = 22.304199 Si / 1000 Ang^3
#
#
#
# Elastic Constant Matrix: (Units=GPa)
#
#
# Indices 1 2 3 4 5 6 
#
# 1 54.8595 0.9428 11.2171 -4.6689 -10.0794 -1.6570
# 2 0.9428 110.8963 14.0937 24.3441 0.6437 -12.3034
# 3 11.2171 14.0937 42.6266 14.9816 -14.3772 0.0270
# 4 -4.6689 24.3441 14.9816 37.8026 9.4888 -1.7258
# 5 -10.0794 0.6437 -14.3772 9.4888 33.8670 -1.5656
# 6 -1.6570 -12.3034 0.0270 -1.7258 -1.5656 31.3710
#
#
#
# Elastic Compliance Matrix: (Units=1/GPa)
#
#
# Indices 1 2 3 4 5 6 
#
# 1 0.020329 -0.000272 -0.006138 0.004623 0.002216 0.001337
# 2 -0.000272 0.011108 -0.000476 -0.007247 0.001723 0.004030
# 3 -0.006138 -0.000476 0.039990 -0.021651 0.021194 -0.000679
# 4 0.004623 -0.007247 -0.021651 0.045351 -0.020435 -0.001104
# 5 0.002216 0.001723 0.021194 -0.020435 0.044964 0.001894
# 6 0.001337 0.004030 -0.000679 -0.001104 0.001894 0.033562
#
#
# Mechanical properties :
#
#
# Convention : Reuss Voigt Hill
#
# Bulk Modulus (GPa) = 17.34412 28.98775 23.16594
# Shear Modulus (GPa) = 21.90149 32.75002 27.32576
#
# Velocity S-wave (km/s) = 3.13700 3.83604 3.50400
# Velocity P-wave (km/s) = 4.57319 5.71358 5.17490
#
# Compressibility (1/GPa) = 0.05765644
#
# Stress axis : x y z
#
# Youngs Moduli (GPa) = 49.19051 90.02398 25.00604
#
# Poissons Ratio (x) = 0.02451 0.15348
# Poissons Ratio (y) = 0.01339 0.01189
# Poissons Ratio (z) = 0.30192 0.04281
#
# Static dielectric constant tensor:
#      x y z
#    x 1.905880 -0.025380 0.043590 
#    y -0.025380 1.868760 0.031820 
#    z 0.043590 0.031820 1.825800 
# 
# From -- ./inp_files/390128.got.cif
#   From: 2010.05.17/outbox.cif.g08.bks.cpg/sg2_196_cif.got.tgz:390128.got - 2010.06.03 11:33:40.
