data_PCOD9073599
_publ_section_title
;
Structure prediction by ZEFSAII (Michael W. Deem and Ramdas Pophale) SiO2 
 PCOD9073599
Probable space group: P -1
;
_chemical_formula_sum "Si O2"
_cell_formula_units_Z 14
_cell_length_a 9.000000
_cell_length_b 15.000000
_cell_length_c 9.000000
_cell_angle_alpha 80.000000
_cell_angle_beta 140.000000
_cell_angle_gamma 120.000000
_cell_volume 626.690879
_symmetry_space_group_name_H-M "P -1"
_symmetry_group_IT_number 2
_symmetry_cell_setting 'triclinic'
loop_
_space_group_symop_operation_xyz
x,y,z
-x,-y,-z
loop_
_atom_site_type_symbol
_atom_site_label
_atom_site_fract_x
_atom_site_fract_y
_atom_site_fract_z
Si Si1 0.835587 0.473766 0.178940
Si Si2 0.522988 0.906912 0.378480
Si Si3 0.271032 0.338474 0.974976
Si Si4 0.326941 0.064608 0.189105
Si Si5 0.132105 0.133994 0.767647
Si Si6 0.481270 0.721342 0.242181
Si Si7 0.475398 0.588433 0.545674
O O1 0.586502 0.392482 0.129864
O O2 0.166144 0.521843 0.408776
O O3 0.827567 0.581278 0.155362
O O4 0.718572 0.393634 0.967527
O O5 0.513305 0.873721 0.553539
O O6 0.391646 0.801089 0.202850
O O7 0.380596 0.971538 0.230492
O O8 0.855850 0.008219 0.573245
O O9 0.300727 0.346268 0.171364
O O10 0.081588 0.214940 0.799082
O O11 0.359294 0.130744 0.045259
O O12 0.000000 0.000000 0.000000
O O13 0.256566 0.197080 0.689432
O O14 0.530397 0.679580 0.443678
O O15 0.500000 0.500000 0.500000
#
# Coordination Sequence:
#
# PCOD9073599 Si02
#       7
#     2   2   2   2   2   2   2
#     4  10  23  44  63  93 126 167 216 262 321 375
#     4  10  21  41  65  92 125 165 206 259 311 374
#     4  10  22  42  68  89 126 170 212 264 312 382
#     4   9  20  40  60  87 122 162 214 249 303 373
#     4  10  22  41  62  94 129 164 210 254 315 378
#     4  11  23  41  62  94 131 163 206 267 315 373
#     4  12  24  42  63  95 128 166 215 266 321 371
#
# _framework density 22.339562000000001
#
# number of rings (size 3 to 8) (size 9 to 14) (size 15 to 20)
#    0.000    1.714    1.429    2.143    0.000    5.143 
#   10.286    0.000    0.000    0.000    0.000    0.000 
#    0.000    0.000    0.000    0.000    0.000    0.000 
#
# Total GULP energy -78087.378588 kJ/mol
# GULP energy per Si atom -5577.669899 kJ/mol
# Density = 2.228872 g / cm^3
# Si number density = 22.339562 Si / 1000 Ang^3
#
#
#
# Elastic Constant Matrix: (Units=GPa)
#
#
# Indices 1 2 3 4 5 6 
#
# 1 78.5624 3.2090 20.5052 16.2032 7.1500 -37.8057
# 2 3.2090 65.5866 -3.9334 7.0008 -2.8652 -26.3600
# 3 20.5052 -3.9334 20.7527 4.5253 6.9147 -6.9539
# 4 16.2032 7.0008 4.5253 0.1019 -10.2880 7.5754
# 5 7.1500 -2.8652 6.9147 -10.2880 30.9180 16.4386
# 6 -37.8057 -26.3600 -6.9539 7.5754 16.4386 48.5544
#
#
#
# Elastic Compliance Matrix: (Units=1/GPa)
#
#
# Indices 1 2 3 4 5 6 
#
# 1 0.013177 -0.003991 -0.021135 0.019747 0.008323 -0.000833
# 2 -0.003991 0.014823 0.002218 0.013766 0.005766 0.001158
# 3 -0.021135 0.002218 0.068122 0.006964 -0.005275 -0.004796
# 4 0.019747 0.013766 0.006964 -0.012740 -0.027833 0.035258
# 5 0.008323 0.005766 -0.005275 -0.027833 0.019334 0.006652
# 6 -0.000833 0.001158 -0.004796 0.035258 0.006652 0.012136
#
#
# Mechanical properties :
#
#
# Convention : Reuss Voigt Hill
#
# Bulk Modulus (GPa) = 19.87814 22.71815 21.29814
# Shear Modulus (GPa) = 28.17910 25.58959 26.88435
#
# Velocity S-wave (km/s) = 3.55547 3.38817 3.47283
# Velocity P-wave (km/s) = 5.07668 5.04954 5.06313
#
# Compressibility (1/GPa) = 0.05030652
#
# Stress axis : x y z
#
# Youngs Moduli (GPa) = 75.88970 67.46193 14.67960
#
# Poissons Ratio (x) = 0.26925 0.31025
# Poissons Ratio (y) = 0.30289 -0.03256
# Poissons Ratio (z) = 1.60391 -0.14965
#
# Static dielectric constant tensor:
#      x y z
#    x 1.842940 0.015250 0.003140 
#    y 0.015250 1.835920 -0.020060 
#    z 0.003140 -0.020060 1.874790 
# 
# From -- ./inp_files/107448.got.cif
#   From: 2010.05.17/outbox.ucp.g08.bks.cvg/sg2_54_cif.got.tgz:107448.got - 2010.06.11 11:32:03.
