data_PCOD9073440
_publ_section_title
;
Structure prediction by ZEFSAII (Michael W. Deem and Ramdas Pophale) SiO2 
 PCOD9073440
Probable space group: P -1
;
_chemical_formula_sum "Si O2"
_cell_formula_units_Z 16
_cell_length_a 15.000000
_cell_length_b 15.000000
_cell_length_c 9.000000
_cell_angle_alpha 140.000000
_cell_angle_beta 80.000000
_cell_angle_gamma 130.000000
_cell_volume 759.999475
_symmetry_space_group_name_H-M "P -1"
_symmetry_group_IT_number 2
_symmetry_cell_setting 'triclinic'
loop_
_space_group_symop_operation_xyz
x,y,z
-x,-y,-z
loop_
_atom_site_type_symbol
_atom_site_label
_atom_site_fract_x
_atom_site_fract_y
_atom_site_fract_z
Si Si1 0.839594 0.271718 0.838813
Si Si2 0.881679 0.885218 0.751804
Si Si3 0.597828 0.482817 0.796370
Si Si4 0.735512 0.406953 0.212429
Si Si5 0.621011 0.005472 0.288831
Si Si6 0.752177 0.864492 0.484766
Si Si7 0.654917 0.735244 0.832672
Si Si8 0.352965 0.751901 0.643382
O O1 0.699997 0.123338 0.574159
O O2 0.819671 0.089132 0.675239
O O3 0.818229 0.368744 0.087790
O O4 0.000000 0.500000 0.000000
O O5 0.804993 0.638947 0.435100
O O6 0.877030 0.950542 0.671409
O O7 0.780038 0.874573 0.850451
O O8 0.000000 0.000000 0.000000
O O9 0.416468 0.297040 0.608968
O O10 0.678904 0.654574 0.852186
O O11 0.608451 0.331718 0.577807
O O12 0.689710 0.665079 0.138730
O O13 0.742340 0.416243 0.402184
O O14 0.559480 0.185526 0.921634
O O15 0.706205 0.202562 0.391029
O O16 0.640762 0.869031 0.072667
O O17 0.500000 0.500000 0.500000
O O18 0.500000 0.000000 0.000000
#
# Coordination Sequence:
#
# PCOD9073440 Si02
#       8
#     2   2   2   2   2   2   2   2
#     4  12  29  48  66 102 146 189 234 290 361 425
#     4  12  28  44  71 106 146 185 230 297 361 433
#     4  11  21  41  74 110 138 180 244 301 343 414
#     4  11  24  45  70 103 137 183 238 290 352 415
#     4  11  23  42  73 100 139 186 232 293 344 420
#     4  11  25  44  72 103 142 189 239 292 357 420
#     4  12  20  43  72 106 139 180 243 292 347 413
#     4  10  21  39  66 110 140 174 227 296 351 409
#
# _framework density 21.052645999999999
#
# number of rings (size 3 to 8) (size 9 to 14) (size 15 to 20)
#    0.000    0.750    5.000    2.625    7.000    1.000 
#    0.000    2.500    0.000    0.000    0.000    0.000 
#    0.000    0.000    0.000    0.000    0.000    0.000 
#
# Total GULP energy -89202.005270 kJ/mol
# GULP energy per Si atom -5575.125329 kJ/mol
# Density = 2.100473 g / cm^3
# Si number density = 21.052646 Si / 1000 Ang^3
#
#
#
# Elastic Constant Matrix: (Units=GPa)
#
#
# Indices 1 2 3 4 5 6 
#
# 1 42.4862 20.5565 35.1858 11.7515 9.7503 -15.4250
# 2 20.5565 65.9052 30.7621 3.1662 -2.0519 -25.1536
# 3 35.1858 30.7621 92.0992 -7.7122 -7.2054 -2.9318
# 4 11.7515 3.1662 -7.7122 24.9882 -16.5173 -8.5497
# 5 9.7503 -2.0519 -7.2054 -16.5173 42.0971 -10.3714
# 6 -15.4250 -25.1536 -2.9318 -8.5497 -10.3714 50.4654
#
#
#
# Elastic Compliance Matrix: (Units=1/GPa)
#
#
# Indices 1 2 3 4 5 6 
#
# 1 0.594838 -0.055085 -0.312783 -0.734475 -0.504840 -0.091996
# 2 -0.055085 0.028134 0.022027 0.069304 0.050146 0.020513
# 3 -0.312783 0.022027 0.178865 0.395366 0.271206 0.048485
# 4 -0.734475 0.069304 0.395366 0.980229 0.658906 0.134497
# 5 -0.504840 0.050146 0.271206 0.658906 0.471474 0.094967
# 6 -0.091996 0.020513 0.048485 0.134497 0.094967 0.047041
#
#
# Mechanical properties :
#
#
# Convention : Reuss Voigt Hill
#
# Bulk Modulus (GPa) = 9.07798 41.49991 25.28894
# Shear Modulus (GPa) = 1.65072 31.10923 16.37997
#
# Velocity S-wave (km/s) = 0.88645 3.84824 2.79238
# Velocity P-wave (km/s) = 2.31714 6.28494 4.73654
#
# Compressibility (1/GPa) = 0.11015672
#
# Stress axis : x y z
#
# Youngs Moduli (GPa) = 1.68113 35.54410 5.59080
#
# Poissons Ratio (x) = 1.95794 1.74871
# Poissons Ratio (y) = 0.09260 -0.12315
# Poissons Ratio (z) = 0.52583 -0.78294
#
# Static dielectric constant tensor:
#      x y z
#    x 1.730850 0.012160 0.026040 
#    y 0.012160 1.841840 -0.028900 
#    z 0.026040 -0.028900 1.772990 
# 
# From -- ./inp_files/263290.got.cif
#   From: 2010.05.17/outbox.ucp.g08.bks.cvg/sg2_132_cif.got.tgz:263290.got - 2010.06.11 11:32:03.
