data_PCOD9073039
_publ_section_title
;
Structure prediction by ZEFSAII (Michael W. Deem and Ramdas Pophale) SiO2 
 PCOD9073039
Probable space group: P -1
;
_chemical_formula_sum "Si O2"
_cell_formula_units_Z 13
_cell_length_a 15.000000
_cell_length_b 9.000000
_cell_length_c 12.000000
_cell_angle_alpha 130.000000
_cell_angle_beta 40.000000
_cell_angle_gamma 150.000000
_cell_volume 519.584618
_symmetry_space_group_name_H-M "P -1"
_symmetry_group_IT_number 2
_symmetry_cell_setting 'triclinic'
loop_
_space_group_symop_operation_xyz
x,y,z
-x,-y,-z
loop_
_atom_site_type_symbol
_atom_site_label
_atom_site_fract_x
_atom_site_fract_y
_atom_site_fract_z
Si Si1 0.286832 0.294266 0.952410
Si Si2 0.813553 0.189477 0.773897
Si Si3 0.000000 0.000000 0.500000
Si Si4 0.287821 0.480121 0.269699
Si Si5 0.465310 0.858934 0.621573
Si Si6 0.188495 0.830598 0.715336
Si Si7 0.619608 0.327986 0.158696
O O1 0.514235 0.440439 0.837356
O O2 0.309689 0.447993 0.895197
O O3 0.138935 0.954617 0.903583
O O4 0.215868 0.335374 0.147792
O O5 0.980334 0.512657 0.714716
O O6 0.900309 0.087128 0.696839
O O7 0.635922 0.938192 0.735521
O O8 0.700548 0.201992 0.982456
O O9 0.896116 0.746012 0.573255
O O10 0.390319 0.803495 0.317721
O O11 0.299448 0.778508 0.656233
O O12 0.344181 0.617933 0.718479
O O13 0.633070 0.909169 0.416366
#
# Coordination Sequence:
#
# PCOD9073039 Si02
#       7
#     2   2   1   2   2   2   2
#     4  10  22  42  67  94 139 176 219 265 344 397
#     4  11  24  42  68 100 135 168 234 273 331 393
#     4  12  22  40  68 104 126 180 232 274 310 424
#     4  10  20  40  67  97 128 184 224 265 318 421
#     4  10  22  42  69  96 140 174 225 278 335 387
#     4  10  23  43  65 101 136 177 222 279 330 400
#     4  11  24  44  67 100 136 181 218 277 336 402
#
# _framework density 25.019985999999999
#
# number of rings (size 3 to 8) (size 9 to 14) (size 15 to 20)
#    0.000    1.538    3.077    1.846    4.308    2.462 
#    2.769    0.000    0.000    0.000    0.000    0.000 
#    0.000    0.000    0.000    0.000    0.000    0.000 
#
# Total GULP energy -72409.267781 kJ/mol
# GULP energy per Si atom -5569.943675 kJ/mol
# Density = 2.496304 g / cm^3
# Si number density = 25.019986 Si / 1000 Ang^3
#
#
#
# Elastic Constant Matrix: (Units=GPa)
#
#
# Indices 1 2 3 4 5 6 
#
# 1 83.1930 33.3328 37.9305 -9.5824 17.2366 -16.7781
# 2 33.3328 68.4594 36.6453 3.3622 -16.3804 -12.6244
# 3 37.9305 36.6453 65.7466 14.5074 10.5914 -0.4465
# 4 -9.5824 3.3622 14.5074 36.1947 -16.5934 -0.3469
# 5 17.2366 -16.3804 10.5914 -16.5934 27.9269 -14.1256
# 6 -16.7781 -12.6244 -0.4465 -0.3469 -14.1256 14.6471
#
#
#
# Elastic Compliance Matrix: (Units=1/GPa)
#
#
# Indices 1 2 3 4 5 6 
#
# 1 0.023202 -0.010158 -0.006443 0.003794 -0.012924 0.005252
# 2 -0.010158 0.003232 0.011509 -0.018239 -0.022559 -0.030687
# 3 -0.006443 0.011509 0.006490 0.007757 0.028022 0.029945
# 4 0.003794 -0.018239 0.007757 0.016524 -0.022645 -0.032585
# 5 -0.012924 -0.022559 0.028022 -0.022645 -0.020874 -0.054060
# 6 0.005252 -0.030687 0.029945 -0.032585 -0.054060 -0.004155
#
#
# Mechanical properties :
#
#
# Convention : Reuss Voigt Hill
#
# Bulk Modulus (GPa) = 43.97748 48.13513 46.05630
# Shear Modulus (GPa) = 118.53360 23.05311 70.79336
#
# Velocity S-wave (km/s) = 6.89046 3.03873 5.32505
# Velocity P-wave (km/s) = 8.99553 5.62070 7.50040
#
# Compressibility (1/GPa) = 0.02273891
#
# Stress axis : x y z
#
# Youngs Moduli (GPa) = 43.09985 309.45360 154.08786
#
# Poissons Ratio (x) = 3.14344 0.99286
# Poissons Ratio (y) = 0.43781 -1.77345
# Poissons Ratio (z) = 0.27771 -3.56161
#
# Static dielectric constant tensor:
#      x y z
#    x 1.866940 0.048380 -0.154040 
#    y 0.048380 1.982600 -0.000880 
#    z -0.154040 -0.000880 1.911410 
# 
# From -- ./inp_files/448169.got.cif
#   From: 2010.05.17/outbox.ucp.g08.bks.cvg/sg2_225_cif.got.tgz:448169.got - 2010.06.11 11:32:03.
