data_PCOD9073062
_publ_section_title
;
Structure prediction by ZEFSAII (Michael W. Deem and Ramdas Pophale) SiO2 
 PCOD9073062
Probable space group: P -1
;
_chemical_formula_sum "Si O2"
_cell_formula_units_Z 16
_cell_length_a 30.000000
_cell_length_b 15.000000
_cell_length_c 12.000000
_cell_angle_alpha 150.000000
_cell_angle_beta 150.000000
_cell_angle_gamma 20.000000
_cell_volume 879.333414
_symmetry_space_group_name_H-M "P -1"
_symmetry_group_IT_number 2
_symmetry_cell_setting 'triclinic'
loop_
_space_group_symop_operation_xyz
x,y,z
-x,-y,-z
loop_
_atom_site_type_symbol
_atom_site_label
_atom_site_fract_x
_atom_site_fract_y
_atom_site_fract_z
Si Si1 0.063753 0.434362 0.838030
Si Si2 0.223516 0.825505 0.544155
Si Si3 0.018717 0.882301 0.292940
Si Si4 0.473372 0.617511 0.347547
Si Si5 0.293815 0.737937 0.363137
Si Si6 0.235439 0.275636 0.558458
Si Si7 0.258385 0.639968 0.935246
Si Si8 0.154097 0.326123 0.675576
O O1 0.910386 0.589521 0.649812
O O2 0.132108 0.415783 0.853098
O O3 0.052378 0.621327 0.095830
O O4 0.156869 0.123758 0.738501
O O5 0.390520 0.575918 0.646212
O O6 0.204241 0.810196 0.353822
O O7 0.140443 0.808761 0.417425
O O8 0.880226 0.104401 0.157017
O O9 0.000000 0.000000 0.500000
O O10 0.552254 0.509759 0.521768
O O11 0.359522 0.946657 0.452681
O O12 0.387595 0.563347 0.089187
O O13 0.252959 0.005370 0.548253
O O14 0.256030 0.702386 0.127799
O O15 0.268164 0.410486 0.712378
O O16 0.211887 0.348071 0.719182
O O17 0.000000 0.500000 0.500000
#
# Coordination Sequence:
#
# PCOD9073062 Si02
#       8
#     2   2   2   2   2   2   2   2
#     4  10  20  41  62  90 129 162 212 269 306 370
#     4   9  23  42  64  98 127 162 210 260 326 373
#     4  12  26  44  69  93 116 167 229 271 313 368
#     4  10  22  41  59  98 141 165 199 256 315 389
#     4   9  20  37  61  90 141 159 198 247 317 379
#     4  11  21  34  63  96 132 176 202 241 324 384
#     4  12  22  38  64  93 131 171 208 252 313 380
#     4   9  17  32  55  90 127 167 198 241 309 370
#
# _framework density 18.195601
#
# number of rings (size 3 to 8) (size 9 to 14) (size 15 to 20)
#    0.750    1.000    3.750    1.125    1.750    2.500 
#    0.000    0.625    0.000    1.500    0.000    0.000 
#    0.000    0.000    0.000    0.000    0.000    0.000 
#
# Total GULP energy -89081.386912 kJ/mol
# GULP energy per Si atom -5567.586682 kJ/mol
# Density = 1.815419 g / cm^3
# Si number density = 18.195601 Si / 1000 Ang^3
#
#
#
# Elastic Constant Matrix: (Units=GPa)
#
#
# Indices 1 2 3 4 5 6 
#
# 1 62.4063 21.9477 35.6607 -10.9102 20.9315 -21.2095
# 2 21.9477 135.6020 39.5989 4.2688 14.1560 -17.1075
# 3 35.6607 39.5989 103.2083 6.4356 8.8787 -14.7965
# 4 -10.9102 4.2688 6.4356 25.8392 -4.1377 5.7217
# 5 20.9315 14.1560 8.8787 -4.1377 21.1783 1.3560
# 6 -21.2095 -17.1075 -14.7965 5.7217 1.3560 21.6411
#
#
#
# Elastic Compliance Matrix: (Units=1/GPa)
#
#
# Indices 1 2 3 4 5 6 
#
# 1 0.066368 0.008142 -0.010433 0.002942 -0.070442 0.067984
# 2 0.008142 0.010770 -0.002999 -0.003757 -0.015774 0.016425
# 3 -0.010433 -0.002999 0.014151 -0.006236 0.005268 -0.001602
# 4 0.002942 -0.003757 -0.006236 0.048118 0.012763 -0.017872
# 5 -0.070442 -0.015774 0.005268 0.012763 0.133407 -0.089638
# 6 0.067984 0.016425 -0.001602 -0.017872 -0.089638 0.135067
#
#
# Mechanical properties :
#
#
# Convention : Reuss Voigt Hill
#
# Bulk Modulus (GPa) = 12.39019 55.07012 33.73015
# Shear Modulus (GPa) = 11.22681 27.33237 19.27959
#
# Velocity S-wave (km/s) = 2.48666 3.87995 3.25864
# Velocity P-wave (km/s) = 3.88186 7.09953 5.72155
#
# Compressibility (1/GPa) = 0.08070902
#
# Stress axis : x y z
#
# Youngs Moduli (GPa) = 15.06747 92.85335 70.66802
#
# Poissons Ratio (x) = -0.75606 0.73726
# Poissons Ratio (y) = -0.12269 0.21197
# Poissons Ratio (z) = 0.15719 0.27851
#
# Static dielectric constant tensor:
#      x y z
#    x 1.669920 -0.009800 -0.009030 
#    y -0.009800 1.632790 0.001350 
#    z -0.009030 0.001350 1.645340 
# 
# From -- ./inp_files/477696.got.cif
#   From: 2010.05.17/outbox.ucp.g08.bks.cvg/sg2_239_cif.got.tgz:477696.got - 2010.06.11 11:32:03.
