data_PCOD9073444
_publ_section_title
;
Structure prediction by ZEFSAII (Michael W. Deem and Ramdas Pophale) SiO2 
 PCOD9073444
Probable space group: P -1
;
_chemical_formula_sum "Si O2"
_cell_formula_units_Z 16
_cell_length_a 6.000000
_cell_length_b 9.000000
_cell_length_c 15.000000
_cell_angle_alpha 80.000000
_cell_angle_beta 80.000000
_cell_angle_gamma 110.000000
_cell_volume 725.431091
_symmetry_space_group_name_H-M "P -1"
_symmetry_group_IT_number 2
_symmetry_cell_setting 'triclinic'
loop_
_space_group_symop_operation_xyz
x,y,z
-x,-y,-z
loop_
_atom_site_type_symbol
_atom_site_label
_atom_site_fract_x
_atom_site_fract_y
_atom_site_fract_z
Si Si1 0.119133 0.114409 0.392711
Si Si2 0.444080 0.129449 0.205280
Si Si3 0.934520 0.388601 0.649572
Si Si4 0.932787 0.814181 0.055441
Si Si5 0.267797 0.369449 0.080630
Si Si6 0.602910 0.187495 0.850340
Si Si7 0.737268 0.611645 0.521752
Si Si8 0.913734 0.334809 0.263845
O O1 0.249251 0.058175 0.308535
O O2 0.309082 0.265975 0.419173
O O3 0.958514 0.200812 0.340482
O O4 0.000000 0.000000 0.500000
O O5 0.343550 0.230707 0.134972
O O6 0.685575 0.245476 0.226484
O O7 0.501071 0.000594 0.153985
O O8 0.725997 0.276897 0.741042
O O9 0.828387 0.494204 0.585028
O O10 0.065256 0.309158 0.579661
O O11 0.117337 0.524129 0.689197
O O12 0.639819 0.769916 0.112065
O O13 0.155859 0.798457 0.103703
O O14 0.918461 0.707228 0.979483
O O15 0.000000 0.000000 0.000000
O O16 0.141907 0.418435 0.169793
O O17 0.500000 0.500000 0.000000
O O18 0.500000 0.500000 0.500000
#
# Coordination Sequence:
#
# PCOD9073444 Si02
#       8
#     2   2   2   2   2   2   2   2
#     4  10  22  40  63  94 129 167 216 269 335 396
#     4  11  24  41  65  95 129 173 217 275 329 395
#     4  10  23  41  63 100 128 177 221 273 336 396
#     4  12  26  47  68  98 136 177 224 281 334 393
#     4  11  25  42  66  94 130 176 221 272 332 394
#     4  12  27  43  72  99 136 177 227 276 333 398
#     4  10  21  39  66  92 136 170 218 275 330 399
#     4  10  23  42  63  92 134 166 220 274 330 396
#
# _framework density 22.055851000000001
#
# number of rings (size 3 to 8) (size 9 to 14) (size 15 to 20)
#    0.000    1.250    1.250    3.375    7.000    2.000 
#    0.000    0.000    0.000    0.000    0.000    0.000 
#    0.000    0.000    0.000    0.000    0.000    0.000 
#
# Total GULP energy -89149.451716 kJ/mol
# GULP energy per Si atom -5571.840732 kJ/mol
# Density = 2.200565 g / cm^3
# Si number density = 22.055851 Si / 1000 Ang^3
#
#
#
# Elastic Constant Matrix: (Units=GPa)
#
#
# Indices 1 2 3 4 5 6 
#
# 1 68.0743 5.9751 28.1994 6.5686 -5.3424 17.8695
# 2 5.9751 46.5481 15.3104 16.6897 6.8701 9.8061
# 3 28.1994 15.3104 154.5545 -10.8953 -7.6469 5.7568
# 4 6.5686 16.6897 -10.8953 49.6642 15.8441 -5.3364
# 5 -5.3424 6.8701 -7.6469 15.8441 31.4785 14.3734
# 6 17.8695 9.8061 5.7568 -5.3364 14.3734 33.8747
#
#
#
# Elastic Compliance Matrix: (Units=1/GPa)
#
#
# Indices 1 2 3 4 5 6 
#
# 1 0.026882 0.006710 -0.004583 -0.017333 0.023519 -0.028054
# 2 0.006710 0.030823 -0.004264 -0.017804 0.011135 -0.019267
# 3 -0.004583 -0.004264 0.007811 0.004918 -0.002282 0.004068
# 4 -0.017333 -0.017804 0.004918 0.045300 -0.037293 0.036422
# 5 0.023519 0.011135 -0.002282 -0.037293 0.075891 -0.053318
# 6 -0.028054 -0.019267 0.004068 0.036422 -0.053318 0.077567
#
#
# Mechanical properties :
#
#
# Convention : Reuss Voigt Hill
#
# Bulk Modulus (GPa) = 16.32847 40.90519 28.61683
# Shear Modulus (GPa) = 17.30330 37.64960 27.47645
#
# Velocity S-wave (km/s) = 2.80397 4.13608 3.53337
# Velocity P-wave (km/s) = 4.23111 6.43397 5.44510
#
# Compressibility (1/GPa) = 0.06124272
#
# Stress axis : x y z
#
# Youngs Moduli (GPa) = 37.20008 32.44289 128.02384
#
# Poissons Ratio (x) = -0.21770 0.58671
# Poissons Ratio (y) = -0.24963 0.54593
# Poissons Ratio (z) = 0.17048 0.13834
#
# Static dielectric constant tensor:
#      x y z
#    x 1.814860 0.035150 -0.036590 
#    y 0.035150 1.901590 -0.014580 
#    z -0.036590 -0.014580 1.822090 
# 
# From -- ./inp_files/90047.got.cif
#   From: 2010.05.17/outbox.ucp.g08.bks.cvg/sg2_46_cif.got.tgz:90047.got - 2010.06.11 11:32:03.
