data_PCOD9073695
_publ_section_title
;
Structure prediction by ZEFSAII (Michael W. Deem and Ramdas Pophale) SiO2 
 PCOD9073695
Probable space group: P -1
;
_chemical_formula_sum "Si O2"
_cell_formula_units_Z 16
_cell_length_a 18.080062
_cell_length_b 9.081075
_cell_length_c 20.653095
_cell_angle_alpha 145.922245
_cell_angle_beta 22.131893
_cell_angle_gamma 133.709719
_cell_volume 667.488416
_symmetry_space_group_name_H-M "P -1"
_symmetry_group_IT_number 2
_symmetry_cell_setting 'triclinic'
loop_
_space_group_symop_operation_xyz
x,y,z
-x,-y,-z
loop_
_atom_site_type_symbol
_atom_site_label
_atom_site_fract_x
_atom_site_fract_y
_atom_site_fract_z
Si Si1 0.925605 0.099885 0.916113
Si Si2 0.432965 0.529707 0.349393
Si Si3 0.455897 0.317404 0.122051
Si Si4 0.703262 0.098685 0.221962
Si Si5 0.316873 0.244410 0.681238
Si Si6 0.902617 0.430891 0.256036
Si Si7 0.074938 0.882794 0.325400
Si Si8 0.796238 0.905148 0.826659
O O1 0.936403 0.903288 0.773985
O O2 0.147681 0.089965 0.763257
O O3 0.763104 0.047169 0.079668
O O4 0.820684 0.425348 0.098321
O O5 0.365565 0.534343 0.331785
O O6 0.552857 0.729733 0.350599
O O7 0.237864 0.568827 0.567836
O O8 0.606031 0.211104 0.100117
O O9 0.314224 0.323540 0.177221
O O10 0.686454 0.323924 0.927817
O O11 0.500000 0.000000 0.000000
O O12 0.479382 0.149212 0.454197
O O13 0.766444 0.371292 0.287106
O O14 0.876037 0.829100 0.018193
O O15 0.950711 0.711830 0.327556
O O16 0.089604 0.095407 0.334884
O O17 0.000000 0.000000 0.500000
#
# Coordination Sequence:
#
# PCOD9073695 Si02
#       8
#     2   2   2   2   2   2   2   2
#     4  10  20  35  57  76 112 150 180 229 269 328
#     4   8  15  31  50  74 105 134 170 228 261 319
#     4   8  15  28  49  75 103 128 174 227 273 309
#     4  10  22  37  51  83 118 149 179 221 277 334
#     4   9  19  34  54  82 105 142 193 218 270 328
#     4  10  20  34  53  81 115 144 179 223 280 330
#     4  10  18  31  56  83 105 137 182 240 271 315
#     4   9  18  32  51  83 105 134 185 225 280 321
#
# _framework density 23.970452999999999
#
# number of rings (size 3 to 8) (size 9 to 14) (size 15 to 20)
#    0.000    3.000    0.000    2.625    7.000    0.000 
#    6.750    1.875    0.000    3.750    0.000    0.000 
#    0.000    0.000    0.000    0.000    0.000    0.000 
#
# Total GULP energy -89268.353107 kJ/mol
# GULP energy per Si atom -5579.272069 kJ/mol
# Density = 2.391590 g / cm^3
# Si number density = 23.970453 Si / 1000 Ang^3
#
#
#
# Elastic Constant Matrix: (Units=GPa)
#
#
# Indices 1 2 3 4 5 6 
#
# 1 106.3873 21.5589 49.7496 -15.8305 26.4630 31.0496
# 2 21.5589 60.0468 16.6743 -10.3164 0.9454 21.4926
# 3 49.7496 16.6743 108.8568 -11.0537 15.2704 17.3247
# 4 -15.8305 -10.3164 -11.0537 30.0806 -0.7886 -0.6238
# 5 26.4630 0.9454 15.2704 -0.7886 39.5484 2.4235
# 6 31.0496 21.4926 17.3247 -0.6238 2.4235 26.7361
#
#
#
# Elastic Compliance Matrix: (Units=1/GPa)
#
#
# Indices 1 2 3 4 5 6 
#
# 1 0.022457 0.004285 -0.004091 0.010947 -0.011766 -0.025552
# 2 0.004285 0.026118 -0.000694 0.010397 -0.001475 -0.025146
# 3 -0.004091 -0.000694 0.011948 0.001909 -0.001684 -0.002236
# 4 0.010947 0.010397 0.001909 0.042680 -0.006188 -0.020751
# 5 -0.011766 -0.001475 -0.001684 -0.006188 0.032935 0.012811
# 6 -0.025552 -0.025146 -0.002236 -0.020751 0.012811 0.087095
#
#
# Mechanical properties :
#
#
# Convention : Reuss Voigt Hill
#
# Bulk Modulus (GPa) = 16.80020 50.13960 33.46990
# Shear Modulus (GPa) = 20.48543 31.76023 26.12283
#
# Velocity S-wave (km/s) = 2.92655 3.64397 3.30478
# Velocity P-wave (km/s) = 4.29459 6.21831 5.34373
#
# Compressibility (1/GPa) = 0.05952312
#
# Stress axis : x y z
#
# Youngs Moduli (GPa) = 44.52870 38.28771 83.69301
#
# Poissons Ratio (x) = -0.16406 0.34240
# Poissons Ratio (y) = -0.19080 0.05810
# Poissons Ratio (z) = 0.18217 0.02658
#
# Static dielectric constant tensor:
#      x y z
#    x 2.057860 -0.028370 -0.050880 
#    y -0.028370 1.971770 0.036310 
#    z -0.050880 0.036310 1.972470 
# 
# From -- ./inp_files/613742.got.cif
#   From: 2010.05.17/outbox.cif.g08.bks.cpg/sg2_307_cif.got.tgz:613742.got - 2010.06.03 11:33:40.
