data_PCOD9073817
_publ_section_title
;
Structure prediction by ZEFSAII (Michael W. Deem and Ramdas Pophale) SiO2 
 PCOD9073817
Probable space group: P -1
;
_chemical_formula_sum "Si O2"
_cell_formula_units_Z 16
_cell_length_a 11.932739
_cell_length_b 20.489908
_cell_length_c 11.090850
_cell_angle_alpha 69.449288
_cell_angle_beta 79.288422
_cell_angle_gamma 22.181848
_cell_volume 881.217403
_symmetry_space_group_name_H-M "P -1"
_symmetry_group_IT_number 2
_symmetry_cell_setting 'triclinic'
loop_
_space_group_symop_operation_xyz
x,y,z
-x,-y,-z
loop_
_atom_site_type_symbol
_atom_site_label
_atom_site_fract_x
_atom_site_fract_y
_atom_site_fract_z
Si Si1 0.721349 0.601058 0.968165
Si Si2 0.670739 0.552203 0.252830
Si Si3 0.787656 0.289023 0.631152
Si Si4 0.166035 0.285065 0.896869
Si Si5 0.726467 0.899612 0.181581
Si Si6 0.023852 0.471102 0.373530
Si Si7 0.319316 0.128042 0.333086
Si Si8 0.597615 0.117406 0.325422
O O1 0.448219 0.794719 0.818271
O O2 0.896065 0.443511 0.952353
O O3 0.603971 0.637073 0.093712
O O4 0.000000 0.500000 0.000000
O O5 0.369782 0.684821 0.282627
O O6 0.842688 0.503842 0.348493
O O7 0.939412 0.341881 0.292639
O O8 0.500000 0.500000 0.500000
O O9 0.004991 0.212257 0.725561
O O10 0.035698 0.117729 0.591930
O O11 0.127325 0.243235 0.840042
O O12 0.130554 0.377348 0.771067
O O13 0.507493 0.076374 0.029759
O O14 0.482809 0.003950 0.261341
O O15 0.397442 0.251322 0.397682
O O16 0.000000 0.500000 0.500000
O O17 0.397313 0.165865 0.282256
O O18 0.500000 0.000000 0.500000
#
# Coordination Sequence:
#
# PCOD9073817 Si02
#       8
#     2   2   2   2   2   2   2   2
#     4  11  16  37  61  87 113 144 205 257 290 346
#     4  11  21  35  62  87 113 157 201 245 297 350
#     4  11  24  40  57  87 128 161 195 237 301 369
#     4  10  20  37  63  87 117 152 195 260 296 338
#     4  10  21  38  60  84 120 156 198 240 308 349
#     4  10  22  36  63  92 116 148 209 255 294 344
#     4  10  18  31  57  84 109 150 205 247 279 341
#     4   9  20  36  57  81 117 154 195 246 296 341
#
# _framework density 18.156697999999999
#
# number of rings (size 3 to 8) (size 9 to 14) (size 15 to 20)
#    0.000    1.750    5.000    2.250    5.250    0.500 
#    0.000    1.250    0.000    0.000    0.000    0.000 
#    0.000    0.000    0.000    0.000    0.000    0.000 
#
# Total GULP energy -89222.980721 kJ/mol
# GULP energy per Si atom -5576.436295 kJ/mol
# Density = 1.811537 g / cm^3
# Si number density = 18.156698 Si / 1000 Ang^3
#
#
#
# Elastic Constant Matrix: (Units=GPa)
#
#
# Indices 1 2 3 4 5 6 
#
# 1 58.2688 44.4170 26.7650 4.4336 4.1638 7.0303
# 2 44.4170 126.7206 44.9340 4.7607 6.4886 15.3305
# 3 26.7650 44.9340 87.3728 4.3772 3.0956 10.3239
# 4 4.4336 4.7607 4.3772 38.3191 6.3773 1.7343
# 5 4.1638 6.4886 3.0956 6.3773 21.5612 1.7002
# 6 7.0303 15.3305 10.3239 1.7343 1.7002 29.2480
#
#
#
# Elastic Compliance Matrix: (Units=1/GPa)
#
#
# Indices 1 2 3 4 5 6 
#
# 1 0.024547 -0.007084 -0.003671 -0.001232 -0.001660 -0.000722
# 2 -0.007084 0.012135 -0.003634 0.000133 -0.001542 -0.003294
# 3 -0.003671 -0.003634 0.014753 -0.000715 0.000084 -0.002383
# 4 -0.001232 0.000133 -0.000715 0.027637 -0.007818 -0.000705
# 5 -0.001660 -0.001542 0.000084 -0.007818 0.049563 -0.001240
# 6 -0.000722 -0.003294 -0.002383 -0.000705 -0.001240 0.037045
#
#
# Mechanical properties :
#
#
# Convention : Reuss Voigt Hill
#
# Bulk Modulus (GPa) = 44.13289 56.06602 50.09946
# Shear Modulus (GPa) = 24.75122 28.24205 26.49663
#
# Velocity S-wave (km/s) = 3.69616 3.94821 3.82426
# Velocity P-wave (km/s) = 6.52494 7.19239 6.86678
#
# Compressibility (1/GPa) = 0.02265884
#
# Stress axis : x y z
#
# Youngs Moduli (GPa) = 40.73775 82.40452 67.78355
#
# Poissons Ratio (x) = 0.58374 0.24881
# Poissons Ratio (y) = 0.28858 0.24631
# Poissons Ratio (z) = 0.14953 0.29944
#
# Static dielectric constant tensor:
#      x y z
#    x 1.615550 0.027840 -0.022330 
#    y 0.027840 1.655930 -0.004200 
#    z -0.022330 -0.004200 1.653280 
# 
# From -- ./inp_files/266822.got.cif
#   From: 2010.05.17/outbox.cif.g08.bks.cpg/sg2_134_cif.got.tgz:266822.got - 2010.06.03 11:33:40.
