data_PCOD9073653
_publ_section_title
;
Structure prediction by ZEFSAII (Michael W. Deem and Ramdas Pophale) SiO2 
 PCOD9073653
Probable space group: P -1
;
_chemical_formula_sum "Si O2"
_cell_formula_units_Z 16
_cell_length_a 15.000000
_cell_length_b 6.000000
_cell_length_c 9.000000
_cell_angle_alpha 110.000000
_cell_angle_beta 90.000000
_cell_angle_gamma 80.000000
_cell_volume 748.042140
_symmetry_space_group_name_H-M "P -1"
_symmetry_group_IT_number 2
_symmetry_cell_setting 'triclinic'
loop_
_space_group_symop_operation_xyz
x,y,z
-x,-y,-z
loop_
_atom_site_type_symbol
_atom_site_label
_atom_site_fract_x
_atom_site_fract_y
_atom_site_fract_z
Si Si1 0.705352 0.671995 0.719803
Si Si2 0.629347 0.449222 0.235564
Si Si3 0.868025 0.592006 0.922318
Si Si4 0.805448 0.066928 0.236859
Si Si5 0.948046 0.262450 0.108381
Si Si6 0.440769 0.683538 0.358061
Si Si7 0.431017 0.880505 0.074560
Si Si8 0.703176 0.876820 0.433390
O O1 0.795360 0.566670 0.789090
O O2 0.631450 0.496618 0.689432
O O3 0.721117 0.745661 0.564808
O O4 0.658333 0.917694 0.856607
O O5 0.707849 0.233160 0.240813
O O6 0.541490 0.535042 0.361740
O O7 0.676533 0.680338 0.275757
O O8 0.591866 0.348234 0.064229
O O9 0.967388 0.595768 0.850018
O O10 0.884784 0.384442 0.000819
O O11 0.831936 0.839154 0.072568
O O12 0.883522 0.224859 0.238597
O O13 0.787919 0.973427 0.381602
O O14 0.000000 0.000000 0.000000
O O15 0.458992 0.797165 0.222561
O O16 0.385673 0.911873 0.499876
O O17 0.500000 0.000000 0.000000
#
# Coordination Sequence:
#
# PCOD9073653 Si02
#       8
#     2   2   2   2   2   2   2   2
#     4  11  24  44  63  96 135 175 217 273 333 387
#     4  12  24  40  66  92 131 179 227 270 320 384
#     4  10  21  41  72  99 131 163 217 276 332 394
#     4  11  23  39  68  97 129 172 225 271 323 393
#     4   9  21  40  67 105 129 161 212 274 337 393
#     4  11  26  41  61  92 140 179 222 274 325 382
#     4  11  24  40  63  97 128 170 230 282 323 379
#     4  11  27  42  60  94 139 185 222 262 326 392
#
# _framework density 21.389168999999999
#
# number of rings (size 3 to 8) (size 9 to 14) (size 15 to 20)
#    0.000    1.250    2.500    2.250    5.250    3.000 
#    0.000    0.625    0.000   12.750    0.000    0.000 
#    0.000    0.000    0.000    0.000    0.000    0.000 
#
# Total GULP energy -89415.180494 kJ/mol
# GULP energy per Si atom -5588.448781 kJ/mol
# Density = 2.134049 g / cm^3
# Si number density = 21.389169 Si / 1000 Ang^3
#
#
#
# Elastic Constant Matrix: (Units=GPa)
#
#
# Indices 1 2 3 4 5 6 
#
# 1 129.8704 47.0573 39.0777 -31.7399 -16.7812 3.0654
# 2 47.0573 110.9821 32.8012 -4.3319 -8.2138 -2.5215
# 3 39.0777 32.8012 73.9449 -2.4680 -20.0749 14.0891
# 4 -31.7399 -4.3319 -2.4680 40.7747 12.4840 -13.8400
# 5 -16.7812 -8.2138 -20.0749 12.4840 34.2451 -11.2433
# 6 3.0654 -2.5215 14.0891 -13.8400 -11.2433 46.9658
#
#
#
# Elastic Compliance Matrix: (Units=1/GPa)
#
#
# Indices 1 2 3 4 5 6 
#
# 1 0.013299 -0.003365 -0.006081 0.011148 -0.000635 0.003908
# 2 -0.003365 0.011521 -0.003718 -0.001023 -0.000163 0.001613
# 3 -0.006081 -0.003718 0.022142 -0.009205 0.010264 -0.006700
# 4 0.011148 -0.001023 -0.009205 0.039652 -0.011013 0.011027
# 5 -0.000635 -0.000163 0.010264 -0.011013 0.039958 0.003274
# 6 0.003908 0.001613 -0.006700 0.011027 0.003274 0.027167
#
#
# Mechanical properties :
#
#
# Convention : Reuss Voigt Hill
#
# Bulk Modulus (GPa) = 48.46054 61.40776 54.93415
# Shear Modulus (GPa) = 26.74607 37.45454 32.10031
#
# Velocity S-wave (km/s) = 3.54001 4.18915 3.87819
# Velocity P-wave (km/s) = 6.27811 7.22293 6.76703
#
# Compressibility (1/GPa) = 0.02063534
#
# Stress axis : x y z
#
# Youngs Moduli (GPa) = 75.19373 86.80029 45.16240
#
# Poissons Ratio (x) = 0.29207 0.27462
# Poissons Ratio (y) = 0.25301 0.16791
# Poissons Ratio (z) = 0.45723 0.32271
#
# Static dielectric constant tensor:
#      x y z
#    x 1.780880 0.006480 -0.001850 
#    y 0.006480 1.840210 -0.016500 
#    z -0.001850 -0.016500 1.784720 
# 
# From -- ./inp_files/89801.got.cif
#   From: 2010.05.17/outbox.ucp.g08.bks.cvg/sg2_45_cif.got.tgz:89801.got - 2010.06.11 11:32:03.
