data_PCOD9073873
_publ_section_title
;
Structure prediction by ZEFSAII (Michael W. Deem and Ramdas Pophale) SiO2 
 PCOD9073873
Probable space group: P -1
;
_chemical_formula_sum "Si O2"
_cell_formula_units_Z 14
_cell_length_a 21.559845
_cell_length_b 9.783049
_cell_length_c 9.470919
_cell_angle_alpha 133.599768
_cell_angle_beta 151.223175
_cell_angle_gamma 38.612056
_cell_volume 600.038034
_symmetry_space_group_name_H-M "P -1"
_symmetry_group_IT_number 2
_symmetry_cell_setting 'triclinic'
loop_
_space_group_symop_operation_xyz
x,y,z
-x,-y,-z
loop_
_atom_site_type_symbol
_atom_site_label
_atom_site_fract_x
_atom_site_fract_y
_atom_site_fract_z
Si Si1 0.899563 0.333665 0.638562
Si Si2 0.460278 0.600273 0.837116
Si Si3 0.176496 0.020998 0.660221
Si Si4 0.773431 0.787047 0.824255
Si Si5 0.398459 0.772759 0.355566
Si Si6 0.858477 0.354648 0.242191
Si Si7 0.584333 0.745970 0.967252
O O1 0.867884 0.136895 0.455361
O O2 0.790557 0.550222 0.665831
O O3 0.891840 0.378488 0.488834
O O4 0.070285 0.253533 0.960233
O O5 0.311323 0.837375 0.706074
O O6 0.481380 0.405681 0.639535
O O7 0.582438 0.647665 0.045709
O O8 0.500000 0.500000 0.000000
O O9 0.024861 0.196011 0.402856
O O10 0.230520 0.133292 0.965240
O O11 0.647072 0.990019 0.628770
O O12 0.477145 0.721871 0.626241
O O13 0.250508 0.748794 0.053460
O O14 0.754078 0.599764 0.148239
O O15 0.500000 0.000000 0.000000
#
# Coordination Sequence:
#
# PCOD9073873 Si02
#       7
#     2   2   2   2   2   2   2
#     4  10  18  31  58  93 123 159 212 256 310 366
#     4  11  22  40  66  95 126 165 211 262 322 367
#     4  11  19  37  59  93 129 157 206 274 316 353
#     4  10  18  32  59  91 122 166 209 255 302 384
#     4  11  20  40  63  86 124 174 212 246 315 395
#     4  10  18  36  62  84 119 171 211 248 310 382
#     4  11  25  44  63  90 127 173 217 255 312 394
#
# _framework density 23.331854
#
# number of rings (size 3 to 8) (size 9 to 14) (size 15 to 20)
#    0.000    1.429    4.286    4.286    0.000    0.000 
#    2.571    5.000    0.000    0.000    0.000    0.000 
#    0.000    0.000    0.000    0.000    0.000    0.000 
#
# Total GULP energy -78135.401336 kJ/mol
# GULP energy per Si atom -5581.100095 kJ/mol
# Density = 2.327875 g / cm^3
# Si number density = 23.331854 Si / 1000 Ang^3
#
#
#
# Elastic Constant Matrix: (Units=GPa)
#
#
# Indices 1 2 3 4 5 6 
#
# 1 41.9018 10.5343 14.1539 -3.7753 -8.0471 -14.5344
# 2 10.5343 202.4905 48.7304 -14.4774 -2.7925 -22.2059
# 3 14.1539 48.7304 91.7681 -1.9446 -8.9958 -8.4556
# 4 -3.7753 -14.4774 -1.9446 51.4809 -9.0380 5.7183
# 5 -8.0471 -2.7925 -8.9958 -9.0380 17.2038 -8.1598
# 6 -14.5344 -22.2059 -8.4556 5.7183 -8.1598 35.8179
#
#
#
# Elastic Compliance Matrix: (Units=1/GPa)
#
#
# Indices 1 2 3 4 5 6 
#
# 1 0.038272 0.001711 -0.001558 0.006231 0.031236 0.022344
# 2 0.001711 0.006173 -0.002769 0.001871 0.003397 0.004342
# 3 -0.001558 -0.002769 0.013574 0.000651 0.007419 0.002442
# 4 0.006231 0.001871 0.000651 0.023068 0.017661 0.004182
# 5 0.031236 0.003397 0.007419 0.017661 0.104210 0.037453
# 6 0.022344 0.004342 0.002442 0.004182 0.037453 0.048119
#
#
# Mechanical properties :
#
#
# Convention : Reuss Voigt Hill
#
# Bulk Modulus (GPa) = 18.94470 53.66640 36.30555
# Shear Modulus (GPa) = 19.51254 38.41663 28.96459
#
# Velocity S-wave (km/s) = 2.89503 4.06215 3.52720
# Velocity P-wave (km/s) = 4.39457 6.71213 5.67296
#
# Compressibility (1/GPa) = 0.05278522
#
# Stress axis : x y z
#
# Youngs Moduli (GPa) = 26.12854 162.00453 73.67123
#
# Poissons Ratio (x) = -0.27712 0.11481
# Poissons Ratio (y) = -0.04470 0.20399
# Poissons Ratio (z) = 0.04072 0.44857
#
# Static dielectric constant tensor:
#      x y z
#    x 1.912560 -0.004360 0.074280 
#    y -0.004360 1.975300 0.005520 
#    z 0.074280 0.005520 1.881430 
# 
# From -- ./inp_files/260459.got.cif
#   From: 2010.05.17/outbox.cif.g08.bks.cpg/sg2_131_cif.got.tgz:260459.got - 2010.06.03 11:33:40.
