data_PCOD9073589
_publ_section_title
;
Structure prediction by ZEFSAII (Michael W. Deem and Ramdas Pophale) SiO2 
 PCOD9073589
Probable space group: P -1
;
_chemical_formula_sum "Si O2"
_cell_formula_units_Z 16
_cell_length_a 21.000000
_cell_length_b 12.000000
_cell_length_c 12.000000
_cell_angle_alpha 40.000000
_cell_angle_beta 150.000000
_cell_angle_gamma 150.000000
_cell_volume 754.441492
_symmetry_space_group_name_H-M "P -1"
_symmetry_group_IT_number 2
_symmetry_cell_setting 'triclinic'
loop_
_space_group_symop_operation_xyz
x,y,z
-x,-y,-z
loop_
_atom_site_type_symbol
_atom_site_label
_atom_site_fract_x
_atom_site_fract_y
_atom_site_fract_z
Si Si1 0.808366 0.479244 0.531830
Si Si2 0.470392 0.270968 0.124684
Si Si3 0.919657 0.169060 0.479223
Si Si4 0.554435 0.341693 0.863328
Si Si5 0.134813 0.177815 0.980801
Si Si6 0.273379 0.242149 0.661244
Si Si7 0.312914 0.990285 0.320084
Si Si8 0.621414 0.019587 0.305967
O O1 0.654008 0.369935 0.296434
O O2 0.783847 0.621503 0.474155
O O3 0.779050 0.252616 0.689744
O O4 0.981224 0.633545 0.611972
O O5 0.439096 0.155686 0.285873
O O6 0.500000 0.500000 0.000000
O O7 0.319897 0.143713 0.906646
O O8 0.782152 0.134665 0.379318
O O9 0.053590 0.219478 0.729773
O O10 0.852551 0.952831 0.467112
O O11 0.437903 0.374336 0.732044
O O12 0.492502 0.226978 0.735200
O O13 0.726610 0.586868 0.931489
O O14 0.559244 0.161186 0.075572
O O15 0.205142 0.067848 0.113404
O O16 0.000000 0.000000 0.000000
O O17 0.363269 0.996591 0.523650
#
# Coordination Sequence:
#
# PCOD9073589 Si02
#       8
#     2   2   2   2   2   2   2   2
#     4  11  23  39  69  97 130 175 217 277 319 393
#     4  10  21  41  64  89 125 174 217 265 320 385
#     4  11  23  43  68  95 136 172 219 270 339 397
#     4  10  23  44  71  94 136 171 221 271 334 400
#     4  12  24  40  60  97 135 173 211 265 335 395
#     4  10  21  44  68  94 126 183 222 264 333 390
#     4  12  24  40  66 101 132 170 230 268 327 394
#     4  10  23  44  70 103 127 174 218 278 332 392
#
# _framework density 21.207740999999999
#
# number of rings (size 3 to 8) (size 9 to 14) (size 15 to 20)
#    0.000    1.250    1.250    6.000    1.750    1.500 
#    4.500    2.500    0.000    0.000    0.000    0.000 
#    0.000    0.000    0.000    0.000    0.000    0.000 
#
# Total GULP energy -89076.875288 kJ/mol
# GULP energy per Si atom -5567.304705 kJ/mol
# Density = 2.115947 g / cm^3
# Si number density = 21.207741 Si / 1000 Ang^3
#
#
#
# Elastic Constant Matrix: (Units=GPa)
#
#
# Indices 1 2 3 4 5 6 
#
# 1 107.8211 55.5797 16.2406 10.3189 -21.7477 -8.8996
# 2 55.5797 135.2701 18.8039 3.9804 0.8690 11.4572
# 3 16.2406 18.8039 13.3547 0.6983 10.0220 0.4883
# 4 10.3189 3.9804 0.6983 25.0061 -0.6471 5.0439
# 5 -21.7477 0.8690 10.0220 -0.6471 29.8618 -10.9246
# 6 -8.8996 11.4572 0.4883 5.0439 -10.9246 35.4816
#
#
#
# Elastic Compliance Matrix: (Units=1/GPa)
#
#
# Indices 1 2 3 4 5 6 
#
# 1 0.213228 -0.032818 -0.519842 -0.100179 0.405483 0.210321
# 2 -0.032818 0.015025 0.062120 0.014721 -0.057172 -0.033634
# 3 -0.519842 0.062120 1.405386 0.244257 -1.038574 -0.524284
# 4 -0.100179 0.014721 0.244257 0.088352 -0.191809 -0.104859
# 5 0.405483 -0.057172 -1.038574 -0.191809 0.827201 0.416417
# 6 0.210321 -0.033634 -0.524284 -0.104859 0.416417 0.242132
#
#
# Mechanical properties :
#
#
# Convention : Reuss Voigt Hill
#
# Bulk Modulus (GPa) = 1.53243 48.63272 25.08257
# Shear Modulus (GPa) = 1.25316 29.12468 15.18892
#
# Velocity S-wave (km/s) = 0.76953 3.70983 2.67909
# Velocity P-wave (km/s) = 1.23033 6.42898 4.62848
#
# Compressibility (1/GPa) = 0.65255736
#
# Stress axis : x y z
#
# Youngs Moduli (GPa) = 4.68982 66.55763 0.71155
#
# Poissons Ratio (x) = 2.18432 0.36989
# Poissons Ratio (y) = 0.15391 -0.04420
# Poissons Ratio (z) = 2.43797 -4.13456
#
# Static dielectric constant tensor:
#      x y z
#    x 1.829540 0.064820 -0.004540 
#    y 0.064820 1.811580 0.027140 
#    z -0.004540 0.027140 1.850170 
# 
# From -- ./inp_files/471151.got.cif
#   From: 2010.05.17/outbox.ucp.g08.bks.cvg/sg2_236_cif.got.tgz:471151.got - 2010.06.11 11:32:03.
