data_PCOD9073874
_publ_section_title
;
Structure prediction by ZEFSAII (Michael W. Deem and Ramdas Pophale) SiO2 
 PCOD9073874
Probable space group: P -1
;
_chemical_formula_sum "Si O2"
_cell_formula_units_Z 16
_cell_length_a 5.559979
_cell_length_b 24.200213
_cell_length_c 8.386115
_cell_angle_alpha 142.040733
_cell_angle_beta 58.399937
_cell_angle_gamma 117.795863
_cell_volume 588.098584
_symmetry_space_group_name_H-M "P -1"
_symmetry_group_IT_number 2
_symmetry_cell_setting 'triclinic'
loop_
_space_group_symop_operation_xyz
x,y,z
-x,-y,-z
loop_
_atom_site_type_symbol
_atom_site_label
_atom_site_fract_x
_atom_site_fract_y
_atom_site_fract_z
Si Si1 0.946063 0.878571 0.790990
Si Si2 0.759177 0.823223 0.297098
Si Si3 0.328141 0.914121 0.441281
Si Si4 0.581659 0.635022 0.821627
Si Si5 0.124205 0.643933 0.457107
Si Si6 0.013761 0.668827 0.195069
Si Si7 0.378896 0.845585 0.796415
Si Si8 0.266440 0.487179 0.263661
O O1 0.132696 0.928742 0.700026
O O2 0.112105 0.893132 0.932995
O O3 0.614211 0.890016 0.934544
O O4 0.950079 0.770529 0.493656
O O5 0.574862 0.855563 0.288101
O O6 0.569499 0.841203 0.558868
O O7 0.079582 0.868566 0.307218
O O8 0.753708 0.715730 0.046121
O O9 0.500000 0.000000 0.500000
O O10 0.277228 0.669975 0.983566
O O11 0.531945 0.546136 0.745767
O O12 0.793415 0.629971 0.590947
O O13 0.259633 0.746276 0.667762
O O14 0.287304 0.576492 0.353522
O O15 0.117195 0.631184 0.241445
O O16 0.787383 0.595757 0.029537
O O17 0.000000 0.500000 0.500000
#
# Coordination Sequence:
#
# PCOD9073874 Si02
#       8
#     2   2   2   2   2   2   2   2
#     4   9  18  33  59  80 117 153 195 243 298 351
#     4  10  19  36  57  85 124 160 196 252 304 357
#     4  10  18  31  58  94 122 153 200 244 300 373
#     4  11  22  40  61  82 124 159 203 264 306 364
#     4  10  22  39  57  91 110 163 217 248 320 360
#     4  11  21  41  60  80 121 160 204 258 311 369
#     4   9  17  36  54  81 111 152 199 241 292 360
#     4  10  23  39  56  87 118 159 208 266 315 354
#
# _framework density 27.206320999999999
#
# number of rings (size 3 to 8) (size 9 to 14) (size 15 to 20)
#    0.000    2.000    3.750    2.250    0.000    2.500 
#   13.500    0.000    0.000    0.000    0.000   33.250 
#    0.000    0.000    0.000    0.000    0.000    0.000 
#
# Total GULP energy -89558.640395 kJ/mol
# GULP energy per Si atom -5597.415025 kJ/mol
# Density = 2.714440 g / cm^3
# Si number density = 27.206321 Si / 1000 Ang^3
#
#
#
# Elastic Constant Matrix: (Units=GPa)
#
#
# Indices 1 2 3 4 5 6 
#
# 1 197.0605 74.1491 28.2589 3.8683 13.5961 4.3694
# 2 74.1491 184.2659 25.1218 8.2220 8.0950 -1.2771
# 3 28.2589 25.1218 82.0027 -15.5491 0.7951 13.1368
# 4 3.8683 8.2220 -15.5491 35.1299 18.7426 -12.1512
# 5 13.5961 8.0950 0.7951 18.7426 27.3435 1.0024
# 6 4.3694 -1.2771 13.1368 -12.1512 1.0024 50.5238
#
#
#
# Elastic Compliance Matrix: (Units=1/GPa)
#
#
# Indices 1 2 3 4 5 6 
#
# 1 0.006304 -0.002269 -0.001279 0.000893 -0.003038 0.000005
# 2 -0.002269 0.006655 -0.001776 -0.002520 0.000929 0.000202
# 3 -0.001279 -0.001776 0.015399 0.010245 -0.006258 -0.001350
# 4 0.000893 -0.002520 0.010245 0.059966 -0.041556 0.012442
# 5 -0.003038 0.000929 -0.006258 -0.041556 0.066819 -0.009407
# 6 0.000005 0.000202 -0.001350 0.012442 -0.009407 0.023327
#
#
# Mechanical properties :
#
#
# Convention : Reuss Voigt Hill
#
# Bulk Modulus (GPa) = 56.46603 79.82097 68.14350
# Shear Modulus (GPa) = 25.63819 44.98606 35.31212
#
# Velocity S-wave (km/s) = 3.07312 4.07076 3.60660
# Velocity P-wave (km/s) = 5.77857 7.17618 6.51496
#
# Compressibility (1/GPa) = 0.01770976
#
# Stress axis : x y z
#
# Youngs Moduli (GPa) = 158.63985 150.26376 64.93828
#
# Poissons Ratio (x) = 0.34088 0.08308
# Poissons Ratio (y) = 0.35988 0.11534
# Poissons Ratio (z) = 0.20295 0.26689
#
# Static dielectric constant tensor:
#      x y z
#    x 2.199570 -0.044070 -0.032690 
#    y -0.044070 2.105560 0.046290 
#    z -0.032690 0.046290 2.164510 
# 
# From -- ./inp_files/142345.got.cif
#   From: 2010.05.17/outbox.cif.g08.bks.cpg/sg2_72_cif.got.tgz:142345.got - 2010.06.03 11:33:40.
