data_PCOD9073538
_publ_section_title
;
Structure prediction by ZEFSAII (Michael W. Deem and Ramdas Pophale) SiO2 
 PCOD9073538
Probable space group: P -1
;
_chemical_formula_sum "Si O2"
_cell_formula_units_Z 16
_cell_length_a 7.519287
_cell_length_b 15.396924
_cell_length_c 7.711383
_cell_angle_alpha 90.708314
_cell_angle_beta 128.565694
_cell_angle_gamma 64.792096
_cell_volume 589.756981
_symmetry_space_group_name_H-M "P -1"
_symmetry_group_IT_number 2
_symmetry_cell_setting 'triclinic'
loop_
_space_group_symop_operation_xyz
x,y,z
-x,-y,-z
loop_
_atom_site_type_symbol
_atom_site_label
_atom_site_fract_x
_atom_site_fract_y
_atom_site_fract_z
Si Si1 0.393326 0.349175 0.842964
Si Si2 0.003328 0.941014 0.174931
Si Si3 0.909044 0.166519 0.468966
Si Si4 0.546868 0.858295 0.131041
Si Si5 0.301745 0.120242 0.420010
Si Si6 0.633865 0.384692 0.440835
Si Si7 0.904777 0.265044 0.942026
Si Si8 0.850286 0.521201 0.615791
O O1 0.437509 0.241814 0.931924
O O2 0.682886 0.325587 0.958705
O O3 0.234144 0.383226 0.559999
O O4 0.170182 0.444319 0.824140
O O5 0.169056 0.898672 0.458263
O O6 0.093068 0.832811 0.134587
O O7 0.708848 0.032744 0.068767
O O8 0.000000 0.000000 0.000000
O O9 0.173924 0.149714 0.734084
O O10 0.040650 0.129781 0.358342
O O11 0.710610 0.288914 0.363453
O O12 0.560525 0.851238 0.348061
O O13 0.500000 0.000000 0.500000
O O14 0.195828 0.203910 0.206845
O O15 0.813624 0.340249 0.726229
O O16 0.724053 0.461387 0.438747
O O17 0.328294 0.438175 0.319900
#
# Coordination Sequence:
#
# PCOD9073538 Si02
#       8
#     2   2   2   2   2   2   2   2
#     4  10  18  31  55  83 104 135 176 232 267 311
#     4  11  19  32  55  80 109 138 185 222 258 315
#     4   9  20  33  54  79 106 146 178 215 263 324
#     4  10  19  32  54  77 109 142 177 215 266 316
#     4  10  20  35  54  77 115 149 177 212 261 326
#     4   9  17  32  57  81 102 138 180 228 261 322
#     4  10  19  33  54  79 109 142 177 216 271 315
#     4   9  17  31  54  81 104 125 186 234 270 296
#
# _framework density 27.129818
#
# number of rings (size 3 to 8) (size 9 to 14) (size 15 to 20)
#    0.750    1.500    3.750    0.375    0.000    0.000 
#    0.000    0.625    2.750   28.500    0.000    0.000 
#    0.000    0.000    0.000    0.000    0.000    0.000 
#
# Total GULP energy -89214.565676 kJ/mol
# GULP energy per Si atom -5575.910355 kJ/mol
# Density = 2.706807 g / cm^3
# Si number density = 27.129818 Si / 1000 Ang^3
#
#
#
# Elastic Constant Matrix: (Units=GPa)
#
#
# Indices 1 2 3 4 5 6 
#
# 1 96.5166 37.6326 13.8387 -12.0041 10.1837 -36.3581
# 2 37.6326 125.6164 41.2957 -31.3213 1.2940 -31.8550
# 3 13.8387 41.2957 93.0109 -15.2726 1.0347 -12.5198
# 4 -12.0041 -31.3213 -15.2726 53.2987 -9.8719 3.9331
# 5 10.1837 1.2940 1.0347 -9.8719 45.8362 -13.4148
# 6 -36.3581 -31.8550 -12.5198 3.9331 -13.4148 48.7053
#
#
#
# Elastic Compliance Matrix: (Units=1/GPa)
#
#
# Indices 1 2 3 4 5 6 
#
# 1 0.014942 -0.001517 0.000094 0.001767 0.000044 0.010055
# 2 -0.001517 0.012846 -0.003566 0.006315 0.003399 0.006779
# 3 0.000094 -0.003566 0.012708 0.001572 0.000422 0.000993
# 4 0.001767 0.006315 0.001572 0.024059 0.006221 0.005624
# 5 0.000044 0.003399 0.000422 0.006221 0.025654 0.008928
# 6 0.010055 0.006779 0.000993 0.005624 0.008928 0.034732
#
#
# Mechanical properties :
#
#
# Convention : Reuss Voigt Hill
#
# Bulk Modulus (GPa) = 32.76910 55.63087 44.19998
# Shear Modulus (GPa) = 34.46065 44.39316 39.42691
#
# Velocity S-wave (km/s) = 3.56787 4.04954 3.81631
# Velocity P-wave (km/s) = 5.39238 6.51268 5.97883
#
# Compressibility (1/GPa) = 0.03051656
#
# Stress axis : x y z
#
# Youngs Moduli (GPa) = 66.92540 77.84378 78.69077
#
# Poissons Ratio (x) = 0.11810 -0.00736
# Poissons Ratio (y) = 0.10153 0.28063
# Poissons Ratio (z) = -0.00626 0.27761
#
# Static dielectric constant tensor:
#      x y z
#    x 2.318810 0.019050 0.034350 
#    y 0.019050 2.089220 0.066510 
#    z 0.034350 0.066510 2.179700 
# 
# From -- ./inp_files/220730.got.cif
#   From: 2010.05.17/outbox.cif.g08.bks.cpg/sg2_111_cif.got.tgz:220730.got - 2010.06.03 11:33:40.
