data_PCOD9073050
_publ_section_title
;
Structure prediction by ZEFSAII (Michael W. Deem and Ramdas Pophale) SiO2 
 PCOD9073050
Probable space group: P -1
;
_chemical_formula_sum "Si O2"
_cell_formula_units_Z 16
_cell_length_a 15.000000
_cell_length_b 9.000000
_cell_length_c 12.000000
_cell_angle_alpha 50.000000
_cell_angle_beta 70.000000
_cell_angle_gamma 110.000000
_cell_volume 728.972637
_symmetry_space_group_name_H-M "P -1"
_symmetry_group_IT_number 2
_symmetry_cell_setting 'triclinic'
loop_
_space_group_symop_operation_xyz
x,y,z
-x,-y,-z
loop_
_atom_site_type_symbol
_atom_site_label
_atom_site_fract_x
_atom_site_fract_y
_atom_site_fract_z
Si Si1 0.325568 0.894433 0.251296
Si Si2 0.189703 0.132985 0.943323
Si Si3 0.130245 0.413527 0.731892
Si Si4 0.355942 0.698240 0.998930
Si Si5 0.925088 0.179885 0.146966
Si Si6 0.648066 0.870606 0.270933
Si Si7 0.894795 0.724124 0.508892
Si Si8 0.751073 0.786269 0.886278
O O1 0.254204 0.759770 0.471233
O O2 0.217522 0.585247 0.371775
O O3 0.308936 0.092092 0.135399
O O4 0.498099 0.098615 0.082703
O O5 0.208384 0.328412 0.748357
O O6 0.256102 0.035291 0.925093
O O7 0.261101 0.323442 0.932778
O O8 0.009733 0.818975 0.182270
O O9 0.039994 0.305167 0.936800
O O10 0.197418 0.434441 0.259926
O O11 0.344056 0.497270 0.018675
O O12 0.374683 0.935656 0.815239
O O13 0.758227 0.973253 0.272828
O O14 0.910239 0.970771 0.336170
O O15 0.000000 0.500000 0.000000
O O16 0.500000 0.500000 0.500000
O O17 0.067155 0.922074 0.356151
#
# Coordination Sequence:
#
# PCOD9073050 Si02
#       8
#     2   2   2   2   2   2   2   2
#     4  12  25  44  69  98 136 185 226 273 335 405
#     4  10  20  41  68  95 127 173 226 275 320 404
#     4  10  20  40  69  94 131 170 228 272 325 400
#     4  12  28  45  64 104 144 175 220 287 342 395
#     4  11  24  41  70 103 132 171 227 286 338 389
#     4  11  24  44  69  97 134 179 223 271 342 408
#     4  12  24  45  72  98 135 179 233 275 332 409
#     4  12  25  43  68 102 135 178 228 277 340 393
#
# _framework density 21.948698
#
# number of rings (size 3 to 8) (size 9 to 14) (size 15 to 20)
#    0.000    0.750    2.500    6.000    5.250    1.000 
#    2.250    1.250    0.000    0.000    0.000    0.000 
#    0.000    0.000    0.000    0.000    0.000    0.000 
#
# Total GULP energy -89305.637366 kJ/mol
# GULP energy per Si atom -5581.602335 kJ/mol
# Density = 2.189874 g / cm^3
# Si number density = 21.948698 Si / 1000 Ang^3
#
#
#
# Elastic Constant Matrix: (Units=GPa)
#
#
# Indices 1 2 3 4 5 6 
#
# 1 97.8828 -3.8498 9.2216 -17.3191 0.6127 -14.8731
# 2 -3.8498 66.8332 -8.5610 -28.2728 8.6545 -13.4192
# 3 9.2216 -8.5610 39.0594 -13.6289 12.7545 -0.1213
# 4 -17.3191 -28.2728 -13.6289 30.8033 1.1821 3.7967
# 5 0.6127 8.6545 12.7545 1.1821 28.2448 -10.4695
# 6 -14.8731 -13.4192 -0.1213 3.7967 -10.4695 24.9200
#
#
#
# Elastic Compliance Matrix: (Units=1/GPa)
#
#
# Indices 1 2 3 4 5 6 
#
# 1 0.019569 0.029133 0.024043 0.047452 -0.017395 0.012946
# 2 0.029133 0.120664 0.109863 0.176729 -0.087489 0.019216
# 3 0.024043 0.109863 0.141045 0.180414 -0.104366 0.002862
# 4 0.047452 0.176729 0.180414 0.304433 -0.142709 0.018028
# 5 -0.017395 -0.087489 -0.104366 -0.142709 0.121111 0.014622
# 6 0.012946 0.019216 0.002862 0.018028 0.014622 0.061614
#
#
# Mechanical properties :
#
#
# Convention : Reuss Voigt Hill
#
# Bulk Modulus (GPa) = 1.64648 21.93300 11.78974
# Shear Modulus (GPa) = 7.75422 30.59126 19.17274
#
# Velocity S-wave (km/s) = 1.88164 3.73736 2.95875
# Velocity P-wave (km/s) = 2.33934 5.35148 4.12982
#
# Compressibility (1/GPa) = 0.60735648
#
# Stress axis : x y z
#
# Youngs Moduli (GPa) = 51.10099 8.28746 7.08993
#
# Poissons Ratio (x) = -0.24144 -0.17046
# Poissons Ratio (y) = -1.48873 -0.77892
# Poissons Ratio (z) = -1.22862 -0.91049
#
# Static dielectric constant tensor:
#      x y z
#    x 1.833150 -0.032890 -0.024040 
#    y -0.032890 1.923130 0.097710 
#    z -0.024040 0.097710 1.859360 
# 
# From -- ./inp_files/184286.got.cif
#   From: 2010.05.17/outbox.ucp.g08.bks.cvg/sg2_93_cif.got.tgz:184286.got - 2010.06.11 11:32:03.
