data_PCOD9073698
_publ_section_title
;
Structure prediction by ZEFSAII (Michael W. Deem and Ramdas Pophale) SiO2 
 PCOD9073698
Probable space group: P -1
;
_chemical_formula_sum "Si O2"
_cell_formula_units_Z 13
_cell_length_a 9.000000
_cell_length_b 9.000000
_cell_length_c 15.000000
_cell_angle_alpha 130.000000
_cell_angle_beta 140.000000
_cell_angle_gamma 50.000000
_cell_volume 569.686422
_symmetry_space_group_name_H-M "P -1"
_symmetry_group_IT_number 2
_symmetry_cell_setting 'triclinic'
loop_
_space_group_symop_operation_xyz
x,y,z
-x,-y,-z
loop_
_atom_site_type_symbol
_atom_site_label
_atom_site_fract_x
_atom_site_fract_y
_atom_site_fract_z
Si Si1 0.383416 0.600765 0.619058
Si Si2 0.357492 0.481846 0.115358
Si Si3 0.434688 0.195110 0.383134
Si Si4 0.932481 0.115660 0.106635
Si Si5 0.925944 0.823855 0.144841
Si Si6 0.071354 0.074756 0.467535
Si Si7 0.500000 0.500000 0.000000
O O1 0.449816 0.613256 0.756653
O O2 0.462387 0.375081 0.528695
O O3 0.509055 0.731095 0.662070
O O4 0.092254 0.693333 0.518682
O O5 0.422943 0.588796 0.101193
O O6 0.154184 0.647243 0.142555
O O7 0.257102 0.301883 0.961974
O O8 0.175018 0.167305 0.266178
O O9 0.640651 0.987957 0.423886
O O10 0.722456 0.322302 0.076061
O O11 0.847896 0.978701 0.086740
O O12 0.000000 0.000000 0.000000
O O13 0.989059 0.946719 0.303440
O O14 0.000000 0.000000 0.500000
#
# Coordination Sequence:
#
# PCOD9073698 Si02
#       7
#     2   2   2   2   2   2   1
#     4  10  21  42  69 104 137 186 229 283 350 413
#     4  11  24  46  74 102 140 187 233 292 343 415
#     4  10  23  41  69 100 143 177 231 290 345 413
#     4  12  26  46  68 105 140 183 233 294 347 410
#     4  11  24  46  74 101 142 188 233 282 356 412
#     4  10  22  42  68 104 133 183 232 279 346 413
#     4  12  28  44  70 108 136 178 238 286 348 408
#
# _framework density 22.819571
#
# number of rings (size 3 to 8) (size 9 to 14) (size 15 to 20)
#    0.000    1.231    3.077    1.846    2.154    6.769 
#    0.000    1.538    0.000    0.000    0.000    0.000 
#    0.000    0.000    0.000    0.000    0.000    0.000 
#
# Total GULP energy -72405.617922 kJ/mol
# GULP energy per Si atom -5569.662917 kJ/mol
# Density = 2.276763 g / cm^3
# Si number density = 22.819571 Si / 1000 Ang^3
#
#
#
# Elastic Constant Matrix: (Units=GPa)
#
#
# Indices 1 2 3 4 5 6 
#
# 1 25.0067 12.1131 10.0464 -0.5312 -31.0670 -21.5198
# 2 12.1131 88.8855 7.2739 -38.4160 22.8772 -29.8392
# 3 10.0464 7.2739 35.8171 -4.9896 -21.5124 6.3987
# 4 -0.5312 -38.4160 -4.9896 29.8008 -3.7923 -0.9496
# 5 -31.0670 22.8772 -21.5124 -3.7923 34.0176 -24.1512
# 6 -21.5198 -29.8392 6.3987 -0.9496 -24.1512 -3.2958
#
#
#
# Elastic Compliance Matrix: (Units=1/GPa)
#
#
# Indices 1 2 3 4 5 6 
#
# 1 -0.027248 0.057514 -0.037856 0.060157 -0.062661 0.025545
# 2 0.057514 -0.084791 0.048824 -0.092215 0.079759 -0.070968
# 3 -0.037856 0.048824 0.013887 0.061817 -0.029598 0.031179
# 4 0.060157 -0.092215 0.061817 -0.065000 0.090475 -0.082153
# 5 -0.062661 0.079759 -0.029598 0.090475 -0.059912 0.042521
# 6 0.025545 -0.070968 0.031179 -0.082153 0.042521 -0.055065
#
#
# Mechanical properties :
#
#
# Convention : Reuss Voigt Hill
#
# Bulk Modulus (GPa) = 25.76485 23.17511 24.46998
# Shear Modulus (GPa) = -12.43298 20.12290 3.84496
#
# Velocity S-wave (km/s) = -2.33671 2.97278 1.29946
# Velocity P-wave (km/s) = 2.00871 4.68626 3.60527
#
# Compressibility (1/GPa) = 0.03881256
#
# Stress axis : x y z
#
# Youngs Moduli (GPa) = -36.69975 -11.79376 72.01233
#
# Poissons Ratio (x) = 0.67831 2.72610
# Poissons Ratio (y) = 2.11075 -3.51595
# Poissons Ratio (z) = -1.38930 0.57582
#
# Static dielectric constant tensor:
#      x y z
#    x 1.536170 -0.200390 0.123180 
#    y -0.200390 1.780830 -0.015300 
#    z 0.123180 -0.015300 1.846320 
# 
# From -- ./inp_files/156492.got.cif
#   From: 2010.05.17/outbox.ucp.g08.bks.cvg/sg2_79_cif.got.tgz:156492.got - 2010.06.11 11:32:03.
