data_PCOD9073952
_publ_section_title
;
Structure prediction by ZEFSAII (Michael W. Deem and Ramdas Pophale) SiO2 
 PCOD9073952
Probable space group: P -1
;
_chemical_formula_sum "Si O2"
_cell_formula_units_Z 16
_cell_length_a 12.000000
_cell_length_b 9.000000
_cell_length_c 18.000000
_cell_angle_alpha 100.000000
_cell_angle_beta 130.000000
_cell_angle_gamma 40.000000
_cell_volume 729.599496
_symmetry_space_group_name_H-M "P -1"
_symmetry_group_IT_number 2
_symmetry_cell_setting 'triclinic'
loop_
_space_group_symop_operation_xyz
x,y,z
-x,-y,-z
loop_
_atom_site_type_symbol
_atom_site_label
_atom_site_fract_x
_atom_site_fract_y
_atom_site_fract_z
Si Si1 0.672976 0.692250 0.560952
Si Si2 0.746889 0.324281 0.287197
Si Si3 0.594438 0.311943 0.454798
Si Si4 0.181805 0.654658 0.852488
Si Si5 0.138877 0.415800 0.973633
Si Si6 0.228609 0.269308 0.843618
Si Si7 0.480596 0.678232 0.342854
Si Si8 0.790542 0.309986 0.974493
O O1 0.527417 0.737297 0.572953
O O2 0.675153 0.585854 0.479735
O O3 0.996933 0.447216 0.697529
O O4 0.500000 0.000000 0.500000
O O5 0.801496 0.322867 0.225398
O O6 0.600789 0.575986 0.302283
O O7 0.500349 0.420048 0.176362
O O8 0.055709 0.003868 0.426476
O O9 0.500000 0.500000 0.500000
O O10 0.469327 0.510951 0.347031
O O11 0.315182 0.367750 0.891811
O O12 0.281891 0.663486 0.968065
O O13 0.833900 0.967792 0.746689
O O14 0.065450 0.657268 0.956715
O O15 0.488627 0.080416 0.086568
O O16 0.066482 0.389895 0.864407
O O17 0.000000 0.500000 0.000000
O O18 0.000000 0.000000 0.000000
#
# Coordination Sequence:
#
# PCOD9073952 Si02
#       8
#     2   2   2   2   2   2   2   2
#     4  11  21  43  67  95 129 174 213 261 323 388
#     4  12  23  42  68  92 132 175 209 269 330 377
#     4  10  22  40  63  92 132 167 208 266 318 377
#     4  11  22  44  65  97 132 171 212 276 325 380
#     4  10  25  46  67  96 129 170 217 271 322 384
#     4  10  23  44  69  92 133 172 214 266 327 384
#     4  11  23  40  65  94 134 165 217 266 320 387
#     4  11  25  42  69  99 126 170 223 268 325 390
#
# _framework density 21.929839999999999
#
# number of rings (size 3 to 8) (size 9 to 14) (size 15 to 20)
#    0.000    1.250    5.000    0.750    5.250    1.000 
#    4.500    1.250    0.000    0.000    0.000    0.000 
#    0.000    0.000    0.000    0.000    0.000    0.000 
#
# Total GULP energy -89089.746808 kJ/mol
# GULP energy per Si atom -5568.109176 kJ/mol
# Density = 2.187993 g / cm^3
# Si number density = 21.929840 Si / 1000 Ang^3
#
#
#
# Elastic Constant Matrix: (Units=GPa)
#
#
# Indices 1 2 3 4 5 6 
#
# 1 79.8161 62.2856 2.5784 -2.7073 -20.9833 -12.2023
# 2 62.2856 139.2953 38.3056 6.8638 -12.1408 -24.4815
# 3 2.5784 38.3056 71.8797 6.2360 -5.6713 2.6509
# 4 -2.7073 6.8638 6.2360 32.4522 -2.2498 -14.4323
# 5 -20.9833 -12.1408 -5.6713 -2.2498 17.1825 4.0433
# 6 -12.2023 -24.4815 2.6509 -14.4323 4.0433 42.7408
#
#
#
# Elastic Compliance Matrix: (Units=1/GPa)
#
#
# Indices 1 2 3 4 5 6 
#
# 1 0.032159 -0.014257 0.008537 0.006086 0.032949 -0.000576
# 2 -0.014257 0.016379 -0.009238 -0.000646 -0.010539 0.006663
# 3 0.008537 -0.009238 0.019942 -0.003143 0.011538 -0.006244
# 4 0.006086 -0.000646 -0.003143 0.038794 0.007740 0.013930
# 5 0.032949 -0.010539 0.011538 0.007740 0.096725 -0.003882
# 6 -0.000576 0.006663 -0.006244 0.013930 -0.003882 0.032507
#
#
# Mechanical properties :
#
#
# Convention : Reuss Voigt Hill
#
# Bulk Modulus (GPa) = 25.93086 55.25892 40.59489
# Shear Modulus (GPa) = 17.90332 30.99654 24.44993
#
# Velocity S-wave (km/s) = 2.86036 3.76365 3.34266
# Velocity P-wave (km/s) = 4.77064 6.64376 5.78353
#
# Compressibility (1/GPa) = 0.03856409
#
# Stress axis : x y z
#
# Youngs Moduli (GPa) = 31.09535 61.05481 50.14440
#
# Poissons Ratio (x) = 0.87045 -0.42809
# Poissons Ratio (y) = 0.44332 0.46325
# Poissons Ratio (z) = -0.26546 0.56404
#
# Static dielectric constant tensor:
#      x y z
#    x 1.953620 0.008450 0.048470 
#    y 0.008450 1.770520 -0.024030 
#    z 0.048470 -0.024030 2.088980 
# 
# From -- ./inp_files/501202.got.cif
#   From: 2010.05.17/outbox.ucp.g08.bks.cvg/sg2_251_cif.got.tgz:501202.got - 2010.06.11 11:32:03.
