data_PCOD9073764
_publ_section_title
;
Structure prediction by ZEFSAII (Michael W. Deem and Ramdas Pophale) SiO2 
 PCOD9073764
Probable space group: P -1
;
_chemical_formula_sum "Si O2"
_cell_formula_units_Z 16
_cell_length_a 9.000000
_cell_length_b 24.000000
_cell_length_c 21.000000
_cell_angle_alpha 160.000000
_cell_angle_beta 40.000000
_cell_angle_gamma 150.000000
_cell_volume 744.844803
_symmetry_space_group_name_H-M "P -1"
_symmetry_group_IT_number 2
_symmetry_cell_setting 'triclinic'
loop_
_space_group_symop_operation_xyz
x,y,z
-x,-y,-z
loop_
_atom_site_type_symbol
_atom_site_label
_atom_site_fract_x
_atom_site_fract_y
_atom_site_fract_z
Si Si1 0.656284 0.111224 0.172797
Si Si2 0.477062 0.803995 0.216099
Si Si3 0.326804 0.251674 0.775994
Si Si4 0.556759 0.365816 0.290734
Si Si5 0.245394 0.509961 0.858571
Si Si6 0.379782 0.511064 0.388077
Si Si7 0.658506 0.084871 0.799662
Si Si8 0.273182 0.767031 0.471740
O O1 0.566045 0.273366 0.372236
O O2 0.025455 0.312169 0.267655
O O3 0.497563 0.989985 0.160888
O O4 0.572429 0.885755 0.923220
O O5 0.623080 0.824390 0.257154
O O6 0.118527 0.693494 0.226173
O O7 0.695510 0.046269 0.375464
O O8 0.427108 0.633875 0.998365
O O9 0.501674 0.246348 0.655196
O O10 0.975603 0.132340 0.747824
O O11 0.500000 0.500000 0.000000
O O12 0.500000 0.500000 0.500000
O O13 0.427944 0.389599 0.294109
O O14 0.930068 0.533688 0.340332
O O15 0.395120 0.437279 0.688795
O O16 0.270786 0.697936 0.015436
O O17 0.417488 0.880729 0.614013
#
# Coordination Sequence:
#
# PCOD9073764 Si02
#       8
#     2   2   2   2   2   2   2   2
#     4  11  26  46  72 106 138 182 243 290 359 420
#     4  10  23  40  66 103 139 183 237 287 344 429
#     4  12  23  40  65  99 144 180 231 294 349 412
#     4  12  26  46  75 102 146 187 233 295 352 425
#     4  10  21  43  71 100 140 185 235 285 360 412
#     4  11  25  46  77 103 137 190 233 300 356 419
#     4  11  23  43  70  99 140 188 231 294 352 418
#     4  11  26  43  65 102 138 191 236 275 363 421
#
# _framework density 21.480985
#
# number of rings (size 3 to 8) (size 9 to 14) (size 15 to 20)
#    0.000    1.000    2.500    3.375    7.000    1.500 
#    0.000    2.500    0.000    0.000    0.000    0.000 
#    0.000    0.000    0.000    0.000    0.000    0.000 
#
# Total GULP energy -89224.853626 kJ/mol
# GULP energy per Si atom -5576.553352 kJ/mol
# Density = 2.143209 g / cm^3
# Si number density = 21.480985 Si / 1000 Ang^3
#
#
#
# Elastic Constant Matrix: (Units=GPa)
#
#
# Indices 1 2 3 4 5 6 
#
# 1 23.8988 13.7120 6.6764 -0.7823 -6.5930 27.0844
# 2 13.7120 81.8508 16.2470 -9.2833 2.5459 14.7746
# 3 6.6764 16.2470 134.0681 0.2659 -8.3546 11.3136
# 4 -0.7823 -9.2833 0.2659 59.9621 -1.2540 -0.0637
# 5 -6.5930 2.5459 -8.3546 -1.2540 19.8366 3.7393
# 6 27.0844 14.7746 11.3136 -0.0637 3.7393 22.6589
#
#
#
# Elastic Compliance Matrix: (Units=1/GPa)
#
#
# Indices 1 2 3 4 5 6 
#
# 1 -0.061196 -0.002780 -0.006138 -0.001919 -0.038597 0.084390
# 2 -0.002780 0.014128 -0.001307 0.002105 -0.002238 -0.004862
# 3 -0.006138 -0.001307 0.007590 -0.000301 0.000491 0.004318
# 4 -0.001919 0.002105 -0.000301 0.016977 -0.000178 0.001149
# 5 -0.038597 -0.002238 0.000491 -0.000178 0.030076 0.042386
# 6 0.084390 -0.004862 0.004318 0.001149 0.042386 -0.062716
#
#
# Mechanical properties :
#
#
# Convention : Reuss Voigt Hill
#
# Bulk Modulus (GPa) = -16.68658 34.78763 9.05052
# Shear Modulus (GPa) = -91.46418 34.03700 -28.71359
#
# Velocity S-wave (km/s) = -6.53235 3.98492 -3.66005
# Velocity P-wave (km/s) = 8.04241 6.11576 3.69309
#
# Compressibility (1/GPa) = -0.05992839
#
# Stress axis : x y z
#
# Youngs Moduli (GPa) = -16.34094 70.77934 131.75605
#
# Poissons Ratio (x) = 0.19675 0.80878
# Poissons Ratio (y) = -0.04542 0.17222
# Poissons Ratio (z) = -0.10031 0.09252
#
# Static dielectric constant tensor:
#      x y z
#    x 10.338630 5.442470 -4.215830 
#    y 5.442470 5.288030 -2.754920 
#    z -4.215830 -2.754920 3.930830 
# 
# From -- ./inp_files/591983.got.cif
#   From: 2010.05.17/outbox.ucp.g08.bks.cvg/sg2_296_cif.got.tgz:591983.got - 2010.06.11 11:32:03.
