data_PCOD9073826
_publ_section_title
;
Structure prediction by ZEFSAII (Michael W. Deem and Ramdas Pophale) SiO2 
 PCOD9073826
Probable space group: P -1
;
_chemical_formula_sum "Si O2"
_cell_formula_units_Z 16
_cell_length_a 12.176539
_cell_length_b 7.856748
_cell_length_c 7.102367
_cell_angle_alpha 113.282086
_cell_angle_beta 105.486049
_cell_angle_gamma 94.959042
_cell_volume 587.165864
_symmetry_space_group_name_H-M "P -1"
_symmetry_group_IT_number 2
_symmetry_cell_setting 'triclinic'
loop_
_space_group_symop_operation_xyz
x,y,z
-x,-y,-z
loop_
_atom_site_type_symbol
_atom_site_label
_atom_site_fract_x
_atom_site_fract_y
_atom_site_fract_z
Si Si1 0.052828 0.072173 0.847572
Si Si2 0.197985 0.083008 0.415026
Si Si3 0.532498 0.509267 0.741649
Si Si4 0.342686 0.800009 0.416685
Si Si5 0.131027 0.471756 0.552332
Si Si6 0.713753 0.903274 0.965685
Si Si7 0.352540 0.733193 0.837355
Si Si8 0.870308 0.503639 0.880079
O O1 0.167300 0.987998 0.818950
O O2 0.125867 0.285622 0.959537
O O3 0.931394 0.052011 0.672842
O O4 0.000000 0.000000 0.000000
O O5 0.164153 0.277754 0.547616
O O6 0.235531 0.111507 0.225986
O O7 0.308530 0.005454 0.504432
O O8 0.500000 0.500000 0.500000
O O9 0.563179 0.301015 0.690248
O O10 0.638750 0.695183 0.894940
O O11 0.430327 0.577000 0.839690
O O12 0.360620 0.760336 0.626584
O O13 0.226886 0.681980 0.204958
O O14 0.219725 0.629630 0.773567
O O15 0.153496 0.483942 0.346471
O O16 0.000000 0.500000 0.500000
O O17 0.629260 0.054291 0.981228
O O18 0.000000 0.500000 0.000000
#
# Coordination Sequence:
#
# PCOD9073826 Si02
#       8
#     2   2   2   2   2   2   2   2
#     4  10  18  31  57  85 116 147 193 227 285 340
#     4  11  21  37  61  86 118 156 193 235 289 348
#     4  10  20  40  63  83 115 154 196 240 288 343
#     4  10  21  38  57  89 116 152 195 242 287 340
#     4  11  23  41  57  86 121 155 188 237 295 347
#     4  11  20  38  63  85 114 157 195 234 289 348
#     4  10  23  39  59  86 117 153 196 240 289 340
#     4  11  19  34  57  86 114 153 194 234 280 347
#
# _framework density 27.24954
#
# number of rings (size 3 to 8) (size 9 to 14) (size 15 to 20)
#    0.000    1.500    5.000    2.625    1.750    0.000 
#    2.250    9.375    0.000    0.000    0.000    0.000 
#    0.000    0.000    0.000    0.000    0.000    0.000 
#
# Total GULP energy -89109.317855 kJ/mol
# GULP energy per Si atom -5569.332366 kJ/mol
# Density = 2.718752 g / cm^3
# Si number density = 27.249540 Si / 1000 Ang^3
#
#
#
# Elastic Constant Matrix: (Units=GPa)
#
#
# Indices 1 2 3 4 5 6 
#
# 1 156.2970 54.8301 19.1746 27.1430 6.7731 -31.6637
# 2 54.8301 92.0857 18.9348 22.0190 -1.5312 -51.3436
# 3 19.1746 18.9348 75.4325 0.6031 -15.7666 5.2212
# 4 27.1430 22.0190 0.6031 46.5121 -3.1730 -1.9031
# 5 6.7731 -1.5312 -15.7666 -3.1730 46.4390 10.6492
# 6 -31.6637 -51.3436 5.2212 -1.9031 10.6492 54.7152
#
#
#
# Elastic Compliance Matrix: (Units=1/GPa)
#
#
# Indices 1 2 3 4 5 6 
#
# 1 0.009278 0.000082 -0.003719 -0.005445 -0.004471 0.006482
# 2 0.000082 0.045014 -0.017858 -0.020358 -0.016650 0.046524
# 3 -0.003719 -0.017858 0.023130 0.010312 0.013891 -0.023461
# 4 -0.005445 -0.020358 0.010312 0.033973 0.011517 -0.024299
# 5 -0.004471 -0.016650 0.013891 0.011517 0.033001 -0.025560
# 6 0.006482 0.046524 -0.023461 -0.024299 -0.025560 0.072053
#
#
# Mechanical properties :
#
#
# Convention : Reuss Voigt Hill
#
# Bulk Modulus (GPa) = 29.04243 56.63270 42.83756
# Shear Modulus (GPa) = 18.45598 44.92496 31.69047
#
# Velocity S-wave (km/s) = 2.60531 4.06476 3.41394
# Velocity P-wave (km/s) = 4.44199 6.54659 5.59415
#
# Compressibility (1/GPa) = 0.03443239
#
# Stress axis : x y z
#
# Youngs Moduli (GPa) = 107.78185 22.21535 43.23460
#
# Poissons Ratio (x) = -0.00182 0.16077
# Poissons Ratio (y) = -0.00881 0.77207
# Poissons Ratio (z) = 0.40080 0.39671
#
# Static dielectric constant tensor:
#      x y z
#    x 2.360090 -0.214820 0.003590 
#    y -0.214820 2.467150 -0.017500 
#    z 0.003590 -0.017500 2.204830 
# 
# From -- ./inp_files/241088.got.cif
#   From: 2010.05.17/outbox.cif.g08.bks.cpg/sg2_121_cif.got.tgz:241088.got - 2010.06.03 11:33:40.
