data_PCOD9073507
_publ_section_title
;
Structure prediction by ZEFSAII (Michael W. Deem and Ramdas Pophale) SiO2 
 PCOD9073507
Probable space group: P -1
;
_chemical_formula_sum "Si O2"
_cell_formula_units_Z 16
_cell_length_a 6.000000
_cell_length_b 12.000000
_cell_length_c 18.000000
_cell_angle_alpha 130.000000
_cell_angle_beta 120.000000
_cell_angle_gamma 90.000000
_cell_volume 752.153660
_symmetry_space_group_name_H-M "P -1"
_symmetry_group_IT_number 2
_symmetry_cell_setting 'triclinic'
loop_
_space_group_symop_operation_xyz
x,y,z
-x,-y,-z
loop_
_atom_site_type_symbol
_atom_site_label
_atom_site_fract_x
_atom_site_fract_y
_atom_site_fract_z
Si Si1 0.793433 0.841226 0.215175
Si Si2 0.172156 0.195367 0.630206
Si Si3 0.358319 0.997306 0.264974
Si Si4 0.271124 0.008866 0.092650
Si Si5 0.320531 0.568187 0.276312
Si Si6 0.209437 0.669121 0.454071
Si Si7 0.646844 0.360719 0.244846
Si Si8 0.346859 0.693003 0.950092
O O1 0.849989 0.774918 0.273749
O O2 0.596113 0.928959 0.254195
O O3 0.574934 0.715560 0.062760
O O4 0.112276 0.931894 0.262948
O O5 0.506882 0.300074 0.703299
O O6 0.015903 0.268690 0.583166
O O7 0.000000 0.000000 0.500000
O O8 0.187833 0.973108 0.149598
O O9 0.560112 0.193636 0.395341
O O10 0.538851 0.190023 0.196991
O O11 0.346799 0.867609 0.020182
O O12 0.000000 0.000000 0.000000
O O13 0.358296 0.666223 0.400610
O O14 0.450918 0.446563 0.268206
O O15 0.981243 0.451847 0.149142
O O16 0.993534 0.484779 0.368304
O O17 0.593574 0.339168 0.137764
#
# Coordination Sequence:
#
# PCOD9073507 Si02
#       8
#     2   2   2   2   2   2   2   2
#     4  11  25  41  67 100 131 171 220 275 324 384
#     4  11  22  40  68  94 127 176 220 262 330 391
#     4  11  25  43  65 101 133 168 221 277 320 385
#     4  11  21  40  71  94 126 174 218 264 331 391
#     4  10  22  40  63  95 131 173 214 270 322 386
#     4  10  23  41  64  94 134 170 217 273 322 386
#     4  10  21  40  64  94 130 172 217 265 328 386
#     4  10  22  41  66  94 133 168 216 275 321 387
#
# _framework density 21.272248999999999
#
# number of rings (size 3 to 8) (size 9 to 14) (size 15 to 20)
#    0.000    1.500    2.500    1.875    5.250    3.000 
#    0.000    6.250    0.000    0.000    0.000    0.000 
#    0.000    0.000    0.000    0.000    0.000    0.000 
#
# Total GULP energy -89186.240051 kJ/mol
# GULP energy per Si atom -5574.140003 kJ/mol
# Density = 2.122383 g / cm^3
# Si number density = 21.272249 Si / 1000 Ang^3
#
#
#
# Elastic Constant Matrix: (Units=GPa)
#
#
# Indices 1 2 3 4 5 6 
#
# 1 83.5013 7.5874 11.8401 15.6718 5.2264 22.3443
# 2 7.5874 40.2834 -10.9807 22.3531 16.1497 9.7585
# 3 11.8401 -10.9807 47.1844 10.1903 -1.1287 -10.1122
# 4 15.6718 22.3531 10.1903 27.7404 -6.4697 8.9311
# 5 5.2264 16.1497 -1.1287 -6.4697 11.8082 1.6314
# 6 22.3443 9.7585 -10.1122 8.9311 1.6314 27.3098
#
#
#
# Elastic Compliance Matrix: (Units=1/GPa)
#
#
# Indices 1 2 3 4 5 6 
#
# 1 0.017842 -0.004701 -0.010201 0.003760 0.002111 -0.018051
# 2 -0.004701 -0.023241 -0.014705 0.043904 0.058052 -0.011120
# 3 -0.010201 -0.014705 0.022052 0.011488 0.030795 0.016170
# 4 0.003760 0.043904 0.011488 -0.021407 -0.071897 -0.003215
# 5 0.002111 0.058052 0.030795 -0.071897 -0.034093 0.014481
# 6 -0.018051 -0.011120 0.016170 -0.003215 0.014481 0.061533
#
#
# Mechanical properties :
#
#
# Convention : Reuss Voigt Hill
#
# Bulk Modulus (GPa) = -23.49512 20.87364 -1.31074
# Shear Modulus (GPa) = 73.83810 24.20648 49.02229
#
# Velocity S-wave (km/s) = 5.89800 3.37699 4.80575
# Velocity P-wave (km/s) = 5.94246 5.00393 5.49328
#
# Compressibility (1/GPa) = -0.04256204
#
# Stress axis : x y z
#
# Youngs Moduli (GPa) = 56.04707 -43.02793 45.34720
#
# Poissons Ratio (x) = -0.20228 0.46260
# Poissons Ratio (y) = 0.26348 0.66685
# Poissons Ratio (z) = 0.57175 -0.63274
#
# Static dielectric constant tensor:
#      x y z
#    x 1.837120 -0.014810 0.021660 
#    y -0.014810 1.779230 0.034120 
#    z 0.021660 0.034120 1.822710 
# 
# From -- ./inp_files/72386.got.cif
#   From: 2010.05.17/outbox.ucp.g08.bks.cvg/sg2_37_cif.got.tgz:72386.got - 2010.06.11 11:32:03.
