data_PCOD9073651
_publ_section_title
;
Structure prediction by ZEFSAII (Michael W. Deem and Ramdas Pophale) SiO2 
 PCOD9073651
Probable space group: P -1
;
_chemical_formula_sum "Si O2"
_cell_formula_units_Z 16
_cell_length_a 18.000000
_cell_length_b 9.000000
_cell_length_c 15.000000
_cell_angle_alpha 40.000000
_cell_angle_beta 30.000000
_cell_angle_gamma 40.000000
_cell_volume 740.097418
_symmetry_space_group_name_H-M "P -1"
_symmetry_group_IT_number 2
_symmetry_cell_setting 'triclinic'
loop_
_space_group_symop_operation_xyz
x,y,z
-x,-y,-z
loop_
_atom_site_type_symbol
_atom_site_label
_atom_site_fract_x
_atom_site_fract_y
_atom_site_fract_z
Si Si1 0.025566 0.828089 0.460175
Si Si2 0.155061 0.935088 0.086753
Si Si3 0.290595 0.522289 0.985258
Si Si4 0.581670 0.570449 0.563068
Si Si5 0.754189 0.716354 0.467862
Si Si6 0.896922 0.150624 0.117135
Si Si7 0.519105 0.962626 0.292256
Si Si8 0.334305 0.017412 0.271147
O O1 0.113718 0.891458 0.252643
O O2 0.117542 0.542641 0.520041
O O3 0.853661 0.865902 0.580632
O O4 0.000000 0.000000 0.500000
O O5 0.204013 0.692026 0.081697
O O6 0.305924 0.024140 0.895752
O O7 0.008343 0.129949 0.097132
O O8 0.355480 0.233380 0.081525
O O9 0.430819 0.618055 0.761989
O O10 0.186928 0.592341 0.967184
O O11 0.704147 0.679208 0.435766
O O12 0.533140 0.719069 0.451253
O O13 0.643061 0.272320 0.637952
O O14 0.595023 0.791453 0.656085
O O15 0.799523 0.962779 0.324365
O O16 0.000000 0.000000 0.000000
O O17 0.442870 0.983220 0.262665
#
# Coordination Sequence:
#
# PCOD9073651 Si02
#       8
#     2   2   2   2   2   2   2   2
#     4  12  27  48  69 104 151 193 238 303 373 431
#     4  11  25  45  75 111 143 189 252 306 356 434
#     4  11  23  44  76 110 145 191 245 300 361 431
#     4  12  24  46  75 110 152 190 240 301 368 434
#     4  12  23  45  78 102 144 195 245 299 356 433
#     4  10  21  41  72 110 143 183 245 297 354 427
#     4  12  26  46  78 110 144 195 248 302 358 434
#     4  12  28  46  71 106 154 196 239 296 371 438
#
# _framework density 21.618776
#
# number of rings (size 3 to 8) (size 9 to 14) (size 15 to 20)
#    0.000    0.500    3.750    5.625    1.750    3.500 
#    0.000    0.625    0.000    0.000    0.000    0.000 
#    0.000    0.000    0.000    0.000    0.000    0.000 
#
# Total GULP energy -89131.956199 kJ/mol
# GULP energy per Si atom -5570.747262 kJ/mol
# Density = 2.156957 g / cm^3
# Si number density = 21.618776 Si / 1000 Ang^3
#
#
#
# Elastic Constant Matrix: (Units=GPa)
#
#
# Indices 1 2 3 4 5 6 
#
# 1 163.9195 48.5653 49.2862 -10.3377 1.7629 -35.8238
# 2 48.5653 115.2723 24.1849 -18.8518 8.4634 -31.5778
# 3 49.2862 24.1849 132.8166 -5.3103 8.3197 -14.3527
# 4 -10.3377 -18.8518 -5.3103 31.2581 -8.9765 6.3552
# 5 1.7629 8.4634 8.3197 -8.9765 44.4068 -5.3522
# 6 -35.8238 -31.5778 -14.3527 6.3552 -5.3522 44.0843
#
#
#
# Elastic Compliance Matrix: (Units=1/GPa)
#
#
# Indices 1 2 3 4 5 6 
#
# 1 0.008401 -0.001677 -0.002326 0.000706 0.001156 0.004907
# 2 -0.001677 0.012139 -0.000676 0.005284 -0.000291 0.006316
# 3 -0.002326 -0.000676 0.008627 -0.000171 -0.001395 0.000289
# 4 0.000706 0.005284 -0.000171 0.037309 0.006504 -0.000285
# 5 0.001156 -0.000291 -0.001395 0.006504 0.024382 0.002299
# 6 0.004907 0.006316 0.000289 -0.000285 0.002299 0.031610
#
#
# Mechanical properties :
#
#
# Convention : Reuss Voigt Hill
#
# Bulk Modulus (GPa) = 50.48053 72.89789 61.68921
# Shear Modulus (GPa) = 36.11942 43.28131 39.70037
#
# Velocity S-wave (km/s) = 4.09191 4.47925 4.28995
# Velocity P-wave (km/s) = 6.76210 7.78104 7.28939
#
# Compressibility (1/GPa) = 0.01980962
#
# Stress axis : x y z
#
# Youngs Moduli (GPa) = 119.02965 82.37928 115.91055
#
# Poissons Ratio (x) = 0.13811 0.26963
# Poissons Ratio (y) = 0.19956 0.07839
# Poissons Ratio (z) = 0.27688 0.05571
#
# Static dielectric constant tensor:
#      x y z
#    x 1.792900 0.045760 0.371030 
#    y 0.045760 1.712170 -0.653190 
#    z 0.371030 -0.653190 -2.660710 
# 
# From -- ./inp_files/537567.got.cif
#   From: 2010.05.17/outbox.ucp.g08.bks.cvg/sg2_269_cif.got.tgz:537567.got - 2010.06.11 11:32:03.
