data_PCOD9073542
_publ_section_title
;
Structure prediction by ZEFSAII (Michael W. Deem and Ramdas Pophale) SiO2 
 PCOD9073542
Probable space group: P -1
;
_chemical_formula_sum "Si O2"
_cell_formula_units_Z 16
_cell_length_a 12.000000
_cell_length_b 9.000000
_cell_length_c 21.000000
_cell_angle_alpha 140.000000
_cell_angle_beta 40.000000
_cell_angle_gamma 110.000000
_cell_volume 754.890988
_symmetry_space_group_name_H-M "P -1"
_symmetry_group_IT_number 2
_symmetry_cell_setting 'triclinic'
loop_
_space_group_symop_operation_xyz
x,y,z
-x,-y,-z
loop_
_atom_site_type_symbol
_atom_site_label
_atom_site_fract_x
_atom_site_fract_y
_atom_site_fract_z
Si Si1 0.044739 0.730679 0.035925
Si Si2 0.585151 0.487396 0.298208
Si Si3 0.259506 0.636607 0.674534
Si Si4 0.918271 0.550450 0.421480
Si Si5 0.396057 0.263497 0.084288
Si Si6 0.927203 0.078304 0.332576
Si Si7 0.341005 0.573264 0.033566
Si Si8 0.524309 0.989266 0.175789
O O1 0.014779 0.883175 0.166709
O O2 0.271077 0.571612 0.846223
O O3 0.880282 0.016207 0.157743
O O4 0.000000 0.500000 0.000000
O O5 0.706577 0.482090 0.307192
O O6 0.576609 0.218603 0.228427
O O7 0.330854 0.760369 0.493426
O O8 0.500000 0.500000 0.500000
O O9 0.158401 0.528813 0.634528
O O10 0.716497 0.849724 0.636964
O O11 0.144203 0.491837 0.286243
O O12 0.957465 0.324796 0.384531
O O13 0.532496 0.391963 0.066063
O O14 0.500000 0.000000 0.000000
O O15 0.435051 0.118858 0.950316
O O16 0.099117 0.863266 0.239848
O O17 0.332971 0.303271 0.942346
O O18 0.500000 0.500000 0.000000
#
# Coordination Sequence:
#
# PCOD9073542 Si02
#       8
#     2   2   2   2   2   2   2   2
#     4  11  25  40  64  99 134 173 216 262 325 395
#     4  11  23  44  69  96 128 180 213 262 333 388
#     4  11  20  43  67  97 138 167 217 270 315 391
#     4  10  21  40  67  94 127 173 214 261 321 394
#     4  11  22  40  65  91 131 171 211 271 331 372
#     4  10  21  43  64  91 134 163 220 271 317 384
#     4  10  23  43  63  95 130 163 217 280 321 373
#     4  10  22  40  67  93 123 166 223 257 325 386
#
# _framework density 21.195112999999999
#
# number of rings (size 3 to 8) (size 9 to 14) (size 15 to 20)
#    0.000    1.500    5.000    1.875    1.750    1.500 
#    4.500    2.500    0.000    0.000    0.000    0.000 
#    0.000    0.000    0.000    0.000    0.000    0.000 
#
# Total GULP energy -89277.403755 kJ/mol
# GULP energy per Si atom -5579.837735 kJ/mol
# Density = 2.114687 g / cm^3
# Si number density = 21.195113 Si / 1000 Ang^3
#
#
#
# Elastic Constant Matrix: (Units=GPa)
#
#
# Indices 1 2 3 4 5 6 
#
# 1 41.1078 15.0401 30.0943 -1.9377 -22.0273 -12.6046
# 2 15.0401 101.9488 50.0978 -11.1157 -15.2084 -4.1043
# 3 30.0943 50.0978 155.2859 -21.4348 -24.8274 -9.1461
# 4 -1.9377 -11.1157 -21.4348 45.7582 -4.3350 -6.8713
# 5 -22.0273 -15.2084 -24.8274 -4.3350 39.8717 -0.6531
# 6 -12.6046 -4.1043 -9.1461 -6.8713 -0.6531 23.5434
#
#
#
# Elastic Compliance Matrix: (Units=1/GPa)
#
#
# Indices 1 2 3 4 5 6 
#
# 1 0.050122 -0.000039 -0.002527 0.007868 0.027431 0.028903
# 2 -0.000039 0.012024 -0.003036 0.002008 0.002918 0.001563
# 3 -0.002527 -0.003036 0.009288 0.004326 0.003750 0.003093
# 4 0.007868 0.002008 0.004326 0.027961 0.011088 0.014711
# 5 0.027431 0.002918 0.003750 0.011088 0.045235 0.021142
# 6 0.028903 0.001563 0.003093 0.014711 0.021142 0.064303
#
#
# Mechanical properties :
#
#
# Convention : Reuss Voigt Hill
#
# Bulk Modulus (GPa) = 16.60285 54.31187 35.45736
# Shear Modulus (GPa) = 20.81489 35.37536 28.09512
#
# Velocity S-wave (km/s) = 3.13718 4.08981 3.64476
# Velocity P-wave (km/s) = 4.57962 6.92694 5.87177
#
# Compressibility (1/GPa) = 0.06023061
#
# Stress axis : x y z
#
# Youngs Moduli (GPa) = 19.95112 83.17024 107.66959
#
# Poissons Ratio (x) = 0.00325 0.27207
# Poissons Ratio (y) = 0.00078 0.32684
# Poissons Ratio (z) = 0.05042 0.25247
#
# Static dielectric constant tensor:
#      x y z
#    x 1.888340 -0.018770 0.014680 
#    y -0.018770 1.816640 0.021800 
#    z 0.014680 0.021800 1.778930 
# 
# From -- ./inp_files/594245.got.cif
#   From: 2010.05.17/outbox.ucp.g08.bks.cvg/sg2_298_cif.got.tgz:594245.got - 2010.06.11 11:32:03.
