data_PCOD9073001
_publ_section_title
;
Structure prediction by ZEFSAII (Michael W. Deem and Ramdas Pophale) SiO2 
 PCOD9073001
Probable space group: P -1
;
_chemical_formula_sum "Si O2"
_cell_formula_units_Z 14
_cell_length_a 12.000000
_cell_length_b 9.000000
_cell_length_c 27.000000
_cell_angle_alpha 140.000000
_cell_angle_beta 20.000000
_cell_angle_gamma 140.000000
_cell_volume 626.757776
_symmetry_space_group_name_H-M "P -1"
_symmetry_group_IT_number 2
_symmetry_cell_setting 'triclinic'
loop_
_space_group_symop_operation_xyz
x,y,z
-x,-y,-z
loop_
_atom_site_type_symbol
_atom_site_label
_atom_site_fract_x
_atom_site_fract_y
_atom_site_fract_z
Si Si1 0.466990 0.235679 0.344609
Si Si2 0.036457 0.478837 0.107559
Si Si3 0.793065 0.448830 0.399789
Si Si4 0.650492 0.459601 0.164882
Si Si5 0.733010 0.988075 0.260673
Si Si6 0.513957 0.054578 0.921862
Si Si7 0.407161 0.800277 0.188391
O O1 0.229258 0.411090 0.504223
O O2 0.532888 0.087190 0.326637
O O3 0.822106 0.404807 0.227103
O O4 0.362312 0.038068 0.295622
O O5 0.257951 0.745335 0.087657
O O6 0.762247 0.437690 0.168841
O O7 0.259126 0.284660 0.956582
O O8 0.500000 0.500000 0.500000
O O9 0.746223 0.165659 0.347126
O O10 0.124160 0.579581 0.266958
O O11 0.556568 0.714073 0.268413
O O12 0.429290 0.216024 0.173706
O O13 0.000000 0.500000 0.000000
O O14 0.123025 0.020217 0.090460
O O15 0.571600 0.156926 0.868249
#
# Coordination Sequence:
#
# PCOD9073001 Si02
#       7
#     2   2   2   2   2   2   2
#     4  11  22  38  64  91 121 161 202 249 303 352
#     4  12  22  38  66  94 119 158 203 254 300 354
#     4  10  22  38  59  87 122 163 200 248 301 359
#     4  10  23  38  57  93 129 155 195 253 303 361
#     4  10  20  40  57  88 127 157 199 249 301 359
#     4  11  20  36  62  90 123 154 202 249 303 345
#     4  12  20  37  64  93 122 151 210 257 294 352
#
# _framework density 22.337178000000002
#
# number of rings (size 3 to 8) (size 9 to 14) (size 15 to 20)
#    0.000    1.143    4.286    4.714    0.000    2.286 
#    2.571    0.714    0.000    4.286    0.000    0.000 
#    0.000    0.000    0.000    0.000    0.000    0.000 
#
# Total GULP energy -78171.231229 kJ/mol
# GULP energy per Si atom -5583.659374 kJ/mol
# Density = 2.228634 g / cm^3
# Si number density = 22.337178 Si / 1000 Ang^3
#
#
#
# Elastic Constant Matrix: (Units=GPa)
#
#
# Indices 1 2 3 4 5 6 
#
# 1 34.3339 5.1525 2.5967 13.4063 13.2092 9.6793
# 2 5.1525 136.5670 13.8680 35.7017 11.1371 15.2926
# 3 2.5967 13.8680 53.5523 21.7539 13.3219 -3.8968
# 4 13.4063 35.7017 21.7539 31.1505 15.2596 2.0810
# 5 13.2092 11.1371 13.3219 15.2596 15.1718 6.4812
# 6 9.6793 15.2926 -3.8968 2.0810 6.4812 30.3765
#
#
#
# Elastic Compliance Matrix: (Units=1/GPa)
#
#
# Indices 1 2 3 4 5 6 
#
# 1 0.051187 0.005439 0.012102 -0.017517 -0.038075 -0.008172
# 2 0.005439 0.013328 0.002754 -0.024657 0.011659 -0.008888
# 3 0.012102 0.002754 0.031241 -0.019505 -0.022463 0.004894
# 4 -0.017517 -0.024657 -0.019505 0.118776 -0.079362 0.024289
# 5 -0.038075 0.011659 -0.022463 -0.079362 0.204964 -0.034914
# 6 -0.008172 -0.008888 0.004894 0.024289 -0.034914 0.046412
#
#
# Mechanical properties :
#
#
# Convention : Reuss Voigt Hill
#
# Bulk Modulus (GPa) = 7.33426 29.74306 18.53866
# Shear Modulus (GPa) = 10.62101 28.86214 19.74158
#
# Velocity S-wave (km/s) = 2.18293 3.59850 2.97610
# Velocity P-wave (km/s) = 3.10550 5.53263 4.48632
#
# Compressibility (1/GPa) = 0.13634637
#
# Stress axis : x y z
#
# Youngs Moduli (GPa) = 19.53634 75.03034 32.00958
#
# Poissons Ratio (x) = -0.40812 -0.38739
# Poissons Ratio (y) = -0.10627 -0.08815
# Poissons Ratio (z) = -0.23644 -0.20662
#
# Static dielectric constant tensor:
#      x y z
#    x 1.664720 0.099340 -0.203760 
#    y 0.099340 1.814350 0.172220 
#    z -0.203760 0.172220 1.820430 
# 
# From -- ./inp_files/153811.got.cif
#   From: 2010.05.17/outbox.ucp.g08.bks.cvg/sg2_77_cif.got.tgz:153811.got - 2010.06.11 11:32:03.
