data_PCOD9073454
_publ_section_title
;
Structure prediction by ZEFSAII (Michael W. Deem and Ramdas Pophale) SiO2 
 PCOD9073454
Probable space group: P -1
;
_chemical_formula_sum "Si O2"
_cell_formula_units_Z 16
_cell_length_a 6.641205
_cell_length_b 14.615798
_cell_length_c 9.109206
_cell_angle_alpha 64.388324
_cell_angle_beta 99.132340
_cell_angle_gamma 65.512588
_cell_volume 661.244083
_symmetry_space_group_name_H-M "P -1"
_symmetry_group_IT_number 2
_symmetry_cell_setting 'triclinic'
loop_
_space_group_symop_operation_xyz
x,y,z
-x,-y,-z
loop_
_atom_site_type_symbol
_atom_site_label
_atom_site_fract_x
_atom_site_fract_y
_atom_site_fract_z
Si Si1 0.609877 0.547157 0.359040
Si Si2 0.046692 0.846780 0.247710
Si Si3 0.264750 0.660476 0.645539
Si Si4 0.216756 0.417887 0.369505
Si Si5 0.889758 0.706630 0.131172
Si Si6 0.161943 0.352607 0.123977
Si Si7 0.320419 0.885211 0.003165
Si Si8 0.341914 0.706885 0.934051
O O1 0.500000 0.500000 0.500000
O O2 0.809520 0.424516 0.384633
O O3 0.696273 0.614213 0.429688
O O4 0.443364 0.625106 0.149479
O O5 0.028224 0.749973 0.215937
O O6 0.136678 0.787415 0.458529
O O7 0.229081 0.870098 0.161568
O O8 0.792139 0.974036 0.132268
O O9 0.550524 0.594154 0.681697
O O10 0.243456 0.668052 0.812620
O O11 0.189959 0.329469 0.317372
O O12 0.008985 0.561860 0.256703
O O13 0.608632 0.799186 0.075803
O O14 0.922329 0.711602 0.955226
O O15 0.416838 0.313108 0.105050
O O16 0.000000 0.500000 0.000000
O O17 0.208580 0.840447 0.895539
#
# Coordination Sequence:
#
# PCOD9073454 Si02
#       8
#     2   2   2   2   2   2   2   2
#     4  10  18  31  54  89 124 155 196 250 302 369
#     4  11  22  40  64  86 124 164 209 256 301 355
#     4  10  20  34  57  91 123 162 198 247 310 367
#     4   9  17  32  59  85 123 160 191 238 316 362
#     4  10  19  37  63  89 125 160 203 249 309 360
#     4   8  17  34  53  82 120 159 190 236 307 363
#     4  10  23  39  61  93 115 164 217 253 298 360
#     4  10  20  35  56  85 122 158 204 248 304 367
#
# _framework density 24.196814
#
# number of rings (size 3 to 8) (size 9 to 14) (size 15 to 20)
#    0.000    2.250    1.250    2.250    1.750    0.500 
#    2.250   11.250    0.000    0.000    0.000   16.625 
#    0.000    0.000    0.000    0.000    0.000    0.000 
#
# Total GULP energy -89234.902259 kJ/mol
# GULP energy per Si atom -5577.181391 kJ/mol
# Density = 2.414174 g / cm^3
# Si number density = 24.196814 Si / 1000 Ang^3
#
#
#
# Elastic Constant Matrix: (Units=GPa)
#
#
# Indices 1 2 3 4 5 6 
#
# 1 31.1716 14.4563 29.5322 5.4166 -0.4354 -18.5066
# 2 14.4563 122.5040 92.2681 7.7824 -6.4504 -6.5925
# 3 29.5322 92.2681 175.5543 36.8156 3.0436 -3.6884
# 4 5.4166 7.7824 36.8156 65.5441 -3.2123 7.1085
# 5 -0.4354 -6.4504 3.0436 -3.2123 31.3806 14.2403
# 6 -18.5066 -6.5925 -3.6884 7.1085 14.2403 53.9549
#
#
#
# Elastic Compliance Matrix: (Units=1/GPa)
#
#
# Indices 1 2 3 4 5 6 
#
# 1 0.051030 0.000794 -0.007992 -0.002274 -0.007341 0.019291
# 2 0.000794 0.014471 -0.008482 0.003190 0.004161 -0.000058
# 3 -0.007992 -0.008482 0.012662 -0.005439 -0.003003 -0.001403
# 4 -0.002274 0.003190 -0.005439 0.018876 0.005179 -0.004616
# 5 -0.007341 0.004161 -0.003003 0.005179 0.039485 -0.013318
# 6 0.019291 -0.000058 -0.001403 -0.004616 -0.013318 0.029171
#
#
# Mechanical properties :
#
#
# Convention : Reuss Voigt Hill
#
# Bulk Modulus (GPa) = 21.36637 66.86034 44.11335
# Shear Modulus (GPa) = 23.51228 43.04080 33.27654
#
# Velocity S-wave (km/s) = 3.12061 4.22213 3.71245
# Velocity P-wave (km/s) = 4.67265 7.17359 6.05368
#
# Compressibility (1/GPa) = 0.04680253
#
# Stress axis : x y z
#
# Youngs Moduli (GPa) = 19.59642 69.10476 78.97832
#
# Poissons Ratio (x) = -0.05485 0.63120
# Poissons Ratio (y) = -0.01555 0.66986
# Poissons Ratio (z) = 0.15661 0.58611
#
# Static dielectric constant tensor:
#      x y z
#    x 2.267710 0.082320 0.094600 
#    y 0.082320 1.915250 0.055600 
#    z 0.094600 0.055600 1.991600 
# 
# From -- ./inp_files/201472.got.cif
#   From: 2010.05.17/outbox.cif.g08.bks.cpg/sg2_101_cif.got.tgz:201472.got - 2010.06.03 11:33:40.
