data_PCOD9073423
_publ_section_title
;
Structure prediction by ZEFSAII (Michael W. Deem and Ramdas Pophale) SiO2 
 PCOD9073423
Probable space group: P -1
;
_chemical_formula_sum "Si O2"
_cell_formula_units_Z 12
_cell_length_a 10.378007
_cell_length_b 15.989800
_cell_length_c 7.065555
_cell_angle_alpha 80.657403
_cell_angle_beta 123.510590
_cell_angle_gamma 143.909060
_cell_volume 470.003857
_symmetry_space_group_name_H-M "P -1"
_symmetry_group_IT_number 2
_symmetry_cell_setting 'triclinic'
loop_
_space_group_symop_operation_xyz
x,y,z
-x,-y,-z
loop_
_atom_site_type_symbol
_atom_site_label
_atom_site_fract_x
_atom_site_fract_y
_atom_site_fract_z
Si Si1 0.109628 0.002814 0.860860
Si Si2 0.653718 0.702418 0.171257
Si Si3 0.291856 0.959784 0.714745
Si Si4 0.908717 0.557056 0.448546
Si Si5 0.621018 0.374916 0.642830
Si Si6 0.429500 0.827884 0.493854
O O1 0.291288 0.069950 0.176951
O O2 0.146693 0.118533 0.792217
O O3 0.274205 0.034955 0.805712
O O4 0.751044 0.797866 0.656821
O O5 0.568937 0.421397 0.140390
O O6 0.407086 0.608813 0.171690
O O7 0.917864 0.764499 0.439310
O O8 0.458946 0.052524 0.614686
O O9 0.500000 0.000000 0.000000
O O10 0.863575 0.540702 0.643072
O O11 0.000000 0.500000 0.500000
O O12 0.168024 0.729010 0.471392
O O13 0.687200 0.307989 0.677559
#
# Coordination Sequence:
#
# PCOD9073423 Si02
#       6
#     2   2   2   2   2   2
#     4  11  19  35  62  84 106 144 188 237 278 310
#     4  11  19  36  60  85 111 144 185 230 277 323
#     4  11  24  39  57  81 112 150 189 227 272 326
#     4  10  21  31  53  92 116 139 175 231 288 322
#     4  10  18  31  54  86 113 139 175 232 279 322
#     4  11  20  34  56  85 118 137 183 232 277 327
#
# _framework density 25.531706
#
# number of rings (size 3 to 8) (size 9 to 14) (size 15 to 20)
#    0.000    1.333    6.667    2.500    0.000    4.667 
#    0.000    0.833    0.000    5.000    0.000    0.000 
#    0.000    0.000    0.000    0.000    0.000    0.000 
#
# Total GULP energy -67122.569882 kJ/mol
# GULP energy per Si atom -5593.547490 kJ/mol
# Density = 2.547359 g / cm^3
# Si number density = 25.531706 Si / 1000 Ang^3
#
#
#
# Elastic Constant Matrix: (Units=GPa)
#
#
# Indices 1 2 3 4 5 6 
#
# 1 103.0749 51.3704 35.2118 -18.5040 -9.5111 36.3483
# 2 51.3704 93.4963 34.7075 -31.6646 -6.9687 37.9105
# 3 35.2118 34.7075 161.7625 -25.8705 11.8641 16.7245
# 4 -18.5040 -31.6646 -25.8705 35.3962 19.9726 -18.1297
# 5 -9.5111 -6.9687 11.8641 19.9726 57.2479 -9.3294
# 6 36.3483 37.9105 16.7245 -18.1297 -9.3294 49.1965
#
#
#
# Elastic Compliance Matrix: (Units=1/GPa)
#
#
# Indices 1 2 3 4 5 6 
#
# 1 0.015410 -0.005927 -0.002146 -0.003803 0.002466 -0.007023
# 2 -0.005927 0.021920 0.000255 0.015546 -0.005069 -0.007831
# 3 -0.002146 0.000255 0.008164 0.008102 -0.004729 0.000702
# 4 -0.003803 0.015546 0.008102 0.061193 -0.020674 0.006705
# 5 0.002466 -0.005069 -0.004729 -0.020674 0.025605 0.000929
# 6 -0.007023 -0.007831 0.000702 0.006705 0.000929 0.033959
#
#
# Mechanical properties :
#
#
# Convention : Reuss Voigt Hill
#
# Bulk Modulus (GPa) = 33.49102 66.76813 50.12958
# Shear Modulus (GPa) = 26.06361 44.17104 35.11732
#
# Velocity S-wave (km/s) = 3.19851 4.16390 3.71272
# Velocity P-wave (km/s) = 5.17557 7.02319 6.16894
#
# Compressibility (1/GPa) = 0.02985875
#
# Stress axis : x y z
#
# Youngs Moduli (GPa) = 64.89400 45.62017 122.48502
#
# Poissons Ratio (x) = 0.27038 0.26281
# Poissons Ratio (y) = 0.38461 -0.03120
# Poissons Ratio (z) = 0.13924 -0.01162
#
# Static dielectric constant tensor:
#      x y z
#    x 2.056180 -0.043420 0.024030 
#    y -0.043420 2.062810 0.043500 
#    z 0.024030 0.043500 1.980940 
# 
# From -- ./inp_files/32298.got.cif
#   From: 2010.05.17/outbox.cif.g08.bks.cpg/sg2_17_cif.got.tgz:32298.got - 2010.06.03 11:33:40.
