data_PCOD9073353
_publ_section_title
;
Structure prediction by ZEFSAII (Michael W. Deem and Ramdas Pophale) SiO2 
 PCOD9073353
Probable space group: P -1
;
_chemical_formula_sum "Si O2"
_cell_formula_units_Z 14
_cell_length_a 12.000000
_cell_length_b 9.000000
_cell_length_c 9.000000
_cell_angle_alpha 50.000000
_cell_angle_beta 80.000000
_cell_angle_gamma 60.000000
_cell_volume 628.643806
_symmetry_space_group_name_H-M "P -1"
_symmetry_group_IT_number 2
_symmetry_cell_setting 'triclinic'
loop_
_space_group_symop_operation_xyz
x,y,z
-x,-y,-z
loop_
_atom_site_type_symbol
_atom_site_label
_atom_site_fract_x
_atom_site_fract_y
_atom_site_fract_z
Si Si1 0.044602 0.592290 0.797179
Si Si2 0.478562 0.565005 0.134694
Si Si3 0.758665 0.980142 0.053296
Si Si4 0.886870 0.819501 0.427772
Si Si5 0.324683 0.881534 0.466263
Si Si6 0.339901 0.222684 0.012690
Si Si7 0.904864 0.033963 0.723290
O O1 0.968828 0.605132 0.655165
O O2 0.199904 0.448246 0.865045
O O3 0.988666 0.846400 0.700471
O O4 0.000000 0.500000 0.000000
O O5 0.542350 0.342091 0.367198
O O6 0.500000 0.500000 0.000000
O O7 0.560149 0.690623 0.057743
O O8 0.324553 0.750577 0.072372
O O9 0.814749 0.834735 0.282012
O O10 0.657602 0.924897 0.031395
O O11 0.873474 0.933154 0.940308
O O12 0.004143 0.864976 0.327706
O O13 0.768398 0.003412 0.442332
O O14 0.239461 0.820250 0.413250
O O15 0.340606 0.073904 0.250761
#
# Coordination Sequence:
#
# PCOD9073353 Si02
#       7
#     2   2   2   2   2   2   2
#     4  11  19  39  66  92 128 169 207 255 326 390
#     4  12  25  44  69  92 125 176 225 263 319 381
#     4  11  24  41  62  99 133 165 215 272 316 381
#     4  11  20  38  65  98 129 164 210 265 322 386
#     4  10  21  42  68  94 126 171 222 255 322 390
#     4  11  24  44  68  93 132 171 213 272 320 380
#     4  10  21  38  65  93 131 166 209 263 323 383
#
# _framework density 22.270163
#
# number of rings (size 3 to 8) (size 9 to 14) (size 15 to 20)
#    0.000    1.143    5.714    4.286    0.000    3.429 
#    0.000    1.429    0.000    0.000    0.000    0.000 
#    0.000    0.000    0.000    0.000    0.000    0.000 
#
# Total GULP energy -78043.312259 kJ/mol
# GULP energy per Si atom -5574.522304 kJ/mol
# Density = 2.221948 g / cm^3
# Si number density = 22.270163 Si / 1000 Ang^3
#
#
#
# Elastic Constant Matrix: (Units=GPa)
#
#
# Indices 1 2 3 4 5 6 
#
# 1 7.7692 1.6632 37.3145 -6.8627 25.3325 -2.9185
# 2 1.6632 85.7005 40.7241 0.2154 28.4220 -16.5861
# 3 37.3145 40.7241 169.5036 7.6098 21.5009 4.0432
# 4 -6.8627 0.2154 7.6098 31.9413 6.8872 14.6676
# 5 25.3325 28.4220 21.5009 6.8872 20.0452 -5.7109
# 6 -2.9185 -16.5861 4.0432 14.6676 -5.7109 26.0285
#
#
#
# Elastic Compliance Matrix: (Units=1/GPa)
#
#
# Indices 1 2 3 4 5 6 
#
# 1 -0.012987 -0.011753 0.001186 -0.015158 0.039302 0.008035
# 2 -0.011753 0.014012 -0.001112 -0.009434 0.003361 0.013837
# 3 0.001186 -0.001112 0.007242 0.003636 -0.010675 -0.006092
# 4 -0.015158 -0.009434 0.003636 0.038840 0.007140 -0.028597
# 5 0.039302 0.003361 -0.010675 0.007140 0.006018 0.005504
# 6 0.008035 0.013837 -0.006092 -0.028597 0.005504 0.066407
#
#
# Mechanical properties :
#
#
# Convention : Reuss Voigt Hill
#
# Bulk Modulus (GPa) = -66.26730 46.93078 -9.66826
# Shear Modulus (GPa) = 36.26914 27.82109 32.04511
#
# Velocity S-wave (km/s) = 4.03997 3.53831 3.79743
# Velocity P-wave (km/s) = 2.83882 6.14915 3.85701
#
# Compressibility (1/GPa) = -0.01509040
#
# Stress axis : x y z
#
# Youngs Moduli (GPa) = -76.99874 71.36662 138.08794
#
# Poissons Ratio (x) = 0.83874 -0.16380
# Poissons Ratio (y) = -0.90493 0.15358
# Poissons Ratio (z) = 0.09133 0.07937
#
# Static dielectric constant tensor:
#      x y z
#    x 1.818420 0.002620 0.004870 
#    y 0.002620 1.824540 0.005650 
#    z 0.004870 0.005650 1.816580 
# 
# From -- ./inp_files/180818.got.cif
#   From: 2010.05.17/outbox.ucp.g08.bks.cvg/sg2_91_cif.got.tgz:180818.got - 2010.06.11 11:32:03.
