data_PCOD9073138
_publ_section_title
;
Structure prediction by ZEFSAII (Michael W. Deem and Ramdas Pophale) SiO2 
 PCOD9073138
Probable space group: P -1
;
_chemical_formula_sum "Si O2"
_cell_formula_units_Z 16
_cell_length_a 12.000000
_cell_length_b 9.000000
_cell_length_c 15.000000
_cell_angle_alpha 120.000000
_cell_angle_beta 120.000000
_cell_angle_gamma 110.000000
_cell_volume 745.925389
_symmetry_space_group_name_H-M "P -1"
_symmetry_group_IT_number 2
_symmetry_cell_setting 'triclinic'
loop_
_space_group_symop_operation_xyz
x,y,z
-x,-y,-z
loop_
_atom_site_type_symbol
_atom_site_label
_atom_site_fract_x
_atom_site_fract_y
_atom_site_fract_z
Si Si1 0.776419 0.663524 0.316875
Si Si2 0.646757 0.294941 0.696889
Si Si3 0.830603 0.632943 0.604840
Si Si4 0.934267 0.214159 0.092088
Si Si5 0.052221 0.745335 0.567056
Si Si6 0.654377 0.217790 0.045916
Si Si7 0.482910 0.451846 0.295962
Si Si8 0.425296 0.988771 0.699989
O O1 0.698943 0.471440 0.143948
O O2 0.596202 0.554253 0.274072
O O3 0.853081 0.583770 0.381480
O O4 0.000000 0.000000 0.500000
O O5 0.575139 0.410812 0.675836
O O6 0.584255 0.203349 0.748686
O O7 0.893237 0.545425 0.841011
O O8 0.500000 0.000000 0.500000
O O9 0.656405 0.574777 0.475224
O O10 0.936626 0.772554 0.784281
O O11 0.023858 0.826894 0.669180
O O12 0.712547 0.324134 0.473779
O O13 0.852495 0.296304 0.139569
O O14 0.724510 0.887489 0.882725
O O15 0.000000 0.500000 0.500000
O O16 0.260950 0.965493 0.657261
O O17 0.540472 0.067175 0.861206
O O18 0.500000 0.000000 0.000000
#
# Coordination Sequence:
#
# PCOD9073138 Si02
#       8
#     2   2   2   2   2   2   2   2
#     4  11  23  40  68 106 144 175 220 300 364 411
#     4  12  28  48  70  98 147 195 236 299 356 413
#     4  10  20  42  72 106 131 186 236 294 351 422
#     4  12  24  45  76  99 143 191 241 286 353 423
#     4   9  18  35  66  95 134 170 224 275 345 421
#     4  12  22  43  77 110 141 185 233 293 358 437
#     4  11  25  48  70 105 141 183 250 290 344 437
#     4  11  21  43  68 108 142 186 237 288 356 426
#
# _framework density 21.449867000000001
#
# number of rings (size 3 to 8) (size 9 to 14) (size 15 to 20)
#    0.000    1.000    3.750    4.875    1.750    1.000 
#    4.500    1.250    0.000    0.000    0.000    0.000 
#    0.000    0.000    0.000    0.000    0.000    0.000 
#
# Total GULP energy -89244.463477 kJ/mol
# GULP energy per Si atom -5577.778967 kJ/mol
# Density = 2.140105 g / cm^3
# Si number density = 21.449867 Si / 1000 Ang^3
#
#
#
# Elastic Constant Matrix: (Units=GPa)
#
#
# Indices 1 2 3 4 5 6 
#
# 1 139.7047 53.4953 33.9612 19.7737 24.0293 16.1353
# 2 53.4953 83.3476 32.2121 11.9304 15.1725 30.6962
# 3 33.9612 32.2121 91.7019 13.1621 5.2237 7.1162
# 4 19.7737 11.9304 13.1621 50.5307 2.9449 4.4664
# 5 24.0293 15.1725 5.2237 2.9449 24.7536 10.7428
# 6 16.1353 30.6962 7.1162 4.4664 10.7428 52.5316
#
#
#
# Elastic Compliance Matrix: (Units=1/GPa)
#
#
# Indices 1 2 3 4 5 6 
#
# 1 0.011037 -0.005409 -0.001555 -0.002350 -0.007539 0.001723
# 2 -0.005409 0.021318 -0.004485 -0.000748 -0.002619 -0.009589
# 3 -0.001555 -0.004485 0.013172 -0.001942 0.001171 0.001239
# 4 -0.002350 -0.000748 -0.001942 0.021393 0.000852 -0.000571
# 5 -0.007539 -0.002619 0.001171 0.000852 0.052022 -0.007024
# 6 0.001723 -0.009589 0.001239 -0.000571 -0.007024 0.025427
#
#
# Mechanical properties :
#
#
# Convention : Reuss Voigt Hill
#
# Bulk Modulus (GPa) = 44.18691 61.56569 52.87630
# Shear Modulus (GPa) = 28.60266 38.56890 33.58578
#
# Velocity S-wave (km/s) = 3.65563 4.24500 3.96129
# Velocity P-wave (km/s) = 6.20185 7.26575 6.75478
#
# Compressibility (1/GPa) = 0.02263114
#
# Stress axis : x y z
#
# Youngs Moduli (GPa) = 90.60046 46.90809 75.92051
#
# Poissons Ratio (x) = 0.25373 0.11802
# Poissons Ratio (y) = 0.49007 0.34047
# Poissons Ratio (z) = 0.14084 0.21036
#
# Static dielectric constant tensor:
#      x y z
#    x 1.865100 0.009570 -0.041090 
#    y 0.009570 1.820040 -0.049530 
#    z -0.041090 -0.049530 1.846400 
# 
# From -- ./inp_files/516129.got.cif
#   From: 2010.05.17/outbox.ucp.g08.bks.cvg/sg2_259_cif.got.tgz:516129.got - 2010.06.11 11:32:03.
