data_PCOD9073386
_publ_section_title
;
Structure prediction by ZEFSAII (Michael W. Deem and Ramdas Pophale) SiO2 
 PCOD9073386
Probable space group: P -1
;
_chemical_formula_sum "Si O2"
_cell_formula_units_Z 16
_cell_length_a 18.000000
_cell_length_b 6.000000
_cell_length_c 9.000000
_cell_angle_alpha 60.000000
_cell_angle_beta 110.000000
_cell_angle_gamma 120.000000
_cell_volume 723.492119
_symmetry_space_group_name_H-M "P -1"
_symmetry_group_IT_number 2
_symmetry_cell_setting 'triclinic'
loop_
_space_group_symop_operation_xyz
x,y,z
-x,-y,-z
loop_
_atom_site_type_symbol
_atom_site_label
_atom_site_fract_x
_atom_site_fract_y
_atom_site_fract_z
Si Si1 0.267352 0.783026 0.074760
Si Si2 0.593076 0.158734 0.092139
Si Si3 0.562617 0.584414 0.376211
Si Si4 0.598560 0.702626 0.824957
Si Si5 0.962489 0.830763 0.380210
Si Si6 0.873722 0.240985 0.622866
Si Si7 0.089023 0.779876 0.993735
Si Si8 0.285280 0.294728 0.381164
O O1 0.236604 0.488551 0.237075
O O2 0.341200 0.005416 0.157021
O O3 0.323388 0.791819 0.966420
O O4 0.179013 0.810907 0.968394
O O5 0.588997 0.919882 0.280090
O O6 0.598018 0.467002 0.020535
O O7 0.500000 0.000000 0.000000
O O8 0.500000 0.500000 0.500000
O O9 0.500807 0.393983 0.266066
O O10 0.653582 0.572372 0.479780
O O11 0.649706 0.678353 0.720839
O O12 0.885444 0.550160 0.479835
O O13 0.043288 0.785820 0.382399
O O14 0.931883 0.978286 0.179320
O O15 0.000000 0.000000 0.500000
O O16 0.786066 0.018232 0.566277
O O17 0.883964 0.198754 0.820581
O O18 0.000000 0.500000 0.000000
#
# Coordination Sequence:
#
# PCOD9073386 Si02
#       8
#     2   2   2   2   2   2   2   2
#     4  11  23  39  64  95 125 173 223 270 329 409
#     4   9  20  39  61  90 128 163 215 279 323 398
#     4   9  19  37  61  88 122 168 206 267 334 391
#     4   9  19  39  62  88 123 163 217 261 329 389
#     4  11  25  44  68 103 134 174 231 279 339 413
#     4  11  24  45  69  97 137 182 218 287 342 398
#     4  12  24  45  71  97 139 184 227 279 347 402
#     4  10  21  39  61  90 128 163 215 268 325 397
#
# _framework density 22.114961000000001
#
# number of rings (size 3 to 8) (size 9 to 14) (size 15 to 20)
#    0.000    1.750    2.500    1.875    0.000    4.500 
#    0.000    2.500    0.000    0.000    0.000    0.000 
#    0.000    0.000    0.000    0.000    0.000    0.000 
#
# Total GULP energy -89106.499049 kJ/mol
# GULP energy per Si atom -5569.156191 kJ/mol
# Density = 2.206463 g / cm^3
# Si number density = 22.114961 Si / 1000 Ang^3
#
#
#
# Elastic Constant Matrix: (Units=GPa)
#
#
# Indices 1 2 3 4 5 6 
#
# 1 95.0541 15.6508 24.2920 4.6736 -0.4660 26.3708
# 2 15.6508 98.5224 16.4972 -15.7267 -2.8457 36.7305
# 3 24.2920 16.4972 74.3674 -22.1618 -2.9253 8.8143
# 4 4.6736 -15.7267 -22.1618 36.5102 7.2279 -2.0477
# 5 -0.4660 -2.8457 -2.9253 7.2279 27.1761 6.7084
# 6 26.3708 36.7305 8.8143 -2.0477 6.7084 32.3780
#
#
#
# Elastic Compliance Matrix: (Units=1/GPa)
#
#
# Indices 1 2 3 4 5 6 
#
# 1 0.016899 0.004676 -0.005828 -0.006052 0.006504 -0.019212
# 2 0.004676 0.021510 -0.001090 0.004740 0.008190 -0.029310
# 3 -0.005828 -0.001090 0.018933 0.012264 -0.001933 0.002005
# 4 -0.006052 0.004740 0.012264 0.039446 -0.008916 0.000555
# 5 0.006504 0.008190 -0.001933 -0.008916 0.045886 -0.024133
# 6 -0.019212 -0.029310 0.002005 0.000555 -0.024133 0.084272
#
#
# Mechanical properties :
#
#
# Convention : Reuss Voigt Hill
#
# Bulk Modulus (GPa) = 18.91882 42.31375 30.61628
# Shear Modulus (GPa) = 20.07613 33.31313 26.69463
#
# Velocity S-wave (km/s) = 3.01625 3.88540 3.47808
# Velocity P-wave (km/s) = 4.55013 6.26925 5.47755
#
# Compressibility (1/GPa) = 0.05285741
#
# Stress axis : x y z
#
# Youngs Moduli (GPa) = 59.17448 46.48954 52.81707
#
# Poissons Ratio (x) = -0.21736 0.30781
# Poissons Ratio (y) = -0.27667 0.05759
# Poissons Ratio (z) = 0.34486 0.05069
#
# Static dielectric constant tensor:
#      x y z
#    x 1.768390 -0.045480 -0.040850 
#    y -0.045480 1.883260 -0.066610 
#    z -0.040850 -0.066610 1.851040 
# 
# From -- ./inp_files/53227.got.cif
#   From: 2010.05.17/outbox.ucp.g08.bks.cvg/sg2_27_cif.got.tgz:53227.got - 2010.06.11 11:32:03.
