data_PCOD9073455
_publ_section_title
;
Structure prediction by ZEFSAII (Michael W. Deem and Ramdas Pophale) SiO2 
 PCOD9073455
Probable space group: P -1
;
_chemical_formula_sum "Si O2"
_cell_formula_units_Z 16
_cell_length_a 12.000000
_cell_length_b 21.000000
_cell_length_c 18.000000
_cell_angle_alpha 150.000000
_cell_angle_beta 160.000000
_cell_angle_gamma 30.000000
_cell_volume 738.640068
_symmetry_space_group_name_H-M "P -1"
_symmetry_group_IT_number 2
_symmetry_cell_setting 'triclinic'
loop_
_space_group_symop_operation_xyz
x,y,z
-x,-y,-z
loop_
_atom_site_type_symbol
_atom_site_label
_atom_site_fract_x
_atom_site_fract_y
_atom_site_fract_z
Si Si1 0.252030 0.194519 0.567631
Si Si2 0.641118 0.801235 0.535720
Si Si3 0.814538 0.612835 0.854917
Si Si4 0.457989 0.457927 0.707890
Si Si5 0.394240 0.773559 0.022344
Si Si6 0.298270 0.893355 0.785122
Si Si7 0.842683 0.950356 0.425167
Si Si8 0.257923 0.504547 0.460339
O O1 0.398733 0.175725 0.555763
O O2 0.496812 0.198644 0.796534
O O3 0.026118 0.096640 0.351983
O O4 0.990653 0.344428 0.549002
O O5 0.664089 0.647337 0.421446
O O6 0.348802 0.913184 0.510745
O O7 0.992985 0.828679 0.808046
O O8 0.573664 0.762869 0.856307
O O9 0.624300 0.512398 0.668369
O O10 0.879368 0.575771 0.770201
O O11 0.136765 0.608009 0.101531
O O12 0.299716 0.460821 0.528832
O O13 0.444347 0.612094 0.878883
O O14 0.597747 0.851629 0.174946
O O15 0.155448 0.868222 0.590080
O O16 0.500000 0.000000 0.000000
O O17 0.000000 0.000000 0.500000
#
# Coordination Sequence:
#
# PCOD9073455 Si02
#       8
#     2   2   2   2   2   2   2   2
#     4  10  23  45  71  97 142 184 235 285 351 425
#     4  12  27  47  70 104 142 192 234 288 359 417
#     4  10  22  40  65 102 140 183 230 293 357 401
#     4  12  24  40  72 106 138 186 239 283 352 420
#     4  11  25  47  73 104 143 185 230 297 354 417
#     4  10  23  44  69 102 138 185 237 291 346 416
#     4  11  28  49  72 103 141 184 241 293 355 421
#     4  10  21  39  67 100 141 181 230 291 352 415
#
# _framework density 21.661429999999999
#
# number of rings (size 3 to 8) (size 9 to 14) (size 15 to 20)
#    0.000    1.250    2.500    1.875    5.250    4.500 
#    2.250    0.000    0.000    0.000    0.000    0.000 
#    0.000    0.000    0.000    0.000    0.000    0.000 
#
# Total GULP energy -89220.927470 kJ/mol
# GULP energy per Si atom -5576.307967 kJ/mol
# Density = 2.161213 g / cm^3
# Si number density = 21.661430 Si / 1000 Ang^3
#
#
#
# Elastic Constant Matrix: (Units=GPa)
#
#
# Indices 1 2 3 4 5 6 
#
# 1 169.3958 30.7582 22.6241 9.0671 -1.8868 20.6183
# 2 30.7582 79.2979 11.9347 6.7031 1.8641 6.9766
# 3 22.6241 11.9347 82.2926 5.2510 4.8436 6.6058
# 4 9.0671 6.7031 5.2510 49.6306 16.9639 0.9375
# 5 -1.8868 1.8641 4.8436 16.9639 37.6073 4.0786
# 6 20.6183 6.9766 6.6058 0.9375 4.0786 41.4467
#
#
#
# Elastic Compliance Matrix: (Units=1/GPa)
#
#
# Indices 1 2 3 4 5 6 
#
# 1 0.006925 -0.002145 -0.001360 -0.001302 0.001540 -0.002989
# 2 -0.002145 0.013835 -0.001252 -0.001356 0.000093 -0.001041
# 3 -0.001360 -0.001252 0.012899 -0.000468 -0.001345 -0.001025
# 4 -0.001302 -0.001356 -0.000468 0.024385 -0.011099 0.001491
# 5 0.001540 0.000093 -0.001345 -0.011099 0.032221 -0.003487
# 6 -0.002989 -0.001041 -0.001025 0.001491 -0.003487 0.026262
#
#
# Mechanical properties :
#
#
# Convention : Reuss Voigt Hill
#
# Bulk Modulus (GPa) = 41.41767 51.29115 46.35441
# Shear Modulus (GPa) = 37.28837 43.44820 40.36828
#
# Velocity S-wave (km/s) = 4.15350 4.48346 4.32163
# Velocity P-wave (km/s) = 6.49338 7.10858 6.80793
#
# Compressibility (1/GPa) = 0.02414428
#
# Stress axis : x y z
#
# Youngs Moduli (GPa) = 144.40189 72.28039 77.52696
#
# Poissons Ratio (x) = 0.15501 0.10548
# Poissons Ratio (y) = 0.30968 0.09708
# Poissons Ratio (z) = 0.19646 0.09051
#
# Static dielectric constant tensor:
#      x y z
#    x 1.819250 -0.043660 0.037420 
#    y -0.043660 1.858690 -0.028240 
#    z 0.037420 -0.028240 1.819610 
# 
# From -- ./inp_files/570758.got.cif
#   From: 2010.05.17/outbox.ucp.g08.bks.cvg/sg2_286_cif.got.tgz:570758.got - 2010.06.11 11:32:03.
