data_PCOD9073416
_publ_section_title
;
Structure prediction by ZEFSAII (Michael W. Deem and Ramdas Pophale) SiO2 
 PCOD9073416
Probable space group: P -1
;
_chemical_formula_sum "Si O2"
_cell_formula_units_Z 16
_cell_length_a 24.000000
_cell_length_b 9.000000
_cell_length_c 9.000000
_cell_angle_alpha 50.000000
_cell_angle_beta 30.000000
_cell_angle_gamma 50.000000
_cell_volume 725.531033
_symmetry_space_group_name_H-M "P -1"
_symmetry_group_IT_number 2
_symmetry_cell_setting 'triclinic'
loop_
_space_group_symop_operation_xyz
x,y,z
-x,-y,-z
loop_
_atom_site_type_symbol
_atom_site_label
_atom_site_fract_x
_atom_site_fract_y
_atom_site_fract_z
Si Si1 0.317845 0.371840 0.379589
Si Si2 0.965183 0.601199 0.295925
Si Si3 0.145655 0.764712 0.601578
Si Si4 0.014002 0.825846 0.342675
Si Si5 0.512398 0.520876 0.284205
Si Si6 0.325278 0.813133 0.378623
Si Si7 0.485291 0.803324 0.738668
Si Si8 0.201711 0.092224 0.698220
O O1 0.240091 0.594420 0.415221
O O2 0.403513 0.327015 0.350193
O O3 0.239497 0.211668 0.669473
O O4 0.399989 0.349631 0.059658
O O5 0.970064 0.366694 0.461035
O O6 0.848470 0.733768 0.416529
O O7 0.993523 0.715913 0.305619
O O8 0.050200 0.646211 0.944034
O O9 0.202450 0.811951 0.594794
O O10 0.091058 0.979346 0.516390
O O11 0.119500 0.939541 0.019428
O O12 0.500000 0.500000 0.500000
O O13 0.389235 0.612825 0.438395
O O14 0.552511 0.319525 0.228864
O O15 0.312479 0.966435 0.442543
O O16 0.395422 0.853104 0.048041
O O17 0.500000 0.000000 0.500000
#
# Coordination Sequence:
#
# PCOD9073416 Si02
#       8
#     2   2   2   2   2   2   2   2
#     4  11  25  45  66  95 141 178 218 277 341 393
#     4  10  21  39  64 101 132 172 226 279 325 397
#     4  11  19  43  68  92 129 188 213 270 335 397
#     4  10  21  39  65 100 137 167 226 279 330 394
#     4  11  25  44  67 100 132 171 226 280 328 402
#     4  11  21  43  70  89 137 180 218 271 334 393
#     4  11  25  44  66  98 135 173 225 275 334 403
#     4  11  23  41  66  99 134 179 222 276 332 393
#
# _framework density 22.052813
#
# number of rings (size 3 to 8) (size 9 to 14) (size 15 to 20)
#    0.000    1.250    5.000    1.500    3.500    5.000 
#    0.000    1.250    0.000    0.000    0.000    0.000 
#    0.000    0.000    0.000    0.000    0.000    0.000 
#
# Total GULP energy -89158.452360 kJ/mol
# GULP energy per Si atom -5572.403273 kJ/mol
# Density = 2.200262 g / cm^3
# Si number density = 22.052813 Si / 1000 Ang^3
#
#
#
# Elastic Constant Matrix: (Units=GPa)
#
#
# Indices 1 2 3 4 5 6 
#
# 1 21.7340 11.7708 44.4965 -16.5782 3.8713 3.1605
# 2 11.7708 139.7800 66.6774 -16.4243 -2.5293 -2.3800
# 3 44.4965 66.6774 65.8959 -17.5581 8.1684 -3.8761
# 4 -16.5782 -16.4243 -17.5581 39.1384 3.2020 1.0388
# 5 3.8713 -2.5293 8.1684 3.2020 28.8464 -14.6915
# 6 3.1605 -2.3800 -3.8761 1.0388 -14.6915 31.2371
#
#
#
# Elastic Compliance Matrix: (Units=1/GPa)
#
#
# Indices 1 2 3 4 5 6 
#
# 1 -0.038565 -0.018695 0.045069 -0.003602 -0.006121 0.005311
# 2 -0.018695 0.005862 0.005508 -0.003499 0.004536 0.005271
# 3 0.045069 0.005508 -0.016496 0.014917 -0.007830 -0.010366
# 4 -0.003602 -0.003499 0.014917 0.030079 -0.009078 -0.003321
# 5 -0.006121 0.004536 -0.007830 -0.009078 0.051627 0.024577
# 6 0.005311 0.005271 -0.010366 -0.003321 0.024577 0.042261
#
#
# Mechanical properties :
#
#
# Convention : Reuss Voigt Hill
#
# Bulk Modulus (GPa) = 68.65400 52.58883 60.62141
# Shear Modulus (GPa) = 315.29562 26.80873 171.05217
#
# Velocity S-wave (km/s) = 11.97010 3.49041 8.81664
# Velocity P-wave (km/s) = 14.90784 6.33581 11.45396
#
# Compressibility (1/GPa) = 0.01456579
#
# Stress axis : x y z
#
# Youngs Moduli (GPa) = -25.93005 170.59967 -60.62236
#
# Poissons Ratio (x) = 3.18933 2.73221
# Poissons Ratio (y) = -0.48476 0.33391
# Poissons Ratio (z) = 1.16865 -0.93967
#
# Static dielectric constant tensor:
#      x y z
#    x 1.835720 0.052990 -0.063520 
#    y 0.052990 1.858780 0.039240 
#    z -0.063520 0.039240 1.869940 
# 
# From -- ./inp_files/338097.got.cif
#   From: 2010.05.17/outbox.ucp.g08.bks.cvg/sg2_170_cif.got.tgz:338097.got - 2010.06.11 11:32:03.
