data_PCOD9073632
_publ_section_title
;
Structure prediction by ZEFSAII (Michael W. Deem and Ramdas Pophale) SiO2 
 PCOD9073632
Probable space group: P -1
;
_chemical_formula_sum "Si O2"
_cell_formula_units_Z 16
_cell_length_a 9.000000
_cell_length_b 9.000000
_cell_length_c 9.000000
_cell_angle_alpha 90.000000
_cell_angle_beta 90.000000
_cell_angle_gamma 90.000000
_cell_volume 729.000000
_symmetry_space_group_name_H-M "P -1"
_symmetry_group_IT_number 2
_symmetry_cell_setting 'triclinic'
loop_
_space_group_symop_operation_xyz
x,y,z
-x,-y,-z
loop_
_atom_site_type_symbol
_atom_site_label
_atom_site_fract_x
_atom_site_fract_y
_atom_site_fract_z
Si Si1 0.735666 0.798539 0.411149
Si Si2 0.790785 0.192969 0.880567
Si Si3 0.749709 0.080816 0.221478
Si Si4 0.371178 0.574140 0.294679
Si Si5 0.861469 0.631414 0.853035
Si Si6 0.903565 0.922974 0.695183
Si Si7 0.087851 0.393507 0.823288
Si Si8 0.443010 0.683994 0.595725
O O1 0.845331 0.871391 0.534442
O O2 0.826464 0.672890 0.317768
O O3 0.591325 0.746045 0.507822
O O4 0.693093 0.920068 0.283544
O O5 0.652778 0.296465 0.827221
O O6 0.941888 0.294181 0.870731
O O7 0.826848 0.072533 0.753105
O O8 0.765429 0.119118 0.043988
O O9 0.640006 0.200791 0.297660
O O10 0.918295 0.079128 0.286164
O O11 0.248728 0.454740 0.252734
O O12 0.339846 0.643011 0.455995
O O13 0.515366 0.469019 0.317610
O O14 0.853109 0.801468 0.814919
O O15 0.021489 0.559399 0.812255
O O16 0.819629 0.606426 0.024334
#
# Coordination Sequence:
#
# PCOD9073632 Si02
#       8
#     2   2   2   2   2   2   2   2
#     4  12  25  44  68 103 140 183 223 280 339 410
#     4  11  23  45  72 103 135 177 229 286 339 396
#     4  12  25  42  72 103 141 177 225 285 338 407
#     4  10  24  49  69  95 139 182 230 279 331 414
#     4  10  21  41  68 103 136 171 228 284 340 398
#     4  12  23  41  72 108 133 177 226 285 346 396
#     4  10  22  41  67 103 138 172 225 287 340 394
#     4  11  26  48  66  99 141 186 226 273 341 409
#
# _framework density 21.947873999999999
#
# number of rings (size 3 to 8) (size 9 to 14) (size 15 to 20)
#    0.000    1.000    3.750    2.625    3.500    3.000 
#    2.250    1.250    0.000    0.000    0.000    0.000 
#    0.000    0.000    0.000    0.000    0.000    0.000 
#
# Total GULP energy -89337.850813 kJ/mol
# GULP energy per Si atom -5583.615676 kJ/mol
# Density = 2.189792 g / cm^3
# Si number density = 21.947874 Si / 1000 Ang^3
#
#
#
# Elastic Constant Matrix: (Units=GPa)
#
#
# Indices 1 2 3 4 5 6 
#
# 1 39.1604 25.2422 50.2863 16.8729 1.6138 2.8737
# 2 25.2422 98.6445 22.6225 1.5917 -0.4400 -21.5718
# 3 50.2863 22.6225 114.8514 10.8318 -1.9551 -6.0566
# 4 16.8729 1.5917 10.8318 41.5124 -17.0920 -7.8826
# 5 1.6138 -0.4400 -1.9551 -17.0920 36.3916 3.2549
# 6 2.8737 -21.5718 -6.0566 -7.8826 3.2549 30.4116
#
#
#
# Elastic Compliance Matrix: (Units=1/GPa)
#
#
# Indices 1 2 3 4 5 6 
#
# 1 0.253025 -0.066890 -0.093029 -0.124783 -0.065327 -0.115235
# 2 -0.066890 0.030245 0.022420 0.034808 0.017360 0.039403
# 3 -0.093029 0.022420 0.043568 0.043139 0.023236 0.042065
# 4 -0.124783 0.034808 0.043139 0.093566 0.046462 0.064352
# 5 -0.065327 0.017360 0.023236 0.046462 0.050999 0.029699
# 6 -0.115235 0.039403 0.042065 0.064352 0.029699 0.093599
#
#
# Mechanical properties :
#
#
# Convention : Reuss Voigt Hill
#
# Bulk Modulus (GPa) = 19.29002 49.88426 34.58714
# Shear Modulus (GPa) = 5.83240 31.96346 18.89793
#
# Velocity S-wave (km/s) = 1.63192 3.82034 2.93753
# Velocity P-wave (km/s) = 3.51553 6.49906 5.22479
#
# Compressibility (1/GPa) = 0.05184027
#
# Stress axis : x y z
#
# Youngs Moduli (GPa) = 3.95218 33.06361 22.95278
#
# Poissons Ratio (x) = 2.21162 2.13527
# Poissons Ratio (y) = 0.26436 -0.51460
# Poissons Ratio (z) = 0.36767 -0.74129
#
# Static dielectric constant tensor:
#      x y z
#    x 1.841090 0.037210 0.041490 
#    y 0.037210 1.855550 -0.030560 
#    z 0.041490 -0.030560 1.776190 
# 
# From -- ./inp_files/158734.got.cif
#   From: 2010.05.17/outbox.ucp.g08.bks.cvg/sg2_80_cif.got.tgz:158734.got - 2010.06.11 11:32:03.
