data_PCOD9073971
_publ_section_title
;
Structure prediction by ZEFSAII (Michael W. Deem and Ramdas Pophale) SiO2 
 PCOD9073971
Probable space group: P -1
;
_chemical_formula_sum "Si O2"
_cell_formula_units_Z 15
_cell_length_a 9.000000
_cell_length_b 12.000000
_cell_length_c 12.000000
_cell_angle_alpha 130.000000
_cell_angle_beta 60.000000
_cell_angle_gamma 140.000000
_cell_volume 638.079485
_symmetry_space_group_name_H-M "P -1"
_symmetry_group_IT_number 2
_symmetry_cell_setting 'triclinic'
loop_
_space_group_symop_operation_xyz
x,y,z
-x,-y,-z
loop_
_atom_site_type_symbol
_atom_site_label
_atom_site_fract_x
_atom_site_fract_y
_atom_site_fract_z
Si Si1 0.378932 0.008741 0.216376
Si Si2 0.754357 0.314052 0.107706
Si Si3 0.000000 0.000000 0.000000
Si Si4 0.373820 0.040934 0.736263
Si Si5 0.993254 0.754147 0.517082
Si Si6 0.125535 0.285929 0.710809
Si Si7 0.163822 0.540862 0.239834
Si Si8 0.334464 0.406316 0.260837
O O1 0.509736 0.036154 0.299278
O O2 0.108616 0.900038 0.258867
O O3 0.549682 0.208001 0.208724
O O4 0.353650 0.843524 0.050428
O O5 0.856746 0.526825 0.168461
O O6 0.978215 0.362924 0.110854
O O7 0.824701 0.004747 0.140521
O O8 0.766527 0.795865 0.890279
O O9 0.594399 0.271831 0.784758
O O10 0.231046 0.935752 0.607077
O O11 0.931574 0.787726 0.442720
O O12 0.775166 0.651431 0.612842
O O13 0.036495 0.610073 0.379489
O O14 0.389772 0.402365 0.720195
O O15 0.218658 0.466875 0.271491
#
# Coordination Sequence:
#
# PCOD9073971 Si02
#       8
#     2   2   1   2   2   2   2   2
#     4  11  22  40  67  95 133 171 224 268 321 395
#     4  10  22  40  66  96 124 176 222 266 327 388
#     4  10  24  40  62  94 132 168 206 278 324 378
#     4  11  22  43  68  97 134 172 221 273 326 390
#     4  10  22  44  68  92 131 175 223 270 324 382
#     4  11  23  42  65  95 133 173 215 275 326 392
#     4  11  23  41  70  96 125 178 223 268 324 398
#     4  11  24  43  65  98 135 170 217 274 331 388
#
# _framework density 23.508043000000001
#
# number of rings (size 3 to 8) (size 9 to 14) (size 15 to 20)
#    0.000    1.333    2.667    4.000    1.867    2.667 
#    9.600    0.667    0.000    0.000    0.000    0.000 
#    0.000    0.000    0.000    0.000    0.000    0.000 
#
# Total GULP energy -83627.811269 kJ/mol
# GULP energy per Si atom -5575.187418 kJ/mol
# Density = 2.345454 g / cm^3
# Si number density = 23.508043 Si / 1000 Ang^3
#
#
#
# Elastic Constant Matrix: (Units=GPa)
#
#
# Indices 1 2 3 4 5 6 
#
# 1 54.5976 16.8351 31.8777 13.7047 12.1370 33.5559
# 2 16.8351 121.6179 7.4227 -7.1059 0.2296 37.5185
# 3 31.8777 7.4227 68.9681 7.6597 7.5715 9.2181
# 4 13.7047 -7.1059 7.6597 23.3456 16.3239 7.9588
# 5 12.1370 0.2296 7.5715 16.3239 26.4383 5.0604
# 6 33.5559 37.5185 9.2181 7.9588 5.0604 49.1269
#
#
#
# Elastic Compliance Matrix: (Units=1/GPa)
#
#
# Indices 1 2 3 4 5 6 
#
# 1 0.051052 0.003730 -0.018071 -0.005955 -0.008396 -0.032499
# 2 0.003730 0.012348 -0.001915 0.010069 -0.005051 -0.012729
# 3 -0.018071 -0.001915 0.021772 -0.001057 0.000854 0.009804
# 4 -0.005955 0.010069 -0.001057 0.088527 -0.049282 -0.012689
# 5 -0.008396 -0.005051 0.000854 -0.049282 0.069952 0.010211
# 6 -0.032499 -0.012729 0.009804 -0.012689 0.010211 0.051439
#
#
# Mechanical properties :
#
#
# Convention : Reuss Voigt Hill
#
# Bulk Modulus (GPa) = 18.99056 39.71718 29.35387
# Shear Modulus (GPa) = 14.48620 32.38534 23.43577
#
# Velocity S-wave (km/s) = 2.48508 3.71567 3.16084
# Velocity P-wave (km/s) = 4.04104 5.94475 5.08282
#
# Compressibility (1/GPa) = 0.05265775
#
# Stress axis : x y z
#
# Youngs Moduli (GPa) = 19.58777 80.98610 45.93141
#
# Poissons Ratio (x) = -0.30205 0.83004
# Poissons Ratio (y) = -0.07305 0.08797
# Poissons Ratio (z) = 0.35398 0.15510
#
# Static dielectric constant tensor:
#      x y z
#    x 1.927950 -0.030300 0.006780 
#    y -0.030300 1.883420 -0.010570 
#    z 0.006780 -0.010570 1.929910 
# 
# From -- ./inp_files/388753.got.cif
#   From: 2010.05.17/outbox.ucp.g08.bks.cvg/sg2_195_cif.got.tgz:388753.got - 2010.06.11 11:32:03.
