data_PCOD9073992
_publ_section_title
;
Structure prediction by ZEFSAII (Michael W. Deem and Ramdas Pophale) SiO2 
 PCOD9073992
Probable space group: P -1
;
_chemical_formula_sum "Si O2"
_cell_formula_units_Z 16
_cell_length_a 12.823214
_cell_length_b 20.838385
_cell_length_c 5.519310
_cell_angle_alpha 102.409528
_cell_angle_beta 66.607540
_cell_angle_gamma 141.910531
_cell_volume 822.541296
_symmetry_space_group_name_H-M "P -1"
_symmetry_group_IT_number 2
_symmetry_cell_setting 'triclinic'
loop_
_space_group_symop_operation_xyz
x,y,z
-x,-y,-z
loop_
_atom_site_type_symbol
_atom_site_label
_atom_site_fract_x
_atom_site_fract_y
_atom_site_fract_z
Si Si1 0.874721 0.617860 0.550941
Si Si2 0.201367 0.830725 0.615221
Si Si3 0.082420 0.088335 0.190256
Si Si4 0.456664 0.037266 0.264033
Si Si5 0.756368 0.952211 0.764677
Si Si6 0.695825 0.655869 0.507396
Si Si7 0.303518 0.477755 0.855043
Si Si8 0.021141 0.165229 0.947553
O O1 0.789788 0.652456 0.618332
O O2 0.819475 0.559997 0.298453
O O3 0.089965 0.727374 0.479481
O O4 0.785703 0.549719 0.824285
O O5 0.377303 0.884011 0.636757
O O6 0.275351 0.925755 0.468047
O O7 0.053906 0.795673 0.905808
O O8 0.249865 0.123705 0.182320
O O9 0.117241 0.171754 0.086840
O O10 0.916906 0.021395 0.474878
O O11 0.000000 0.000000 0.000000
O O12 0.414906 0.088173 0.223330
O O13 0.500000 0.000000 0.000000
O O14 0.840440 0.041341 0.953168
O O15 0.505527 0.598026 0.727254
O O16 0.661173 0.585394 0.267714
O O17 0.838806 0.770194 0.351671
#
# Coordination Sequence:
#
# PCOD9073992 Si02
#       8
#     2   2   2   2   2   2   2   2
#     4  10  18  32  45  66 100 139 169 202 249 311
#     4  11  21  29  46  71  97 140 171 213 247 305
#     4   9  20  32  52  67  94 132 173 210 259 299
#     4  11  22  32  47  70 103 131 179 214 254 293
#     4  10  19  35  48  70  96 136 171 216 251 301
#     4   9  19  27  47  69  99 132 166 208 250 309
#     4   9  19  29  46  68  99 138 166 204 253 303
#     4  11  18  31  48  72  98 133 172 207 256 310
#
# _framework density 19.451910000000002
#
# number of rings (size 3 to 8) (size 9 to 14) (size 15 to 20)
#    0.750    1.250    3.750    1.125    1.750    0.000 
#    0.000    0.000    0.000    0.000    0.000    0.000 
#    0.000    2.000    0.000    0.125    0.000    0.000 
#
# Total GULP energy -89118.169150 kJ/mol
# GULP energy per Si atom -5569.885572 kJ/mol
# Density = 1.940764 g / cm^3
# Si number density = 19.451910 Si / 1000 Ang^3
#
#
#
# Elastic Constant Matrix: (Units=GPa)
#
#
# Indices 1 2 3 4 5 6 
#
# 1 90.1368 9.6801 14.6585 -2.5057 6.5724 18.5117
# 2 9.6801 41.4472 8.4625 -14.3988 4.0388 17.9394
# 3 14.6585 8.4625 76.3084 -5.7941 18.3052 5.3006
# 4 -2.5057 -14.3988 -5.7941 25.7510 -0.8807 -3.8376
# 5 6.5724 4.0388 18.3052 -0.8807 23.2194 5.9578
# 6 18.5117 17.9394 5.3006 -3.8376 5.9578 21.5939
#
#
#
# Elastic Compliance Matrix: (Units=1/GPa)
#
#
# Indices 1 2 3 4 5 6 
#
# 1 0.014031 0.003721 -0.002259 0.000781 0.000961 -0.014691
# 2 0.003721 0.047732 -0.002549 0.020710 0.003581 -0.039525
# 3 -0.002259 -0.002549 0.016875 0.002290 -0.013146 0.003946
# 4 0.000781 0.020710 0.002290 0.049580 -0.001376 -0.009246
# 5 0.000961 0.003581 -0.013146 -0.001376 0.056708 -0.016462
# 6 -0.014691 -0.039525 0.003946 -0.009246 -0.016462 0.093670
#
#
# Mechanical properties :
#
#
# Convention : Reuss Voigt Hill
#
# Bulk Modulus (GPa) = 13.07821 30.38827 21.73324
# Shear Modulus (GPa) = 16.32611 25.78561 21.05586
#
# Velocity S-wave (km/s) = 2.90022 3.64484 3.29364
# Velocity P-wave (km/s) = 4.23710 5.77662 5.06568
#
# Compressibility (1/GPa) = 0.07646308
#
# Stress axis : x y z
#
# Youngs Moduli (GPa) = 71.27194 20.95027 59.26043
#
# Poissons Ratio (x) = -0.07795 0.13385
# Poissons Ratio (y) = -0.26517 0.15106
# Poissons Ratio (z) = 0.16098 0.05340
#
# Static dielectric constant tensor:
#      x y z
#    x 1.703320 0.015540 0.033450 
#    y 0.015540 1.772180 0.036030 
#    z 0.033450 0.036030 1.768590 
# 
# From -- ./inp_files/78376.got.cif
#   From: 2010.05.17/outbox.cif.g08.bks.cpg/sg2_40_cif.got.tgz:78376.got - 2010.06.03 11:33:40.
