data_PCOD9073617
_publ_section_title
;
Structure prediction by ZEFSAII (Michael W. Deem and Ramdas Pophale) SiO2 
 PCOD9073617
Probable space group: P -1
;
_chemical_formula_sum "Si O2"
_cell_formula_units_Z 16
_cell_length_a 12.000000
_cell_length_b 15.000000
_cell_length_c 15.000000
_cell_angle_alpha 30.000000
_cell_angle_beta 120.000000
_cell_angle_gamma 140.000000
_cell_volume 747.221570
_symmetry_space_group_name_H-M "P -1"
_symmetry_group_IT_number 2
_symmetry_cell_setting 'triclinic'
loop_
_space_group_symop_operation_xyz
x,y,z
-x,-y,-z
loop_
_atom_site_type_symbol
_atom_site_label
_atom_site_fract_x
_atom_site_fract_y
_atom_site_fract_z
Si Si1 0.915414 0.949011 0.781971
Si Si2 0.191110 0.220174 0.319050
Si Si3 0.887722 0.592124 0.207670
Si Si4 0.423759 0.566228 0.669838
Si Si5 0.895950 0.513628 0.678695
Si Si6 0.399990 0.829992 0.292518
Si Si7 0.169792 0.589223 0.050361
Si Si8 0.215014 0.989584 0.145826
O O1 0.811799 0.960221 0.808727
O O2 0.085032 0.264984 0.541138
O O3 0.816176 0.802680 0.772308
O O4 0.958920 0.810820 0.971349
O O5 0.342010 0.226649 0.406040
O O6 0.246125 0.483903 0.131408
O O7 0.000000 0.000000 0.500000
O O8 0.663053 0.409485 0.303682
O O9 0.929436 0.437090 0.325575
O O10 0.013137 0.752412 0.211067
O O11 0.359019 0.602027 0.524652
O O12 0.329057 0.269057 0.897609
O O13 0.702034 0.241846 0.781508
O O14 0.891893 0.506652 0.788984
O O15 0.321105 0.910492 0.252271
O O16 0.636582 0.080753 0.157623
O O17 0.000000 0.500000 0.000000
#
# Coordination Sequence:
#
# PCOD9073617 Si02
#       8
#     2   2   2   2   2   2   2   2
#     4  11  22  40  67  96 131 177 212 272 330 386
#     4  12  25  45  64  91 136 178 225 268 324 394
#     4  10  22  40  68 103 132 166 215 276 337 390
#     4  11  22  41  65  96 134 171 213 271 330 390
#     4  11  23  43  69  99 131 173 225 272 326 395
#     4  11  23  42  69  99 131 175 219 275 333 387
#     4  12  25  46  67  92 136 181 222 276 326 388
#     4  10  21  41  67 101 135 165 216 276 331 395
#
# _framework density 21.412658
#
# number of rings (size 3 to 8) (size 9 to 14) (size 15 to 20)
#    0.000    1.000    2.500    5.625    0.000    4.000 
#    2.250    1.875    0.000    0.000    0.000    0.000 
#    0.000    0.000    0.000    0.000    0.000    0.000 
#
# Total GULP energy -89201.911555 kJ/mol
# GULP energy per Si atom -5575.119472 kJ/mol
# Density = 2.136392 g / cm^3
# Si number density = 21.412658 Si / 1000 Ang^3
#
#
#
# Elastic Constant Matrix: (Units=GPa)
#
#
# Indices 1 2 3 4 5 6 
#
# 1 105.4445 71.1504 14.8187 11.5932 -1.0548 -2.5095
# 2 71.1504 105.5576 28.4237 32.0480 -12.7692 -7.0811
# 3 14.8187 28.4237 86.2793 27.2999 -4.5316 3.7838
# 4 11.5932 32.0480 27.2999 31.8305 3.7202 3.1167
# 5 -1.0548 -12.7692 -4.5316 3.7202 31.0559 -0.9218
# 6 -2.5095 -7.0811 3.7838 3.1167 -0.9218 42.9600
#
#
#
# Elastic Compliance Matrix: (Units=1/GPa)
#
#
# Indices 1 2 3 4 5 6 
#
# 1 0.021412 -0.020017 -0.002519 0.015983 -0.009880 -0.003198
# 2 -0.020017 0.034989 0.003164 -0.033500 0.018393 0.007144
# 3 -0.002519 0.003164 0.016756 -0.017338 0.005746 0.000280
# 4 0.015983 -0.033500 -0.017338 0.078069 -0.025388 -0.009270
# 5 -0.009880 0.018393 0.005746 -0.025388 0.043447 0.004723
# 6 -0.003198 0.007144 0.000280 -0.009270 0.004723 0.025017
#
#
# Mechanical properties :
#
#
# Convention : Reuss Voigt Hill
#
# Bulk Modulus (GPa) = 29.05903 58.45188 43.75546
# Shear Modulus (GPa) = 18.52503 33.36185 25.94344
#
# Velocity S-wave (km/s) = 2.94452 3.95149 3.48457
# Velocity P-wave (km/s) = 5.01605 6.94090 6.05544
#
# Compressibility (1/GPa) = 0.03441271
#
# Stress axis : x y z
#
# Youngs Moduli (GPa) = 46.70282 28.58065 59.67967
#
# Poissons Ratio (x) = 0.57209 0.15035
# Poissons Ratio (y) = 0.93483 -0.18882
# Poissons Ratio (z) = 0.11766 -0.09043
#
# Static dielectric constant tensor:
#      x y z
#    x 1.761330 -0.006420 -0.030350 
#    y -0.006420 1.815590 -0.074090 
#    z -0.030350 -0.074090 1.873510 
# 
# From -- ./inp_files/398876.got.cif
#   From: 2010.05.17/outbox.ucp.g08.bks.cvg/sg2_200_cif.got.tgz:398876.got - 2010.06.11 11:32:03.
