data_PCOD9073449
_publ_section_title
;
Structure prediction by ZEFSAII (Michael W. Deem and Ramdas Pophale) SiO2 
 PCOD9073449
Probable space group: P -1
;
_chemical_formula_sum "Si O2"
_cell_formula_units_Z 16
_cell_length_a 21.000000
_cell_length_b 12.000000
_cell_length_c 9.000000
_cell_angle_alpha 40.000000
_cell_angle_beta 50.000000
_cell_angle_gamma 30.000000
_cell_volume 727.418465
_symmetry_space_group_name_H-M "P -1"
_symmetry_group_IT_number 2
_symmetry_cell_setting 'triclinic'
loop_
_space_group_symop_operation_xyz
x,y,z
-x,-y,-z
loop_
_atom_site_type_symbol
_atom_site_label
_atom_site_fract_x
_atom_site_fract_y
_atom_site_fract_z
Si Si1 0.294486 0.173536 0.036345
Si Si2 0.571079 0.552634 0.238725
Si Si3 0.300633 0.344170 0.146793
Si Si4 0.976372 0.245147 0.783886
Si Si5 0.750826 0.874946 0.135303
Si Si6 0.613076 0.408606 0.649850
Si Si7 0.968020 0.550214 0.729902
Si Si8 0.530599 0.118571 0.431796
O O1 0.279632 0.233043 0.823839
O O2 0.285432 0.340763 0.997583
O O3 0.167519 0.264851 0.176799
O O4 0.434890 0.864732 0.155274
O O5 0.641522 0.416361 0.429045
O O6 0.526128 0.456865 0.313382
O O7 0.656031 0.530026 0.024802
O O8 0.176305 0.497300 0.269527
O O9 0.412541 0.042249 0.335922
O O10 0.995157 0.331607 0.815874
O O11 0.044856 0.254623 0.548708
O O12 0.000000 0.000000 0.000000
O O13 0.900008 0.635851 0.190068
O O14 0.647033 0.030427 0.263616
O O15 0.711030 0.110510 0.864756
O O16 0.588463 0.579850 0.645378
O O17 0.500000 0.000000 0.500000
#
# Coordination Sequence:
#
# PCOD9073449 Si02
#       8
#     2   2   2   2   2   2   2   2
#     4  10  21  39  68  90 123 178 213 259 324 378
#     4  10  21  39  66  95 125 164 220 269 308 391
#     4  11  22  41  64  94 126 166 216 267 321 385
#     4  10  23  41  66  97 124 174 218 265 327 383
#     4  11  23  41  62  93 131 169 209 266 328 380
#     4  10  23  38  60  97 128 171 210 257 334 378
#     4  10  22  43  65  92 134 169 219 268 315 397
#     4  12  24  38  61  94 131 166 208 266 330 380
#
# _framework density 21.995591999999998
#
# number of rings (size 3 to 8) (size 9 to 14) (size 15 to 20)
#    0.000    1.500    2.500    2.625    1.750    5.000 
#    0.000    0.000    0.000    3.750    0.000    0.000 
#    0.000    0.000    0.000    0.000    0.000    0.000 
#
# Total GULP energy -89100.738271 kJ/mol
# GULP energy per Si atom -5568.796142 kJ/mol
# Density = 2.194553 g / cm^3
# Si number density = 21.995592 Si / 1000 Ang^3
#
#
#
# Elastic Constant Matrix: (Units=GPa)
#
#
# Indices 1 2 3 4 5 6 
#
# 1 65.5240 24.8454 38.2124 -0.6986 -5.1735 10.1551
# 2 24.8454 32.3585 3.8131 -3.5767 2.0224 9.6778
# 3 38.2124 3.8131 66.4280 -0.0569 -3.8887 0.6687
# 4 -0.6986 -3.5767 -0.0569 29.4035 -1.8605 -2.7080
# 5 -5.1735 2.0224 -3.8887 -1.8605 28.9114 -5.3453
# 6 10.1551 9.6778 0.6687 -2.7080 -5.3453 34.6048
#
#
#
# Elastic Compliance Matrix: (Units=1/GPa)
#
#
# Indices 1 2 3 4 5 6 
#
# 1 0.037562 -0.026298 -0.019765 -0.002255 0.005268 -0.002649
# 2 -0.026298 0.053208 0.011687 0.004596 -0.008091 -0.008279
# 3 -0.019765 0.011687 0.025707 0.001163 -0.000441 0.002058
# 4 -0.002255 0.004596 0.001163 0.034874 0.002121 0.002411
# 5 0.005268 -0.008091 -0.000441 0.002121 0.037407 0.006670
# 6 -0.002649 -0.008279 0.002058 0.002411 0.006670 0.033170
#
#
# Mechanical properties :
#
#
# Convention : Reuss Voigt Hill
#
# Bulk Modulus (GPa) = 20.95278 33.11692 27.03485
# Shear Modulus (GPa) = 16.30854 25.07992 20.69423
#
# Velocity S-wave (km/s) = 2.72590 3.38038 3.07063
# Velocity P-wave (km/s) = 4.41067 5.50680 4.98893
#
# Compressibility (1/GPa) = 0.04772638
#
# Stress axis : x y z
#
# Youngs Moduli (GPa) = 26.62259 18.79403 38.89989
#
# Poissons Ratio (x) = 0.49424 0.76885
# Poissons Ratio (y) = 0.70012 -0.45463
# Poissons Ratio (z) = 0.52619 -0.21965
#
# Static dielectric constant tensor:
#      x y z
#    x 1.873120 0.012970 -0.005900 
#    y 0.012970 1.755280 0.004180 
#    z -0.005900 0.004180 1.858910 
# 
# From -- ./inp_files/345853.got.cif
#   From: 2010.05.17/outbox.ucp.g08.bks.cvg/sg2_173_cif.got.tgz:345853.got - 2010.06.11 11:32:03.
