data_PCOD9073152
_publ_section_title
;
Structure prediction by ZEFSAII (Michael W. Deem and Ramdas Pophale) SiO2 
 PCOD9073152
Probable space group: P -1
;
_chemical_formula_sum "Si O2"
_cell_formula_units_Z 16
_cell_length_a 9.000000
_cell_length_b 21.000000
_cell_length_c 24.000000
_cell_angle_alpha 20.000000
_cell_angle_beta 30.000000
_cell_angle_gamma 30.000000
_cell_volume 738.640068
_symmetry_space_group_name_H-M "P -1"
_symmetry_group_IT_number 2
_symmetry_cell_setting 'triclinic'
loop_
_space_group_symop_operation_xyz
x,y,z
-x,-y,-z
loop_
_atom_site_type_symbol
_atom_site_label
_atom_site_fract_x
_atom_site_fract_y
_atom_site_fract_z
Si Si1 0.704300 0.020107 0.862958
Si Si2 0.323295 0.981817 0.512961
Si Si3 0.194251 0.411622 0.563395
Si Si4 0.162513 0.654778 0.977232
Si Si5 0.888571 0.395869 0.346176
Si Si6 0.931636 0.699800 0.890801
Si Si7 0.354871 0.981893 0.892833
Si Si8 0.934915 0.686338 0.517519
O O1 0.518600 0.991954 0.890822
O O2 0.788002 0.221262 0.663505
O O3 0.053058 0.864112 0.870739
O O4 0.500000 0.000000 0.000000
O O5 0.604781 0.859669 0.481957
O O6 0.083854 0.855933 0.688278
O O7 0.500000 0.000000 0.500000
O O8 0.087789 0.202274 0.406843
O O9 0.523802 0.447817 0.429959
O O10 0.000000 0.500000 0.500000
O O11 0.984466 0.506217 0.607214
O O12 0.321215 0.179319 0.708835
O O13 0.924402 0.566639 0.156840
O O14 0.500000 0.500000 0.000000
O O15 0.098893 0.670899 0.919856
O O16 0.029931 0.384179 0.371864
O O17 0.567661 0.798454 0.940759
O O18 0.000000 0.500000 0.000000
O O19 0.000000 0.000000 0.000000
#
# Coordination Sequence:
#
# PCOD9073152 Si02
#       8
#     2   2   2   2   2   2   2   2
#     4  11  24  43  68 101 133 170 222 278 332 398
#     4  10  20  43  71  95 130 174 222 277 335 395
#     4  12  27  43  65  97 133 177 226 268 331 397
#     4  11  23  40  66 103 132 167 223 275 333 398
#     4  11  21  43  68  94 132 171 222 285 326 386
#     4  11  25  46  68  99 138 180 220 274 342 402
#     4  11  26  46  66  93 139 177 217 275 336 395
#     4  11  23  42  71  96 127 175 227 270 339 397
#
# _framework density 21.661429999999999
#
# number of rings (size 3 to 8) (size 9 to 14) (size 15 to 20)
#    0.000    1.000    2.500    5.625    8.750    1.000 
#    2.250    1.250    0.000    0.000    0.000    0.000 
#    0.000    0.000    0.000    0.000    0.000    0.000 
#
# Total GULP energy -89107.678173 kJ/mol
# GULP energy per Si atom -5569.229886 kJ/mol
# Density = 2.161213 g / cm^3
# Si number density = 21.661430 Si / 1000 Ang^3
#
#
#
# Elastic Constant Matrix: (Units=GPa)
#
#
# Indices 1 2 3 4 5 6 
#
# 1 -65.5188 17.6158 -119.3840 -2.8858 -25.2215 11.4615
# 2 17.6158 141.6780 -30.1886 -14.0210 -11.1376 -15.7824
# 3 -119.3840 -30.1886 -92.8603 0.4933 -42.4381 13.1150
# 4 -2.8858 -14.0210 0.4933 31.1362 2.8998 -10.1970
# 5 -25.2215 -11.1376 -42.4381 2.8998 14.1302 6.9228
# 6 11.4615 -15.7824 13.1150 -10.1970 6.9228 23.6741
#
#
#
# Elastic Compliance Matrix: (Units=1/GPa)
#
#
# Indices 1 2 3 4 5 6 
#
# 1 0.023310 -0.008438 -0.018339 0.000193 -0.019721 -0.000901
# 2 -0.008438 0.011627 0.005943 0.007097 0.005620 0.009957
# 3 -0.018339 0.005943 0.011272 0.003117 0.001489 0.007503
# 4 0.000193 0.007097 0.003117 0.043245 -0.004818 0.022947
# 5 -0.019721 0.005620 0.001489 -0.004818 0.047119 -0.003385
# 6 -0.000901 0.009957 0.007503 0.022947 -0.003385 0.056031
#
#
# Mechanical properties :
#
#
# Convention : Reuss Voigt Hill
#
# Bulk Modulus (GPa) = 220.11566 -31.17940 94.46813
# Shear Modulus (GPa) = 21.20566 21.47181 21.33874
#
# Velocity S-wave (km/s) = 3.13223 3.15182 3.14204
# Velocity P-wave (km/s) = 10.71999 1.08624 7.54116
#
# Compressibility (1/GPa) = 0.00454307
#
# Stress axis : x y z
#
# Youngs Moduli (GPa) = 42.89946 86.00574 88.71466
#
# Poissons Ratio (x) = 0.72568 1.62695
# Poissons Ratio (y) = 0.36197 -0.52727
# Poissons Ratio (z) = 0.78674 -0.51117
#
# Static dielectric constant tensor:
#      x y z
#    x 1.780710 0.017140 -0.037450 
#    y 0.017140 1.763380 -0.063430 
#    z -0.037450 -0.063430 1.853810 
# 
# From -- ./inp_files/608621.got.cif
#   From: 2010.05.17/outbox.ucp.g08.bks.cvg/sg2_305_cif.got.tgz:608621.got - 2010.06.11 11:32:03.
