data_PCOD9073092
_publ_section_title
;
Structure prediction by ZEFSAII (Michael W. Deem and Ramdas Pophale) SiO2 
 PCOD9073092
Probable space group: P -1
;
_chemical_formula_sum "Si O2"
_cell_formula_units_Z 16
_cell_length_a 15.000000
_cell_length_b 9.000000
_cell_length_c 15.000000
_cell_angle_alpha 80.000000
_cell_angle_beta 40.000000
_cell_angle_gamma 50.000000
_cell_volume 759.999475
_symmetry_space_group_name_H-M "P -1"
_symmetry_group_IT_number 2
_symmetry_cell_setting 'triclinic'
loop_
_space_group_symop_operation_xyz
x,y,z
-x,-y,-z
loop_
_atom_site_type_symbol
_atom_site_label
_atom_site_fract_x
_atom_site_fract_y
_atom_site_fract_z
Si Si1 0.935604 0.939025 0.178138
Si Si2 0.651365 0.704883 0.657124
Si Si3 0.926250 0.887272 0.550037
Si Si4 0.498350 0.951244 0.106453
Si Si5 0.973176 0.475078 0.881451
Si Si6 0.758172 0.126577 0.473951
Si Si7 0.612754 0.796728 0.291127
Si Si8 0.609944 0.323538 0.229187
O O1 0.944348 0.752917 0.200698
O O2 0.905167 0.047493 0.284258
O O3 0.725938 0.161050 0.248167
O O4 0.182442 0.762515 0.963376
O O5 0.458863 0.746253 0.779664
O O6 0.893111 0.393986 0.515247
O O7 0.622085 0.823778 0.758014
O O8 0.563513 0.908808 0.629363
O O9 0.660717 0.062703 0.760444
O O10 0.911342 0.900254 0.451935
O O11 0.000000 0.000000 0.500000
O O12 0.774169 0.711899 0.944688
O O13 0.500000 0.000000 0.000000
O O14 0.216209 0.338419 0.740712
O O15 0.805711 0.605922 0.084002
O O16 0.552229 0.202980 0.583970
O O17 0.621342 0.379931 0.601688
#
# Coordination Sequence:
#
# PCOD9073092 Si02
#       8
#     2   2   2   2   2   2   2   2
#     4  11  24  38  73  96 135 181 218 284 354 403
#     4  11  23  43  69  92 136 182 222 281 351 397
#     4  12  25  45  69  94 139 184 229 285 340 413
#     4  11  26  45  69 102 137 182 232 284 341 416
#     4  10  20  41  67  99 128 175 223 281 343 397
#     4  12  24  44  67 101 135 178 232 282 342 414
#     4  10  21  41  70  94 131 172 225 283 340 403
#     4  11  23  46  62 100 140 172 226 283 344 414
#
# _framework density 21.052645999999999
#
# number of rings (size 3 to 8) (size 9 to 14) (size 15 to 20)
#    0.000    1.000    6.250    0.750    1.750    1.500 
#    2.250    1.250    0.000    0.000    0.000    0.000 
#    0.000    0.000    0.000    0.000    0.000    0.000 
#
# Total GULP energy -89149.509836 kJ/mol
# GULP energy per Si atom -5571.844365 kJ/mol
# Density = 2.100473 g / cm^3
# Si number density = 21.052646 Si / 1000 Ang^3
#
#
#
# Elastic Constant Matrix: (Units=GPa)
#
#
# Indices 1 2 3 4 5 6 
#
# 1 113.9935 37.6697 32.2154 -4.4038 -12.5665 -6.1978
# 2 37.6697 61.1017 33.1743 23.8500 7.1539 -0.6882
# 3 32.2154 33.1743 32.2355 12.2981 7.8133 -17.0174
# 4 -4.4038 23.8500 12.2981 18.3488 -12.5916 -5.1095
# 5 -12.5665 7.1539 7.8133 -12.5916 14.6208 -2.1246
# 6 -6.1978 -0.6882 -17.0174 -5.1095 -2.1246 44.4368
#
#
#
# Elastic Compliance Matrix: (Units=1/GPa)
#
#
# Indices 1 2 3 4 5 6 
#
# 1 0.004440 0.009476 -0.005244 -0.019494 -0.015419 -0.004221
# 2 0.009476 0.053072 -0.089047 0.005062 0.029770 -0.029952
# 3 -0.005244 -0.089047 0.141355 0.039654 0.005938 0.056866
# 4 -0.019494 0.005062 0.039654 -0.020123 -0.056660 0.007523
# 5 -0.015419 0.029770 0.005938 -0.056660 -0.012340 -0.006521
# 6 -0.004221 -0.029952 0.056866 0.007523 -0.006521 0.043782
#
#
# Mechanical properties :
#
#
# Convention : Reuss Voigt Hill
#
# Bulk Modulus (GPa) = 34.20116 45.93883 40.06999
# Shear Modulus (GPa) = 12.83493 22.43270 17.63382
#
# Velocity S-wave (km/s) = 2.47181 3.26782 2.89728
# Velocity P-wave (km/s) = 4.94239 6.00887 5.50153
#
# Compressibility (1/GPa) = 0.02923878
#
# Stress axis : x y z
#
# Youngs Moduli (GPa) = 225.20020 18.84218 7.07439
#
# Poissons Ratio (x) = -0.17855 0.03710
# Poissons Ratio (y) = -2.13404 0.62995
# Poissons Ratio (z) = 1.18087 1.67784
#
# Static dielectric constant tensor:
#      x y z
#    x 1.832160 -0.037220 -0.001000 
#    y -0.037220 1.815000 -0.006660 
#    z -0.001000 -0.006660 1.779610 
# 
# From -- ./inp_files/529641.got.cif
#   From: 2010.05.17/outbox.ucp.g08.bks.cvg/sg2_265_cif.got.tgz:529641.got - 2010.06.11 11:32:03.
