data_PCOD9073442
_publ_section_title
;
Structure prediction by ZEFSAII (Michael W. Deem and Ramdas Pophale) SiO2 
 PCOD9073442
Probable space group: P -1
;
_chemical_formula_sum "Si O2"
_cell_formula_units_Z 16
_cell_length_a 9.000000
_cell_length_b 18.000000
_cell_length_c 12.000000
_cell_angle_alpha 130.000000
_cell_angle_beta 100.000000
_cell_angle_gamma 40.000000
_cell_volume 729.599496
_symmetry_space_group_name_H-M "P -1"
_symmetry_group_IT_number 2
_symmetry_cell_setting 'triclinic'
loop_
_space_group_symop_operation_xyz
x,y,z
-x,-y,-z
loop_
_atom_site_type_symbol
_atom_site_label
_atom_site_fract_x
_atom_site_fract_y
_atom_site_fract_z
Si Si1 0.631547 0.497033 0.920876
Si Si2 0.561228 0.095789 0.330398
Si Si3 0.127274 0.510589 0.711425
Si Si4 0.131921 0.333611 0.921663
Si Si5 0.063565 0.933361 0.317846
Si Si6 0.489847 0.889097 0.904731
Si Si7 0.731282 0.953130 0.740821
Si Si8 0.680798 0.328063 0.557745
O O1 0.631462 0.436103 0.749880
O O2 0.976900 0.334713 0.832628
O O3 0.500000 0.500000 0.000000
O O4 0.401485 0.717194 0.114141
O O5 0.320397 0.305888 0.548287
O O6 0.637587 0.078666 0.195504
O O7 0.411752 0.074513 0.295103
O O8 0.872321 0.941228 0.284184
O O9 0.346587 0.467552 0.640654
O O10 0.831547 0.662621 0.745350
O O11 0.009731 0.599415 0.906894
O O12 0.495170 0.128569 0.787550
O O13 0.000000 0.500000 0.000000
O O14 0.000000 0.000000 0.500000
O O15 0.893798 0.115572 0.408122
O O16 0.500000 0.000000 0.000000
O O17 0.321100 0.962244 0.067972
O O18 0.091125 0.748160 0.572104
#
# Coordination Sequence:
#
# PCOD9073442 Si02
#       8
#     2   2   2   2   2   2   2   2
#     4  12  21  37  60  84 122 171 205 243 312 372
#     4  10  21  39  66  89 117 165 209 254 310 364
#     4  10  21  40  63  89 124 158 206 256 309 369
#     4  11  23  39  59  89 126 166 207 254 303 371
#     4  11  22  39  61  90 126 162 208 251 302 374
#     4   9  20  40  67  87 117 160 210 255 307 367
#     4  10  23  40  60  92 125 158 209 261 305 364
#     4  11  24  39  59  91 127 161 201 255 313 369
#
# _framework density 21.929839999999999
#
# number of rings (size 3 to 8) (size 9 to 14) (size 15 to 20)
#    0.000    1.500    2.500    2.625    5.250    0.500 
#    0.000    5.000    0.000    0.000    0.000    0.000 
#    0.000    0.000    0.000    0.000    0.000    0.000 
#
# Total GULP energy -89163.309733 kJ/mol
# GULP energy per Si atom -5572.706858 kJ/mol
# Density = 2.187993 g / cm^3
# Si number density = 21.929840 Si / 1000 Ang^3
#
#
#
# Elastic Constant Matrix: (Units=GPa)
#
#
# Indices 1 2 3 4 5 6 
#
# 1 75.0713 17.1905 13.1222 -9.0487 -10.9840 -15.0801
# 2 17.1905 41.8684 14.6254 -2.7036 -1.5488 -7.2625
# 3 13.1222 14.6254 106.2496 1.6328 -12.4948 -20.8257
# 4 -9.0487 -2.7036 1.6328 22.7533 -1.2014 9.3061
# 5 -10.9840 -1.5488 -12.4948 -1.2014 35.4062 5.2628
# 6 -15.0801 -7.2625 -20.8257 9.3061 5.2628 14.9270
#
#
#
# Elastic Compliance Matrix: (Units=1/GPa)
#
#
# Indices 1 2 3 4 5 6 
#
# 1 0.018222 -0.005026 0.002616 -0.001175 0.003474 0.019121
# 2 -0.005026 0.027749 -0.001939 -0.001798 -0.002224 0.007624
# 3 0.002616 -0.001939 0.015926 -0.013268 0.001173 0.031777
# 4 -0.001175 -0.001798 -0.013268 0.072639 0.007523 -0.068512
# 5 0.003474 -0.002224 0.001173 0.007523 0.031645 -0.011782
# 6 0.019121 0.007624 0.031777 -0.068512 -0.011782 0.181220
#
#
# Mechanical properties :
#
#
# Convention : Reuss Voigt Hill
#
# Bulk Modulus (GPa) = 18.79718 34.78509 26.79114
# Shear Modulus (GPa) = 13.37499 26.50070 19.93785
#
# Velocity S-wave (km/s) = 2.47229 3.48002 3.01851
# Velocity P-wave (km/s) = 4.09143 5.66073 4.93880
#
# Compressibility (1/GPa) = 0.05319946
#
# Stress axis : x y z
#
# Youngs Moduli (GPa) = 54.87882 36.03709 62.79062
#
# Poissons Ratio (x) = 0.18113 -0.16425
# Poissons Ratio (y) = 0.27582 0.12172
# Poissons Ratio (z) = -0.14355 0.06986
#
# Static dielectric constant tensor:
#      x y z
#    x 1.888480 -0.032270 -0.070850 
#    y -0.032270 1.618550 -0.042510 
#    z -0.070850 -0.042510 1.756940 
# 
# From -- ./inp_files/312247.got.cif
#   From: 2010.05.17/outbox.ucp.g08.bks.cvg/sg2_157_cif.got.tgz:312247.got - 2010.06.11 11:32:03.
