data_PCOD9073747
_publ_section_title
;
Structure prediction by ZEFSAII (Michael W. Deem and Ramdas Pophale) SiO2 
 PCOD9073747
Probable space group: P -1
;
_chemical_formula_sum "Si O2"
_cell_formula_units_Z 14
_cell_length_a 15.000000
_cell_length_b 6.000000
_cell_length_c 15.000000
_cell_angle_alpha 100.000000
_cell_angle_beta 30.000000
_cell_angle_gamma 90.000000
_cell_volume 632.984913
_symmetry_space_group_name_H-M "P -1"
_symmetry_group_IT_number 2
_symmetry_cell_setting 'triclinic'
loop_
_space_group_symop_operation_xyz
x,y,z
-x,-y,-z
loop_
_atom_site_type_symbol
_atom_site_label
_atom_site_fract_x
_atom_site_fract_y
_atom_site_fract_z
Si Si1 0.347661 0.876949 0.653850
Si Si2 0.911245 0.920666 0.482231
Si Si3 0.229450 0.664899 0.051730
Si Si4 0.621628 0.585670 0.520784
Si Si5 0.384075 0.624896 0.296697
Si Si6 0.448909 0.187494 0.136088
Si Si7 0.951161 0.698752 0.134242
O O1 0.423916 0.778482 0.678555
O O2 0.371782 0.650960 0.555040
O O3 0.500000 0.000000 0.500000
O O4 0.147040 0.059326 0.817976
O O5 0.792231 0.142889 0.539737
O O6 0.736454 0.839384 0.660290
O O7 0.000000 0.000000 0.500000
O O8 0.071611 0.736561 0.271344
O O9 0.121021 0.693939 0.053532
O O10 0.391718 0.403371 0.895055
O O11 0.363503 0.831702 0.969124
O O12 0.640934 0.514475 0.601854
O O13 0.791479 0.663820 0.337458
O O14 0.383981 0.472311 0.196040
O O15 0.500000 0.000000 0.000000
O O16 0.000000 0.500000 0.000000
#
# Coordination Sequence:
#
# PCOD9073747 Si02
#       7
#     2   2   2   2   2   2   2
#     4   9  21  38  69  93 132 178 240 287 342 410
#     4  12  23  47  77 100 141 185 229 297 354 422
#     4  10  25  46  67 106 143 176 240 283 353 420
#     4  10  21  43  67  97 139 189 230 294 354 403
#     4  10  25  44  68 102 141 177 238 282 353 424
#     4  10  23  46  69 105 135 178 232 287 355 419
#     4  11  24  44  65 104 140 188 239 286 353 418
#
# _framework density 22.117431
#
# number of rings (size 3 to 8) (size 9 to 14) (size 15 to 20)
#    0.857    0.857    1.429    1.714    6.000    4.571 
#   10.286    0.000    0.000    0.000    0.000    0.000 
#    0.000    0.000    0.000    0.000    0.000    0.000 
#
# Total GULP energy -77934.784740 kJ/mol
# GULP energy per Si atom -5566.770339 kJ/mol
# Density = 2.206709 g / cm^3
# Si number density = 22.117431 Si / 1000 Ang^3
#
#
#
# Elastic Constant Matrix: (Units=GPa)
#
#
# Indices 1 2 3 4 5 6 
#
# 1 147.3218 23.2714 45.7924 -0.1079 -27.7816 11.4527
# 2 23.2714 44.1965 21.3858 0.7936 -16.8266 -2.7196
# 3 45.7924 21.3858 146.4579 -19.6700 4.3077 -3.0300
# 4 -0.1079 0.7936 -19.6700 36.5398 7.1057 -11.8710
# 5 -27.7816 -16.8266 4.3077 7.1057 29.5693 -1.5305
# 6 11.4527 -2.7196 -3.0300 -11.8710 -1.5305 38.4421
#
#
#
# Elastic Compliance Matrix: (Units=1/GPa)
#
#
# Indices 1 2 3 4 5 6 
#
# 1 0.011096 0.001618 -0.005170 -0.007128 0.013540 -0.005261
# 2 0.001618 0.035194 -0.007743 -0.010027 0.025049 -0.000702
# 3 -0.005170 -0.007743 0.011450 0.010366 -0.013186 0.004571
# 4 -0.007128 -0.010027 0.010366 0.042357 -0.023347 0.014381
# 5 0.013540 0.025049 -0.013186 -0.023347 0.067922 -0.007807
# 6 -0.005261 -0.000702 0.004571 0.014381 -0.007807 0.032021
#
#
# Mechanical properties :
#
#
# Convention : Reuss Voigt Hill
#
# Bulk Modulus (GPa) = 28.44890 57.65281 43.05086
# Shear Modulus (GPa) = 21.33584 37.41203 29.37394
#
# Velocity S-wave (km/s) = 3.10927 4.11727 3.64825
# Velocity P-wave (km/s) = 5.07747 6.98039 6.10354
#
# Compressibility (1/GPa) = 0.03515074
#
# Stress axis : x y z
#
# Youngs Moduli (GPa) = 90.11907 28.41356 87.33895
#
# Poissons Ratio (x) = -0.04598 0.45156
# Poissons Ratio (y) = -0.14584 0.67627
# Poissons Ratio (z) = 0.46593 0.22001
#
# Static dielectric constant tensor:
#      x y z
#    x 1.839920 -0.005840 -0.002910 
#    y -0.005840 2.039180 0.028730 
#    z -0.002910 0.028730 1.857210 
# 
# From -- ./inp_files/525824.got.cif
#   From: 2010.05.17/outbox.ucp.g08.bks.cvg/sg2_263_cif.got.tgz:525824.got - 2010.06.11 11:32:03.
