data_PCOD9073303
_publ_section_title
;
Structure prediction by ZEFSAII (Michael W. Deem and Ramdas Pophale) SiO2 
 PCOD9073303
Probable space group: P -1
;
_chemical_formula_sum "Si O2"
_cell_formula_units_Z 16
_cell_length_a 15.000000
_cell_length_b 9.000000
_cell_length_c 15.000000
_cell_angle_alpha 120.000000
_cell_angle_beta 140.000000
_cell_angle_gamma 90.000000
_cell_volume 817.999524
_symmetry_space_group_name_H-M "P -1"
_symmetry_group_IT_number 2
_symmetry_cell_setting 'triclinic'
loop_
_space_group_symop_operation_xyz
x,y,z
-x,-y,-z
loop_
_atom_site_type_symbol
_atom_site_label
_atom_site_fract_x
_atom_site_fract_y
_atom_site_fract_z
Si Si1 0.896786 0.780424 0.601226
Si Si2 0.378740 0.181102 0.502464
Si Si3 0.587480 0.949859 0.322621
Si Si4 0.866966 0.455810 0.619524
Si Si5 0.721798 0.724092 0.264997
Si Si6 0.830146 0.566886 0.155477
Si Si7 0.805493 0.686509 0.976407
Si Si8 0.962135 0.158913 0.978847
O O1 0.757948 0.794258 0.550069
O O2 0.864265 0.578960 0.570021
O O3 0.819088 0.707291 0.418323
O O4 0.108054 0.047617 0.857278
O O5 0.393204 0.054768 0.556200
O O6 0.580908 0.448604 0.719942
O O7 0.259565 0.014733 0.275278
O O8 0.709722 0.906825 0.350342
O O9 0.669206 0.200738 0.425959
O O10 0.368360 0.706874 0.064873
O O11 0.002335 0.415158 0.683530
O O12 0.966858 0.645609 0.834409
O O13 0.825072 0.738648 0.260018
O O14 0.500000 0.500000 0.000000
O O15 0.854960 0.630051 0.088878
O O16 0.914554 0.717939 0.980587
O O17 0.000000 0.000000 0.000000
#
# Coordination Sequence:
#
# PCOD9073303 Si02
#       8
#     2   2   2   2   2   2   2   2
#     4  10  21  38  59  91 123 154 194 243 297 349
#     4   9  19  39  62  84 115 161 208 238 282 352
#     4   9  21  39  61  88 120 155 196 247 290 345
#     4  12  23  37  57  89 128 152 191 251 300 344
#     4   9  19  42  67  85 116 158 201 238 290 358
#     4  10  22  39  61  90 116 153 202 244 294 348
#     4  10  21  39  63  86 113 161 209 240 282 354
#     4  11  22  40  56  87 122 162 196 239 301 350
#
# _framework density 19.559913999999999
#
# number of rings (size 3 to 8) (size 9 to 14) (size 15 to 20)
#    0.000    2.000    2.500    3.000    0.000    7.000 
#    0.000    5.000    0.000    0.000    0.000    0.000 
#    0.000    0.000    0.000    0.000    0.000    0.000 
#
# Total GULP energy -89156.396161 kJ/mol
# GULP energy per Si atom -5572.274760 kJ/mol
# Density = 1.951539 g / cm^3
# Si number density = 19.559914 Si / 1000 Ang^3
#
#
#
# Elastic Constant Matrix: (Units=GPa)
#
#
# Indices 1 2 3 4 5 6 
#
# 1 55.9115 5.8376 6.4487 -3.7828 -4.4753 14.5697
# 2 5.8376 100.1885 38.3963 21.5111 4.7202 25.3735
# 3 6.4487 38.3963 119.8919 18.0515 -7.8241 18.9174
# 4 -3.7828 21.5111 18.0515 30.5217 9.0742 -2.8579
# 5 -4.4753 4.7202 -7.8241 9.0742 36.3087 1.4652
# 6 14.5697 25.3735 18.9174 -2.8579 1.4652 23.5052
#
#
#
# Elastic Compliance Matrix: (Units=1/GPa)
#
#
# Indices 1 2 3 4 5 6 
#
# 1 0.022678 0.003880 0.001675 -0.004166 0.004515 -0.020381
# 2 0.003880 0.019834 0.000429 -0.017231 0.003367 -0.026466
# 3 0.001675 0.000429 0.012033 -0.010129 0.005791 -0.012779
# 4 -0.004166 -0.017231 -0.010129 0.058855 -0.016680 0.037530
# 5 0.004515 0.003367 0.005791 -0.016680 0.033691 -0.015222
# 6 -0.020381 -0.026466 -0.012779 0.037530 -0.015222 0.099543
#
#
# Mechanical properties :
#
#
# Convention : Reuss Voigt Hill
#
# Bulk Modulus (GPa) = 15.03445 41.92857 28.48151
# Shear Modulus (GPa) = 19.46768 33.08775 26.27771
#
# Velocity S-wave (km/s) = 3.15824 4.11738 3.66928
# Velocity P-wave (km/s) = 4.58283 6.63975 5.70476
#
# Compressibility (1/GPa) = 0.06651391
#
# Stress axis : x y z
#
# Youngs Moduli (GPa) = 44.09614 50.41776 83.10772
#
# Poissons Ratio (x) = -0.19562 -0.13924
# Poissons Ratio (y) = -0.17109 -0.03568
# Poissons Ratio (z) = -0.07388 -0.02164
#
# Static dielectric constant tensor:
#      x y z
#    x 1.689220 -0.002590 0.014760 
#    y -0.002590 1.696350 0.003380 
#    z 0.014760 0.003380 1.739730 
# 
# From -- ./inp_files/503896.got.cif
#   From: 2010.05.17/outbox.ucp.g08.bks.cvg/sg2_252_cif.got.tgz:503896.got - 2010.06.11 11:32:03.
