data_PCOD9073399
_publ_section_title
;
Structure prediction by ZEFSAII (Michael W. Deem and Ramdas Pophale) SiO2 
 PCOD9073399
Probable space group: P -1
;
_chemical_formula_sum "Si O2"
_cell_formula_units_Z 16
_cell_length_a 18.000000
_cell_length_b 15.000000
_cell_length_c 27.000000
_cell_angle_alpha 20.000000
_cell_angle_beta 160.000000
_cell_angle_gamma 160.000000
_cell_volume 746.015535
_symmetry_space_group_name_H-M "P -1"
_symmetry_group_IT_number 2
_symmetry_cell_setting 'triclinic'
loop_
_space_group_symop_operation_xyz
x,y,z
-x,-y,-z
loop_
_atom_site_type_symbol
_atom_site_label
_atom_site_fract_x
_atom_site_fract_y
_atom_site_fract_z
Si Si1 0.602369 0.925939 0.496820
Si Si2 0.843983 0.645279 0.100931
Si Si3 0.909531 0.187626 0.311839
Si Si4 0.385925 0.794182 0.127612
Si Si5 0.139293 0.252301 0.318532
Si Si6 0.687298 0.601590 0.347158
Si Si7 0.875384 0.818707 0.250761
Si Si8 0.297575 0.478366 0.808483
O O1 0.614790 0.739478 0.554120
O O2 0.367568 0.697198 0.501535
O O3 0.625011 0.212472 0.333611
O O4 0.841899 0.029067 0.630361
O O5 0.932580 0.452702 0.223458
O O6 0.839596 0.588477 0.188090
O O7 0.560141 0.509938 0.974003
O O8 0.000000 0.000000 0.000000
O O9 0.094984 0.302056 0.321135
O O10 0.630728 0.988834 0.215265
O O11 0.000000 0.000000 0.500000
O O12 0.160916 0.525935 0.156826
O O13 0.473859 0.667918 0.201841
O O14 0.265530 0.989169 0.931245
O O15 0.931084 0.912594 0.352568
O O16 0.722666 0.564212 0.330226
O O17 0.845335 0.741184 0.213407
#
# Coordination Sequence:
#
# PCOD9073399 Si02
#       8
#     2   2   2   2   2   2   2   2
#     4  10  22  40  65  97 131 171 205 265 320 385
#     4  11  27  45  68  93 128 176 219 276 323 378
#     4  11  23  41  66  94 123 167 224 270 322 381
#     4  10  21  39  62  92 131 164 206 264 324 383
#     4   9  21  38  65  92 128 163 208 266 320 379
#     4   9  21  38  60  97 130 164 208 257 320 384
#     4  11  22  38  64  93 132 170 212 257 320 389
#     4  11  25  45  63  91 132 168 222 261 319 387
#
# _framework density 21.447275000000001
#
# number of rings (size 3 to 8) (size 9 to 14) (size 15 to 20)
#    0.000    1.750    1.250    1.500    1.750   13.500 
#    0.000    0.000    0.000    0.000    0.000    0.000 
#    0.000    0.000    0.000    0.000    0.000    0.000 
#
# Total GULP energy -89128.271401 kJ/mol
# GULP energy per Si atom -5570.516963 kJ/mol
# Density = 2.139846 g / cm^3
# Si number density = 21.447275 Si / 1000 Ang^3
#
#
#
# Elastic Constant Matrix: (Units=GPa)
#
#
# Indices 1 2 3 4 5 6 
#
# 1 179.0202 43.8664 12.0726 -0.3398 -22.2823 -9.2797
# 2 43.8664 77.6079 18.9469 -9.4409 -12.1805 4.4617
# 3 12.0726 18.9469 80.8644 2.7442 -15.1300 -5.5426
# 4 -0.3398 -9.4409 2.7442 35.5572 -0.6051 -7.4501
# 5 -22.2823 -12.1805 -15.1300 -0.6051 31.7446 -14.0594
# 6 -9.2797 4.4617 -5.5426 -7.4501 -14.0594 45.8349
#
#
#
# Elastic Compliance Matrix: (Units=1/GPa)
#
#
# Indices 1 2 3 4 5 6 
#
# 1 0.007365 -0.003741 0.001159 -0.000113 0.005971 0.003809
# 2 -0.003741 0.016674 -0.003311 0.004340 0.001571 -0.001594
# 3 0.001159 -0.003311 0.014997 -0.000836 0.008870 0.004955
# 4 -0.000113 0.004340 -0.000836 0.030619 0.004320 0.005756
# 5 0.005971 0.001571 0.008870 0.004320 0.048440 0.017689
# 6 0.003809 -0.001594 0.004955 0.005756 0.017689 0.029704
#
#
# Mechanical properties :
#
#
# Convention : Reuss Voigt Hill
#
# Bulk Modulus (GPa) = 36.69764 54.14049 45.41906
# Shear Modulus (GPa) = 29.64388 40.13444 34.88916
#
# Velocity S-wave (km/s) = 3.72179 4.33055 4.03766
# Velocity P-wave (km/s) = 5.96798 7.09248 6.55439
#
# Compressibility (1/GPa) = 0.02724971
#
# Stress axis : x y z
#
# Youngs Moduli (GPa) = 135.77661 59.97190 66.68158
#
# Poissons Ratio (x) = 0.22438 -0.07730
# Poissons Ratio (y) = 0.50800 0.22078
# Poissons Ratio (z) = -0.15740 0.19857
#
# Static dielectric constant tensor:
#      x y z
#    x 1.790260 0.005440 0.032290 
#    y 0.005440 1.835750 -0.046540 
#    z 0.032290 -0.046540 1.879460 
# 
# From -- ./inp_files/109760.got.cif
#   From: 2010.05.17/outbox.ucp.g08.bks.cvg/sg2_55_cif.got.tgz:109760.got - 2010.06.11 11:32:03.
