data_PCOD9073259
_publ_section_title
;
Structure prediction by ZEFSAII (Michael W. Deem and Ramdas Pophale) SiO2 
 PCOD9073259
Probable space group: P -1
;
_chemical_formula_sum "Si O2"
_cell_formula_units_Z 14
_cell_length_a 15.376671
_cell_length_b 15.420747
_cell_length_c 15.636655
_cell_angle_alpha 25.215013
_cell_angle_beta 25.824319
_cell_angle_gamma 45.028281
_cell_volume 560.595185
_symmetry_space_group_name_H-M "P -1"
_symmetry_group_IT_number 2
_symmetry_cell_setting 'triclinic'
loop_
_space_group_symop_operation_xyz
x,y,z
-x,-y,-z
loop_
_atom_site_type_symbol
_atom_site_label
_atom_site_fract_x
_atom_site_fract_y
_atom_site_fract_z
Si Si1 0.337250 0.992452 0.775739
Si Si2 0.339431 0.597686 0.022310
Si Si3 0.948724 0.375146 0.432314
Si Si4 0.667720 0.604649 0.511752
Si Si5 0.246101 0.787993 0.652664
Si Si6 0.130667 0.160766 0.364216
Si Si7 0.406792 0.514344 0.659888
O O1 0.503939 0.184325 0.380698
O O2 0.197913 0.124518 0.804689
O O3 0.498935 0.044433 0.670683
O O4 0.263708 0.727131 0.042553
O O5 0.500000 0.500000 0.000000
O O6 0.098222 0.388281 0.371341
O O7 0.902474 0.146957 0.619244
O O8 0.776181 0.445618 0.561462
O O9 0.081700 0.586010 0.051278
O O10 0.636632 0.637096 0.410914
O O11 0.379243 0.408940 0.967207
O O12 0.291973 0.668149 0.638400
O O13 0.139579 0.934230 0.583833
O O14 0.205354 0.249110 0.121077
O O15 0.500000 0.500000 0.500000
#
# Coordination Sequence:
#
# PCOD9073259 Si02
#       7
#     2   2   2   2   2   2   2
#     4   9  18  32  50  73 102 137 171 208 260 299
#     4  10  18  31  54  72 101 137 173 214 253 299
#     4  10  19  36  52  77 103 137 174 212 256 296
#     4   9  19  36  54  75 106 134 171 212 255 306
#     4   9  17  34  56  72 104 141 167 208 258 306
#     4   9  18  35  53  75 106 139 168 205 257 308
#     4   8  17  34  56  78 103 134 168 210 257 303
#
# _framework density 24.973457
#
# number of rings (size 3 to 8) (size 9 to 14) (size 15 to 20)
#    0.857    2.000    2.857    0.857    0.000    1.143 
#    5.143    3.571    0.000    1.714    0.000    0.000 
#    0.000    0.000    0.000    0.000    0.000    0.000 
#
# Total GULP energy -77964.093291 kJ/mol
# GULP energy per Si atom -5568.863807 kJ/mol
# Density = 2.491662 g / cm^3
# Si number density = 24.973457 Si / 1000 Ang^3
#
#
#
# Elastic Constant Matrix: (Units=GPa)
#
#
# Indices 1 2 3 4 5 6 
#
# 1 70.2716 67.5166 13.2179 1.3686 21.0280 13.3532
# 2 67.5166 212.0338 56.3377 -5.1915 33.6509 -4.5540
# 3 13.2179 56.3377 56.8356 -12.1785 12.3034 5.0322
# 4 1.3686 -5.1915 -12.1785 31.0811 -9.3637 10.4009
# 5 21.0280 33.6509 12.3034 -9.3637 20.2671 1.9994
# 6 13.3532 -4.5540 5.0322 10.4009 1.9994 50.7177
#
#
#
# Elastic Compliance Matrix: (Units=1/GPa)
#
#
# Indices 1 2 3 4 5 6 
#
# 1 0.027885 -0.006872 0.004587 -0.005020 -0.021982 -0.006518
# 2 -0.006872 0.010435 -0.008628 -0.005414 -0.007955 0.005026
# 3 0.004587 -0.008628 0.028532 0.011358 -0.001808 -0.007071
# 4 -0.005020 -0.005414 0.011358 0.049225 0.031190 -0.011616
# 5 -0.021982 -0.007955 -0.001808 0.031190 0.101371 -0.005140
# 6 -0.006518 0.005026 -0.007071 -0.011616 -0.005140 0.025171
#
#
# Mechanical properties :
#
#
# Convention : Reuss Voigt Hill
#
# Bulk Modulus (GPa) = 22.21014 68.14283 45.17649
# Shear Modulus (GPa) = 17.89208 33.88443 25.88825
#
# Velocity S-wave (km/s) = 2.67955 3.68750 3.22317
# Velocity P-wave (km/s) = 4.29955 6.74355 5.65516
#
# Compressibility (1/GPa) = 0.04502447
#
# Stress axis : x y z
#
# Youngs Moduli (GPa) = 35.86210 95.83209 35.04843
#
# Poissons Ratio (x) = 0.65857 -0.16077
# Poissons Ratio (y) = 0.24645 0.30241
# Poissons Ratio (z) = -0.16450 0.82687
#
# Static dielectric constant tensor:
#      x y z
#    x 1.978040 0.036100 -0.062790 
#    y 0.036100 2.064200 0.026340 
#    z -0.062790 0.026340 2.098200 
# 
# From -- ./inp_files/533576.got.cif
#   From: 2010.05.17/outbox.cif.g08.bks.cpg/sg2_267_cif.got.tgz:533576.got - 2010.06.03 11:33:40.
