data_PCOD9073388
_publ_section_title
;
Structure prediction by ZEFSAII (Michael W. Deem and Ramdas Pophale) SiO2 
 PCOD9073388
Probable space group: P -1
;
_chemical_formula_sum "Si O2"
_cell_formula_units_Z 16
_cell_length_a 5.289881
_cell_length_b 18.042492
_cell_length_c 16.909278
_cell_angle_alpha 149.242692
_cell_angle_beta 110.725773
_cell_angle_gamma 76.734446
_cell_volume 762.463891
_symmetry_space_group_name_H-M "P -1"
_symmetry_group_IT_number 2
_symmetry_cell_setting 'triclinic'
loop_
_space_group_symop_operation_xyz
x,y,z
-x,-y,-z
loop_
_atom_site_type_symbol
_atom_site_label
_atom_site_fract_x
_atom_site_fract_y
_atom_site_fract_z
Si Si1 0.178234 0.956640 0.407419
Si Si2 0.682487 0.282875 0.007102
Si Si3 0.120221 0.752886 0.843788
Si Si4 0.883026 0.344513 0.805490
Si Si5 0.493245 0.962039 0.869902
Si Si6 0.505208 0.329265 0.328157
Si Si7 0.641858 0.563568 0.155896
Si Si8 0.875122 0.911028 0.182206
O O1 0.124272 0.779369 0.243289
O O2 0.061862 0.003187 0.354135
O O3 0.500000 0.000000 0.500000
O O4 0.000000 0.000000 0.500000
O O5 0.747461 0.328824 0.146596
O O6 0.685121 0.423858 0.082759
O O7 0.923879 0.194898 0.927128
O O8 0.387453 0.179271 0.883302
O O9 0.245167 0.695711 0.724777
O O10 0.796228 0.726031 0.791187
O O11 0.238230 0.926231 0.025256
O O12 0.577255 0.350373 0.749087
O O13 0.085875 0.331514 0.744018
O O14 0.000000 0.500000 0.000000
O O15 0.487708 0.787259 0.706334
O O16 0.253758 0.007183 0.829344
O O17 0.500000 0.000000 0.000000
O O18 0.500000 0.500000 0.500000
O O19 0.500000 0.500000 0.000000
#
# Coordination Sequence:
#
# PCOD9073388 Si02
#       8
#     2   2   2   2   2   2   2   2
#     4  12  25  43  62  88 128 170 209 254 306 373
#     4  11  20  36  62  93 121 150 207 268 303 352
#     4  10  21  38  61  92 118 158 207 252 299 362
#     4  10  20  36  59  84 111 154 207 253 303 352
#     4   9  20  39  66  92 119 155 209 261 303 363
#     4  11  22  39  61  89 128 165 193 241 315 379
#     4  10  18  31  54  83 112 145 187 244 300 344
#     4  11  22  38  62  91 121 163 206 255 312 365
#
# _framework density 20.9846
#
# number of rings (size 3 to 8) (size 9 to 14) (size 15 to 20)
#    0.000    1.500    0.000    8.250    0.000    3.000 
#    0.000    3.750    0.000    0.000    0.000    0.000 
#    0.000    0.000    0.000    0.000    0.000    0.000 
#
# Total GULP energy -89228.901233 kJ/mol
# GULP energy per Si atom -5576.806327 kJ/mol
# Density = 2.093684 g / cm^3
# Si number density = 20.984600 Si / 1000 Ang^3
#
#
#
# Elastic Constant Matrix: (Units=GPa)
#
#
# Indices 1 2 3 4 5 6 
#
# 1 120.6350 16.2074 17.3242 -4.8956 20.8754 -14.0444
# 2 16.2074 155.3872 40.9793 4.6997 15.4583 -8.8510
# 3 17.3242 40.9793 63.0492 12.2423 3.0157 -5.3563
# 4 -4.8956 4.6997 12.2423 36.7350 -5.3643 3.6038
# 5 20.8754 15.4583 3.0157 -5.3643 26.4954 0.0419
# 6 -14.0444 -8.8510 -5.3563 3.6038 0.0419 31.6724
#
#
#
# Elastic Compliance Matrix: (Units=1/GPa)
#
#
# Indices 1 2 3 4 5 6 
#
# 1 0.010548 0.000659 -0.002672 0.000575 -0.008281 0.004355
# 2 0.000659 0.008316 -0.005182 -0.000124 -0.004809 0.001760
# 3 -0.002672 -0.005182 0.021368 -0.006794 0.001319 0.001752
# 4 0.000575 -0.000124 -0.006794 0.030991 0.006674 -0.004463
# 5 -0.008281 -0.004809 0.001319 0.006674 0.048283 -0.005616
# 6 0.004355 0.001760 0.001752 -0.004463 -0.005616 0.034808
#
#
# Mechanical properties :
#
#
# Convention : Reuss Voigt Hill
#
# Bulk Modulus (GPa) = 38.69858 54.23257 46.46557
# Shear Modulus (GPa) = 28.19776 36.61794 32.40785
#
# Velocity S-wave (km/s) = 3.66968 4.18184 3.93410
# Velocity P-wave (km/s) = 6.03629 7.01549 6.54423
#
# Compressibility (1/GPa) = 0.02584074
#
# Stress axis : x y z
#
# Youngs Moduli (GPa) = 94.80344 120.25065 46.79866
#
# Poissons Ratio (x) = -0.07925 0.12506
# Poissons Ratio (y) = -0.06248 0.24253
# Poissons Ratio (z) = 0.25335 0.62320
#
# Static dielectric constant tensor:
#      x y z
#    x 1.866160 0.021240 -0.014210 
#    y 0.021240 1.782570 0.010410 
#    z -0.014210 0.010410 1.777170 
# 
# From -- ./inp_files/550471.got.cif
#   From: 2010.05.17/outbox.cif.g08.bks.cpg/sg2_276_cif.got.tgz:550471.got - 2010.06.03 11:33:40.
