data_PCOD9073083
_publ_section_title
;
Structure prediction by ZEFSAII (Michael W. Deem and Ramdas Pophale) SiO2 
 PCOD9073083
Probable space group: P -1
;
_chemical_formula_sum "Si O2"
_cell_formula_units_Z 16
_cell_length_a 12.000000
_cell_length_b 9.000000
_cell_length_c 15.000000
_cell_angle_alpha 130.000000
_cell_angle_beta 110.000000
_cell_angle_gamma 110.000000
_cell_volume 728.972637
_symmetry_space_group_name_H-M "P -1"
_symmetry_group_IT_number 2
_symmetry_cell_setting 'triclinic'
loop_
_space_group_symop_operation_xyz
x,y,z
-x,-y,-z
loop_
_atom_site_type_symbol
_atom_site_label
_atom_site_fract_x
_atom_site_fract_y
_atom_site_fract_z
Si Si1 0.115999 0.156190 0.185302
Si Si2 0.286997 0.724673 0.367907
Si Si3 0.662086 0.828798 0.352677
Si Si4 0.735987 0.495127 0.316972
Si Si5 0.744542 0.822186 0.023385
Si Si6 0.315162 0.879101 0.996588
Si Si7 0.107672 0.834047 0.632376
Si Si8 0.072383 0.693415 0.008052
O O1 0.257340 0.516174 0.351686
O O2 0.195950 0.047794 0.187758
O O3 0.950505 0.990998 0.145046
O O4 0.000000 0.000000 0.000000
O O5 0.500000 0.000000 0.500000
O O6 0.251523 0.895468 0.457015
O O7 0.123563 0.488358 0.160476
O O8 0.705048 0.669292 0.337330
O O9 0.760006 0.996265 0.351285
O O10 0.432967 0.544793 0.177963
O O11 0.926410 0.735350 0.519289
O O12 0.541338 0.176305 0.188358
O O13 0.744895 0.358776 0.183178
O O14 0.744604 0.928338 0.157975
O O15 0.737711 0.979320 0.006610
O O16 0.193661 0.705902 0.984859
O O17 0.000000 0.500000 0.500000
O O18 0.000000 0.500000 0.000000
#
# Coordination Sequence:
#
# PCOD9073083 Si02
#       8
#     2   2   2   2   2   2   2   2
#     4  10  20  41  67  90 124 171 215 261 324 382
#     4  11  23  42  68  96 129 174 222 261 325 397
#     4  11  24  41  65  94 134 172 215 262 329 401
#     4  10  23  40  67  94 129 177 209 268 328 391
#     4  11  21  40  69  91 128 172 219 268 321 390
#     4  10  20  43  65  91 131 175 215 255 336 397
#     4  12  23  40  62 101 130 163 219 274 327 381
#     4  11  24  43  68  98 131 171 219 277 330 387
#
# _framework density 21.948698
#
# number of rings (size 3 to 8) (size 9 to 14) (size 15 to 20)
#    0.000    1.250    3.750    3.750    1.750    2.000 
#    6.750    0.625    0.000    0.000    0.000    0.000 
#    0.000    0.000    0.000    0.000    0.000    0.000 
#
# Total GULP energy -89206.318692 kJ/mol
# GULP energy per Si atom -5575.394918 kJ/mol
# Density = 2.189874 g / cm^3
# Si number density = 21.948698 Si / 1000 Ang^3
#
#
#
# Elastic Constant Matrix: (Units=GPa)
#
#
# Indices 1 2 3 4 5 6 
#
# 1 65.3454 50.4620 22.5828 3.5831 1.1265 13.7756
# 2 50.4620 119.8503 32.4528 29.2361 -11.6497 17.5858
# 3 22.5828 32.4528 -6.4733 73.2203 -35.4391 6.3502
# 4 3.5831 29.2361 73.2203 -6.4482 15.2941 -10.4026
# 5 1.1265 -11.6497 -35.4391 15.2941 0.8567 24.7964
# 6 13.7756 17.5858 6.3502 -10.4026 24.7964 15.0192
#
#
#
# Elastic Compliance Matrix: (Units=1/GPa)
#
#
# Indices 1 2 3 4 5 6 
#
# 1 0.020104 -0.011204 0.007199 -0.008540 -0.014636 0.009885
# 2 -0.011204 0.012569 -0.000721 -0.009989 -0.013981 0.012028
# 3 0.007199 -0.000721 -0.007378 0.026555 0.026813 -0.028515
# 4 -0.008540 -0.009989 0.026555 -0.002075 -0.017361 0.035527
# 5 -0.014636 -0.013981 0.026813 -0.017361 -0.047649 0.085100
# 6 0.009885 0.012028 -0.028515 0.035527 0.085100 -0.060405
#
#
# Mechanical properties :
#
#
# Convention : Reuss Voigt Hill
#
# Bulk Modulus (GPa) = 63.11403 43.30194 53.20799
# Shear Modulus (GPa) = -71.32685 6.76719 -32.27983
#
# Velocity S-wave (km/s) = -5.70681 1.75780 -3.83912
# Velocity P-wave (km/s) = 3.82176 4.88788 2.15471
#
# Compressibility (1/GPa) = 0.01584434
#
# Stress axis : x y z
#
# Youngs Moduli (GPa) = 49.74087 79.55929 -135.54344
#
# Poissons Ratio (x) = 0.89139 0.97583
# Poissons Ratio (y) = 0.55730 -0.09772
# Poissons Ratio (z) = -0.35810 0.05736
#
# Static dielectric constant tensor:
#      x y z
#    x 1.853290 -0.058090 -0.033520 
#    y -0.058090 1.819410 -0.007310 
#    z -0.033520 -0.007310 1.798750 
# 
# From -- ./inp_files/207583.got.cif
#   From: 2010.05.17/outbox.ucp.g08.bks.cvg/sg2_104_cif.got.tgz:207583.got - 2010.06.11 11:32:03.
