data_PCOD9073999
_publ_section_title
;
Structure prediction by ZEFSAII (Michael W. Deem and Ramdas Pophale) SiO2 
 PCOD9073999
Probable space group: P -1
;
_chemical_formula_sum "Si O2"
_cell_formula_units_Z 16
_cell_length_a 12.015713
_cell_length_b 15.621267
_cell_length_c 16.324735
_cell_angle_alpha 18.163757
_cell_angle_beta 60.162421
_cell_angle_gamma 63.040074
_cell_volume 826.449949
_symmetry_space_group_name_H-M "P -1"
_symmetry_group_IT_number 2
_symmetry_cell_setting 'triclinic'
loop_
_space_group_symop_operation_xyz
x,y,z
-x,-y,-z
loop_
_atom_site_type_symbol
_atom_site_label
_atom_site_fract_x
_atom_site_fract_y
_atom_site_fract_z
Si Si1 0.499716 0.166413 0.433303
Si Si2 0.114584 0.332359 0.796347
Si Si3 0.153179 0.450159 0.496347
Si Si4 0.822098 0.164645 0.004741
Si Si5 0.666709 0.728179 0.829858
Si Si6 0.926845 0.775168 0.788700
Si Si7 0.236844 0.325138 0.344221
Si Si8 0.943766 0.090213 0.665658
O O1 0.350326 0.206979 0.463086
O O2 0.500000 0.000000 0.500000
O O3 0.580957 0.990620 0.624820
O O4 0.573191 0.459951 0.123496
O O5 0.189633 0.416577 0.608859
O O6 0.110272 0.611025 0.597344
O O7 0.972430 0.247810 0.890598
O O8 0.131414 0.072531 0.084826
O O9 0.215588 0.698527 0.192685
O O10 0.000000 0.500000 0.500000
O O11 0.183683 0.161317 0.707304
O O12 0.761095 0.352375 0.925798
O O13 0.781525 0.737134 0.844353
O O14 0.729516 0.708596 0.733544
O O15 0.934170 0.893632 0.769737
O O16 0.000000 0.000000 0.500000
O O17 0.000000 0.500000 0.000000
O O18 0.096767 0.169460 0.553559
#
# Coordination Sequence:
#
# PCOD9073999 Si02
#       8
#     2   2   2   2   2   2   2   2
#     4  10  22  37  56  75 104 145 184 229 266 317
#     4  10  19  32  48  71 105 140 176 209 257 329
#     4  10  18  32  45  70 106 145 172 204 264 324
#     4  10  19  28  49  73 104 141 175 213 256 323
#     4  11  23  39  55  75 107 150 185 221 272 310
#     4  12  24  39  55  78 110 141 186 232 264 314
#     4  10  21  35  54  80 110 138 187 217 267 321
#     4  11  22  33  53  78 104 143 179 218 264 310
#
# _framework density 19.359914
#
# number of rings (size 3 to 8) (size 9 to 14) (size 15 to 20)
#    0.000    1.500    1.250    7.500    3.500    5.000 
#    0.000    0.000    0.000    0.000    0.000    0.000 
#    0.000   20.000    0.000    0.000    0.000    0.000 
#
# Total GULP energy -89229.463991 kJ/mol
# GULP energy per Si atom -5576.841499 kJ/mol
# Density = 1.931585 g / cm^3
# Si number density = 19.359914 Si / 1000 Ang^3
#
#
#
# Elastic Constant Matrix: (Units=GPa)
#
#
# Indices 1 2 3 4 5 6 
#
# 1 67.7712 18.0641 15.2833 -5.3294 8.2044 2.0344
# 2 18.0641 86.0078 26.8182 -11.0656 0.0807 10.1945
# 3 15.2833 26.8182 123.4578 -6.9087 11.4670 0.0965
# 4 -5.3294 -11.0656 -6.9087 26.2623 -5.2093 8.7844
# 5 8.2044 0.0807 11.4670 -5.2093 21.6506 -3.6759
# 6 2.0344 10.1945 0.0965 8.7844 -3.6759 16.4957
#
#
#
# Elastic Compliance Matrix: (Units=1/GPa)
#
#
# Indices 1 2 3 4 5 6 
#
# 1 0.016582 -0.002690 -0.000825 0.001721 -0.005864 -0.002601
# 2 -0.002690 0.016282 -0.002808 0.011124 0.002564 -0.015067
# 3 -0.000825 -0.002808 0.009219 -0.000087 -0.004437 0.000840
# 4 0.001721 0.011124 -0.000087 0.056350 0.006872 -0.035563
# 5 -0.005864 0.002564 -0.004437 0.006872 0.053672 0.007465
# 6 -0.002601 -0.015067 0.000840 -0.035563 0.007465 0.090851
#
#
# Mechanical properties :
#
#
# Convention : Reuss Voigt Hill
#
# Bulk Modulus (GPa) = 33.97161 44.17422 39.07292
# Shear Modulus (GPa) = 18.83856 27.35315 23.09586
#
# Velocity S-wave (km/s) = 3.12279 3.76290 3.45769
# Velocity P-wave (km/s) = 5.53064 6.46113 6.01390
#
# Compressibility (1/GPa) = 0.02943634
#
# Stress axis : x y z
#
# Youngs Moduli (GPa) = 60.30627 61.41755 108.47549
#
# Poissons Ratio (x) = 0.16522 0.08953
# Poissons Ratio (y) = 0.16223 0.30457
# Poissons Ratio (z) = 0.04978 0.17244
#
# Static dielectric constant tensor:
#      x y z
#    x 1.672480 -0.008650 0.016800 
#    y -0.008650 1.737380 0.039390 
#    z 0.016800 0.039390 1.750870 
# 
# From -- ./inp_files/522080.got.cif
#   From: 2010.05.17/outbox.cif.g08.bks.cpg/sg2_262_cif.got.tgz:522080.got - 2010.06.03 11:33:40.
