data_PCOD9073511
_publ_section_title
;
Structure prediction by ZEFSAII (Michael W. Deem and Ramdas Pophale) SiO2 
 PCOD9073511
Probable space group: P -1
;
_chemical_formula_sum "Si O2"
_cell_formula_units_Z 14
_cell_length_a 9.000000
_cell_length_b 12.000000
_cell_length_c 9.000000
_cell_angle_alpha 120.000000
_cell_angle_beta 50.000000
_cell_angle_gamma 100.000000
_cell_volume 628.643806
_symmetry_space_group_name_H-M "P -1"
_symmetry_group_IT_number 2
_symmetry_cell_setting 'triclinic'
loop_
_space_group_symop_operation_xyz
x,y,z
-x,-y,-z
loop_
_atom_site_type_symbol
_atom_site_label
_atom_site_fract_x
_atom_site_fract_y
_atom_site_fract_z
Si Si1 0.505887 0.658439 0.608176
Si Si2 0.536880 0.656769 0.919509
Si Si3 0.856492 0.829260 0.827367
Si Si4 0.144229 0.098824 0.468470
Si Si5 0.966767 0.611678 0.224271
Si Si6 0.442963 0.943140 0.664627
Si Si7 0.765593 0.370068 0.661601
O O1 0.500000 0.500000 0.500000
O O2 0.440053 0.698074 0.847268
O O3 0.741924 0.636751 0.438322
O O4 0.435892 0.785522 0.617856
O O5 0.715243 0.728576 0.880449
O O6 0.632687 0.498086 0.751156
O O7 0.385039 0.688865 0.176871
O O8 0.826787 0.875005 0.706446
O O9 0.084311 0.736954 0.608669
O O10 0.760888 0.956381 0.078529
O O11 0.033208 0.235760 0.713586
O O12 0.361216 0.043929 0.360695
O O13 0.000000 0.000000 0.500000
O O14 0.105894 0.576053 0.255874
O O15 0.000000 0.500000 0.000000
O O16 0.500000 0.000000 0.500000
#
# Coordination Sequence:
#
# PCOD9073511 Si02
#       7
#     2   2   2   2   2   2   2
#     4  11  24  45  69 101 146 193 237 299 378 432
#     4  11  22  42  71 102 144 187 241 295 362 439
#     4  11  23  42  74  98 145 184 249 296 365 442
#     4  10  23  44  72 102 143 196 247 297 373 445
#     4  10  21  40  65 101 145 182 238 301 361 430
#     4  11  26  47  72 108 149 193 243 313 375 435
#     4  10  23  40  68 112 138 190 243 299 360 437
#
# _framework density 22.270163
#
# number of rings (size 3 to 8) (size 9 to 14) (size 15 to 20)
#    0.000    1.429    4.286    1.714    4.000    5.714 
#    0.000    0.714    0.000    0.000    0.000    0.000 
#    0.000    0.000    0.000    0.000    0.000    0.000 
#
# Total GULP energy -77964.196219 kJ/mol
# GULP energy per Si atom -5568.871158 kJ/mol
# Density = 2.221948 g / cm^3
# Si number density = 22.270163 Si / 1000 Ang^3
#
#
#
# Elastic Constant Matrix: (Units=GPa)
#
#
# Indices 1 2 3 4 5 6 
#
# 1 68.8681 28.5989 14.4109 -9.8296 -10.0482 0.9529
# 2 28.5989 161.5543 46.7012 -9.0073 -3.7191 10.6476
# 3 14.4109 46.7012 157.2906 -1.3115 -12.1711 4.9336
# 4 -9.8296 -9.0073 -1.3115 41.8280 3.1264 2.7348
# 5 -10.0482 -3.7191 -12.1711 3.1264 34.2610 -5.4754
# 6 0.9529 10.6476 4.9336 2.7348 -5.4754 41.4364
#
#
#
# Elastic Compliance Matrix: (Units=1/GPa)
#
#
# Indices 1 2 3 4 5 6 
#
# 1 0.016744 -0.002624 -0.000418 0.002987 0.004319 0.000713
# 2 -0.002624 0.007380 -0.001966 0.001109 -0.001058 -0.001815
# 3 -0.000418 -0.001966 0.007150 -0.000465 0.002245 -0.000009
# 4 0.002987 0.001109 -0.000465 0.025112 -0.001811 -0.002195
# 5 0.004319 -0.001058 0.002245 -0.001811 0.031982 0.004251
# 6 0.000713 -0.001815 -0.000009 -0.002195 0.004251 0.025291
#
#
# Mechanical properties :
#
#
# Convention : Reuss Voigt Hill
#
# Bulk Modulus (GPa) = 47.04449 63.01499 55.02974
# Shear Modulus (GPa) = 38.23718 43.37186 40.80452
#
# Velocity S-wave (km/s) = 4.14813 4.41787 4.28512
# Velocity P-wave (km/s) = 6.64176 7.37432 7.01760
#
# Compressibility (1/GPa) = 0.02125647
#
# Stress axis : x y z
#
# Youngs Moduli (GPa) = 59.72130 135.50248 139.86105
#
# Poissons Ratio (x) = 0.35559 0.05849
# Poissons Ratio (y) = 0.15672 0.27503
# Poissons Ratio (z) = 0.02498 0.26646
#
# Static dielectric constant tensor:
#      x y z
#    x 1.902630 0.097090 0.041110 
#    y 0.097090 2.094050 0.066910 
#    z 0.041110 0.066910 1.858410 
# 
# From -- ./inp_files/189654.got.cif
#   From: 2010.05.17/outbox.ucp.g08.bks.cvg/sg2_95_cif.got.tgz:189654.got - 2010.06.11 11:32:03.
