data_PCOD9073033
_publ_section_title
;
Structure prediction by ZEFSAII (Michael W. Deem and Ramdas Pophale) SiO2 
 PCOD9073033
Probable space group: P -1
;
_chemical_formula_sum "Si O2"
_cell_formula_units_Z 16
_cell_length_a 9.000000
_cell_length_b 12.000000
_cell_length_c 21.000000
_cell_angle_alpha 40.000000
_cell_angle_beta 130.000000
_cell_angle_gamma 150.000000
_cell_volume 727.418465
_symmetry_space_group_name_H-M "P -1"
_symmetry_group_IT_number 2
_symmetry_cell_setting 'triclinic'
loop_
_space_group_symop_operation_xyz
x,y,z
-x,-y,-z
loop_
_atom_site_type_symbol
_atom_site_label
_atom_site_fract_x
_atom_site_fract_y
_atom_site_fract_z
Si Si1 0.772186 0.890597 0.381459
Si Si2 0.035723 0.013534 0.742163
Si Si3 0.072410 0.381333 0.440926
Si Si4 0.613639 0.552924 0.189423
Si Si5 0.234818 0.406443 0.928055
Si Si6 0.733114 0.207556 0.296372
Si Si7 0.028412 0.686055 0.352763
Si Si8 0.295143 0.026112 0.934397
O O1 0.430151 0.635102 0.420568
O O2 0.973287 0.855896 0.462839
O O3 0.876772 0.131938 0.340220
O O4 0.788283 0.937201 0.290834
O O5 0.679659 0.761272 0.748169
O O6 0.103586 0.265276 0.655468
O O7 0.122580 0.961319 0.850734
O O8 0.964509 0.437526 0.442786
O O9 0.914483 0.352672 0.347797
O O10 0.736766 0.648206 0.110870
O O11 0.512448 0.673630 0.130074
O O12 0.878510 0.665933 0.257057
O O13 0.253206 0.624782 0.822884
O O14 0.500000 0.500000 0.000000
O O15 0.940086 0.161661 0.992141
O O16 0.384862 0.944674 0.332123
O O17 0.500000 0.000000 0.000000
#
# Coordination Sequence:
#
# PCOD9073033 Si02
#       8
#     2   2   2   2   2   2   2   2
#     4  10  25  39  66  93 129 165 204 264 322 384
#     4  11  23  42  59  94 131 162 208 260 322 372
#     4  10  21  44  65  94 121 166 214 257 320 377
#     4  11  22  43  63  86 130 166 210 262 312 379
#     4  12  22  42  66  92 123 174 215 258 312 376
#     4  11  22  40  67  93 123 163 217 259 313 376
#     4  10  20  40  66  91 122 162 210 259 308 383
#     4  11  27  39  61  96 127 168 217 261 318 377
#
# _framework density 21.995591999999998
#
# number of rings (size 3 to 8) (size 9 to 14) (size 15 to 20)
#    0.000    1.250    3.750    1.500    3.500    3.000 
#    0.000    2.500    0.000    0.000    0.000    0.000 
#    0.000    0.000    0.000    0.000    0.000    0.000 
#
# Total GULP energy -89252.499830 kJ/mol
# GULP energy per Si atom -5578.281239 kJ/mol
# Density = 2.194553 g / cm^3
# Si number density = 21.995592 Si / 1000 Ang^3
#
#
#
# Elastic Constant Matrix: (Units=GPa)
#
#
# Indices 1 2 3 4 5 6 
#
# 1 88.6912 14.8129 -7.0501 -10.7191 33.3166 -20.2420
# 2 14.8129 21.7857 4.6035 7.6553 24.8663 -6.0880
# 3 -7.0501 4.6035 67.8996 2.6461 32.9154 -7.9458
# 4 -10.7191 7.6553 2.6461 20.4881 -2.7043 9.9934
# 5 33.3166 24.8663 32.9154 -2.7043 42.8766 0.5434
# 6 -20.2420 -6.0880 -7.9458 9.9934 0.5434 26.0869
#
#
#
# Elastic Compliance Matrix: (Units=1/GPa)
#
#
# Indices 1 2 3 4 5 6 
#
# 1 0.013882 -0.028430 -0.002491 0.021950 0.009064 -0.005219
# 2 -0.028430 -0.003833 -0.032992 0.017468 0.051259 -0.040763
# 3 -0.002491 -0.032992 0.004747 0.021029 0.018963 -0.016638
# 4 0.021950 0.017468 0.021029 0.039104 -0.041033 0.013388
# 5 0.009064 0.051259 0.018963 -0.041033 -0.031115 0.041139
# 6 -0.005219 -0.040763 -0.016638 0.013388 0.041139 0.013717
#
#
# Mechanical properties :
#
#
# Convention : Reuss Voigt Hill
#
# Bulk Modulus (GPa) = -8.84715 22.56767 6.86026
# Shear Modulus (GPa) = 39.47863 28.95766 34.21815
#
# Velocity S-wave (km/s) = 4.24115 3.63233 3.94849
# Velocity P-wave (km/s) = 4.46679 5.27959 4.89011
#
# Compressibility (1/GPa) = -0.11303079
#
# Stress axis : x y z
#
# Youngs Moduli (GPa) = 72.03649 -260.88457 210.66582
#
# Poissons Ratio (x) = -7.41695 0.52486
# Poissons Ratio (y) = 2.04800 6.95024
# Poissons Ratio (z) = 0.17947 -8.60704
#
# Static dielectric constant tensor:
#      x y z
#    x 2.068600 0.085260 -0.120340 
#    y 0.085260 1.949160 -0.123370 
#    z -0.120340 -0.123370 1.901430 
# 
# From -- ./inp_files/38114.got.cif
#   From: 2010.05.17/outbox.ucp.g08.bks.cvg/sg2_20_cif.got.tgz:38114.got - 2010.06.11 11:32:03.
