data_PCOD9073659
_publ_section_title
;
Structure prediction by ZEFSAII (Michael W. Deem and Ramdas Pophale) SiO2 
 PCOD9073659
Probable space group: P -1
;
_chemical_formula_sum "Si O2"
_cell_formula_units_Z 16
_cell_length_a 23.794313
_cell_length_b 7.678279
_cell_length_c 5.384233
_cell_angle_alpha 56.886724
_cell_angle_beta 74.037113
_cell_angle_gamma 54.044474
_cell_volume 665.434086
_symmetry_space_group_name_H-M "P -1"
_symmetry_group_IT_number 2
_symmetry_cell_setting 'triclinic'
loop_
_space_group_symop_operation_xyz
x,y,z
-x,-y,-z
loop_
_atom_site_type_symbol
_atom_site_label
_atom_site_fract_x
_atom_site_fract_y
_atom_site_fract_z
Si Si1 0.427286 0.532665 0.148653
Si Si2 0.286647 0.495222 0.760920
Si Si3 0.116119 0.140359 0.041868
Si Si4 0.432418 0.266657 0.857143
Si Si5 0.089234 0.691949 0.419199
Si Si6 0.850458 0.430951 0.054242
Si Si7 0.275406 0.790723 0.048470
Si Si8 0.064651 0.155133 0.597069
O O1 0.435680 0.432608 0.500330
O O2 0.348072 0.778424 0.017524
O O3 0.500000 0.500000 0.000000
O O4 0.421971 0.367577 0.070793
O O5 0.364888 0.265552 0.867775
O O6 0.230711 0.424277 0.913816
O O7 0.277720 0.620363 0.406556
O O8 0.277166 0.678406 0.859818
O O9 0.083204 0.252360 0.259990
O O10 0.108921 0.897918 0.250722
O O11 0.197652 0.033792 0.985452
O O12 0.069037 0.274030 0.753714
O O13 0.500000 0.000000 0.000000
O O14 0.110391 0.558846 0.761181
O O15 0.008091 0.822605 0.362747
O O16 0.132730 0.517075 0.275719
O O17 0.877273 0.138891 0.231934
#
# Coordination Sequence:
#
# PCOD9073659 Si02
#       8
#     2   2   2   2   2   2   2   2
#     4  10  21  35  55  77 103 131 170 212 258 306
#     4  10  16  27  41  59  81 114 151 199 224 282
#     4  10  14  22  31  45  70 101 147 183 214 260
#     4  10  21  35  55  77 103 131 170 212 258 306
#     4  10  16  20  29  45  72 104 148 184 218 264
#     4  10  14  22  31  45  70 101 147 183 214 260
#     4  10  16  27  41  59  81 114 151 199 224 282
#     4  10  16  20  29  45  72 104 148 184 218 264
#
# _framework density 24.044454999999999
#
# number of rings (size 3 to 8) (size 9 to 14) (size 15 to 20)
#    0.000    2.000    5.000    4.500    0.000    0.000 
#    0.000    0.000    0.000    0.000    0.000    0.000 
#    0.000    0.000    0.000    0.000    0.000   42.500 
#
# Total GULP energy -89305.890758 kJ/mol
# GULP energy per Si atom -5581.618172 kJ/mol
# Density = 2.398973 g / cm^3
# Si number density = 24.044455 Si / 1000 Ang^3
#
#
#
# Elastic Constant Matrix: (Units=GPa)
#
#
# Indices 1 2 3 4 5 6 
#
# 1 127.1430 24.0369 33.3099 -0.0898 -2.3012 -31.0297
# 2 24.0369 58.1581 5.2030 6.3496 2.9831 -23.6399
# 3 33.3099 5.2030 157.0660 38.9175 8.4332 8.9758
# 4 -0.0898 6.3496 38.9175 40.7556 -0.8734 12.3981
# 5 -2.3012 2.9831 8.4332 -0.8734 45.0937 12.9423
# 6 -31.0297 -23.6399 8.9758 12.3981 12.9423 52.9200
#
#
#
# Elastic Compliance Matrix: (Units=1/GPa)
#
#
# Indices 1 2 3 4 5 6 
#
# 1 0.010253 -0.001912 -0.002711 0.001254 -0.000373 0.005415
# 2 -0.001912 0.024589 0.001490 -0.009428 -0.005999 0.013286
# 3 -0.002711 0.001490 0.009281 -0.009209 -0.002208 0.000199
# 4 0.001254 -0.009428 -0.009209 0.038800 0.006797 -0.012667
# 5 -0.000373 -0.005999 -0.002208 0.006797 0.026113 -0.010503
# 6 0.005415 0.013286 0.000199 -0.012667 -0.010503 0.033509
#
#
# Mechanical properties :
#
#
# Convention : Reuss Voigt Hill
#
# Bulk Modulus (GPa) = 26.41534 51.94076 39.17805
# Shear Modulus (GPa) = 30.97321 46.40833 38.69077
#
# Velocity S-wave (km/s) = 3.59299 4.39806 4.01575
# Velocity P-wave (km/s) = 5.31250 6.88763 6.15070
#
# Compressibility (1/GPa) = 0.03785680
#
# Stress axis : x y z
#
# Youngs Moduli (GPa) = 97.53717 40.66865 107.74424
#
# Poissons Ratio (x) = 0.07774 0.29211
# Poissons Ratio (y) = 0.18645 -0.16051
# Poissons Ratio (z) = 0.26443 -0.06058
#
# Static dielectric constant tensor:
#      x y z
#    x 2.006980 0.060940 -0.023070 
#    y 0.060940 2.023170 -0.044000 
#    z -0.023070 -0.044000 2.017850 
# 
# From -- ./inp_files/53383.got.cif
#   From: 2010.05.17/outbox.cif.g08.bks.cpg/sg2_27_cif.got.tgz:53383.got - 2010.06.03 11:33:40.
