data_PCOD9073432
_publ_section_title
;
Structure prediction by ZEFSAII (Michael W. Deem and Ramdas Pophale) SiO2 
 PCOD9073432
Probable space group: P -1
;
_chemical_formula_sum "Si O2"
_cell_formula_units_Z 14
_cell_length_a 12.104823
_cell_length_b 17.952408
_cell_length_c 9.520152
_cell_angle_alpha 141.127809
_cell_angle_beta 144.191520
_cell_angle_gamma 25.716844
_cell_volume 515.800795
_symmetry_space_group_name_H-M "P -1"
_symmetry_group_IT_number 2
_symmetry_cell_setting 'triclinic'
loop_
_space_group_symop_operation_xyz
x,y,z
-x,-y,-z
loop_
_atom_site_type_symbol
_atom_site_label
_atom_site_fract_x
_atom_site_fract_y
_atom_site_fract_z
Si Si1 0.457491 0.656427 0.844724
Si Si2 0.116231 0.809789 0.190039
Si Si3 0.776415 0.768644 0.616175
Si Si4 0.289500 0.419163 0.508168
Si Si5 0.255942 0.894272 0.213441
Si Si6 0.712829 0.699232 0.961128
Si Si7 0.942947 0.249317 0.660475
O O1 0.512988 0.753006 0.958336
O O2 0.713931 0.450594 0.778315
O O3 0.192740 0.724501 0.589968
O O4 0.437269 0.702176 0.052250
O O5 0.909814 0.818826 0.905878
O O6 0.443432 0.623321 0.247262
O O7 0.145090 0.917322 0.288007
O O8 0.027410 0.849151 0.318569
O O9 0.755382 0.670870 0.565303
O O10 0.460347 0.912129 0.444916
O O11 0.003201 0.624136 0.521383
O O12 0.369920 0.324890 0.304097
O O13 0.000000 0.000000 0.000000
O O14 0.000000 0.500000 0.000000
O O15 0.777343 0.806201 0.159844
#
# Coordination Sequence:
#
# PCOD9073432 Si02
#       7
#     2   2   2   2   2   2   2
#     4  10  22  37  59  90 129 157 192 251 309 372
#     4  11  22  36  65  91 126 156 200 259 306 372
#     4  10  21  35  60  88 124 158 201 249 307 360
#     4  10  19  32  55  99 128 151 186 250 321 372
#     4  11  27  45  60  84 122 174 217 248 292 357
#     4  10  18  31  54  86 132 154 182 236 313 378
#     4  10  20  35  62 100 120 150 193 251 329 365
#
# _framework density 27.142261000000001
#
# number of rings (size 3 to 8) (size 9 to 14) (size 15 to 20)
#    0.000    1.714    2.857    2.143    6.000    1.714 
#    0.000    0.714    0.000    1.714    0.000    0.000 
#    0.000    0.000    0.000    0.000    0.000    0.000 
#
# Total GULP energy -78334.841025 kJ/mol
# GULP energy per Si atom -5595.345788 kJ/mol
# Density = 2.708048 g / cm^3
# Si number density = 27.142261 Si / 1000 Ang^3
#
#
#
# Elastic Constant Matrix: (Units=GPa)
#
#
# Indices 1 2 3 4 5 6 
#
# 1 162.3695 10.4679 51.5434 0.2582 1.7237 -9.7533
# 2 10.4679 64.7495 33.5462 -6.5564 10.0587 -16.6367
# 3 51.5434 33.5462 172.6724 -15.8485 9.9136 -34.5199
# 4 0.2582 -6.5564 -15.8485 45.0956 -24.1284 1.6346
# 5 1.7237 10.0587 9.9136 -24.1284 54.7556 -2.2717
# 6 -9.7533 -16.6367 -34.5199 1.6346 -2.2717 21.0499
#
#
#
# Elastic Compliance Matrix: (Units=1/GPa)
#
#
# Indices 1 2 3 4 5 6 
#
# 1 0.006835 -0.000161 -0.002179 -0.000929 -0.000221 -0.000484
# 2 -0.000161 0.019979 -0.000809 0.000708 -0.002624 0.014051
# 3 -0.002179 -0.000809 0.009645 0.002970 0.000360 0.013976
# 4 -0.000929 0.000708 0.002970 0.030002 0.012750 0.004047
# 5 -0.000221 -0.002624 0.000360 0.012750 0.024307 0.000047
# 6 -0.000484 0.014051 0.013976 0.004047 0.000047 0.080997
#
#
# Mechanical properties :
#
#
# Convention : Reuss Voigt Hill
#
# Bulk Modulus (GPa) = 33.15300 65.65628 49.40464
# Shear Modulus (GPa) = 26.57935 44.46249 35.52092
#
# Velocity S-wave (km/s) = 3.13271 4.05177 3.62151
# Velocity P-wave (km/s) = 5.03251 6.79200 5.97735
#
# Compressibility (1/GPa) = 0.03016318
#
# Stress axis : x y z
#
# Youngs Moduli (GPa) = 146.29604 50.05332 103.68327
#
# Poissons Ratio (x) = 0.00803 0.22588
# Poissons Ratio (y) = 0.02348 0.08386
# Poissons Ratio (z) = 0.31872 0.04048
#
# Static dielectric constant tensor:
#      x y z
#    x 2.115360 0.031170 0.004780 
#    y 0.031170 2.240190 -0.013050 
#    z 0.004780 -0.013050 2.123420 
# 
# From -- ./inp_files/184727.got.cif
#   From: 2010.05.17/outbox.cif.g08.bks.cpg/sg2_93_cif.got.tgz:184727.got - 2010.06.03 11:33:40.
