data_PCOD9073686
_publ_section_title
;
Structure prediction by ZEFSAII (Michael W. Deem and Ramdas Pophale) SiO2 
 PCOD9073686
Probable space group: P -1
;
_chemical_formula_sum "Si O2"
_cell_formula_units_Z 16
_cell_length_a 18.000000
_cell_length_b 9.000000
_cell_length_c 12.000000
_cell_angle_alpha 120.000000
_cell_angle_beta 30.000000
_cell_angle_gamma 130.000000
_cell_volume 736.400153
_symmetry_space_group_name_H-M "P -1"
_symmetry_group_IT_number 2
_symmetry_cell_setting 'triclinic'
loop_
_space_group_symop_operation_xyz
x,y,z
-x,-y,-z
loop_
_atom_site_type_symbol
_atom_site_label
_atom_site_fract_x
_atom_site_fract_y
_atom_site_fract_z
Si Si1 0.168288 0.579668 0.389336
Si Si2 0.509625 0.657612 0.456488
Si Si3 0.013447 0.743687 0.803238
Si Si4 0.299641 0.686672 0.913430
Si Si5 0.471982 0.614918 0.850077
Si Si6 0.791503 0.726664 0.631371
Si Si7 0.838657 0.033226 0.850646
Si Si8 0.156890 0.989099 0.907393
O O1 0.155926 0.750396 0.537807
O O2 0.173454 0.443437 0.431499
O O3 0.000000 0.500000 0.500000
O O4 0.322079 0.603260 0.119969
O O5 0.500000 0.500000 0.500000
O O6 0.352032 0.680923 0.714504
O O7 0.531414 0.572940 0.278488
O O8 0.676135 0.865963 0.323864
O O9 0.069865 0.791332 0.875809
O O10 0.847713 0.528579 0.938530
O O11 0.958651 0.904215 0.900105
O O12 0.457450 0.737245 0.809963
O O13 0.232867 0.840256 0.070649
O O14 0.637351 0.686104 0.736431
O O15 0.961731 0.871646 0.398579
O O16 0.761327 0.821050 0.817226
O O17 0.805238 0.033235 0.023787
#
# Coordination Sequence:
#
# PCOD9073686 Si02
#       8
#     2   2   2   2   2   2   2   2
#     4  12  21  43  70  96 137 179 229 274 336 406
#     4  10  21  42  67  97 137 175 222 282 340 393
#     4  11  23  41  71 102 129 182 230 268 340 405
#     4  11  23  44  70  98 138 180 226 277 339 407
#     4  11  23  40  70  98 132 184 224 276 339 401
#     4  11  25  41  65 101 138 181 224 282 338 401
#     4  11  25  44  65  99 142 175 230 281 339 397
#     4  11  24  41  68 102 135 177 225 285 336 403
#
# _framework density 21.727318
#
# number of rings (size 3 to 8) (size 9 to 14) (size 15 to 20)
#    0.000    1.000    5.000    1.875    1.750    5.500 
#    0.000    0.000    0.000    0.000    0.000    0.000 
#    0.000    0.000    0.000    0.000    0.000    0.000 
#
# Total GULP energy -89200.808200 kJ/mol
# GULP energy per Si atom -5575.050513 kJ/mol
# Density = 2.167787 g / cm^3
# Si number density = 21.727318 Si / 1000 Ang^3
#
#
#
# Elastic Constant Matrix: (Units=GPa)
#
#
# Indices 1 2 3 4 5 6 
#
# 1 121.8484 29.5661 27.7119 -2.0747 -13.9236 4.0035
# 2 29.5661 35.5770 25.9235 16.2171 -2.4907 2.1914
# 3 27.7119 25.9235 119.6747 22.3697 -0.1817 8.1809
# 4 -2.0747 16.2171 22.3697 30.1129 -3.1692 3.8124
# 5 -13.9236 -2.4907 -0.1817 -3.1692 40.7537 2.8820
# 6 4.0035 2.1914 8.1809 3.8124 2.8820 14.7402
#
#
#
# Elastic Compliance Matrix: (Units=1/GPa)
#
#
# Indices 1 2 3 4 5 6 
#
# 1 0.012700 -0.013497 -0.001672 0.010390 0.004605 -0.004103
# 2 -0.013497 0.054459 -0.003720 -0.028645 -0.003938 0.005813
# 3 -0.001672 -0.003720 0.010872 -0.005870 -0.000972 -0.003318
# 4 0.010390 -0.028645 -0.005870 0.055843 0.006900 -0.011098
# 5 0.004605 -0.003938 -0.000972 0.006900 0.026910 -0.007172
# 6 -0.004103 0.005813 -0.003318 -0.011098 -0.007172 0.074206
#
#
# Mechanical properties :
#
#
# Convention : Reuss Voigt Hill
#
# Bulk Modulus (GPa) = 24.84321 49.27812 37.06066
# Shear Modulus (GPa) = 17.47126 30.04791 23.75958
#
# Velocity S-wave (km/s) = 2.83877 3.72285 3.31045
# Velocity P-wave (km/s) = 4.71208 6.41942 5.63084
#
# Compressibility (1/GPa) = 0.04025245
#
# Stress axis : x y z
#
# Youngs Moduli (GPa) = 78.74034 18.36245 91.98323
#
# Poissons Ratio (x) = 0.24784 0.15377
# Poissons Ratio (y) = 1.06275 0.34221
# Poissons Ratio (z) = 0.13163 0.06832
#
# Static dielectric constant tensor:
#      x y z
#    x 1.832120 0.037810 -0.002050 
#    y 0.037810 1.845010 0.011390 
#    z -0.002050 0.011390 1.812230 
# 
# From -- ./inp_files/462330.got.cif
#   From: 2010.05.17/outbox.ucp.g08.bks.cvg/sg2_232_cif.got.tgz:462330.got - 2010.06.11 11:32:03.
