data_PCOD9073576
_publ_section_title
;
Structure prediction by ZEFSAII (Michael W. Deem and Ramdas Pophale) SiO2 
 PCOD9073576
Probable space group: P -1
;
_chemical_formula_sum "Si O2"
_cell_formula_units_Z 16
_cell_length_a 15.000000
_cell_length_b 12.000000
_cell_length_c 6.000000
_cell_angle_alpha 130.000000
_cell_angle_beta 70.000000
_cell_angle_gamma 90.000000
_cell_volume 740.289630
_symmetry_space_group_name_H-M "P -1"
_symmetry_group_IT_number 2
_symmetry_cell_setting 'triclinic'
loop_
_space_group_symop_operation_xyz
x,y,z
-x,-y,-z
loop_
_atom_site_type_symbol
_atom_site_label
_atom_site_fract_x
_atom_site_fract_y
_atom_site_fract_z
Si Si1 0.830590 0.087434 0.779241
Si Si2 0.753338 0.828215 0.488467
Si Si3 0.999191 0.109155 0.944576
Si Si4 0.665544 0.371264 0.181202
Si Si5 0.480378 0.397490 0.684169
Si Si6 0.719665 0.632358 0.649479
Si Si7 0.575165 0.859711 0.379134
Si Si8 0.093038 0.353211 0.222767
O O1 0.890675 0.161609 0.992638
O O2 0.780251 0.965566 0.765134
O O3 0.745972 0.209131 0.867640
O O4 0.917685 0.982334 0.417511
O O5 0.710998 0.727065 0.554744
O O6 0.667390 0.897455 0.468164
O O7 0.850129 0.710380 0.138282
O O8 0.041141 0.230916 0.179481
O O9 0.000000 0.000000 0.000000
O O10 0.566771 0.366360 0.385681
O O11 0.624220 0.489610 0.170175
O O12 0.719548 0.461736 0.407762
O O13 0.478383 0.228747 0.527631
O O14 0.500000 0.500000 0.000000
O O15 0.821078 0.634366 0.675709
O O16 0.626315 0.725328 0.991568
O O17 0.500000 0.000000 0.500000
O O18 0.000000 0.500000 0.500000
#
# Coordination Sequence:
#
# PCOD9073576 Si02
#       8
#     2   2   2   2   2   2   2   2
#     4  10  23  39  62  91 122 160 203 249 305 363
#     4  10  23  41  59  90 128 155 207 252 294 374
#     4  10  21  41  61  91 123 155 204 251 299 368
#     4  11  24  40  64  91 124 165 203 250 311 355
#     4  11  24  43  60  91 128 158 209 255 295 370
#     4  11  22  41  61  91 123 160 203 253 299 364
#     4  11  25  41  64  91 123 165 205 251 308 358
#     4  10  22  39  63  90 121 158 201 249 308 361
#
# _framework density 21.613161999999999
#
# number of rings (size 3 to 8) (size 9 to 14) (size 15 to 20)
#    0.000    1.500    2.500    1.500    3.500    3.000 
#    0.000    0.000    0.000    0.000    0.000    0.000 
#    0.000    0.000    0.000    0.000    0.000    0.000 
#
# Total GULP energy -89075.384867 kJ/mol
# GULP energy per Si atom -5567.211554 kJ/mol
# Density = 2.156397 g / cm^3
# Si number density = 21.613162 Si / 1000 Ang^3
#
#
#
# Elastic Constant Matrix: (Units=GPa)
#
#
# Indices 1 2 3 4 5 6 
#
# 1 33.9052 24.2371 40.1553 21.9441 -14.8712 13.3785
# 2 24.2371 70.8540 6.7513 14.0143 -7.8752 14.3784
# 3 40.1553 6.7513 4.7935 20.6938 8.6266 -5.3254
# 4 21.9441 14.0143 20.6938 24.0339 -5.7173 -3.3377
# 5 -14.8712 -7.8752 8.6266 -5.7173 0.4214 13.7163
# 6 13.3785 14.3784 -5.3254 -3.3377 13.7163 32.1636
#
#
#
# Elastic Compliance Matrix: (Units=1/GPa)
#
#
# Indices 1 2 3 4 5 6 
#
# 1 0.029869 -0.009365 0.008992 -0.038314 -0.040699 0.006632
# 2 -0.009365 0.035690 0.044684 -0.040344 0.065031 -0.036580
# 3 0.008992 0.044684 0.119469 -0.107829 0.175765 -0.090080
# 4 -0.038314 -0.040344 -0.107829 0.178423 -0.108284 0.080812
# 5 -0.040699 0.065031 0.175765 -0.108284 0.240785 -0.096961
# 6 0.006632 -0.036580 -0.090080 0.080812 -0.096961 0.079506
#
#
# Mechanical properties :
#
#
# Convention : Reuss Voigt Hill
#
# Bulk Modulus (GPa) = 3.65431 27.98222 15.81826
# Shear Modulus (GPa) = 7.28503 13.88438 10.58470
#
# Velocity S-wave (km/s) = 1.83792 2.53732 2.21539
# Velocity P-wave (km/s) = 2.48966 4.64316 3.72541
#
# Compressibility (1/GPa) = 0.27364967
#
# Stress axis : x y z
#
# Youngs Moduli (GPa) = 33.47928 28.01872 8.37038
#
# Poissons Ratio (x) = 0.26241 -0.07527
# Poissons Ratio (y) = 0.31355 -0.37402
# Poissons Ratio (z) = -0.30104 -1.25199
#
# Static dielectric constant tensor:
#      x y z
#    x 1.558400 0.060820 0.133940 
#    y 0.060820 1.891230 -0.035720 
#    z 0.133940 -0.035720 1.805340 
# 
# From -- ./inp_files/37259.got.cif
#   From: 2010.05.17/outbox.ucp.g08.bks.cvg/sg2_19_cif.got.tgz:37259.got - 2010.06.11 11:32:03.
