data_PCOD9073185
_publ_section_title
;
Structure prediction by ZEFSAII (Michael W. Deem and Ramdas Pophale) SiO2 
 PCOD9073185
Probable space group: P -1
;
_chemical_formula_sum "Si O2"
_cell_formula_units_Z 16
_cell_length_a 15.000000
_cell_length_b 9.000000
_cell_length_c 9.000000
_cell_angle_alpha 80.000000
_cell_angle_beta 120.000000
_cell_angle_gamma 60.000000
_cell_volume 751.948787
_symmetry_space_group_name_H-M "P -1"
_symmetry_group_IT_number 2
_symmetry_cell_setting 'triclinic'
loop_
_space_group_symop_operation_xyz
x,y,z
-x,-y,-z
loop_
_atom_site_type_symbol
_atom_site_label
_atom_site_fract_x
_atom_site_fract_y
_atom_site_fract_z
Si Si1 0.728858 0.356851 0.094324
Si Si2 0.985872 0.988639 0.763091
Si Si3 0.659630 0.932998 0.799016
Si Si4 0.972113 0.757610 0.048674
Si Si5 0.900259 0.632193 0.602843
Si Si6 0.540786 0.719376 0.659059
Si Si7 0.780209 0.635240 0.205003
Si Si8 0.279527 0.875673 0.622341
O O1 0.721376 0.526659 0.142872
O O2 0.678744 0.262717 0.169140
O O3 0.893926 0.155765 0.235032
O O4 0.652870 0.475404 0.850035
O O5 0.824219 0.137137 0.547430
O O6 0.004903 0.826589 0.919802
O O7 0.014924 0.124538 0.834730
O O8 0.618773 0.804196 0.730451
O O9 0.540810 0.166781 0.588032
O O10 0.812038 0.850353 0.891919
O O11 0.684334 0.863217 0.006547
O O12 0.075528 0.511262 0.215886
O O13 0.811724 0.631960 0.403829
O O14 0.062538 0.504745 0.712152
O O15 0.819867 0.873986 0.496122
O O16 0.413441 0.803532 0.653084
#
# Coordination Sequence:
#
# PCOD9073185 Si02
#       8
#     2   2   2   2   2   2   2   2
#     4  11  23  39  61  89 127 167 202 248 303 371
#     4  11  23  39  65  96 121 158 204 252 320 356
#     4   9  19  39  65  81 120 167 199 248 302 358
#     4  10  22  40  64  93 128 152 199 267 302 366
#     4  10  21  34  61  92 121 156 200 257 308 349
#     4  10  22  41  61  90 123 169 205 247 303 357
#     4   9  19  36  59  90 120 159 199 251 309 352
#     4  12  23  38  64  95 123 161 208 251 302 367
#
# _framework density 21.278044999999999
#
# number of rings (size 3 to 8) (size 9 to 14) (size 15 to 20)
#    0.000    1.750    2.500    1.500    5.250    3.500 
#    0.000    3.125    5.500    0.000    0.000    0.000 
#    0.000    0.000    0.000    0.000    0.000    0.000 
#
# Total GULP energy -89165.078523 kJ/mol
# GULP energy per Si atom -5572.817408 kJ/mol
# Density = 2.122962 g / cm^3
# Si number density = 21.278045 Si / 1000 Ang^3
#
#
#
# Elastic Constant Matrix: (Units=GPa)
#
#
# Indices 1 2 3 4 5 6 
#
# 1 107.7312 17.6706 14.5376 -4.7104 -2.1605 25.8984
# 2 17.6706 44.1390 15.3595 -4.5518 -0.9221 23.0225
# 3 14.5376 15.3595 129.5515 -20.8157 -13.8478 13.0979
# 4 -4.7104 -4.5518 -20.8157 31.9696 15.6825 -6.8589
# 5 -2.1605 -0.9221 -13.8478 15.6825 50.8636 -10.7966
# 6 25.8984 23.0225 13.0979 -6.8589 -10.7966 27.5824
#
#
#
# Elastic Compliance Matrix: (Units=1/GPa)
#
#
# Indices 1 2 3 4 5 6 
#
# 1 0.012403 0.002944 -0.000517 0.000056 -0.002744 -0.014918
# 2 0.002944 0.043756 -0.002150 0.000610 -0.008665 -0.041506
# 3 -0.000517 -0.002150 0.008958 0.004990 0.000746 -0.000441
# 4 0.000056 0.000610 0.004990 0.040394 -0.010440 0.003028
# 5 -0.002744 -0.008665 0.000746 -0.010440 0.026463 0.017218
# 6 -0.014918 -0.041506 -0.000441 0.003028 0.017218 0.092608
#
#
# Mechanical properties :
#
#
# Convention : Reuss Voigt Hill
#
# Bulk Modulus (GPa) = 15.22744 41.83966 28.53355
# Shear Modulus (GPa) = 20.33182 37.67339 29.00261
#
# Velocity S-wave (km/s) = 3.09452 4.21233 3.69593
# Velocity P-wave (km/s) = 4.46542 6.58516 5.62602
#
# Compressibility (1/GPa) = 0.06567092
#
# Stress axis : x y z
#
# Youngs Moduli (GPa) = 80.62671 22.85381 111.63331
#
# Poissons Ratio (x) = -0.06728 0.05771
# Poissons Ratio (y) = -0.23736 0.24001
# Poissons Ratio (z) = 0.04168 0.04914
#
# Static dielectric constant tensor:
#      x y z
#    x 1.739750 -0.021290 -0.014460 
#    y -0.021290 1.789290 0.028300 
#    z -0.014460 0.028300 1.859210 
# 
# From -- ./inp_files/298347.got.cif
#   From: 2010.05.17/outbox.ucp.g08.bks.cvg/sg2_150_cif.got.tgz:298347.got - 2010.06.11 11:32:03.
