data_PCOD9073941
_publ_section_title
;
Structure prediction by ZEFSAII (Michael W. Deem and Ramdas Pophale) SiO2 
 PCOD9073941
Probable space group: P -1
;
_chemical_formula_sum "Si O2"
_cell_formula_units_Z 16
_cell_length_a 21.000000
_cell_length_b 18.000000
_cell_length_c 6.000000
_cell_angle_alpha 100.000000
_cell_angle_beta 80.000000
_cell_angle_gamma 160.000000
_cell_volume 763.547719
_symmetry_space_group_name_H-M "P -1"
_symmetry_group_IT_number 2
_symmetry_cell_setting 'triclinic'
loop_
_space_group_symop_operation_xyz
x,y,z
-x,-y,-z
loop_
_atom_site_type_symbol
_atom_site_label
_atom_site_fract_x
_atom_site_fract_y
_atom_site_fract_z
Si Si1 0.644494 0.554387 0.487149
Si Si2 0.093278 0.665147 0.684900
Si Si3 0.877936 0.531663 0.103474
Si Si4 0.604141 0.114102 0.244177
Si Si5 0.360276 0.182968 0.831357
Si Si6 0.362055 0.318384 0.182077
Si Si7 0.222419 0.932783 0.419595
Si Si8 0.398145 0.634898 0.848887
O O1 0.519590 0.389403 0.680874
O O2 0.501167 0.434159 0.336730
O O3 0.750278 0.739881 0.643884
O O4 0.711452 0.554607 0.307232
O O5 0.259365 0.808964 0.799462
O O6 0.185024 0.819020 0.528316
O O7 0.000000 0.500000 0.500000
O O8 0.952364 0.557049 0.875651
O O9 0.745756 0.339889 0.253872
O O10 0.746220 0.456023 0.063414
O O11 0.062981 0.763195 0.240319
O O12 0.500000 0.000000 0.500000
O O13 0.500000 0.000000 0.000000
O O14 0.216812 0.991230 0.642848
O O15 0.265526 0.142680 0.024674
O O16 0.480387 0.259075 0.956533
O O17 0.500000 0.500000 0.000000
O O18 0.431009 0.156999 0.311727
#
# Coordination Sequence:
#
# PCOD9073941 Si02
#       8
#     2   2   2   2   2   2   2   2
#     4   8  15  29  54  89 130 164 212 262 309 382
#     4  12  26  48  66  95 128 168 224 280 344 410
#     4  12  27  43  68  93 131 170 216 278 342 405
#     4  12  28  47  74 100 129 173 225 284 347 416
#     4   9  18  34  59  89 129 165 219 261 318 389
#     4   8  13  26  53  91 125 168 209 259 311 369
#     4  11  24  42  66  91 131 169 217 275 334 401
#     4  10  22  40  61  95 128 173 216 267 328 395
#
# _framework density 20.954813000000001
#
# number of rings (size 3 to 8) (size 9 to 14) (size 15 to 20)
#    0.000    1.750    1.250    2.625    5.250    2.000 
#    0.000    0.000    0.000    0.750    0.000   86.625 
#    0.000    0.000    0.000    0.000    0.000    0.375 
#
# Total GULP energy -89079.981950 kJ/mol
# GULP energy per Si atom -5567.498872 kJ/mol
# Density = 2.090712 g / cm^3
# Si number density = 20.954813 Si / 1000 Ang^3
#
#
#
# Elastic Constant Matrix: (Units=GPa)
#
#
# Indices 1 2 3 4 5 6 
#
# 1 94.7789 48.7512 59.3543 -12.4195 -14.8419 -0.6648
# 2 48.7512 48.3927 42.5935 18.1577 -10.7107 13.1422
# 3 59.3543 42.5935 154.5303 9.5098 -17.6493 0.8173
# 4 -12.4195 18.1577 9.5098 39.4389 -13.6247 -4.3930
# 5 -14.8419 -10.7107 -17.6493 -13.6247 48.0932 -1.3472
# 6 -0.6648 13.1422 0.8173 -4.3930 -1.3472 19.3333
#
#
#
# Elastic Compliance Matrix: (Units=1/GPa)
#
#
# Indices 1 2 3 4 5 6 
#
# 1 -0.033061 0.072361 -0.005074 -0.054058 -0.013037 -0.063303
# 2 0.072361 -0.105551 -0.001796 0.091932 0.026929 0.097080
# 3 -0.005074 -0.001796 0.009155 -0.002758 0.000615 0.000075
# 4 -0.054058 0.091932 -0.002758 -0.046018 -0.012374 -0.075554
# 5 -0.013037 0.026929 0.000615 -0.012374 0.018919 -0.020273
# 6 -0.063303 0.097080 0.000075 -0.075554 -0.020273 -0.035029
#
#
# Mechanical properties :
#
#
# Convention : Reuss Voigt Hill
#
# Bulk Modulus (GPa) = 655.60138 66.56665 361.08402
# Shear Modulus (GPa) = -15.52507 31.17328 7.82410
#
# Velocity S-wave (km/s) = -2.72487 3.86118 1.93440
# Velocity P-wave (km/s) = 17.42537 7.19125 13.32962
#
# Compressibility (1/GPa) = 0.00152532
#
# Stress axis : x y z
#
# Youngs Moduli (GPa) = -30.24734 -9.47409 109.23551
#
# Poissons Ratio (x) = 0.68555 0.55426
# Poissons Ratio (y) = 2.18872 0.19613
# Poissons Ratio (z) = -0.15347 -0.01701
#
# Static dielectric constant tensor:
#      x y z
#    x 1.784130 -0.071530 0.122240 
#    y -0.071530 1.774480 -0.044070 
#    z 0.122240 -0.044070 1.811380 
# 
# From -- ./inp_files/107817.got.cif
#   From: 2010.05.17/outbox.ucp.g08.bks.cvg/sg2_54_cif.got.tgz:107817.got - 2010.06.11 11:32:03.
