data_PCOD9073331
_publ_section_title
;
Structure prediction by ZEFSAII (Michael W. Deem and Ramdas Pophale) SiO2 
 PCOD9073331
Probable space group: P -1
;
_chemical_formula_sum "Si O2"
_cell_formula_units_Z 15
_cell_length_a 27.000000
_cell_length_b 9.000000
_cell_length_c 9.000000
_cell_angle_alpha 70.000000
_cell_angle_beta 40.000000
_cell_angle_gamma 40.000000
_cell_volume 727.930595
_symmetry_space_group_name_H-M "P -1"
_symmetry_group_IT_number 2
_symmetry_cell_setting 'triclinic'
loop_
_space_group_symop_operation_xyz
x,y,z
-x,-y,-z
loop_
_atom_site_type_symbol
_atom_site_label
_atom_site_fract_x
_atom_site_fract_y
_atom_site_fract_z
Si Si1 0.641342 0.183187 0.229935
Si Si2 0.277772 0.128499 0.118440
Si Si3 0.802174 0.766886 0.269497
Si Si4 0.119763 0.149837 0.677788
Si Si5 0.199925 0.765065 0.185538
Si Si6 0.886257 0.304056 0.847653
Si Si7 0.000000 0.000000 0.000000
Si Si8 0.351841 0.222611 0.185813
O O1 0.500000 0.500000 0.500000
O O2 0.702673 0.968575 0.291405
O O3 0.745266 0.151676 0.974555
O O4 0.619897 0.123075 0.149628
O O5 0.190385 0.133063 0.390538
O O6 0.180512 0.416747 0.149847
O O7 0.352823 0.102059 0.083405
O O8 0.800826 0.917776 0.335080
O O9 0.755916 0.684996 0.488360
O O10 0.960321 0.481908 0.948496
O O11 0.101194 0.992732 0.762747
O O12 0.194310 0.695055 0.059128
O O13 0.289536 0.494377 0.176884
O O14 0.044092 0.030596 0.516728
O O15 0.903009 0.237724 0.004976
O O16 0.500000 0.000000 0.000000
#
# Coordination Sequence:
#
# PCOD9073331 Si02
#       8
#     2   2   2   2   2   2   1   2
#     4  12  24  40  59  86 122 166 208 251 302 365
#     4  10  23  42  64  87 123 166 207 251 312 373
#     4  10  21  39  62  87 122 158 200 249 303 365
#     4  10  21  38  62  92 119 154 198 255 313 356
#     4  10  21  39  62  87 122 158 200 249 303 365
#     4  10  21  38  62  92 119 154 198 255 313 356
#     4  12  20  30  54  96 126 138 184 244 298 356
#     4  10  21  42  64  89 127 172 205 242 301 375
#
# _framework density 20.606359999999999
#
# number of rings (size 3 to 8) (size 9 to 14) (size 15 to 20)
#    0.000    1.600    0.000    4.800    0.000    5.867 
#    0.000   17.333    0.000    0.000    0.000    0.000 
#    0.000    0.000    0.000    0.000    0.000    0.000 
#
# Total GULP energy -83528.905588 kJ/mol
# GULP energy per Si atom -5568.593706 kJ/mol
# Density = 2.055946 g / cm^3
# Si number density = 20.606360 Si / 1000 Ang^3
#
#
#
# Elastic Constant Matrix: (Units=GPa)
#
#
# Indices 1 2 3 4 5 6 
#
# 1 87.8283 35.0989 23.4789 -4.5485 14.3921 -17.6197
# 2 35.0989 81.7346 10.9851 -20.4549 13.6688 -15.4268
# 3 23.4789 10.9851 27.9942 12.9449 20.4279 -22.3355
# 4 -4.5485 -20.4549 12.9449 34.1960 1.3185 -2.7073
# 5 14.3921 13.6688 20.4279 1.3185 30.1229 3.0525
# 6 -17.6197 -15.4268 -22.3355 -2.7073 3.0525 30.0962
#
#
#
# Elastic Compliance Matrix: (Units=1/GPa)
#
#
# Indices 1 2 3 4 5 6 
#
# 1 0.015587 -0.003737 0.002575 -0.000019 -0.008508 0.009981
# 2 -0.003737 0.019260 -0.012414 0.015676 0.000798 -0.000199
# 3 0.002575 -0.012414 -0.107645 0.023132 0.085647 -0.091349
# 4 -0.000019 0.015676 0.023132 0.033369 -0.027390 0.030971
# 5 -0.008508 0.000798 0.085647 -0.027390 -0.025978 0.059161
# 6 0.009981 -0.000199 -0.091349 0.030971 0.059161 -0.032040
#
#
# Mechanical properties :
#
#
# Convention : Reuss Voigt Hill
#
# Bulk Modulus (GPa) = -10.00488 37.40921 13.70216
# Shear Modulus (GPa) = -48.25763 27.41597 -10.42083
#
# Velocity S-wave (km/s) = -4.84455 3.65151 -2.25124
# Velocity P-wave (km/s) = 6.01321 5.99763 0.30580
#
# Compressibility (1/GPa) = -0.09995121
#
# Stress axis : x y z
#
# Youngs Moduli (GPa) = 64.15700 51.92090 -9.28980
#
# Poissons Ratio (x) = 0.19405 0.02392
# Poissons Ratio (y) = 0.23978 -0.11532
# Poissons Ratio (z) = -0.16518 0.64453
#
# Static dielectric constant tensor:
#      x y z
#    x 1.777940 0.015230 0.044950 
#    y 0.015230 1.685040 0.004110 
#    z 0.044950 0.004110 1.737110 
# 
# From -- ./inp_files/356593.got.cif
#   From: 2010.05.17/outbox.ucp.g08.bks.cvg/sg2_179_cif.got.tgz:356593.got - 2010.06.11 11:32:03.
