data_PCOD9073633
_publ_section_title
;
Structure prediction by ZEFSAII (Michael W. Deem and Ramdas Pophale) SiO2 
 PCOD9073633
Probable space group: P -1
;
_chemical_formula_sum "Si O2"
_cell_formula_units_Z 16
_cell_length_a 9.000177
_cell_length_b 26.550954
_cell_length_c 15.161355
_cell_angle_alpha 20.554137
_cell_angle_beta 32.923787
_cell_angle_gamma 42.830128
_cell_volume 664.596937
_symmetry_space_group_name_H-M "P -1"
_symmetry_group_IT_number 2
_symmetry_cell_setting 'triclinic'
loop_
_space_group_symop_operation_xyz
x,y,z
-x,-y,-z
loop_
_atom_site_type_symbol
_atom_site_label
_atom_site_fract_x
_atom_site_fract_y
_atom_site_fract_z
Si Si1 0.271443 0.162795 0.886380
Si Si2 0.232173 0.319330 0.335325
Si Si3 0.652710 0.976351 0.750231
Si Si4 0.979945 0.417658 0.552466
Si Si5 0.714896 0.207931 0.895906
Si Si6 0.194533 0.685780 0.866203
Si Si7 0.945170 0.037346 0.834146
Si Si8 0.807656 0.401593 0.181126
O O1 0.133393 0.287781 0.711743
O O2 0.604011 0.252231 0.567708
O O3 0.216038 0.107181 0.104278
O O4 0.169695 0.015641 0.118607
O O5 0.464447 0.300235 0.321136
O O6 0.936231 0.310295 0.547464
O O7 0.353664 0.479936 0.968083
O O8 0.155047 0.195244 0.500631
O O9 0.814735 0.148948 0.374511
O O10 0.578616 0.876255 0.864442
O O11 0.339885 0.978635 0.940379
O O12 0.000000 0.500000 0.500000
O O13 0.701167 0.308782 0.821936
O O14 0.071034 0.554251 0.213023
O O15 0.874937 0.079812 0.042454
O O16 0.079683 0.646956 0.887820
O O17 0.000000 0.500000 0.000000
#
# Coordination Sequence:
#
# PCOD9073633 Si02
#       8
#     2   2   2   2   2   2   2   2
#     4  11  23  37  59  91 130 155 191 246 300 359
#     4  11  18  33  57  92 122 154 188 234 303 374
#     4  11  20  34  59  93 123 154 185 239 311 366
#     4  11  25  45  62  79 113 167 219 254 283 335
#     4  10  18  35  59  86 119 155 197 238 294 365
#     4  12  21  38  61  86 120 161 198 240 298 360
#     4  10  18  31  55  91 131 157 179 225 305 383
#     4  12  23  33  56  95 135 151 187 237 308 373
#
# _framework density 24.074745
#
# number of rings (size 3 to 8) (size 9 to 14) (size 15 to 20)
#    0.000    1.000    6.250    3.750    1.750    0.000 
#    0.000    1.875    0.000    0.000    0.000    0.000 
#    0.000    0.000    0.000    0.000    0.000    0.000 
#
# Total GULP energy -89257.906808 kJ/mol
# GULP energy per Si atom -5578.619175 kJ/mol
# Density = 2.401995 g / cm^3
# Si number density = 24.074745 Si / 1000 Ang^3
#
#
#
# Elastic Constant Matrix: (Units=GPa)
#
#
# Indices 1 2 3 4 5 6 
#
# 1 137.8826 44.8205 65.2826 -6.3593 -19.3608 50.1778
# 2 44.8205 72.2694 52.6466 -11.8961 -20.6732 44.5807
# 3 65.2826 52.6466 150.6805 -51.5810 5.4960 20.8809
# 4 -6.3593 -11.8961 -51.5810 10.6708 10.3506 -23.5349
# 5 -19.3608 -20.6732 5.4960 10.3506 40.7372 -20.5980
# 6 50.1778 44.5807 20.8809 -23.5349 -20.5980 48.1723
#
#
#
# Elastic Compliance Matrix: (Units=1/GPa)
#
#
# Indices 1 2 3 4 5 6 
#
# 1 0.008249 -0.005391 0.002101 0.010879 -0.001860 0.000006
# 2 -0.005391 0.022439 0.002571 0.021243 0.000133 -0.005829
# 3 0.002101 0.002571 0.001810 -0.013937 -0.000700 -0.012460
# 4 0.010879 0.021243 -0.013937 -0.016778 0.006805 -0.030236
# 5 -0.001860 0.000133 -0.000700 0.006805 0.031703 0.018998
# 6 0.000006 -0.005829 -0.012460 -0.030236 0.018998 0.024899
#
#
# Mechanical properties :
#
#
# Convention : Reuss Voigt Hill
#
# Bulk Modulus (GPa) = 32.19859 76.25910 54.22885
# Shear Modulus (GPa) = 59.44399 33.12158 46.28279
#
# Velocity S-wave (km/s) = 4.97444 3.71318 4.38935
# Velocity P-wave (km/s) = 6.81152 7.08014 6.94713
#
# Compressibility (1/GPa) = 0.03105726
#
# Stress axis : x y z
#
# Youngs Moduli (GPa) = 121.23107 44.56593 552.61712
#
# Poissons Ratio (x) = 0.24027 -1.16101
# Poissons Ratio (y) = 0.65360 -1.42054
# Poissons Ratio (z) = -0.25470 -0.11456
#
# Static dielectric constant tensor:
#      x y z
#    x 1.990810 -0.014590 -0.004140 
#    y -0.014590 1.972140 0.005730 
#    z -0.004140 0.005730 1.952280 
# 
# From -- ./inp_files/177713.got.cif
#   From: 2010.05.17/outbox.cif.g08.bks.cpg/sg2_89_cif.got.tgz:177713.got - 2010.06.03 11:33:40.
