data_PCOD9073124
_publ_section_title
;
Structure prediction by ZEFSAII (Michael W. Deem and Ramdas Pophale) SiO2 
 PCOD9073124
Probable space group: P -1
;
_chemical_formula_sum "Si O2"
_cell_formula_units_Z 14
_cell_length_a 4.965882
_cell_length_b 18.244569
_cell_length_c 11.318581
_cell_angle_alpha 53.933802
_cell_angle_beta 121.840840
_cell_angle_gamma 113.373325
_cell_volume 698.623139
_symmetry_space_group_name_H-M "P -1"
_symmetry_group_IT_number 2
_symmetry_cell_setting 'triclinic'
loop_
_space_group_symop_operation_xyz
x,y,z
-x,-y,-z
loop_
_atom_site_type_symbol
_atom_site_label
_atom_site_fract_x
_atom_site_fract_y
_atom_site_fract_z
Si Si1 0.366942 0.396422 0.042983
Si Si2 0.466581 0.093215 0.831927
Si Si3 0.230373 0.226132 0.306454
Si Si4 0.705590 0.308962 0.987295
Si Si5 0.204589 0.886821 0.532654
Si Si6 0.833838 0.830023 0.098867
Si Si7 0.436970 0.015126 0.269695
O O1 0.374805 0.332016 0.222533
O O2 0.500000 0.500000 0.000000
O O3 0.572043 0.352202 0.033039
O O4 0.990112 0.381789 0.932532
O O5 0.213190 0.140024 0.805572
O O6 0.456829 0.056480 0.731076
O O7 0.500000 0.000000 0.000000
O O8 0.206633 0.836298 0.151741
O O9 0.485163 0.163463 0.378277
O O10 0.085579 0.190944 0.431106
O O11 0.919926 0.228178 0.147619
O O12 0.397522 0.263018 0.890238
O O13 0.283065 0.941699 0.620279
O O14 0.191838 0.960279 0.356808
O O15 0.713653 0.907103 0.911377
#
# Coordination Sequence:
#
# PCOD9073124 Si02
#       7
#     2   2   2   2   2   2   2
#     4  10  18  31  53  76 105 128 151 197 248 317
#     4  10  22  33  50  68  94 133 179 227 241 270
#     4  10  19  34  45  72 100 136 155 194 250 298
#     4  10  19  32  51  72 105 129 161 192 253 304
#     4  11  22  31  51  66 104 138 167 206 237 307
#     4  11  20  35  52  67 101 138 170 209 252 279
#     4  10  21  34  46  73  95 136 182 205 244 276
#
# _framework density 20.039415999999999
#
# number of rings (size 3 to 8) (size 9 to 14) (size 15 to 20)
#    0.857    0.857    2.857    3.000    2.000    6.857 
#    0.000    0.000    0.000    0.000    0.000    0.000 
#    0.000   22.857    0.000    0.000    0.000    0.000 
#
# Total GULP energy -78028.686771 kJ/mol
# GULP energy per Si atom -5573.477626 kJ/mol
# Density = 1.999381 g / cm^3
# Si number density = 20.039416 Si / 1000 Ang^3
#
#
#
# Elastic Constant Matrix: (Units=GPa)
#
#
# Indices 1 2 3 4 5 6 
#
# 1 131.6179 36.4897 18.1043 -4.1047 -4.4579 9.2979
# 2 36.4897 106.4882 30.2747 -4.2947 -13.1243 16.3858
# 3 18.1043 30.2747 37.0802 0.2565 -18.5776 -0.4583
# 4 -4.1047 -4.2947 0.2565 21.8757 -0.3734 -10.6663
# 5 -4.4579 -13.1243 -18.5776 -0.3734 26.2292 0.1096
# 6 9.2979 16.3858 -0.4583 -10.6663 0.1096 31.3085
#
#
#
# Elastic Compliance Matrix: (Units=1/GPa)
#
#
# Indices 1 2 3 4 5 6 
#
# 1 0.008697 -0.001932 -0.003762 0.000564 -0.002139 -0.001427
# 2 -0.001932 0.014232 -0.011392 -0.001064 -0.001260 -0.007400
# 3 -0.003762 -0.011392 0.054272 0.000903 0.032079 0.008069
# 4 0.000564 -0.001064 0.000903 0.054935 0.000905 0.019115
# 5 -0.002139 -0.001260 0.032079 0.000905 0.059858 0.001863
# 6 -0.001427 -0.007400 0.008069 0.019115 0.001863 0.042860
#
#
# Mechanical properties :
#
#
# Convention : Reuss Voigt Hill
#
# Bulk Modulus (GPa) = 23.24033 49.43598 36.33816
# Shear Modulus (GPa) = 17.64486 28.57051 23.10768
#
# Velocity S-wave (km/s) = 2.97055 3.77996 3.39943
# Velocity P-wave (km/s) = 4.83612 6.61617 5.79490
#
# Compressibility (1/GPa) = 0.04302864
#
# Stress axis : x y z
#
# Youngs Moduli (GPa) = 114.98505 70.26506 18.42564
#
# Poissons Ratio (x) = 0.13574 0.06932
# Poissons Ratio (y) = 0.22212 0.20991
# Poissons Ratio (z) = 0.43261 0.80046
#
# Static dielectric constant tensor:
#      x y z
#    x 1.795000 0.071260 0.040730 
#    y 0.071260 1.745680 0.063030 
#    z 0.040730 0.063030 1.799940 
# 
# From -- ./inp_files/368933.got.cif
#   From: 2010.05.17/outbox.cif.g08.bks.cpg/sg2_185_cif.got.tgz:368933.got - 2010.06.03 11:33:40.
