data_PCOD9073504
_publ_section_title
;
Structure prediction by ZEFSAII (Michael W. Deem and Ramdas Pophale) SiO2 
 PCOD9073504
Probable space group: P -1
;
_chemical_formula_sum "Si O2"
_cell_formula_units_Z 14
_cell_length_a 9.000000
_cell_length_b 9.000000
_cell_length_c 21.000000
_cell_angle_alpha 50.000000
_cell_angle_beta 130.000000
_cell_angle_gamma 90.000000
_cell_volume 708.825656
_symmetry_space_group_name_H-M "P -1"
_symmetry_group_IT_number 2
_symmetry_cell_setting 'triclinic'
loop_
_space_group_symop_operation_xyz
x,y,z
-x,-y,-z
loop_
_atom_site_type_symbol
_atom_site_label
_atom_site_fract_x
_atom_site_fract_y
_atom_site_fract_z
Si Si1 0.264529 0.945959 0.100317
Si Si2 0.642955 0.064826 0.337106
Si Si3 0.499015 0.103277 0.041926
Si Si4 0.259251 0.690364 0.790011
Si Si5 0.423177 0.802136 0.330573
Si Si6 0.239321 0.645455 0.652865
Si Si7 0.936502 0.164708 0.673479
O O1 0.316072 0.910011 0.199834
O O2 0.523732 0.662332 0.216475
O O3 0.282479 0.142083 0.016587
O O4 0.000000 0.000000 0.000000
O O5 0.498870 0.963000 0.332768
O O6 0.970997 0.802621 0.493843
O O7 0.559448 0.252805 0.200635
O O8 0.632411 0.227391 0.347171
O O9 0.418212 0.388725 0.940162
O O10 0.804742 0.892017 0.214298
O O11 0.500000 0.000000 0.000000
O O12 0.150220 0.693320 0.689626
O O13 0.050102 0.931251 0.716450
O O14 0.696598 0.475115 0.495834
O O15 0.201959 0.853355 0.300740
#
# Coordination Sequence:
#
# PCOD9073504 Si02
#       7
#     2   2   2   2   2   2   2
#     4  12  25  43  64  95 127 164 212 261 322 373
#     4   9  19  40  66  95 122 163 215 253 316 367
#     4  12  23  42  67  93 127 170 208 260 317 375
#     4  10  21  40  64  93 122 168 208 257 306 378
#     4  11  25  41  65  94 129 169 205 271 307 375
#     4   9  20  39  66  93 122 162 213 258 306 376
#     4  11  25  43  62  96 129 164 218 252 320 372
#
# _framework density 19.750978
#
# number of rings (size 3 to 8) (size 9 to 14) (size 15 to 20)
#    0.857    0.571    1.429    3.857    0.000    2.857 
#    0.000    2.857    0.000    0.000    0.000    0.000 
#    0.000    0.000    0.000    0.000    0.000    0.000 
#
# Total GULP energy -78012.398311 kJ/mol
# GULP energy per Si atom -5572.314165 kJ/mol
# Density = 1.970602 g / cm^3
# Si number density = 19.750978 Si / 1000 Ang^3
#
#
#
# Elastic Constant Matrix: (Units=GPa)
#
#
# Indices 1 2 3 4 5 6 
#
# 1 112.7462 20.2347 18.4060 14.8032 -11.6195 17.4144
# 2 20.2347 70.8272 5.4059 6.3209 1.7378 4.2560
# 3 18.4060 5.4059 44.2129 9.8982 -7.5498 13.5842
# 4 14.8032 6.3209 9.8982 39.0017 3.2123 -0.7910
# 5 -11.6195 1.7378 -7.5498 3.2123 29.0777 2.0099
# 6 17.4144 4.2560 13.5842 -0.7910 2.0099 42.3002
#
#
#
# Elastic Compliance Matrix: (Units=1/GPa)
#
#
# Indices 1 2 3 4 5 6 
#
# 1 0.011262 -0.002627 -0.001288 -0.004025 0.005063 -0.004274
# 2 -0.002627 0.015084 -0.000832 -0.001070 -0.002043 -0.000092
# 3 -0.001288 -0.000832 0.029340 -0.007725 0.008654 -0.009364
# 4 -0.004025 -0.001070 -0.007725 0.030001 -0.007221 0.005150
# 5 0.005063 -0.002043 0.008654 -0.007221 0.040043 -0.006696
# 6 -0.004274 -0.000092 -0.009364 0.005150 -0.006696 0.028831
#
#
# Mechanical properties :
#
#
# Convention : Reuss Voigt Hill
#
# Bulk Modulus (GPa) = 21.64885 35.09773 28.37329
# Shear Modulus (GPa) = 27.86263 34.32525 31.09394
#
# Velocity S-wave (km/s) = 3.76000 4.17334 3.97205
# Velocity P-wave (km/s) = 5.46213 6.40555 5.95256
#
# Compressibility (1/GPa) = 0.04619184
#
# Stress axis : x y z
#
# Youngs Moduli (GPa) = 88.79627 66.29520 34.08323
#
# Poissons Ratio (x) = 0.17417 0.04390
# Poissons Ratio (y) = 0.23329 0.02834
# Poissons Ratio (z) = 0.11438 0.05513
#
# Static dielectric constant tensor:
#      x y z
#    x 1.706800 0.008680 -0.069900 
#    y 0.008680 1.704150 -0.015330 
#    z -0.069900 -0.015330 1.759080 
# 
# From -- ./inp_files/587235.got.cif
#   From: 2010.05.17/outbox.ucp.g08.bks.cvg/sg2_294_cif.got.tgz:587235.got - 2010.06.11 11:32:03.
