data_PCOD9073657
_publ_section_title
;
Structure prediction by ZEFSAII (Michael W. Deem and Ramdas Pophale) SiO2 
 PCOD9073657
Probable space group: P -1
;
_chemical_formula_sum "Si O2"
_cell_formula_units_Z 16
_cell_length_a 21.000000
_cell_length_b 9.000000
_cell_length_c 21.000000
_cell_angle_alpha 140.000000
_cell_angle_beta 160.000000
_cell_angle_gamma 50.000000
_cell_volume 817.212732
_symmetry_space_group_name_H-M "P -1"
_symmetry_group_IT_number 2
_symmetry_cell_setting 'triclinic'
loop_
_space_group_symop_operation_xyz
x,y,z
-x,-y,-z
loop_
_atom_site_type_symbol
_atom_site_label
_atom_site_fract_x
_atom_site_fract_y
_atom_site_fract_z
Si Si1 0.580132 0.733463 0.547074
Si Si2 0.079697 0.951986 0.945425
Si Si3 0.352580 0.168703 0.151467
Si Si4 0.804297 0.635302 0.293095
Si Si5 0.478542 0.859247 0.077011
Si Si6 0.620662 0.875656 0.484662
Si Si7 0.234497 0.530759 0.942165
Si Si8 0.804296 0.936292 0.165852
O O1 0.488232 0.447705 0.384314
O O2 0.577862 0.758377 0.476787
O O3 0.443451 0.882768 0.494546
O O4 0.801738 0.866499 0.826904
O O5 0.855122 0.934079 0.715005
O O6 0.101053 0.687515 0.892158
O O7 0.216843 0.050381 0.044591
O O8 0.212853 0.152825 0.953060
O O9 0.484448 0.010988 0.197794
O O10 0.689866 0.408417 0.157250
O O11 0.675515 0.813521 0.229343
O O12 0.801494 0.522100 0.183591
O O13 0.018962 0.807020 0.573889
O O14 0.400473 0.008683 0.001206
O O15 0.464491 0.689583 0.228282
O O16 0.179687 0.272299 0.841745
#
# Coordination Sequence:
#
# PCOD9073657 Si02
#       8
#     2   2   2   2   2   2   2   2
#     4  10  21  42  62  88 126 152 199 250 301 353
#     4  11  23  39  66  92 115 163 203 238 305 362
#     4  10  21  43  59  90 127 155 196 255 293 353
#     4  11  21  39  62  88 117 162 204 240 300 356
#     4   9  22  39  59  85 121 161 194 251 300 345
#     4  10  22  40  63  91 122 158 194 252 302 352
#     4  11  22  39  61  89 125 155 202 252 288 357
#     4  10  22  38  58  86 123 159 197 249 295 349
#
# _framework density 19.578745000000001
#
# number of rings (size 3 to 8) (size 9 to 14) (size 15 to 20)
#    0.750    1.000    2.500    1.500    0.000    6.000 
#    2.250    0.000    0.000    0.000    0.000    0.000 
#    0.000    0.000    0.000    0.000    0.000    0.000 
#
# Total GULP energy -89239.294385 kJ/mol
# GULP energy per Si atom -5577.455899 kJ/mol
# Density = 1.953418 g / cm^3
# Si number density = 19.578745 Si / 1000 Ang^3
#
#
#
# Elastic Constant Matrix: (Units=GPa)
#
#
# Indices 1 2 3 4 5 6 
#
# 1 19.6290 -13.9290 8.6108 5.0170 -4.5417 -6.9513
# 2 -13.9290 63.8686 16.7417 6.8424 17.6895 -13.5172
# 3 8.6108 16.7417 81.5356 -14.8443 -14.3720 -18.0913
# 4 5.0170 6.8424 -14.8443 24.2475 -4.1097 1.3789
# 5 -4.5417 17.6895 -14.3720 -4.1097 12.4693 -1.7999
# 6 -6.9513 -13.5172 -18.0913 1.3789 -1.7999 22.5886
#
#
#
# Elastic Compliance Matrix: (Units=1/GPa)
#
#
# Indices 1 2 3 4 5 6 
#
# 1 0.043557 -0.027634 0.034194 0.036788 0.111058 0.030858
# 2 -0.027634 -0.031512 0.038082 0.054004 0.097428 0.007605
# 3 0.034194 0.038082 -0.013942 -0.038920 -0.067705 0.019126
# 4 0.036788 0.054004 -0.038920 -0.025323 -0.115726 0.004791
# 5 0.111058 0.097428 -0.067705 -0.115726 -0.128685 0.035063
# 6 0.030858 0.007605 0.019126 0.004791 0.035063 0.076136
#
#
# Mechanical properties :
#
#
# Convention : Reuss Voigt Hill
#
# Bulk Modulus (GPa) = 11.44333 20.87557 16.15945
# Shear Modulus (GPa) = -35.73386 22.10173 -6.81606
#
# Velocity S-wave (km/s) = -4.27679 3.36350 -1.86786
# Velocity P-wave (km/s) = 4.30471 5.07639 1.90252
#
# Compressibility (1/GPa) = 0.08738712
#
# Stress axis : x y z
#
# Youngs Moduli (GPa) = 22.95819 -31.73375 -71.72512
#
# Poissons Ratio (x) = -0.87692 2.45258
# Poissons Ratio (y) = 0.63442 2.73140
# Poissons Ratio (z) = -0.78504 1.20847
#
# Static dielectric constant tensor:
#      x y z
#    x 1.709310 0.024130 -0.045170 
#    y 0.024130 1.711600 -0.015240 
#    z -0.045170 -0.015240 1.688760 
# 
# From -- ./inp_files/601245.got.cif
#   From: 2010.05.17/outbox.ucp.g08.bks.cvg/sg2_301_cif.got.tgz:601245.got - 2010.06.11 11:32:03.
