data_PCOD9073275
_publ_section_title
;
Structure prediction by ZEFSAII (Michael W. Deem and Ramdas Pophale) SiO2 
 PCOD9073275
Probable space group: P -1
;
_chemical_formula_sum "Si O2"
_cell_formula_units_Z 16
_cell_length_a 12.000000
_cell_length_b 15.000000
_cell_length_c 9.000000
_cell_angle_alpha 80.000000
_cell_angle_beta 90.000000
_cell_angle_gamma 30.000000
_cell_volume 759.581896
_symmetry_space_group_name_H-M "P -1"
_symmetry_group_IT_number 2
_symmetry_cell_setting 'triclinic'
loop_
_space_group_symop_operation_xyz
x,y,z
-x,-y,-z
loop_
_atom_site_type_symbol
_atom_site_label
_atom_site_fract_x
_atom_site_fract_y
_atom_site_fract_z
Si Si1 0.635748 0.622911 0.521124
Si Si2 0.026219 0.352954 0.369554
Si Si3 0.109453 0.946410 0.676875
Si Si4 0.309666 0.469492 0.944007
Si Si5 0.384481 0.507340 0.205124
Si Si6 0.327377 0.753239 0.226308
Si Si7 0.775456 0.649598 0.849890
Si Si8 0.329821 0.977191 0.619460
O O1 0.726108 0.484095 0.679439
O O2 0.469393 0.689038 0.386638
O O3 0.487853 0.806153 0.551232
O O4 0.847381 0.505779 0.455149
O O5 0.126593 0.372614 0.292062
O O6 0.884603 0.404463 0.219844
O O7 0.208318 0.149736 0.493413
O O8 0.351706 0.718925 0.747508
O O9 0.154581 0.022855 0.659411
O O10 0.000000 0.000000 0.500000
O O11 0.939320 0.041917 0.784620
O O12 0.555193 0.287309 0.908496
O O13 0.283153 0.576051 0.017595
O O14 0.289438 0.405819 0.086213
O O15 0.374289 0.613589 0.242648
O O16 0.510316 0.879657 0.777478
O O17 0.000000 0.500000 0.000000
#
# Coordination Sequence:
#
# PCOD9073275 Si02
#       8
#     2   2   2   2   2   2   2   2
#     4  10  21  37  64  96 126 160 212 260 307 374
#     4  10  23  39  72  89 119 168 215 260 317 369
#     4  11  22  36  63  95 129 164 202 263 305 365
#     4  10  22  41  60  93 132 170 204 260 315 374
#     4  11  21  39  59  89 137 164 208 252 309 369
#     4  11  22  36  61  94 126 174 208 242 311 386
#     4  10  21  44  67  89 127 165 203 272 329 353
#     4  11  21  41  66  96 124 158 218 255 310 376
#
# _framework density 21.064219999999999
#
# number of rings (size 3 to 8) (size 9 to 14) (size 15 to 20)
#    0.000    1.500    5.000    1.875    3.500    1.000 
#    0.000    2.500    2.750    8.250    0.000    0.000 
#    0.000    0.000    0.000    0.000    0.000    0.000 
#
# Total GULP energy -89126.739775 kJ/mol
# GULP energy per Si atom -5570.421236 kJ/mol
# Density = 2.101628 g / cm^3
# Si number density = 21.064220 Si / 1000 Ang^3
#
#
#
# Elastic Constant Matrix: (Units=GPa)
#
#
# Indices 1 2 3 4 5 6 
#
# 1 66.0023 36.4606 49.0396 18.9269 -28.4566 -35.1493
# 2 36.4606 64.2803 14.3898 1.1929 -7.2421 -2.3344
# 3 49.0396 14.3898 64.3947 -12.2358 15.4550 -2.5616
# 4 18.9269 1.1929 -12.2358 33.9839 2.4589 -0.7493
# 5 -28.4566 -7.2421 15.4550 2.4589 33.4604 -4.7367
# 6 -35.1493 -2.3344 -2.5616 -0.7493 -4.7367 28.2280
#
#
#
# Elastic Compliance Matrix: (Units=1/GPa)
#
#
# Indices 1 2 3 4 5 6 
#
# 1 -0.008341 -0.000019 0.011203 0.009481 -0.014607 -0.011570
# 2 -0.000019 0.017941 -0.006312 -0.003377 0.007318 0.002026
# 3 0.011203 -0.006312 0.006438 -0.003917 0.007626 0.015188
# 4 0.009481 -0.003377 -0.003917 0.022469 0.009379 0.013342
# 5 -0.014607 0.007318 0.007626 0.009379 0.012784 -0.014497
# 6 -0.011570 0.002026 0.015188 0.013342 -0.014497 0.020486
#
#
# Mechanical properties :
#
#
# Convention : Reuss Voigt Hill
#
# Bulk Modulus (GPa) = 38.78615 43.82860 41.30738
# Shear Modulus (GPa) = 70.79484 25.45362 48.12423
#
# Velocity S-wave (km/s) = 5.80362 3.47995 4.78498
# Velocity P-wave (km/s) = 7.96006 6.08268 7.08384
#
# Compressibility (1/GPa) = 0.02578240
#
# Stress axis : x y z
#
# Youngs Moduli (GPa) = -119.89217 55.73750 155.33517
#
# Poissons Ratio (x) = 0.00104 -1.74024
# Poissons Ratio (y) = -0.00225 0.98052
# Poissons Ratio (z) = 1.34317 0.35183
#
# Static dielectric constant tensor:
#      x y z
#    x 1.833200 -0.063540 0.042780 
#    y -0.063540 1.740590 0.000100 
#    z 0.042780 0.000100 1.797170 
# 
# From -- ./inp_files/272896.got.cif
#   From: 2010.05.17/outbox.ucp.g08.bks.cvg/sg2_137_cif.got.tgz:272896.got - 2010.06.11 11:32:03.
