data_PCOD9073905
_publ_section_title
;
Structure prediction by ZEFSAII (Michael W. Deem and Ramdas Pophale) SiO2 
 PCOD9073905
Probable space group: P -1
;
_chemical_formula_sum "Si O2"
_cell_formula_units_Z 16
_cell_length_a 9.628526
_cell_length_b 9.748066
_cell_length_c 18.136665
_cell_angle_alpha 125.103100
_cell_angle_beta 34.409352
_cell_angle_gamma 108.494921
_cell_volume 740.109880
_symmetry_space_group_name_H-M "P -1"
_symmetry_group_IT_number 2
_symmetry_cell_setting 'triclinic'
loop_
_space_group_symop_operation_xyz
x,y,z
-x,-y,-z
loop_
_atom_site_type_symbol
_atom_site_label
_atom_site_fract_x
_atom_site_fract_y
_atom_site_fract_z
Si Si1 0.525549 0.304907 0.456074
Si Si2 0.214503 0.590196 0.943586
Si Si3 0.133843 0.066952 0.297788
Si Si4 0.554038 0.337844 0.982888
Si Si5 0.368298 0.648876 0.423133
Si Si6 0.849021 0.831074 0.845946
Si Si7 0.813834 0.114568 0.055643
Si Si8 0.296223 0.320825 0.416839
O O1 0.500000 0.500000 0.500000
O O2 0.454551 0.321829 0.578531
O O3 0.329008 0.264882 0.471345
O O4 0.841431 0.202601 0.284687
O O5 0.297660 0.623907 0.998887
O O6 0.472445 0.464256 0.749082
O O7 0.091211 0.777793 0.013287
O O8 0.000000 0.500000 0.000000
O O9 0.209548 0.104985 0.192537
O O10 0.189143 0.196036 0.375243
O O11 0.819092 0.156511 0.458452
O O12 0.265041 0.855849 0.187931
O O13 0.278525 0.318506 0.125069
O O14 0.500000 0.500000 0.000000
O O15 0.202503 0.529341 0.496654
O O16 0.708036 0.986040 0.014152
O O17 0.596821 0.262187 0.241990
O O18 0.000000 0.000000 0.000000
#
# Coordination Sequence:
#
# PCOD9073905 Si02
#       8
#     2   2   2   2   2   2   2   2
#     4   9  19  33  58  98 128 158 207 269 315 373
#     4  11  26  46  66  91 134 172 214 266 327 395
#     4  11  21  40  67  95 128 166 218 272 319 383
#     4  12  27  42  64  97 134 176 216 266 328 385
#     4   9  21  39  63  92 126 166 214 265 329 377
#     4  11  20  39  65  93 129 164 216 267 314 379
#     4  11  20  34  67 100 123 162 219 263 312 373
#     4  10  18  31  60 102 127 158 209 268 316 370
#
# _framework density 21.618410999999998
#
# number of rings (size 3 to 8) (size 9 to 14) (size 15 to 20)
#    0.000    1.500    3.750    2.250    1.750    2.000 
#    0.000    1.250    2.750    0.000    0.000    0.000 
#    0.000    0.000    0.000    0.000    0.000    0.000 
#
# Total GULP energy -89125.299563 kJ/mol
# GULP energy per Si atom -5570.331223 kJ/mol
# Density = 2.156921 g / cm^3
# Si number density = 21.618411 Si / 1000 Ang^3
#
#
#
# Elastic Constant Matrix: (Units=GPa)
#
#
# Indices 1 2 3 4 5 6 
#
# 1 167.3364 51.8394 11.4111 13.1812 19.4121 -9.8007
# 2 51.8394 116.2736 14.5747 21.0079 -6.4111 -12.6872
# 3 11.4111 14.5747 55.3932 29.0235 1.6349 -6.5269
# 4 13.1812 21.0079 29.0235 24.9257 -2.0139 -9.8839
# 5 19.4121 -6.4111 1.6349 -2.0139 32.9255 10.6284
# 6 -9.8007 -12.6872 -6.5269 -9.8839 10.6284 29.5918
#
#
#
# Elastic Compliance Matrix: (Units=1/GPa)
#
#
# Indices 1 2 3 4 5 6 
#
# 1 0.008055 -0.003464 0.000332 -0.000951 -0.006562 0.003296
# 2 -0.003464 0.012161 0.004454 -0.013630 0.003614 -0.000801
# 3 0.000332 0.004454 0.050815 -0.066443 -0.003418 -0.007737
# 4 -0.000951 -0.013630 -0.066443 0.139616 0.001596 0.025246
# 5 -0.006562 0.003614 -0.003418 0.001596 0.040138 -0.015261
# 6 0.003296 -0.000801 -0.007737 0.025246 -0.015261 0.046748
#
#
# Mechanical properties :
#
#
# Convention : Reuss Voigt Hill
#
# Bulk Modulus (GPa) = 13.57286 54.96152 34.26719
# Shear Modulus (GPa) = 15.65210 34.90047 25.27629
#
# Velocity S-wave (km/s) = 2.69368 4.02230 3.42307
# Velocity P-wave (km/s) = 3.99581 6.85934 5.61325
#
# Compressibility (1/GPa) = 0.07367642
#
# Stress axis : x y z
#
# Youngs Moduli (GPa) = 124.13918 82.23199 19.67941
#
# Poissons Ratio (x) = 0.28481 -0.00653
# Poissons Ratio (y) = 0.42996 -0.08766
# Poissons Ratio (z) = -0.04121 -0.36630
#
# Static dielectric constant tensor:
#      x y z
#    x 1.863720 0.019080 -0.015580 
#    y 0.019080 1.797210 -0.002150 
#    z -0.015580 -0.002150 1.903450 
# 
# From -- ./inp_files/278574.got.cif
#   From: 2010.05.17/outbox.cif.g08.bks.cpg/sg2_140_cif.got.tgz:278574.got - 2010.06.03 11:33:40.
