data_PCOD9073398
_publ_section_title
;
Structure prediction by ZEFSAII (Michael W. Deem and Ramdas Pophale) SiO2 
 PCOD9073398
Probable space group: P -1
;
_chemical_formula_sum "Si O2"
_cell_formula_units_Z 16
_cell_length_a 18.000000
_cell_length_b 9.000000
_cell_length_c 9.000000
_cell_angle_alpha 130.000000
_cell_angle_beta 90.000000
_cell_angle_gamma 120.000000
_cell_volume 846.172868
_symmetry_space_group_name_H-M "P -1"
_symmetry_group_IT_number 2
_symmetry_cell_setting 'triclinic'
loop_
_space_group_symop_operation_xyz
x,y,z
-x,-y,-z
loop_
_atom_site_type_symbol
_atom_site_label
_atom_site_fract_x
_atom_site_fract_y
_atom_site_fract_z
Si Si1 0.570115 0.437919 0.450556
Si Si2 0.759979 0.591569 0.057814
Si Si3 0.531049 0.072172 0.720703
Si Si4 0.598951 0.794164 0.165189
Si Si5 0.268143 0.188110 0.069123
Si Si6 0.286512 0.176712 0.549627
Si Si7 0.035712 0.245666 0.761715
Si Si8 0.880436 0.197044 0.926806
O O1 0.500000 0.500000 0.500000
O O2 0.652555 0.586368 0.673781
O O3 0.631821 0.566553 0.381220
O O4 0.493841 0.143128 0.306729
O O5 0.763739 0.755697 0.296178
O O6 0.854738 0.619859 0.095810
O O7 0.647131 0.320274 0.887001
O O8 0.771211 0.717262 0.981579
O O9 0.451091 0.089017 0.789932
O O10 0.500000 0.000000 0.500000
O O11 0.658930 0.879237 0.374694
O O12 0.500000 0.500000 0.000000
O O13 0.668970 0.844498 0.063077
O O14 0.180460 0.953650 0.019520
O O15 0.206564 0.945214 0.290772
O O16 0.955812 0.162315 0.837543
O O17 0.057391 0.497976 0.854210
O O18 0.000000 0.000000 0.500000
#
# Coordination Sequence:
#
# PCOD9073398 Si02
#       8
#     2   2   2   2   2   2   2   2
#     4  11  23  36  57  88 135 169 214 258 306 380
#     4  11  23  40  66  91 127 170 218 262 315 390
#     4  12  23  37  60  96 132 178 214 251 321 382
#     4  11  20  39  61  89 137 173 206 254 310 386
#     4  10  22  42  62  95 130 166 213 262 317 386
#     4  10  21  39  62  92 125 170 210 263 322 380
#     4  11  24  46  71  93 125 165 219 277 331 383
#     4  10  24  44  70  94 124 164 217 276 333 376
#
# _framework density 18.908666
#
# number of rings (size 3 to 8) (size 9 to 14) (size 15 to 20)
#    0.000    1.250    5.000    1.500    5.250    2.000 
#    0.000    0.625    0.000    0.000    0.000    0.000 
#    0.000    0.000    0.000    0.000    0.000    0.000 
#
# Total GULP energy -89129.102053 kJ/mol
# GULP energy per Si atom -5570.568878 kJ/mol
# Density = 1.886563 g / cm^3
# Si number density = 18.908666 Si / 1000 Ang^3
#
#
#
# Elastic Constant Matrix: (Units=GPa)
#
#
# Indices 1 2 3 4 5 6 
#
# 1 132.7081 43.3038 20.9792 -0.5103 -1.8269 6.2151
# 2 43.3038 134.7142 38.1168 -0.6412 -8.8496 17.7893
# 3 20.9792 38.1168 75.0594 2.8810 1.4612 1.8348
# 4 -0.5103 -0.6412 2.8810 31.4068 -0.2159 -0.8005
# 5 -1.8269 -8.8496 1.4612 -0.2159 27.3918 4.8674
# 6 6.2151 17.7893 1.8348 -0.8005 4.8674 35.0866
#
#
#
# Elastic Compliance Matrix: (Units=1/GPa)
#
#
# Indices 1 2 3 4 5 6 
#
# 1 0.008506 -0.002380 -0.001169 0.000191 -0.000098 -0.000221
# 2 -0.002380 0.010486 -0.004636 0.000497 0.004414 -0.005253
# 3 -0.001169 -0.004636 0.016068 -0.001554 -0.002814 0.002072
# 4 0.000191 0.000497 -0.001554 0.032011 0.000426 0.000467
# 5 -0.000098 0.004414 -0.002814 0.000426 0.039419 -0.007532
# 6 -0.000221 -0.005253 0.002072 0.000467 -0.007532 0.032151
#
#
# Mechanical properties :
#
#
# Convention : Reuss Voigt Hill
#
# Bulk Modulus (GPa) = 53.50594 60.80902 57.15748
# Shear Modulus (GPa) = 31.00945 34.78251 32.89598
#
# Velocity S-wave (km/s) = 4.05403 4.29359 4.17553
# Velocity P-wave (km/s) = 7.09028 7.53718 7.31714
#
# Compressibility (1/GPa) = 0.01868951
#
# Stress axis : x y z
#
# Youngs Moduli (GPa) = 117.55746 95.36433 62.23647
#
# Poissons Ratio (x) = 0.22697 0.07275
# Poissons Ratio (y) = 0.27979 0.28856
# Poissons Ratio (z) = 0.13742 0.44215
#
# Static dielectric constant tensor:
#      x y z
#    x 1.646170 0.028630 -0.004130 
#    y 0.028630 1.615350 -0.034950 
#    z -0.004130 -0.034950 1.668310 
# 
# From -- ./inp_files/208019.got.cif
#   From: 2010.05.17/outbox.ucp.g08.bks.cvg/sg2_105_cif.got.tgz:208019.got - 2010.06.11 11:32:03.
