data_PCOD9073070
_publ_section_title
;
Structure prediction by ZEFSAII (Michael W. Deem and Ramdas Pophale) SiO2 
 PCOD9073070
Probable space group: P -1
;
_chemical_formula_sum "Si O2"
_cell_formula_units_Z 16
_cell_length_a 5.382392
_cell_length_b 16.235469
_cell_length_c 8.476756
_cell_angle_alpha 71.679539
_cell_angle_beta 102.004390
_cell_angle_gamma 100.175132
_cell_volume 682.865792
_symmetry_space_group_name_H-M "P -1"
_symmetry_group_IT_number 2
_symmetry_cell_setting 'triclinic'
loop_
_space_group_symop_operation_xyz
x,y,z
-x,-y,-z
loop_
_atom_site_type_symbol
_atom_site_label
_atom_site_fract_x
_atom_site_fract_y
_atom_site_fract_z
Si Si1 0.912839 0.885202 0.912942
Si Si2 0.751855 0.351000 0.317137
Si Si3 0.266192 0.425856 0.226947
Si Si4 0.504878 0.833350 0.492570
Si Si5 0.662908 0.044200 0.851757
Si Si6 0.707707 0.370768 0.923387
Si Si7 0.192864 0.312772 0.960641
Si Si8 0.926925 0.096388 0.401523
O O1 0.118182 0.891017 0.796414
O O2 0.738110 0.961774 0.812435
O O3 0.773788 0.788044 0.951193
O O4 0.066473 0.907093 0.080520
O O5 0.564717 0.421227 0.302511
O O6 0.634453 0.264389 0.444899
O O7 0.053838 0.382246 0.347486
O O8 0.716677 0.339036 0.127754
O O9 0.220196 0.525431 0.134424
O O10 0.224564 0.371071 0.090174
O O11 0.483354 0.884461 0.295740
O O12 0.807063 0.840903 0.566488
O O13 0.321094 0.884818 0.548042
O O14 0.500000 0.000000 0.000000
O O15 0.412925 0.350766 0.849127
O O16 0.900704 0.322000 0.875285
O O17 0.000000 0.000000 0.500000
#
# Coordination Sequence:
#
# PCOD9073070 Si02
#       8
#     2   2   2   2   2   2   2   2
#     4  11  25  42  63  93 126 172 223 269 317 380
#     4  10  18  31  52  83 119 155 195 241 302 372
#     4  10  18  33  54  90 128 158 187 251 327 386
#     4  12  25  42  64  95 129 168 214 273 326 377
#     4  11  27  46  64  85 130 184 223 263 319 386
#     4  10  18  32  55  89 129 155 190 251 327 382
#     4  10  19  31  54  85 117 154 201 252 298 367
#     4  12  23  40  64  93 121 160 215 271 333 371
#
# _framework density 23.430669000000002
#
# number of rings (size 3 to 8) (size 9 to 14) (size 15 to 20)
#    0.000    1.250    1.250    8.625    5.250    0.000 
#    0.000    0.000    0.000    0.000    0.000    9.625 
#    0.000    0.000    0.000    0.000    0.000    0.000 
#
# Total GULP energy -89358.707768 kJ/mol
# GULP energy per Si atom -5584.919235 kJ/mol
# Density = 2.337734 g / cm^3
# Si number density = 23.430669 Si / 1000 Ang^3
#
#
#
# Elastic Constant Matrix: (Units=GPa)
#
#
# Indices 1 2 3 4 5 6 
#
# 1 135.2659 -11.2526 13.5747 1.9218 -11.1256 11.8573
# 2 -11.2526 81.0526 28.2951 -32.7617 -0.6643 13.5783
# 3 13.5747 28.2951 46.3551 -16.7888 -2.4957 6.6084
# 4 1.9218 -32.7617 -16.7888 17.6663 2.5867 -1.5636
# 5 -11.1256 -0.6643 -2.4957 2.5867 27.7604 -10.4162
# 6 11.8573 13.5783 6.6084 -1.5636 -10.4162 31.2667
#
#
#
# Elastic Compliance Matrix: (Units=1/GPa)
#
#
# Indices 1 2 3 4 5 6 
#
# 1 0.008489 0.004475 -0.003239 0.003750 0.001439 -0.003812
# 2 0.004475 0.077406 0.011333 0.153973 -0.023933 -0.037981
# 3 -0.003239 0.011333 0.037462 0.057031 -0.007154 -0.011142
# 4 0.003750 0.153973 0.057031 0.397182 -0.056443 -0.079283
# 5 0.001439 -0.023933 -0.007154 -0.056443 0.050110 0.025231
# 6 -0.003812 -0.037981 -0.011142 -0.079283 0.025231 0.056718
#
#
# Mechanical properties :
#
#
# Convention : Reuss Voigt Hill
#
# Bulk Modulus (GPa) = 6.73422 35.98980 21.36201
# Shear Modulus (GPa) = 7.67192 30.80911 19.24051
#
# Velocity S-wave (km/s) = 1.81147 3.63010 2.86871
# Velocity P-wave (km/s) = 2.69362 5.74139 4.48437
#
# Compressibility (1/GPa) = 0.14849526
#
# Stress axis : x y z
#
# Youngs Moduli (GPa) = 117.79494 12.91897 26.69345
#
# Poissons Ratio (x) = -0.05781 0.08645
# Poissons Ratio (y) = -0.52715 -0.30251
# Poissons Ratio (z) = 0.38151 -0.14641
#
# Static dielectric constant tensor:
#      x y z
#    x 2.005020 0.043280 0.053120 
#    y 0.043280 1.908150 0.024720 
#    z 0.053120 0.024720 1.917110 
# 
# From -- ./inp_files/51187.got.cif
#   From: 2010.05.17/outbox.cif.g08.bks.cpg/sg2_26_cif.got.tgz:51187.got - 2010.06.03 11:33:40.
