data_PCOD9073266
_publ_section_title
;
Structure prediction by ZEFSAII (Michael W. Deem and Ramdas Pophale) SiO2 
 PCOD9073266
Probable space group: P -1
;
_chemical_formula_sum "Si O2"
_cell_formula_units_Z 14
_cell_length_a 5.220919
_cell_length_b 23.434033
_cell_length_c 12.834426
_cell_angle_alpha 145.673282
_cell_angle_beta 92.082514
_cell_angle_gamma 69.230625
_cell_volume 723.362294
_symmetry_space_group_name_H-M "P -1"
_symmetry_group_IT_number 2
_symmetry_cell_setting 'triclinic'
loop_
_space_group_symop_operation_xyz
x,y,z
-x,-y,-z
loop_
_atom_site_type_symbol
_atom_site_label
_atom_site_fract_x
_atom_site_fract_y
_atom_site_fract_z
Si Si1 0.776132 0.476437 0.894914
Si Si2 0.735366 0.794088 0.476482
Si Si3 0.473858 0.280484 0.845915
Si Si4 0.754706 0.001503 0.073452
Si Si5 0.669359 0.805805 0.085667
Si Si6 0.907281 0.934343 0.543440
Si Si7 0.094911 0.852182 0.048503
O O1 0.988753 0.331482 0.652857
O O2 0.500000 0.500000 0.000000
O O3 0.622096 0.581321 0.962093
O O4 0.000000 0.500000 0.000000
O O5 0.631711 0.753599 0.312312
O O6 0.451534 0.876033 0.674297
O O7 0.856386 0.873063 0.549726
O O8 0.311026 0.266299 0.920535
O O9 0.849295 0.175156 0.694946
O O10 0.950316 0.887279 0.984564
O O11 0.500000 0.000000 0.000000
O O12 0.000000 0.000000 0.000000
O O13 0.463848 0.789626 0.973102
O O14 0.976650 0.782537 0.004758
O O15 0.435078 0.953410 0.330742
O O16 0.040590 0.014118 0.697825
#
# Coordination Sequence:
#
# PCOD9073266 Si02
#       7
#     2   2   2   2   2   2   2
#     4  10  22  35  54  77 111 157 183 214 264 321
#     4  11  21  37  54  81 121 140 186 237 260 328
#     4  11  21  33  55  82 115 154 180 203 272 344
#     4  12  23  37  59  80 105 146 187 233 289 317
#     4  10  21  32  53  80 115 149 172 211 275 336
#     4  10  18  31  54  73 119 143 173 209 277 307
#     4  10  21  37  48  82 112 140 177 225 276 320
#
# _framework density 19.354063
#
# number of rings (size 3 to 8) (size 9 to 14) (size 15 to 20)
#    0.857    0.571    4.286    2.143    2.000    1.143 
#    0.000    0.000    0.000    0.000    0.000    6.000 
#    0.000    0.000    0.000    0.000    0.000    0.000 
#
# Total GULP energy -78062.229352 kJ/mol
# GULP energy per Si atom -5575.873525 kJ/mol
# Density = 1.931001 g / cm^3
# Si number density = 19.354063 Si / 1000 Ang^3
#
#
#
# Elastic Constant Matrix: (Units=GPa)
#
#
# Indices 1 2 3 4 5 6 
#
# 1 115.6624 25.0141 15.7923 -9.8942 2.6569 26.2018
# 2 25.0141 95.6683 31.1385 3.2374 9.1439 31.5013
# 3 15.7923 31.1385 26.5463 3.9476 -3.9524 10.2755
# 4 -9.8942 3.2374 3.9476 32.5613 0.1992 8.1088
# 5 2.6569 9.1439 -3.9524 0.1992 18.7460 -7.4156
# 6 26.2018 31.5013 10.2755 8.1088 -7.4156 43.3326
#
#
#
# Elastic Compliance Matrix: (Units=1/GPa)
#
#
# Indices 1 2 3 4 5 6 
#
# 1 0.013006 0.005907 -0.012798 0.008183 -0.012577 -0.012807
# 2 0.005907 0.033839 -0.039740 0.010169 -0.036468 -0.026892
# 3 -0.012798 -0.039740 0.091778 -0.018118 0.051445 0.027059
# 4 0.008183 0.010169 -0.018118 0.039066 -0.017622 -0.018370
# 5 -0.012577 -0.036468 0.051445 -0.017622 0.100744 0.042454
# 6 -0.012807 -0.026892 0.027059 -0.018370 0.042454 0.054657
#
#
# Mechanical properties :
#
#
# Convention : Reuss Voigt Hill
#
# Bulk Modulus (GPa) = 22.04514 42.41853 32.23184
# Shear Modulus (GPa) = 11.32573 29.99013 20.65793
#
# Velocity S-wave (km/s) = 2.42169 3.94071 3.27061
# Velocity P-wave (km/s) = 4.38573 6.53225 5.56349
#
# Compressibility (1/GPa) = 0.04536147
#
# Stress axis : x y z
#
# Youngs Moduli (GPa) = 76.88796 29.55136 10.89587
#
# Poissons Ratio (x) = -0.17457 0.13945
# Poissons Ratio (y) = -0.45420 0.43300
# Poissons Ratio (z) = 0.98403 1.17437
#
# Static dielectric constant tensor:
#      x y z
#    x 1.731800 -0.049660 0.006690 
#    y -0.049660 1.715010 0.017150 
#    z 0.006690 0.017150 1.673140 
# 
# From -- ./inp_files/370113.got.cif
#   From: 2010.05.17/outbox.cif.g08.bks.cpg/sg2_186_cif.got.tgz:370113.got - 2010.06.03 11:33:40.
