data_PCOD9073796
_publ_section_title
;
Structure prediction by ZEFSAII (Michael W. Deem and Ramdas Pophale) SiO2 
 PCOD9073796
Probable space group: P -1
;
_chemical_formula_sum "Si O2"
_cell_formula_units_Z 16
_cell_length_a 30.000000
_cell_length_b 24.000000
_cell_length_c 18.000000
_cell_angle_alpha 160.000000
_cell_angle_beta 20.000000
_cell_angle_gamma 170.000000
_cell_volume 747.142172
_symmetry_space_group_name_H-M "P -1"
_symmetry_group_IT_number 2
_symmetry_cell_setting 'triclinic'
loop_
_space_group_symop_operation_xyz
x,y,z
-x,-y,-z
loop_
_atom_site_type_symbol
_atom_site_label
_atom_site_fract_x
_atom_site_fract_y
_atom_site_fract_z
Si Si1 0.122987 0.789857 0.982133
Si Si2 0.354503 0.063886 0.496108
Si Si3 0.353380 0.166876 0.799829
Si Si4 0.912251 0.874851 0.196710
Si Si5 0.135641 0.432175 0.455812
Si Si6 0.550771 0.142176 0.017238
Si Si7 0.824060 0.818909 0.674031
Si Si8 0.681637 0.870187 0.750611
O O1 0.141972 0.623699 0.717574
O O2 0.833109 0.525482 0.075374
O O3 0.273735 0.114091 0.121489
O O4 0.192946 0.869743 0.059573
O O5 0.368971 0.107411 0.617424
O O6 0.574819 0.425398 0.570115
O O7 0.419676 0.961866 0.225055
O O8 0.054161 0.774476 0.577698
O O9 0.554005 0.275742 0.671547
O O10 0.500000 0.500000 0.000000
O O11 0.049857 0.880171 0.938211
O O12 0.605170 0.508268 0.243428
O O13 0.986227 0.131686 0.365113
O O14 0.086339 0.057407 0.227086
O O15 0.371607 0.089608 0.193587
O O16 0.500000 0.000000 0.000000
O O17 0.086775 0.015149 0.474222
#
# Coordination Sequence:
#
# PCOD9073796 Si02
#       8
#     2   2   2   2   2   2   2   2
#     4  11  25  44  66 102 140 177 237 281 342 425
#     4  11  23  43  72 102 139 177 237 281 349 413
#     4  10  21  44  72 101 134 181 236 290 334 414
#     4  11  24  45  70  97 139 180 235 282 345 414
#     4  10  23  44  73  97 137 180 228 288 351 395
#     4  11  26  43  68 105 143 180 235 285 342 422
#     4  12  24  43  69 101 144 182 231 286 345 419
#     4  12  26  44  71  98 145 192 219 290 361 396
#
# _framework density 21.414933999999999
#
# number of rings (size 3 to 8) (size 9 to 14) (size 15 to 20)
#    0.000    1.000    3.750    3.000    3.500    3.000 
#    2.250    3.125    0.000    0.000    0.000    0.000 
#    0.000    0.000    0.000    0.000    0.000    0.000 
#
# Total GULP energy -89186.912036 kJ/mol
# GULP energy per Si atom -5574.182002 kJ/mol
# Density = 2.136619 g / cm^3
# Si number density = 21.414934 Si / 1000 Ang^3
#
#
#
# Elastic Constant Matrix: (Units=GPa)
#
#
# Indices 1 2 3 4 5 6 
#
# 1 78.3596 11.2475 24.8946 2.6270 1.8412 26.6218
# 2 11.2475 86.9321 38.3887 -2.8250 3.5982 5.1037
# 3 24.8946 38.3887 106.1999 -5.0453 -0.9227 8.9337
# 4 2.6270 -2.8250 -5.0453 35.4655 5.1144 5.2183
# 5 1.8412 3.5982 -0.9227 5.1144 43.4071 1.1821
# 6 26.6218 5.1037 8.9337 5.2183 1.1821 39.7700
#
#
#
# Elastic Compliance Matrix: (Units=1/GPa)
#
#
# Indices 1 2 3 4 5 6 
#
# 1 0.017527 -0.000233 -0.003108 -0.000074 -0.000482 -0.010980
# 2 -0.000233 0.013790 -0.004860 0.000697 -0.001303 -0.000575
# 3 -0.003108 -0.004860 0.011995 0.001490 0.000620 -0.000204
# 4 -0.000074 0.000697 0.001490 0.029570 -0.003394 -0.004154
# 5 -0.000482 -0.001303 0.000620 -0.003394 0.023577 0.000096
# 6 -0.010980 -0.000575 -0.000204 -0.004154 0.000096 0.033156
#
#
# Mechanical properties :
#
#
# Convention : Reuss Voigt Hill
#
# Bulk Modulus (GPa) = 37.16191 46.72811 41.94501
# Shear Modulus (GPa) = 32.26081 36.85922 34.56002
#
# Velocity S-wave (km/s) = 3.88553 4.15323 4.02161
# Velocity P-wave (km/s) = 6.12542 6.69827 6.41824
#
# Compressibility (1/GPa) = 0.02690927
#
# Stress axis : x y z
#
# Youngs Moduli (GPa) = 57.05538 72.51730 83.36842
#
# Poissons Ratio (x) = 0.01688 0.25914
# Poissons Ratio (y) = 0.01328 0.40517
# Poissons Ratio (z) = 0.17735 0.35243
#
# Static dielectric constant tensor:
#      x y z
#    x 1.828100 -0.056550 -0.021710 
#    y -0.056550 1.841180 -0.023510 
#    z -0.021710 -0.023510 1.850770 
# 
# From -- ./inp_files/580209.got.cif
#   From: 2010.05.17/outbox.ucp.g08.bks.cvg/sg2_291_cif.got.tgz:580209.got - 2010.06.11 11:32:03.
