data_PCOD9073164
_publ_section_title
;
Structure prediction by ZEFSAII (Michael W. Deem and Ramdas Pophale) SiO2 
 PCOD9073164
Probable space group: P -1
;
_chemical_formula_sum "Si O2"
_cell_formula_units_Z 16
_cell_length_a 14.013536
_cell_length_b 12.763429
_cell_length_c 10.922535
_cell_angle_alpha 42.542736
_cell_angle_beta 121.599531
_cell_angle_gamma 148.726445
_cell_volume 653.864377
_symmetry_space_group_name_H-M "P -1"
_symmetry_group_IT_number 2
_symmetry_cell_setting 'triclinic'
loop_
_space_group_symop_operation_xyz
x,y,z
-x,-y,-z
loop_
_atom_site_type_symbol
_atom_site_label
_atom_site_fract_x
_atom_site_fract_y
_atom_site_fract_z
Si Si1 0.066241 0.892181 0.417291
Si Si2 0.748914 0.326607 0.356223
Si Si3 0.406727 0.562909 0.267561
Si Si4 0.293875 0.336579 0.649550
Si Si5 0.949461 0.681292 0.797341
Si Si6 0.725334 0.130586 0.025741
Si Si7 0.854006 0.336432 0.678273
Si Si8 0.461231 0.193241 0.411610
O O1 0.930930 0.881347 0.291909
O O2 0.038227 0.837744 0.592442
O O3 0.963327 0.622918 0.524582
O O4 0.290677 0.125892 0.334045
O O5 0.754911 0.236513 0.566852
O O6 0.615664 0.323553 0.297187
O O7 0.975463 0.599525 0.251147
O O8 0.653101 0.098391 0.393590
O O9 0.322854 0.377264 0.487538
O O10 0.577159 0.665666 0.224541
O O11 0.218910 0.392586 0.210072
O O12 0.514206 0.830911 0.170982
O O13 0.411644 0.607361 0.561428
O O14 0.122301 0.834911 0.870377
O O15 0.825377 0.386166 0.941119
O O16 0.718139 0.159915 0.852668
#
# Coordination Sequence:
#
# PCOD9073164 Si02
#       8
#     2   2   2   2   2   2   2   2
#     4   9  17  31  52  79 105 133 166 212 259 304
#     4   9  18  32  52  82 103 127 174 220 263 301
#     4  10  21  35  52  78 107 141 174 202 251 313
#     4  10  20  34  53  76 108 139 172 213 246 301
#     4   9  19  34  51  79 108 133 171 208 251 316
#     4  10  19  34  53  76 107 141 163 208 264 308
#     4   9  17  33  53  77 109 127 164 223 264 302
#     4  10  18  31  53  79 102 134 167 214 263 301
#
# _framework density 24.469906000000002
#
# number of rings (size 3 to 8) (size 9 to 14) (size 15 to 20)
#    0.000    2.500    1.250    1.125    0.000    2.000 
#   11.250    3.750    0.000    1.500    0.000    0.000 
#    0.000    0.000    0.000    0.000    0.000    0.000 
#
# Total GULP energy -89253.326900 kJ/mol
# GULP energy per Si atom -5578.332931 kJ/mol
# Density = 2.441421 g / cm^3
# Si number density = 24.469906 Si / 1000 Ang^3
#
#
#
# Elastic Constant Matrix: (Units=GPa)
#
#
# Indices 1 2 3 4 5 6 
#
# 1 125.3531 48.5192 4.5826 9.8314 16.3259 40.6729
# 2 48.5192 138.8572 7.2501 13.7419 13.9141 18.9072
# 3 4.5826 7.2501 16.8814 0.2526 3.0177 -6.8366
# 4 9.8314 13.7419 0.2526 23.2170 0.2450 7.5750
# 5 16.3259 13.9141 3.0177 0.2450 13.7119 8.0988
# 6 40.6729 18.9072 -6.8366 7.5750 8.0988 59.6261
#
#
#
# Elastic Compliance Matrix: (Units=1/GPa)
#
#
# Indices 1 2 3 4 5 6 
#
# 1 0.012329 -0.002274 -0.003831 -0.001493 -0.007407 -0.006932
# 2 -0.002274 0.009165 -0.002327 -0.004282 -0.005836 -0.000285
# 3 -0.003831 -0.002327 0.069908 -0.002119 -0.016631 0.013895
# 4 -0.001493 -0.004282 -0.002119 0.047845 0.008768 -0.005136
# 5 -0.007407 -0.005836 -0.016631 0.008768 0.096633 -0.009243
# 6 -0.006932 -0.000285 0.013895 -0.005136 -0.009243 0.025091
#
#
# Mechanical properties :
#
#
# Convention : Reuss Voigt Hill
#
# Bulk Modulus (GPa) = 13.41607 44.64394 29.03001
# Shear Modulus (GPa) = 16.51903 34.02698 25.27300
#
# Velocity S-wave (km/s) = 2.60104 3.73307 3.21724
# Velocity P-wave (km/s) = 3.80987 6.07167 5.06854
#
# Compressibility (1/GPa) = 0.07453747
#
# Stress axis : x y z
#
# Youngs Moduli (GPa) = 81.11081 109.11025 14.30450
#
# Poissons Ratio (x) = 0.24811 0.05480
# Poissons Ratio (y) = 0.18444 0.03329
# Poissons Ratio (z) = 0.31074 0.25392
#
# Static dielectric constant tensor:
#      x y z
#    x 2.073560 0.037630 0.119300 
#    y 0.037630 1.939100 -0.009060 
#    z 0.119300 -0.009060 1.933150 
# 
# From -- ./inp_files/397325.got.cif
#   From: 2010.05.17/outbox.cif.g08.bks.cpg/sg2_199_cif.got.tgz:397325.got - 2010.06.03 11:33:40.
