data_PCOD9073560
_publ_section_title
;
Structure prediction by ZEFSAII (Michael W. Deem and Ramdas Pophale) SiO2 
 PCOD9073560
Probable space group: P -1
;
_chemical_formula_sum "Si O2"
_cell_formula_units_Z 16
_cell_length_a 11.913170
_cell_length_b 8.956063
_cell_length_c 8.793863
_cell_angle_alpha 76.518394
_cell_angle_beta 123.730912
_cell_angle_gamma 112.970301
_cell_volume 718.271761
_symmetry_space_group_name_H-M "P -1"
_symmetry_group_IT_number 2
_symmetry_cell_setting 'triclinic'
loop_
_space_group_symop_operation_xyz
x,y,z
-x,-y,-z
loop_
_atom_site_type_symbol
_atom_site_label
_atom_site_fract_x
_atom_site_fract_y
_atom_site_fract_z
Si Si1 0.299316 0.218750 0.110353
Si Si2 0.191298 0.642059 0.917874
Si Si3 0.086799 0.985424 0.416093
Si Si4 0.903546 0.119387 0.021772
Si Si5 0.491319 0.676976 0.988902
Si Si6 0.327119 0.498519 0.305885
Si Si7 0.039975 0.314694 0.782688
Si Si8 0.364570 0.272799 0.599832
O O1 0.333237 0.344711 0.244298
O O2 0.443906 0.223887 0.134748
O O3 0.194845 0.285272 0.909018
O O4 0.212154 0.031690 0.108981
O O5 0.337977 0.676615 0.927827
O O6 0.214936 0.559941 0.116172
O O7 0.159347 0.800328 0.909775
O O8 0.071240 0.506422 0.766931
O O9 0.250694 0.099596 0.517072
O O10 0.017434 0.054448 0.207608
O O11 0.000000 0.000000 0.500000
O O12 0.054771 0.797033 0.392863
O O13 0.973982 0.244300 0.912849
O O14 0.598129 0.737921 0.194781
O O15 0.500000 0.500000 0.000000
O O16 0.296826 0.414062 0.467542
O O17 0.476305 0.646612 0.373334
#
# Coordination Sequence:
#
# PCOD9073560 Si02
#       8
#     2   2   2   2   2   2   2   2
#     4  10  18  34  57  84 105 142 198 222 272 321
#     4  10  21  36  60  83 113 146 193 226 285 323
#     4  11  22  34  57  83 114 148 186 229 272 332
#     4  11  22  36  58  84 116 151 183 233 274 336
#     4  11  19  36  62  82 103 148 188 239 264 336
#     4   9  18  33  58  82 103 140 186 242 264 323
#     4  10  19  36  58  81 110 151 191 223 267 337
#     4  10  18  31  55  84 105 132 191 228 275 310
#
# _framework density 22.275691999999999
#
# number of rings (size 3 to 8) (size 9 to 14) (size 15 to 20)
#    0.000    1.750    3.750    5.625    0.000    0.500 
#    0.000    0.625    2.750   21.750    0.000    0.000 
#    0.000    0.000    0.000    0.000    0.000    0.000 
#
# Total GULP energy -89246.916981 kJ/mol
# GULP energy per Si atom -5577.932311 kJ/mol
# Density = 2.222499 g / cm^3
# Si number density = 22.275692 Si / 1000 Ang^3
#
#
#
# Elastic Constant Matrix: (Units=GPa)
#
#
# Indices 1 2 3 4 5 6 
#
# 1 98.9596 56.1787 9.6874 20.8232 -18.4096 4.9456
# 2 56.1787 96.2770 36.4562 40.4596 10.1598 8.5154
# 3 9.6874 36.4562 51.3090 36.6978 4.9205 11.6897
# 4 20.8232 40.4596 36.6978 39.3246 10.6300 3.4058
# 5 -18.4096 10.1598 4.9205 10.6300 22.0710 5.3019
# 6 4.9456 8.5154 11.6897 3.4058 5.3019 33.7564
#
#
#
# Elastic Compliance Matrix: (Units=1/GPa)
#
#
# Indices 1 2 3 4 5 6 
#
# 1 0.071435 -0.037710 0.094001 -0.116115 0.121738 -0.040911
# 2 -0.037710 0.038750 -0.045169 0.037342 -0.061352 0.017260
# 3 0.094001 -0.045169 0.202324 -0.235736 0.186350 -0.077925
# 4 -0.116115 0.037342 -0.235736 0.325431 -0.240857 0.094222
# 5 0.121738 -0.061352 0.186350 -0.240857 0.269969 -0.084992
# 6 -0.040911 0.017260 -0.077925 0.094222 -0.084992 0.062091
#
#
# Mechanical properties :
#
#
# Convention : Reuss Voigt Hill
#
# Bulk Modulus (GPa) = 2.98727 50.13225 26.55976
# Shear Modulus (GPa) = 4.71992 28.64528 16.68260
#
# Velocity S-wave (km/s) = 1.45721 3.58990 2.73960
# Velocity P-wave (km/s) = 2.04334 6.30376 4.68575
#
# Compressibility (1/GPa) = 0.33475359
#
# Stress axis : x y z
#
# Youngs Moduli (GPa) = 13.99867 25.80666 4.94256
#
# Poissons Ratio (x) = 0.97316 -0.46461
# Poissons Ratio (y) = 0.52789 0.22325
# Poissons Ratio (z) = -1.31589 1.16567
#
# Static dielectric constant tensor:
#      x y z
#    x 1.896480 0.059190 -0.012070 
#    y 0.059190 1.879410 -0.011350 
#    z -0.012070 -0.011350 1.870650 
# 
# From -- ./inp_files/244166.got.cif
#   From: 2010.05.17/outbox.cif.g08.bks.cpg/sg2_123_cif.got.tgz:244166.got - 2010.06.03 11:33:40.
