data_PCOD9073939
_publ_section_title
;
Structure prediction by ZEFSAII (Michael W. Deem and Ramdas Pophale) SiO2 
 PCOD9073939
Probable space group: P -1
;
_chemical_formula_sum "Si O2"
_cell_formula_units_Z 16
_cell_length_a 24.000000
_cell_length_b 9.000000
_cell_length_c 9.000000
_cell_angle_alpha 130.000000
_cell_angle_beta 150.000000
_cell_angle_gamma 50.000000
_cell_volume 725.531033
_symmetry_space_group_name_H-M "P -1"
_symmetry_group_IT_number 2
_symmetry_cell_setting 'triclinic'
loop_
_space_group_symop_operation_xyz
x,y,z
-x,-y,-z
loop_
_atom_site_type_symbol
_atom_site_label
_atom_site_fract_x
_atom_site_fract_y
_atom_site_fract_z
Si Si1 0.058543 0.404739 0.422893
Si Si2 0.864548 0.385229 0.741229
Si Si3 0.686864 0.668648 0.704859
Si Si4 0.417239 0.032917 0.597750
Si Si5 0.198103 0.020841 0.636573
Si Si6 0.745098 0.544405 0.271727
Si Si7 0.356276 0.990068 0.724756
Si Si8 0.479666 0.607529 0.362435
O O1 0.102647 0.177663 0.429802
O O2 0.162393 0.508679 0.681796
O O3 0.000000 0.500000 0.500000
O O4 0.985865 0.396206 0.099583
O O5 0.786183 0.490883 0.763494
O O6 0.819433 0.515944 0.575612
O O7 0.849451 0.161625 0.524195
O O8 0.594288 0.562618 0.500498
O O9 0.635193 0.787472 0.513424
O O10 0.737219 0.836415 0.022834
O O11 0.466719 0.844272 0.491357
O O12 0.343519 0.942132 0.491848
O O13 0.516874 0.081704 0.961929
O O14 0.281977 0.922813 0.635834
O O15 0.682501 0.768789 0.222754
O O16 0.641406 0.435970 0.993185
O O17 0.500000 0.500000 0.500000
#
# Coordination Sequence:
#
# PCOD9073939 Si02
#       8
#     2   2   2   2   2   2   2   2
#     4  11  24  48  76  95 134 176 227 289 345 398
#     4  12  26  44  73 101 133 179 232 284 336 404
#     4  12  25  43  68 103 142 180 223 278 337 405
#     4  11  22  39  62  92 140 183 218 269 334 396
#     4  11  24  45  69 103 132 176 227 280 344 403
#     4  11  24  45  66 101 135 177 226 279 340 400
#     4  10  22  40  61  91 140 179 216 274 331 397
#     4  12  24  40  67 101 141 181 227 277 334 410
#
# _framework density 22.052813
#
# number of rings (size 3 to 8) (size 9 to 14) (size 15 to 20)
#    0.000    0.750    5.000    2.625    3.500    0.500 
#    0.000    0.625    0.000    0.000    0.000    0.000 
#    0.000    0.000    0.000    0.000    0.000    0.000 
#
# Total GULP energy -89112.956895 kJ/mol
# GULP energy per Si atom -5569.559806 kJ/mol
# Density = 2.200262 g / cm^3
# Si number density = 22.052813 Si / 1000 Ang^3
#
#
#
# Elastic Constant Matrix: (Units=GPa)
#
#
# Indices 1 2 3 4 5 6 
#
# 1 99.7455 11.3109 39.8866 0.3892 11.4465 -8.7209
# 2 11.3109 53.4135 30.9538 -3.4466 5.2742 2.6277
# 3 39.8866 30.9538 113.0021 -21.1197 -2.7917 13.3118
# 4 0.3892 -3.4466 -21.1197 29.1365 12.3183 -4.5867
# 5 11.4465 5.2742 -2.7917 12.3183 31.2515 -7.4723
# 6 -8.7209 2.6277 13.3118 -4.5867 -7.4723 29.7428
#
#
#
# Elastic Compliance Matrix: (Units=1/GPa)
#
#
# Indices 1 2 3 4 5 6 
#
# 1 0.013181 0.000568 -0.005916 -0.002153 -0.003338 0.005292
# 2 0.000568 0.022876 -0.006598 -0.000143 -0.004622 -0.000085
# 3 -0.005916 -0.006598 0.015325 0.009675 -0.000769 -0.006712
# 4 -0.002153 -0.000143 0.009675 0.048631 -0.017961 -0.001962
# 5 -0.003338 -0.004622 -0.000769 -0.017961 0.042871 0.007774
# 6 0.005292 -0.000085 -0.006712 -0.001962 0.007774 0.039835
#
#
# Mechanical properties :
#
#
# Convention : Reuss Voigt Hill
#
# Bulk Modulus (GPa) = 36.37703 47.82930 42.10317
# Shear Modulus (GPa) = 23.17222 30.29350 26.73286
#
# Velocity S-wave (km/s) = 3.24506 3.71034 3.48547
# Velocity P-wave (km/s) = 5.52918 6.33175 5.94403
#
# Compressibility (1/GPa) = 0.02748988
#
# Stress axis : x y z
#
# Youngs Moduli (GPa) = 75.86588 43.71316 65.25319
#
# Poissons Ratio (x) = -0.02482 0.38606
# Poissons Ratio (y) = -0.04307 0.43052
# Poissons Ratio (z) = 0.44885 0.28840
#
# Static dielectric constant tensor:
#      x y z
#    x 2.062310 -0.125600 0.055990 
#    y -0.125600 1.847440 -0.019350 
#    z 0.055990 -0.019350 1.884460 
# 
# From -- ./inp_files/226744.got.cif
#   From: 2010.05.17/outbox.ucp.g08.bks.cvg/sg2_114_cif.got.tgz:226744.got - 2010.06.11 11:32:03.
