data_PCOD9073073
_publ_section_title
;
Structure prediction by ZEFSAII (Michael W. Deem and Ramdas Pophale) SiO2 
 PCOD9073073
Probable space group: P -1
;
_chemical_formula_sum "Si O2"
_cell_formula_units_Z 16
_cell_length_a 12.000000
_cell_length_b 12.000000
_cell_length_c 12.000000
_cell_angle_alpha 140.000000
_cell_angle_beta 80.000000
_cell_angle_gamma 70.000000
_cell_volume 722.981415
_symmetry_space_group_name_H-M "P -1"
_symmetry_group_IT_number 2
_symmetry_cell_setting 'triclinic'
loop_
_space_group_symop_operation_xyz
x,y,z
-x,-y,-z
loop_
_atom_site_type_symbol
_atom_site_label
_atom_site_fract_x
_atom_site_fract_y
_atom_site_fract_z
Si Si1 0.207973 0.418665 0.534263
Si Si2 0.609678 0.034280 0.193540
Si Si3 0.067105 0.680876 0.995278
Si Si4 0.432835 0.272913 0.739262
Si Si5 0.003423 0.911871 0.811226
Si Si6 0.633946 0.607755 0.899226
Si Si7 0.735004 0.118655 0.442686
Si Si8 0.690989 0.045083 0.936095
O O1 0.138574 0.606470 0.582713
O O2 0.203508 0.228745 0.349211
O O3 0.402839 0.250419 0.400314
O O4 0.105816 0.548167 0.767702
O O5 0.674890 0.108898 0.323401
O O6 0.686385 0.751066 0.981290
O O7 0.650387 0.043185 0.068060
O O8 0.244903 0.502320 0.890919
O O9 0.970050 0.966771 0.187506
O O10 0.909242 0.805204 0.195764
O O11 0.573577 0.235082 0.632016
O O12 0.500000 0.000000 0.500000
O O13 0.420454 0.328355 0.914083
O O14 0.814079 0.066097 0.933352
O O15 0.000000 0.000000 0.000000
O O16 0.745688 0.308651 0.626854
O O17 0.479443 0.749601 0.948605
#
# Coordination Sequence:
#
# PCOD9073073 Si02
#       8
#     2   2   2   2   2   2   2   2
#     4  10  20  41  65  98 148 186 228 290 346 416
#     4  11  23  44  71 106 143 187 236 292 349 425
#     4  11  25  44  70 108 139 182 242 286 359 418
#     4  12  24  52  75  98 147 183 237 302 347 420
#     4  10  22  38  59  99 142 177 223 289 338 415
#     4  11  25  44  73 104 140 187 239 291 352 418
#     4  12  26  45  76 104 139 191 233 292 360 417
#     4  11  23  41  70 101 138 194 234 282 360 420
#
# _framework density 22.130583000000001
#
# number of rings (size 3 to 8) (size 9 to 14) (size 15 to 20)
#    0.000    1.000    2.500    5.250    5.250    1.500 
#    0.000    0.000    0.000    0.000    0.000    0.000 
#    0.000    0.000    0.000    0.000    0.000    0.000 
#
# Total GULP energy -89199.712152 kJ/mol
# GULP energy per Si atom -5574.982010 kJ/mol
# Density = 2.208021 g / cm^3
# Si number density = 22.130583 Si / 1000 Ang^3
#
#
#
# Elastic Constant Matrix: (Units=GPa)
#
#
# Indices 1 2 3 4 5 6 
#
# 1 27.5984 -25.9672 13.8038 -12.9719 15.3303 -21.8656
# 2 -25.9672 26.1644 20.3976 -23.4885 15.3388 -5.9244
# 3 13.8038 20.3976 128.4068 -35.6353 13.7526 1.1718
# 4 -12.9719 -23.4885 -35.6353 31.5914 -18.1483 19.5621
# 5 15.3303 15.3388 13.7526 -18.1483 23.9651 15.0985
# 6 -21.8656 -5.9244 1.1718 19.5621 15.0985 -8.2196
#
#
#
# Elastic Compliance Matrix: (Units=1/GPa)
#
#
# Indices 1 2 3 4 5 6 
#
# 1 -0.006841 -0.030568 -0.001554 -0.022792 0.007667 -0.000150
# 2 -0.030568 -0.022116 -0.004029 -0.038119 0.001575 0.008856
# 3 -0.001554 -0.004029 0.009402 0.001595 -0.003840 0.005120
# 4 -0.022792 -0.038119 0.001595 -0.023839 0.000047 0.031685
# 5 0.007667 0.001575 -0.003840 0.000047 0.024055 0.022220
# 6 -0.000150 0.008856 0.005120 0.031685 0.022220 -0.010693
#
#
# Mechanical properties :
#
#
# Convention : Reuss Voigt Hill
#
# Bulk Modulus (GPa) = -10.88643 22.07090 5.59224
# Shear Modulus (GPa) = 429.12297 21.06308 225.09303
#
# Velocity S-wave (km/s) = 13.94008 3.08841 10.09614
# Velocity P-wave (km/s) = 15.94275 4.76575 11.76613
#
# Compressibility (1/GPa) = -0.09185750
#
# Stress axis : x y z
#
# Youngs Moduli (GPa) = -146.17177 -45.21674 106.35887
#
# Poissons Ratio (x) = -1.38221 0.16526
# Poissons Ratio (y) = -4.46825 0.42852
# Poissons Ratio (z) = -0.22713 -0.18218
#
# Static dielectric constant tensor:
#      x y z
#    x 1.657240 -0.078150 0.041480 
#    y -0.078150 1.757270 0.119680 
#    z 0.041480 0.119680 1.890460 
# 
# From -- ./inp_files/429073.got.cif
#   From: 2010.05.17/outbox.ucp.g08.bks.cvg/sg2_215_cif.got.tgz:429073.got - 2010.06.11 11:32:03.
