data_PCOD9073794
_publ_section_title
;
Structure prediction by ZEFSAII (Michael W. Deem and Ramdas Pophale) SiO2 
 PCOD9073794
Probable space group: P -1
;
_chemical_formula_sum "Si O2"
_cell_formula_units_Z 14
_cell_length_a 27.000000
_cell_length_b 6.000000
_cell_length_c 9.000000
_cell_angle_alpha 70.000000
_cell_angle_beta 30.000000
_cell_angle_gamma 60.000000
_cell_volume 617.235917
_symmetry_space_group_name_H-M "P -1"
_symmetry_group_IT_number 2
_symmetry_cell_setting 'triclinic'
loop_
_space_group_symop_operation_xyz
x,y,z
-x,-y,-z
loop_
_atom_site_type_symbol
_atom_site_label
_atom_site_fract_x
_atom_site_fract_y
_atom_site_fract_z
Si Si1 0.873689 0.054585 0.290908
Si Si2 0.852461 0.478093 0.004120
Si Si3 0.446925 0.140171 0.759315
Si Si4 0.556912 0.184388 0.888600
Si Si5 0.769927 0.316409 0.792669
Si Si6 0.325855 0.957562 0.669087
Si Si7 0.928742 0.512812 0.452803
O O1 0.783661 0.248245 0.597824
O O2 0.879617 0.772953 0.409395
O O3 0.851697 0.219393 0.150179
O O4 0.000000 0.000000 0.000000
O O5 0.886571 0.490210 0.737844
O O6 0.944403 0.540565 0.840614
O O7 0.732466 0.725307 0.265102
O O8 0.550583 0.170524 0.555909
O O9 0.500000 0.000000 0.500000
O O10 0.336197 0.406964 0.967820
O O11 0.415933 0.953988 0.990047
O O12 0.654384 0.142844 0.529065
O O13 0.500000 0.500000 0.000000
O O14 0.500000 0.000000 0.000000
O O15 0.886658 0.318899 0.526233
O O16 0.748378 0.121385 0.007345
#
# Coordination Sequence:
#
# PCOD9073794 Si02
#       7
#     2   2   2   2   2   2   2
#     4  10  23  45  68  99 139 183 233 293 351 426
#     4  10  21  44  71  96 139 183 229 295 353 424
#     4  11  24  43  71 103 139 187 236 295 365 435
#     4  10  23  45  68  99 144 187 246 298 354 440
#     4  12  24  43  69 100 142 181 233 297 357 426
#     4  11  23  44  69 103 142 185 242 291 364 443
#     4  10  23  45  66 101 138 179 235 290 359 424
#
# _framework density 22.681764999999999
#
# number of rings (size 3 to 8) (size 9 to 14) (size 15 to 20)
#    0.000    1.429    1.429    3.000    0.000    5.143 
#   10.286    0.000    0.000    0.000    0.000    0.000 
#    0.000    0.000    0.000    0.000    0.000    0.000 
#
# Total GULP energy -77944.255476 kJ/mol
# GULP energy per Si atom -5567.446820 kJ/mol
# Density = 2.263014 g / cm^3
# Si number density = 22.681765 Si / 1000 Ang^3
#
#
#
# Elastic Constant Matrix: (Units=GPa)
#
#
# Indices 1 2 3 4 5 6 
#
# 1 58.1263 21.9613 18.1991 -16.2759 6.2171 -12.6320
# 2 21.9613 110.2208 8.4241 -23.4652 18.5237 -32.2406
# 3 18.1991 8.4241 96.9811 -17.6110 33.1378 0.2383
# 4 -16.2759 -23.4652 -17.6110 58.0743 -12.5429 7.2128
# 5 6.2171 18.5237 33.1378 -12.5429 54.5427 -14.6989
# 6 -12.6320 -32.2406 0.2383 7.2128 -14.6989 38.2331
#
#
#
# Elastic Compliance Matrix: (Units=1/GPa)
#
#
# Indices 1 2 3 4 5 6 
#
# 1 0.021295 -0.001890 -0.004280 0.003878 0.003328 0.006017
# 2 -0.001890 0.013075 0.000163 0.003421 -0.001014 0.009365
# 3 -0.004280 0.000163 0.014718 0.001944 -0.009516 -0.005393
# 4 0.003878 0.003421 0.001944 0.020626 0.002263 0.001133
# 5 0.003328 -0.001014 -0.009516 0.002263 0.027408 0.010414
# 6 0.006017 0.009365 -0.005393 0.001133 0.010414 0.039864
#
#
# Mechanical properties :
#
#
# Convention : Reuss Voigt Hill
#
# Bulk Modulus (GPa) = 26.97116 40.27747 33.62431
# Shear Modulus (GPa) = 30.98725 44.61960 37.80342
#
# Velocity S-wave (km/s) = 3.70019 4.44013 4.08694
# Velocity P-wave (km/s) = 5.49292 6.63946 6.09322
#
# Compressibility (1/GPa) = 0.03707665
#
# Stress axis : x y z
#
# Youngs Moduli (GPa) = 46.95850 76.48362 67.94354
#
# Poissons Ratio (x) = 0.14452 0.29078
# Poissons Ratio (y) = 0.08873 -0.01111
# Poissons Ratio (z) = 0.20097 -0.01251
#
# Static dielectric constant tensor:
#      x y z
#    x 1.996000 0.039810 0.009120 
#    y 0.039810 1.881210 -0.013420 
#    z 0.009120 -0.013420 1.828110 
# 
# From -- ./inp_files/139335.got.cif
#   From: 2010.05.17/outbox.ucp.g08.bks.cvg/sg2_70_cif.got.tgz:139335.got - 2010.06.11 11:32:03.
