data_PCOD9073136
_publ_section_title
;
Structure prediction by ZEFSAII (Michael W. Deem and Ramdas Pophale) SiO2 
 PCOD9073136
Probable space group: P -1
;
_chemical_formula_sum "Si O2"
_cell_formula_units_Z 16
_cell_length_a 15.000000
_cell_length_b 9.000000
_cell_length_c 9.000000
_cell_angle_alpha 110.000000
_cell_angle_beta 40.000000
_cell_angle_gamma 110.000000
_cell_volume 727.419504
_symmetry_space_group_name_H-M "P -1"
_symmetry_group_IT_number 2
_symmetry_cell_setting 'triclinic'
loop_
_space_group_symop_operation_xyz
x,y,z
-x,-y,-z
loop_
_atom_site_type_symbol
_atom_site_label
_atom_site_fract_x
_atom_site_fract_y
_atom_site_fract_z
Si Si1 0.865389 0.917959 0.221446
Si Si2 0.793940 0.182627 0.608492
Si Si3 0.351896 0.652709 0.626251
Si Si4 0.572878 0.343757 0.813729
Si Si5 0.045481 0.190218 0.473314
Si Si6 0.335766 0.127866 0.184545
Si Si7 0.380552 0.283965 0.510496
Si Si8 0.961693 0.326197 0.917092
O O1 0.740121 0.809624 0.264464
O O2 0.934690 0.795808 0.198616
O O3 0.794210 0.062389 0.429843
O O4 0.000000 0.000000 0.000000
O O5 0.714739 0.330614 0.720564
O O6 0.958114 0.220379 0.449632
O O7 0.714036 0.061126 0.792472
O O8 0.397539 0.663413 0.400411
O O9 0.347345 0.464676 0.605645
O O10 0.470514 0.731100 0.613942
O O11 0.203237 0.716096 0.855946
O O12 0.500000 0.500000 0.000000
O O13 0.473906 0.183752 0.935302
O O14 0.211205 0.203323 0.285705
O O15 0.987408 0.310162 0.704573
O O16 0.000000 0.000000 0.500000
O O17 0.362507 0.209601 0.341844
O O18 0.000000 0.500000 0.000000
#
# Coordination Sequence:
#
# PCOD9073136 Si02
#       8
#     2   2   2   2   2   2   2   2
#     4  11  22  43  67  95 140 176 227 290 343 408
#     4  10  23  43  67  97 131 182 228 272 350 412
#     4  11  24  40  66 100 137 179 229 278 353 410
#     4  12  25  42  65  97 136 173 226 288 334 406
#     4  10  20  42  71  97 129 182 232 273 339 420
#     4  10  20  43  68  93 133 178 222 276 338 412
#     4  10  21  43  63  95 137 179 225 275 347 418
#     4  12  22  41  71  99 133 180 229 287 337 411
#
# _framework density 21.995560999999999
#
# number of rings (size 3 to 8) (size 9 to 14) (size 15 to 20)
#    0.000    1.250    6.250    1.125    1.750    1.000 
#    2.250    3.750    0.000    0.000    0.000    0.000 
#    0.000    0.000    0.000    0.000    0.000    0.000 
#
# Total GULP energy -89220.813995 kJ/mol
# GULP energy per Si atom -5576.300875 kJ/mol
# Density = 2.194550 g / cm^3
# Si number density = 21.995561 Si / 1000 Ang^3
#
#
#
# Elastic Constant Matrix: (Units=GPa)
#
#
# Indices 1 2 3 4 5 6 
#
# 1 125.4673 21.6662 21.2315 3.6993 -38.7004 2.3127
# 2 21.6662 43.5444 11.7860 3.6926 -1.6699 -0.7254
# 3 21.2315 11.7860 73.5412 -3.8057 -24.9447 -4.1162
# 4 3.6993 3.6926 -3.8057 39.1597 -3.3993 -13.8705
# 5 -38.7004 -1.6699 -24.9447 -3.3993 31.0688 4.0481
# 6 2.3127 -0.7254 -4.1162 -13.8705 4.0481 31.9477
#
#
#
# Elastic Compliance Matrix: (Units=1/GPa)
#
#
# Indices 1 2 3 4 5 6 
#
# 1 0.015996 -0.008397 0.004588 0.000533 0.023675 -0.003526
# 2 -0.008397 0.028952 -0.007652 -0.003821 -0.015542 0.000590
# 3 0.004588 -0.007652 0.021650 0.004924 0.023029 0.001503
# 4 0.000533 -0.003821 0.004924 0.031625 0.006117 0.013464
# 5 0.023675 -0.015542 0.023029 0.006117 0.080872 -0.006691
# 6 -0.003526 0.000590 0.001503 0.013464 -0.006691 0.038457
#
#
# Mechanical properties :
#
#
# Convention : Reuss Voigt Hill
#
# Bulk Modulus (GPa) = 22.89583 39.10228 30.99906
# Shear Modulus (GPa) = 19.60538 32.95984 26.28261
#
# Velocity S-wave (km/s) = 2.98876 3.87522 3.46049
# Velocity P-wave (km/s) = 4.72675 6.15134 5.48549
#
# Compressibility (1/GPa) = 0.04367607
#
# Stress axis : x y z
#
# Youngs Moduli (GPa) = 62.51742 34.53991 46.18975
#
# Poissons Ratio (x) = 0.29002 -0.21193
# Poissons Ratio (y) = 0.52494 0.35345
# Poissons Ratio (z) = -0.28685 0.26431
#
# Static dielectric constant tensor:
#      x y z
#    x 1.841730 0.011290 -0.020280 
#    y 0.011290 1.842410 -0.096660 
#    z -0.020280 -0.096660 1.844380 
# 
# From -- ./inp_files/299076.got.cif
#   From: 2010.05.17/outbox.ucp.g08.bks.cvg/sg2_150_cif.got.tgz:299076.got - 2010.06.11 11:32:03.
