data_PCOD9073671
_publ_section_title
;
Structure prediction by ZEFSAII (Michael W. Deem and Ramdas Pophale) SiO2 
 PCOD9073671
Probable space group: P -1
;
_chemical_formula_sum "Si O2"
_cell_formula_units_Z 12
_cell_length_a 9.000000
_cell_length_b 12.000000
_cell_length_c 9.000000
_cell_angle_alpha 50.000000
_cell_angle_beta 90.000000
_cell_angle_gamma 60.000000
_cell_volume 564.115245
_symmetry_space_group_name_H-M "P -1"
_symmetry_group_IT_number 2
_symmetry_cell_setting 'triclinic'
loop_
_space_group_symop_operation_xyz
x,y,z
-x,-y,-z
loop_
_atom_site_type_symbol
_atom_site_label
_atom_site_fract_x
_atom_site_fract_y
_atom_site_fract_z
Si Si1 0.937217 0.844427 0.216376
Si Si2 0.697896 0.469598 0.019495
Si Si3 0.631032 0.796735 0.248290
Si Si4 0.551499 0.253999 0.446488
Si Si5 0.990070 0.925070 0.816580
Si Si6 0.675279 0.475928 0.350115
O O1 0.833529 0.754477 0.311528
O O2 0.163557 0.681130 0.398777
O O3 0.919529 0.907172 0.991936
O O4 0.886574 0.008786 0.190544
O O5 0.758757 0.452938 0.203973
O O6 0.868800 0.277395 0.095070
O O7 0.500000 0.500000 0.000000
O O8 0.597017 0.664920 0.762057
O O9 0.531355 0.809408 0.387142
O O10 0.615854 0.667599 0.251414
O O11 0.500000 0.000000 0.000000
O O12 0.529287 0.432282 0.364099
O O13 0.790407 0.085730 0.583322
#
# Coordination Sequence:
#
# PCOD9073671 Si02
#       6
#     2   2   2   2   2   2
#     4  10  22  39  68  90 127 161 212 264 305 369
#     4  10  23  40  67  91 128 166 212 252 309 383
#     4  12  23  39  64  97 126 158 214 262 312 365
#     4  10  22  42  67  93 125 167 208 260 307 375
#     4  10  21  42  65  97 121 167 210 258 314 365
#     4  10  23  41  64  92 124 169 208 255 316 371
#
# _framework density 21.272248999999999
#
# number of rings (size 3 to 8) (size 9 to 14) (size 15 to 20)
#    0.000    1.667    1.667    2.000    4.667    6.000 
#    0.000    4.167    0.000    0.000    0.000    0.000 
#    0.000    0.000    0.000    0.000    0.000    0.000 
#
# Total GULP energy -66839.361115 kJ/mol
# GULP energy per Si atom -5569.946760 kJ/mol
# Density = 2.122383 g / cm^3
# Si number density = 21.272249 Si / 1000 Ang^3
#
#
#
# Elastic Constant Matrix: (Units=GPa)
#
#
# Indices 1 2 3 4 5 6 
#
# 1 63.3836 -19.5854 -4.1674 0.7490 -10.8530 -6.6623
# 2 -19.5854 15.6176 33.8160 -0.1404 19.1172 -28.7488
# 3 -4.1674 33.8160 115.2945 -0.7705 -8.6219 -2.2992
# 4 0.7490 -0.1404 -0.7705 18.7440 -6.2903 -0.8620
# 5 -10.8530 19.1172 -8.6219 -6.2903 27.2694 2.7977
# 6 -6.6623 -28.7488 -2.2992 -0.8620 2.7977 11.4081
#
#
#
# Elastic Compliance Matrix: (Units=1/GPa)
#
#
# Indices 1 2 3 4 5 6 
#
# 1 0.016253 -0.004109 0.002591 0.003041 0.011163 -0.002849
# 2 -0.004109 -0.009454 0.002771 0.002011 0.009181 -0.027766
# 3 0.002591 0.002771 0.008228 0.001017 0.000898 0.010010
# 4 0.003041 0.002011 0.001017 0.057906 0.012625 0.008329
# 5 0.011163 0.009181 0.000898 0.012625 0.035610 0.022057
# 6 -0.002849 -0.027766 0.010010 0.008329 0.022057 0.013259
#
#
# Mechanical properties :
#
#
# Convention : Reuss Voigt Hill
#
# Bulk Modulus (GPa) = 57.03856 23.82468 40.43162
# Shear Modulus (GPa) = 39.95473 23.76646 31.86060
#
# Velocity S-wave (km/s) = 4.33859 3.34616 3.87428
# Velocity P-wave (km/s) = 7.20899 5.11402 6.24991
#
# Compressibility (1/GPa) = 0.01753200
#
# Stress axis : x y z
#
# Youngs Moduli (GPa) = 61.52541 -105.77266 121.53600
#
# Poissons Ratio (x) = -0.43466 -0.31491
# Poissons Ratio (y) = 0.25283 -0.33674
# Poissons Ratio (z) = -0.15942 0.29307
#
# Static dielectric constant tensor:
#      x y z
#    x 1.910910 0.122560 0.170560 
#    y 0.122560 1.813890 -0.032420 
#    z 0.170560 -0.032420 1.792720 
# 
# From -- ./inp_files/146466.got.cif
#   From: 2010.05.17/outbox.ucp.g08.bks.cvg/sg2_74_cif.got.tgz:146466.got - 2010.06.11 11:32:03.
