data_PCOD9073036
_publ_section_title
;
Structure prediction by ZEFSAII (Michael W. Deem and Ramdas Pophale) SiO2 
 PCOD9073036
Probable space group: P -1
;
_chemical_formula_sum "Si O2"
_cell_formula_units_Z 16
_cell_length_a 12.000000
_cell_length_b 18.000000
_cell_length_c 9.000000
_cell_angle_alpha 140.000000
_cell_angle_beta 100.000000
_cell_angle_gamma 50.000000
_cell_volume 729.599496
_symmetry_space_group_name_H-M "P -1"
_symmetry_group_IT_number 2
_symmetry_cell_setting 'triclinic'
loop_
_space_group_symop_operation_xyz
x,y,z
-x,-y,-z
loop_
_atom_site_type_symbol
_atom_site_label
_atom_site_fract_x
_atom_site_fract_y
_atom_site_fract_z
Si Si1 0.933088 0.922921 0.523854
Si Si2 0.092078 0.599379 0.540126
Si Si3 0.339950 0.645497 0.347161
Si Si4 0.156448 0.813009 0.860612
Si Si5 0.077804 0.309881 0.682584
Si Si6 0.623623 0.211211 0.649147
Si Si7 0.749768 0.719564 0.740070
Si Si8 0.416486 0.162492 0.424463
O O1 0.919949 0.798444 0.370424
O O2 0.154510 0.764524 0.382711
O O3 0.825632 0.028108 0.501073
O O4 0.822720 0.107579 0.885964
O O5 0.106187 0.724398 0.770602
O O6 0.263450 0.373248 0.284273
O O7 0.034756 0.638127 0.412527
O O8 0.932936 0.655070 0.676112
O O9 0.319496 0.658750 0.540060
O O10 0.361142 0.761025 0.476774
O O11 0.506446 0.417136 0.001409
O O12 0.000000 0.000000 0.000000
O O13 0.294129 0.164886 0.478768
O O14 0.000000 0.500000 0.000000
O O15 0.490282 0.207520 0.610459
O O16 0.711807 0.695665 0.531108
O O17 0.595152 0.945198 0.075626
#
# Coordination Sequence:
#
# PCOD9073036 Si02
#       8
#     2   2   2   2   2   2   2   2
#     4  11  24  43  67  99 124 180 219 264 331 385
#     4  10  20  40  67  93 124 166 218 265 322 387
#     4  10  23  44  62  94 133 169 218 271 320 389
#     4  10  21  39  68  92 126 172 217 271 318 384
#     4  11  23  40  63  92 135 165 216 268 325 387
#     4  11  25  41  65  95 135 170 217 266 335 385
#     4   9  22  40  62  97 122 168 217 265 327 380
#     4  10  23  40  62  91 131 169 207 277 317 390
#
# _framework density 21.929839999999999
#
# number of rings (size 3 to 8) (size 9 to 14) (size 15 to 20)
#    0.000    1.750    2.500    1.125    5.250    5.000 
#    2.250    0.000    0.000    0.000    0.000    0.000 
#    0.000    0.000    0.000    0.000    0.000    0.000 
#
# Total GULP energy -89070.314466 kJ/mol
# GULP energy per Si atom -5566.894654 kJ/mol
# Density = 2.187993 g / cm^3
# Si number density = 21.929840 Si / 1000 Ang^3
#
#
#
# Elastic Constant Matrix: (Units=GPa)
#
#
# Indices 1 2 3 4 5 6 
#
# 1 62.3780 29.7860 20.5442 5.9802 23.1518 19.7313
# 2 29.7860 57.7548 1.4444 16.1710 14.6607 18.7823
# 3 20.5442 1.4444 48.9624 -0.2960 19.2092 15.3873
# 4 5.9802 16.1710 -0.2960 23.0974 4.1237 14.3315
# 5 23.1518 14.6607 19.2092 4.1237 36.7618 7.1015
# 6 19.7313 18.7823 15.3873 14.3315 7.1015 36.9996
#
#
#
# Elastic Compliance Matrix: (Units=1/GPa)
#
#
# Indices 1 2 3 4 5 6 
#
# 1 0.028980 -0.011637 -0.005147 0.007605 -0.010150 -0.008404
# 2 -0.011637 0.030554 0.008548 -0.013029 -0.006597 -0.006547
# 3 -0.005147 0.008548 0.033414 0.008307 -0.015521 -0.015729
# 4 0.007605 -0.013029 0.008307 0.067792 -0.006535 -0.025900
# 5 -0.010150 -0.006597 -0.015521 -0.006535 0.043243 0.009448
# 6 -0.008404 -0.006547 -0.015729 -0.025900 0.009448 0.049593
#
#
# Mechanical properties :
#
#
# Convention : Reuss Voigt Hill
#
# Bulk Modulus (GPa) = 13.07599 30.29383 21.68491
# Shear Modulus (GPa) = 16.91829 27.19315 22.05572
#
# Velocity S-wave (km/s) = 2.78055 3.52519 3.17478
# Velocity P-wave (km/s) = 4.03537 5.51482 4.83206
#
# Compressibility (1/GPa) = 0.07647605
#
# Stress axis : x y z
#
# Youngs Moduli (GPa) = 34.50704 32.72909 29.92771
#
# Poissons Ratio (x) = 0.38086 0.15404
# Poissons Ratio (y) = 0.40155 -0.25582
# Poissons Ratio (z) = 0.17761 -0.27977
#
# Static dielectric constant tensor:
#      x y z
#    x 1.563100 0.313960 0.395690 
#    y 0.313960 1.505870 -0.615760 
#    z 0.395690 -0.615760 0.960280 
# 
# From -- ./inp_files/280129.got.cif
#   From: 2010.05.17/outbox.ucp.g08.bks.cvg/sg2_141_cif.got.tgz:280129.got - 2010.06.11 11:32:03.
