data_PCOD9073017
_publ_section_title
;
Structure prediction by ZEFSAII (Michael W. Deem and Ramdas Pophale) SiO2 
 PCOD9073017
Probable space group: P -1
;
_chemical_formula_sum "Si O2"
_cell_formula_units_Z 12
_cell_length_a 8.274828
_cell_length_b 9.452822
_cell_length_c 9.263285
_cell_angle_alpha 127.016793
_cell_angle_beta 75.306420
_cell_angle_gamma 127.147575
_cell_volume 454.220697
_symmetry_space_group_name_H-M "P -1"
_symmetry_group_IT_number 2
_symmetry_cell_setting 'triclinic'
loop_
_space_group_symop_operation_xyz
x,y,z
-x,-y,-z
loop_
_atom_site_type_symbol
_atom_site_label
_atom_site_fract_x
_atom_site_fract_y
_atom_site_fract_z
Si Si1 0.872695 0.156269 0.849572
Si Si2 0.639665 0.568832 0.148063
Si Si3 0.570020 0.395452 0.538939
Si Si4 0.711202 0.346482 0.214580
Si Si5 0.058486 0.147450 0.217966
Si Si6 0.920707 0.137901 0.530725
O O1 0.123835 0.317621 0.881932
O O2 0.795772 0.146576 0.698164
O O3 0.819264 0.924390 0.761774
O O4 0.799474 0.234545 0.042610
O O5 0.589500 0.700209 0.351081
O O6 0.575039 0.360460 0.132472
O O7 0.500000 0.500000 0.000000
O O8 0.500000 0.500000 0.500000
O O9 0.612603 0.256721 0.338316
O O10 0.786915 0.594437 0.682846
O O11 0.889164 0.603080 0.361568
O O12 0.879464 0.085974 0.337268
O O13 0.000000 0.000000 0.000000
O O14 0.000000 0.000000 0.500000
#
# Coordination Sequence:
#
# PCOD9073017 Si02
#       6
#     2   2   2   2   2   2
#     4  10  19  34  57  81 105 142 188 231 268 323
#     4  10  18  31  52  79 107 139 176 222 272 321
#     4   9  19  36  55  77 110 147 181 219 276 342
#     4   9  18  34  54  79 107 143 187 225 267 329
#     4  10  19  33  53  81 110 143 184 227 272 330
#     4   8  15  28  49  75 102 138 178 216 259 321
#
# _framework density 26.418873999999999
#
# number of rings (size 3 to 8) (size 9 to 14) (size 15 to 20)
#    0.000    2.667    0.000    4.000    0.000    0.000 
#    0.000   12.500    0.000    8.000    0.000  143.500 
#    0.000    0.000    0.000    0.000    0.000    0.000 
#
# Total GULP energy -66904.781742 kJ/mol
# GULP energy per Si atom -5575.398479 kJ/mol
# Density = 2.635874 g / cm^3
# Si number density = 26.418874 Si / 1000 Ang^3
#
#
#
# Elastic Constant Matrix: (Units=GPa)
#
#
# Indices 1 2 3 4 5 6 
#
# 1 44.2036 22.3187 61.9042 -15.6165 -5.2407 10.0325
# 2 22.3187 79.3811 39.4671 -22.2209 -8.7949 27.1524
# 3 61.9042 39.4671 273.7395 -49.7357 -16.4416 28.1548
# 4 -15.6165 -22.2209 -49.7357 44.2090 5.1590 -12.0288
# 5 -5.2407 -8.7949 -16.4416 5.1590 49.0709 -4.9142
# 6 10.0325 27.1524 28.1548 -12.0288 -4.9142 27.3168
#
#
#
# Elastic Compliance Matrix: (Units=1/GPa)
#
#
# Indices 1 2 3 4 5 6 
#
# 1 0.036153 -0.006587 -0.007002 0.001928 0.000270 0.001384
# 2 -0.006587 0.021412 0.001171 0.004780 0.001247 -0.017741
# 3 -0.007002 0.001171 0.006179 0.004161 0.000796 -0.002985
# 4 0.001928 0.004780 0.004161 0.031542 -0.000453 0.004060
# 5 0.000270 0.001247 0.000796 -0.000453 0.021089 0.001435
# 6 0.001384 -0.017741 -0.002985 0.004060 0.001435 0.058856
#
#
# Mechanical properties :
#
#
# Convention : Reuss Voigt Hill
#
# Bulk Modulus (GPa) = 25.70267 71.63380 48.66824
# Shear Modulus (GPa) = 23.47004 42.36163 32.91583
#
# Velocity S-wave (km/s) = 2.98381 4.00867 3.53359
# Velocity P-wave (km/s) = 4.64982 6.97133 5.92538
#
# Compressibility (1/GPa) = 0.03890646
#
# Stress axis : x y z
#
# Youngs Moduli (GPa) = 27.66000 46.70246 161.85003
#
# Poissons Ratio (x) = 0.30765 1.13326
# Poissons Ratio (y) = 0.18221 -0.18947
# Poissons Ratio (z) = 0.19367 -0.05467
#
# Static dielectric constant tensor:
#      x y z
#    x 2.172690 0.092530 -0.056930 
#    y 0.092530 2.213670 -0.017460 
#    z -0.056930 -0.017460 2.218960 
# 
# From -- ./inp_files/167214.got.cif
#   From: 2010.05.17/outbox.cif.g08.bks.cpg/sg2_84_cif.got.tgz:167214.got - 2010.06.03 11:33:40.
