data_PCOD9073088
_publ_section_title
;
Structure prediction by ZEFSAII (Michael W. Deem and Ramdas Pophale) SiO2 
 PCOD9073088
Probable space group: P -1
;
_chemical_formula_sum "Si O2"
_cell_formula_units_Z 16
_cell_length_a 5.641392
_cell_length_b 7.978593
_cell_length_c 16.745600
_cell_angle_alpha 121.874075
_cell_angle_beta 79.533588
_cell_angle_gamma 83.359749
_cell_volume 608.888398
_symmetry_space_group_name_H-M "P -1"
_symmetry_group_IT_number 2
_symmetry_cell_setting 'triclinic'
loop_
_space_group_symop_operation_xyz
x,y,z
-x,-y,-z
loop_
_atom_site_type_symbol
_atom_site_label
_atom_site_fract_x
_atom_site_fract_y
_atom_site_fract_z
Si Si1 0.419737 0.850994 0.742812
Si Si2 0.837969 0.320657 0.889572
Si Si3 0.416994 0.248560 0.563615
Si Si4 0.584739 0.426845 0.087726
Si Si5 0.714363 0.041875 0.057251
Si Si6 0.035437 0.805181 0.509189
Si Si7 0.657395 0.767232 0.253618
Si Si8 0.064510 0.150063 0.287289
O O1 0.415746 0.994147 0.700523
O O2 0.325102 0.008447 0.861611
O O3 0.707766 0.747416 0.713755
O O4 0.200314 0.744202 0.710204
O O5 0.660641 0.555555 0.944408
O O6 0.074926 0.327801 0.824245
O O7 0.849179 0.076747 0.814314
O O8 0.810702 0.342611 0.992992
O O9 0.671023 0.308771 0.540042
O O10 0.352068 0.295846 0.671577
O O11 0.173467 0.305966 0.536707
O O12 0.500000 0.000000 0.500000
O O13 0.627832 0.289082 0.127096
O O14 0.492925 0.659842 0.180977
O O15 0.500000 0.000000 0.000000
O O16 0.000000 0.000000 0.000000
O O17 0.974927 0.871176 0.620943
O O18 0.000000 0.000000 0.500000
#
# Coordination Sequence:
#
# PCOD9073088 Si02
#       8
#     2   2   2   2   2   2   2   2
#     4  11  21  37  59  85 117 159 197 245 297 353
#     4  10  21  36  57  88 120 158 202 244 303 350
#     4  10  20  31  54  88 125 148 188 245 310 351
#     4  11  24  38  61  85 122 162 203 248 299 352
#     4  12  27  44  61  85 121 164 210 251 294 353
#     4  10  18  31  52  87 123 147 188 242 310 349
#     4  11  22  36  62  88 125 155 202 252 301 357
#     4  11  20  37  61  89 123 157 198 252 296 360
#
# _framework density 26.277391999999999
#
# number of rings (size 3 to 8) (size 9 to 14) (size 15 to 20)
#    0.000    1.250    1.250    8.625    5.250    0.000 
#    0.000    0.000    0.000    0.000    0.000    9.625 
#    0.000    0.000    0.000    0.000    0.000    0.000 
#
# Total GULP energy -89169.686804 kJ/mol
# GULP energy per Si atom -5573.105425 kJ/mol
# Density = 2.621758 g / cm^3
# Si number density = 26.277392 Si / 1000 Ang^3
#
#
#
# Elastic Constant Matrix: (Units=GPa)
#
#
# Indices 1 2 3 4 5 6 
#
# 1 329.2890 -12.2608 21.3133 14.6257 128.0576 38.7938
# 2 -12.2608 43.0063 15.8878 -1.8885 -25.9737 -12.2129
# 3 21.3133 15.8878 159.5223 -26.6861 -44.7354 6.7738
# 4 14.6257 -1.8885 -26.6861 36.9811 42.3191 14.0347
# 5 128.0576 -25.9737 -44.7354 42.3191 238.4409 40.9477
# 6 38.7938 -12.2129 6.7738 14.0347 40.9477 27.2922
#
#
#
# Elastic Compliance Matrix: (Units=1/GPa)
#
#
# Indices 1 2 3 4 5 6 
#
# 1 0.004268 -0.000923 -0.000599 0.001812 -0.002128 -0.004071
# 2 -0.000923 0.031008 -0.005282 -0.011094 0.001399 0.020105
# 3 -0.000599 -0.005282 0.009341 0.008822 0.001845 -0.011136
# 4 0.001812 -0.011094 0.008822 0.047474 -0.004161 -0.027900
# 5 -0.002128 0.001399 0.001845 -0.004161 0.007622 -0.006103
# 6 -0.004071 0.020105 -0.011136 -0.027900 -0.006103 0.077692
#
#
# Mechanical properties :
#
#
# Convention : Reuss Voigt Hill
#
# Bulk Modulus (GPa) = 32.25014 64.63313 48.44163
# Shear Modulus (GPa) = 24.83252 94.33467 59.58359
#
# Velocity S-wave (km/s) = 3.07744 5.99812 4.76698
# Velocity P-wave (km/s) = 4.99271 8.52173 6.98380
#
# Compressibility (1/GPa) = 0.03100762
#
# Stress axis : x y z
#
# Youngs Moduli (GPa) = 234.31903 32.25006 107.05410
#
# Poissons Ratio (x) = 0.02978 0.06410
# Poissons Ratio (y) = 0.21639 0.56548
# Poissons Ratio (z) = 0.14031 0.17035
#
# Static dielectric constant tensor:
#      x y z
#    x 3.664850 0.261670 -0.363910 
#    y 0.261670 2.284990 -0.059640 
#    z -0.363910 -0.059640 2.223510 
# 
# From -- ./inp_files/480739.got.cif
#   From: 2010.05.17/outbox.cif.g08.bks.cpg/sg2_241_cif.got.tgz:480739.got - 2010.06.03 11:33:40.
