data_PCOD9073583
_publ_section_title
;
Structure prediction by ZEFSAII (Michael W. Deem and Ramdas Pophale) SiO2 
 PCOD9073583
Probable space group: P -1
;
_chemical_formula_sum "Si O2"
_cell_formula_units_Z 14
_cell_length_a 11.736402
_cell_length_b 10.819559
_cell_length_c 11.329530
_cell_angle_alpha 94.767598
_cell_angle_beta 128.600335
_cell_angle_gamma 126.507836
_cell_volume 624.145027
_symmetry_space_group_name_H-M "P -1"
_symmetry_group_IT_number 2
_symmetry_cell_setting 'triclinic'
loop_
_space_group_symop_operation_xyz
x,y,z
-x,-y,-z
loop_
_atom_site_type_symbol
_atom_site_label
_atom_site_fract_x
_atom_site_fract_y
_atom_site_fract_z
Si Si1 0.863613 0.214891 0.212531
Si Si2 0.852011 0.153407 0.560111
Si Si3 0.922186 0.825262 0.083113
Si Si4 0.334881 0.776281 0.714226
Si Si5 0.581602 0.429004 0.151884
Si Si6 0.238570 0.081832 0.698280
Si Si7 0.811506 0.719184 0.730990
O O1 0.858964 0.327368 0.308356
O O2 0.091709 0.332426 0.283401
O O3 0.840546 0.083338 0.276465
O O4 0.602771 0.033253 0.950481
O O5 0.746737 0.213190 0.458018
O O6 0.919028 0.162541 0.736203
O O7 0.127448 0.331799 0.681108
O O8 0.667750 0.920238 0.360188
O O9 0.622289 0.626135 0.918578
O O10 0.908058 0.782001 0.933508
O O11 0.057089 0.056786 0.209027
O O12 0.396964 0.675471 0.756414
O O13 0.445200 0.298223 0.929609
O O14 0.000000 0.000000 0.500000
O O15 0.500000 0.500000 0.500000
#
# Coordination Sequence:
#
# PCOD9073583 Si02
#       7
#     2   2   2   2   2   2   2
#     4   9  18  37  58  86 115 161 204 237 299 357
#     4  11  22  35  61  94 122 156 196 253 313 344
#     4  11  24  39  59  95 119 155 212 249 288 363
#     4   9  19  36  63  88 125 156 189 257 304 358
#     4  11  21  37  60  96 124 153 202 247 308 365
#     4  10  18  31  55  84 122 150 183 254 298 339
#     4  11  24  42  65  82 123 170 202 245 294 362
#
# _framework density 22.430683999999999
#
# number of rings (size 3 to 8) (size 9 to 14) (size 15 to 20)
#    0.000    1.714    4.286    1.714    4.000    1.143 
#    0.000    0.714    0.000    1.714    0.000    0.000 
#    0.000    0.000    0.000    0.000    0.000    0.000 
#
# Total GULP energy -78139.659237 kJ/mol
# GULP energy per Si atom -5581.404231 kJ/mol
# Density = 2.237963 g / cm^3
# Si number density = 22.430684 Si / 1000 Ang^3
#
#
#
# Elastic Constant Matrix: (Units=GPa)
#
#
# Indices 1 2 3 4 5 6 
#
# 1 76.4453 11.3057 17.0681 -11.2728 0.0625 -1.3962
# 2 11.3057 81.6171 34.7310 -41.5015 1.7566 -9.0735
# 3 17.0681 34.7310 124.4802 -43.2726 7.2857 3.0693
# 4 -11.2728 -41.5015 -43.2726 49.9918 -2.8915 9.0868
# 5 0.0625 1.7566 7.2857 -2.8915 30.0654 -3.4031
# 6 -1.3962 -9.0735 3.0693 9.0868 -3.4031 25.8925
#
#
#
# Elastic Compliance Matrix: (Units=1/GPa)
#
#
# Indices 1 2 3 4 5 6 
#
# 1 0.013668 -0.000582 -0.001206 0.001546 0.000469 0.000195
# 2 -0.000582 0.021282 0.000139 0.017441 0.000556 0.001362
# 3 -0.001206 0.000139 0.012477 0.011565 -0.002584 -0.005894
# 4 0.001546 0.017441 0.011565 0.046937 -0.000639 -0.011732
# 5 0.000469 0.000556 -0.002584 -0.000639 0.034389 0.005270
# 6 0.000195 0.001362 -0.005894 -0.011732 0.005270 0.044618
#
#
# Mechanical properties :
#
#
# Convention : Reuss Voigt Hill
#
# Bulk Modulus (GPa) = 22.66166 45.41691 34.03928
# Shear Modulus (GPa) = 26.12621 35.81911 30.97266
#
# Velocity S-wave (km/s) = 3.41655 4.00043 3.71997
# Velocity P-wave (km/s) = 5.06840 6.45210 5.80165
#
# Compressibility (1/GPa) = 0.04412740
#
# Stress axis : x y z
#
# Youngs Moduli (GPa) = 73.16425 46.98806 80.14788
#
# Poissons Ratio (x) = 0.02735 0.09669
# Poissons Ratio (y) = 0.04259 -0.01113
# Poissons Ratio (z) = 0.08827 -0.00652
#
# Static dielectric constant tensor:
#      x y z
#    x 1.855860 -0.031300 -0.012450 
#    y -0.031300 1.880740 0.062490 
#    z -0.012450 0.062490 1.912130 
# 
# From -- ./inp_files/428441.got.cif
#   From: 2010.05.17/outbox.cif.g08.bks.cpg/sg2_215_cif.got.tgz:428441.got - 2010.06.03 11:33:40.
