data_PCOD9073983
_publ_section_title
;
Structure prediction by ZEFSAII (Michael W. Deem and Ramdas Pophale) SiO2 
 PCOD9073983
Probable space group: P -1
;
_chemical_formula_sum "Si O2"
_cell_formula_units_Z 16
_cell_length_a 9.000000
_cell_length_b 18.000000
_cell_length_c 12.000000
_cell_angle_alpha 50.000000
_cell_angle_beta 80.000000
_cell_angle_gamma 40.000000
_cell_volume 729.599496
_symmetry_space_group_name_H-M "P -1"
_symmetry_group_IT_number 2
_symmetry_cell_setting 'triclinic'
loop_
_space_group_symop_operation_xyz
x,y,z
-x,-y,-z
loop_
_atom_site_type_symbol
_atom_site_label
_atom_site_fract_x
_atom_site_fract_y
_atom_site_fract_z
Si Si1 0.685563 0.171426 0.937291
Si Si2 0.224742 0.009763 0.702634
Si Si3 0.666922 0.142970 0.386140
Si Si4 0.311758 0.514153 0.966501
Si Si5 0.210505 0.189807 0.077583
Si Si6 0.630525 0.787073 0.433039
Si Si7 0.807372 0.406823 0.355470
Si Si8 0.317342 0.205540 0.831532
O O1 0.487258 0.379438 0.758876
O O2 0.502252 0.189313 0.879867
O O3 0.756861 0.100059 0.124529
O O4 0.000000 0.000000 0.000000
O O5 0.907282 0.243026 0.534700
O O6 0.292497 0.966716 0.603187
O O7 0.483422 0.927047 0.810908
O O8 0.483223 0.322211 0.164914
O O9 0.495939 0.217527 0.453124
O O10 0.000000 0.000000 0.500000
O O11 0.500000 0.500000 0.000000
O O12 0.247474 0.558766 0.802148
O O13 0.009170 0.679131 0.917953
O O14 0.320469 0.018216 0.221369
O O15 0.087402 0.303751 0.867746
O O16 0.764823 0.710260 0.362335
O O17 0.900616 0.690524 0.557210
O O18 0.500000 0.000000 0.000000
#
# Coordination Sequence:
#
# PCOD9073983 Si02
#       8
#     2   2   2   2   2   2   2   2
#     4  11  25  43  70 100 138 181 228 291 340 404
#     4  10  22  44  67  96 134 174 226 272 343 405
#     4  12  25  39  64  98 137 173 220 286 340 401
#     4  12  25  42  66  99 135 177 227 281 350 408
#     4   9  20  41  68  95 130 178 218 280 329 400
#     4  10  22  40  67  98 133 175 227 276 331 405
#     4  11  24  44  69  97 133 176 228 279 341 414
#     4   9  21  43  68  96 136 179 230 273 341 402
#
# _framework density 21.929839999999999
#
# number of rings (size 3 to 8) (size 9 to 14) (size 15 to 20)
#    0.000    1.500    1.250    3.750    5.250    6.000 
#    0.000    0.000    0.000    0.000    0.000    0.000 
#    0.000    0.000    0.000    0.000    0.000    0.000 
#
# Total GULP energy -89140.456076 kJ/mol
# GULP energy per Si atom -5571.278505 kJ/mol
# Density = 2.187993 g / cm^3
# Si number density = 21.929840 Si / 1000 Ang^3
#
#
#
# Elastic Constant Matrix: (Units=GPa)
#
#
# Indices 1 2 3 4 5 6 
#
# 1 17.4867 15.1705 27.7868 15.1744 -2.1762 14.4352
# 2 15.1705 88.9582 43.9409 7.0889 2.5595 19.4139
# 3 27.7868 43.9409 109.8186 9.7414 4.8055 7.4866
# 4 15.1744 7.0889 9.7414 61.0569 14.5232 1.7719
# 5 -2.1762 2.5595 4.8055 14.5232 24.6584 2.9849
# 6 14.4352 19.4139 7.4866 1.7719 2.9849 23.4035
#
#
#
# Elastic Compliance Matrix: (Units=1/GPa)
#
#
# Indices 1 2 3 4 5 6 
#
# 1 -0.438148 -0.044984 0.105249 0.128182 -0.164527 0.285173
# 2 -0.044984 0.012232 0.004921 0.012147 -0.015420 0.017072
# 3 0.105249 0.004921 -0.013785 -0.031679 0.038242 -0.067069
# 4 0.128182 0.012147 -0.031679 -0.018229 0.036929 -0.082334
# 5 -0.164527 -0.015420 0.038242 0.036929 -0.013795 0.101001
# 6 0.285173 0.017072 -0.067069 -0.082334 0.101001 -0.132520
#
#
# Mechanical properties :
#
#
# Convention : Reuss Voigt Hill
#
# Bulk Modulus (GPa) = -3.23282 43.34001 20.05360
# Shear Modulus (GPa) = -5.96853 30.44811 12.23979
#
# Velocity S-wave (km/s) = -1.65153 3.73021 2.36505
# Velocity P-wave (km/s) = 2.26144 6.19343 4.07704
#
# Compressibility (1/GPa) = -0.30932754
#
# Stress axis : x y z
#
# Youngs Moduli (GPa) = -2.28234 81.75480 -72.54333
#
# Poissons Ratio (x) = 3.67766 7.63513
# Poissons Ratio (y) = -0.10267 0.35701
# Poissons Ratio (z) = 0.24021 -0.40234
#
# Static dielectric constant tensor:
#      x y z
#    x 1.891620 0.025700 -0.068640 
#    y 0.025700 1.903010 -0.027390 
#    z -0.068640 -0.027390 1.812530 
# 
# From -- ./inp_files/246064.got.cif
#   From: 2010.05.17/outbox.ucp.g08.bks.cvg/sg2_124_cif.got.tgz:246064.got - 2010.06.11 11:32:03.
