data_PCOD9073917
_publ_section_title
;
Structure prediction by ZEFSAII (Michael W. Deem and Ramdas Pophale) SiO2 
 PCOD9073917
Probable space group: P -1
;
_chemical_formula_sum "Si O2"
_cell_formula_units_Z 16
_cell_length_a 12.000000
_cell_length_b 9.000000
_cell_length_c 15.000000
_cell_angle_alpha 70.000000
_cell_angle_beta 50.000000
_cell_angle_gamma 40.000000
_cell_volume 759.581896
_symmetry_space_group_name_H-M "P -1"
_symmetry_group_IT_number 2
_symmetry_cell_setting 'triclinic'
loop_
_space_group_symop_operation_xyz
x,y,z
-x,-y,-z
loop_
_atom_site_type_symbol
_atom_site_label
_atom_site_fract_x
_atom_site_fract_y
_atom_site_fract_z
Si Si1 0.757199 0.096648 0.837493
Si Si2 0.525350 0.696495 0.360716
Si Si3 0.688181 0.636778 0.910355
Si Si4 0.502829 0.352575 0.402957
Si Si5 0.045159 0.149734 0.718441
Si Si6 0.142496 0.400396 0.536245
Si Si7 0.017317 0.388038 0.105786
Si Si8 0.271623 0.108805 0.271673
O O1 0.896207 0.143195 0.743150
O O2 0.882351 0.872257 0.886832
O O3 0.729934 0.026045 0.773377
O O4 0.508134 0.308341 0.960898
O O5 0.466119 0.572370 0.374165
O O6 0.510232 0.681929 0.477581
O O7 0.770378 0.561081 0.237548
O O8 0.361863 0.960806 0.346940
O O9 0.872118 0.372223 0.828008
O O10 0.813998 0.644314 0.915415
O O11 0.602812 0.837954 0.840360
O O12 0.347162 0.353039 0.432955
O O13 0.753494 0.115515 0.289958
O O14 0.165862 0.201190 0.599012
O O15 0.000000 0.500000 0.500000
O O16 0.979866 0.623620 0.642953
O O17 0.000000 0.500000 0.000000
#
# Coordination Sequence:
#
# PCOD9073917 Si02
#       8
#     2   2   2   2   2   2   2   2
#     4  11  21  40  64  94 124 168 218 261 314 371
#     4  11  22  39  67  97 125 163 216 265 311 371
#     4  10  22  40  63  92 130 166 210 266 318 377
#     4  11  24  41  63  93 130 167 209 263 318 379
#     4  11  23  41  63  89 130 168 207 265 321 377
#     4  11  25  42  62  93 127 169 207 258 325 381
#     4  11  21  40  67  95 125 166 216 261 318 379
#     4  10  22  39  66  92 123 166 215 259 311 381
#
# _framework density 21.064219999999999
#
# number of rings (size 3 to 8) (size 9 to 14) (size 15 to 20)
#    0.000    1.250    1.250    6.750    3.500    1.500 
#    0.000    0.625    0.000    0.000    0.000    0.000 
#    0.000    0.000    0.000    0.000    0.000    0.000 
#
# Total GULP energy -89263.337263 kJ/mol
# GULP energy per Si atom -5578.958579 kJ/mol
# Density = 2.101628 g / cm^3
# Si number density = 21.064220 Si / 1000 Ang^3
#
#
#
# Elastic Constant Matrix: (Units=GPa)
#
#
# Indices 1 2 3 4 5 6 
#
# 1 82.6350 8.1100 12.8272 7.4249 -22.9974 5.6897
# 2 8.1100 71.2673 23.9825 -1.3484 5.3665 3.1726
# 3 12.8272 23.9825 50.3721 7.3983 -10.4082 -0.4821
# 4 7.4249 -1.3484 7.3983 34.3402 -5.8770 5.8405
# 5 -22.9974 5.3665 -10.4082 -5.8770 39.8877 -4.0213
# 6 5.6897 3.1726 -0.4821 5.8405 -4.0213 24.4702
#
#
#
# Elastic Compliance Matrix: (Units=1/GPa)
#
#
# Indices 1 2 3 4 5 6 
#
# 1 0.014985 -0.001958 -0.000978 -0.001425 0.008282 -0.001548
# 2 -0.001958 0.018284 -0.009935 0.002878 -0.006141 -0.003807
# 3 -0.000978 -0.009935 0.027246 -0.005544 0.007530 0.004613
# 4 -0.001425 0.002878 -0.005544 0.032262 0.001328 -0.007633
# 5 0.008282 -0.006141 0.007530 0.001328 0.033252 0.004166
# 6 -0.001548 -0.003807 0.004613 -0.007633 0.004166 0.044317
#
#
# Mechanical properties :
#
#
# Convention : Reuss Voigt Hill
#
# Bulk Modulus (GPa) = 28.75735 32.67931 30.71833
# Shear Modulus (GPa) = 24.07587 30.36329 27.21958
#
# Velocity S-wave (km/s) = 3.38446 3.80078 3.59864
# Velocity P-wave (km/s) = 5.38095 5.89992 5.64640
#
# Compressibility (1/GPa) = 0.03477372
#
# Stress axis : x y z
#
# Youngs Moduli (GPa) = 66.73417 54.69281 36.70310
#
# Poissons Ratio (x) = 0.10707 0.03590
# Poissons Ratio (y) = 0.13065 0.36463
# Poissons Ratio (z) = 0.06527 0.54335
#
# Static dielectric constant tensor:
#      x y z
#    x 1.758070 -0.011340 0.011360 
#    y -0.011340 1.793900 0.020150 
#    z 0.011360 0.020150 1.824550 
# 
# From -- ./inp_files/190080.got.cif
#   From: 2010.05.17/outbox.ucp.g08.bks.cvg/sg2_96_cif.got.tgz:190080.got - 2010.06.11 11:32:03.
