data_PCOD9073549
_publ_section_title
;
Structure prediction by ZEFSAII (Michael W. Deem and Ramdas Pophale) SiO2 
 PCOD9073549
Probable space group: P -1
;
_chemical_formula_sum "Si O2"
_cell_formula_units_Z 14
_cell_length_a 9.000000
_cell_length_b 9.000000
_cell_length_c 9.000000
_cell_angle_alpha 110.000000
_cell_angle_beta 80.000000
_cell_angle_gamma 110.000000
_cell_volume 642.396152
_symmetry_space_group_name_H-M "P -1"
_symmetry_group_IT_number 2
_symmetry_cell_setting 'triclinic'
loop_
_space_group_symop_operation_xyz
x,y,z
-x,-y,-z
loop_
_atom_site_type_symbol
_atom_site_label
_atom_site_fract_x
_atom_site_fract_y
_atom_site_fract_z
Si Si1 0.267624 0.560972 0.866231
Si Si2 0.171851 0.883644 0.381304
Si Si3 0.408960 0.371179 0.284993
Si Si4 0.814196 0.746055 0.437220
Si Si5 0.419676 0.690055 0.203917
Si Si6 0.085850 0.815388 0.027136
Si Si7 0.252982 0.147566 0.961566
O O1 0.416419 0.651655 0.763501
O O2 0.212199 0.377868 0.741595
O O3 0.338726 0.590449 0.032655
O O4 0.129577 0.647730 0.927407
O O5 0.312215 0.797849 0.326748
O O6 0.134648 0.879630 0.208700
O O7 0.002724 0.783537 0.451755
O O8 0.209713 0.070397 0.504505
O O9 0.311434 0.343904 0.444730
O O10 0.429417 0.552836 0.274545
O O11 0.309143 0.239633 0.138741
O O12 0.594953 0.798615 0.155427
O O13 0.903418 0.803953 0.037200
O O14 0.189771 0.952386 0.941551
#
# Coordination Sequence:
#
# PCOD9073549 Si02
#       7
#     2   2   2   2   2   2   2
#     4  10  23  41  69  94 124 169 217 260 314 376
#     4  10  24  43  67  92 126 180 204 259 320 381
#     4  11  23  42  64  98 128 171 201 275 310 380
#     4  11  24  43  65  91 137 164 214 255 322 386
#     4  10  24  42  69  95 124 167 221 260 314 366
#     4  10  22  40  70  97 120 173 215 263 313 369
#     4  10  21  40  67  97 130 155 221 271 306 372
#
# _framework density 21.793406000000001
#
# number of rings (size 3 to 8) (size 9 to 14) (size 15 to 20)
#    0.000    1.714    1.429    2.143    8.000    3.429 
#    0.000    0.714    0.000    0.000    0.000    0.000 
#    0.000    0.000    0.000    0.000    0.000    0.000 
#
# Total GULP energy -78244.829027 kJ/mol
# GULP energy per Si atom -5588.916359 kJ/mol
# Density = 2.174380 g / cm^3
# Si number density = 21.793406 Si / 1000 Ang^3
#
#
#
# Elastic Constant Matrix: (Units=GPa)
#
#
# Indices 1 2 3 4 5 6 
#
# 1 114.6813 49.2788 19.5426 14.6720 -27.9891 -6.2627
# 2 49.2788 102.3691 56.0273 8.9199 -23.2022 23.4696
# 3 19.5426 56.0273 86.1973 22.6630 -25.3853 -10.7561
# 4 14.6720 8.9199 22.6630 50.5699 5.3778 -18.4254
# 5 -27.9891 -23.2022 -25.3853 5.3778 40.8877 6.4351
# 6 -6.2627 23.4696 -10.7561 -18.4254 6.4351 28.0406
#
#
#
# Elastic Compliance Matrix: (Units=1/GPa)
#
#
# Indices 1 2 3 4 5 6 
#
# 1 0.018814 -0.024911 0.016056 0.003309 0.003135 0.032666
# 2 -0.024911 0.086120 -0.049604 -0.033818 0.025087 -0.124652
# 3 0.016056 -0.049604 0.046577 0.008116 -0.000060 0.068318
# 4 0.003309 -0.033818 0.008116 0.050680 -0.029936 0.072329
# 5 0.003135 0.025087 -0.000060 -0.029936 0.052945 -0.052142
# 6 0.032666 -0.124652 0.068318 0.072329 -0.052142 0.232990
#
#
# Mechanical properties :
#
#
# Convention : Reuss Voigt Hill
#
# Bulk Modulus (GPa) = 28.90866 61.43836 45.17351
# Shear Modulus (GPa) = 8.10931 35.79289 21.95110
#
# Velocity S-wave (km/s) = 1.93108 4.05702 3.17714
# Velocity P-wave (km/s) = 4.27385 7.08508 5.85081
#
# Compressibility (1/GPa) = 0.03459171
#
# Stress axis : x y z
#
# Youngs Moduli (GPa) = 53.15281 11.61169 21.46984
#
# Poissons Ratio (x) = 0.28926 -0.34472
# Poissons Ratio (y) = 1.32409 1.06500
# Poissons Ratio (z) = -0.85342 0.57599
#
# Static dielectric constant tensor:
#      x y z
#    x 1.818410 0.020210 0.044100 
#    y 0.020210 1.839050 -0.010730 
#    z 0.044100 -0.010730 1.764510 
# 
# From -- ./inp_files/159654.got.cif
#   From: 2010.05.17/outbox.ucp.g08.bks.cvg/sg2_80_cif.got.tgz:159654.got - 2010.06.11 11:32:03.
