data_PCOD9073187
_publ_section_title
;
Structure prediction by ZEFSAII (Michael W. Deem and Ramdas Pophale) SiO2 
 PCOD9073187
Probable space group: P -1
;
_chemical_formula_sum "Si O2"
_cell_formula_units_Z 16
_cell_length_a 8.928472
_cell_length_b 27.871509
_cell_length_c 7.885851
_cell_angle_alpha 37.075171
_cell_angle_beta 110.061502
_cell_angle_gamma 136.209673
_cell_volume 679.226104
_symmetry_space_group_name_H-M "P -1"
_symmetry_group_IT_number 2
_symmetry_cell_setting 'triclinic'
loop_
_space_group_symop_operation_xyz
x,y,z
-x,-y,-z
loop_
_atom_site_type_symbol
_atom_site_label
_atom_site_fract_x
_atom_site_fract_y
_atom_site_fract_z
Si Si1 0.849924 0.785139 0.886435
Si Si2 0.320832 0.923069 0.481841
Si Si3 0.810640 0.115154 0.953043
Si Si4 0.880676 0.965747 0.317471
Si Si5 0.604592 0.801770 0.327484
Si Si6 0.515926 0.589207 0.032160
Si Si7 0.999601 0.305378 0.206715
Si Si8 0.956495 0.389223 0.277381
O O1 0.601718 0.646062 0.096608
O O2 0.062445 0.870119 0.574778
O O3 0.818287 0.865029 0.693292
O O4 0.991361 0.796603 0.061643
O O5 0.201165 0.790099 0.756130
O O6 0.500000 0.000000 0.500000
O O7 0.521290 0.032980 0.108948
O O8 0.934032 0.204871 0.586859
O O9 0.777993 0.008209 0.225326
O O10 0.731996 0.886014 0.310831
O O11 0.186189 0.098651 0.017628
O O12 0.564565 0.690658 0.656925
O O13 0.322856 0.732565 0.398916
O O14 0.706941 0.594956 0.024187
O O15 0.212117 0.450816 0.284454
O O16 0.953176 0.360577 0.159131
O O17 0.000000 0.500000 0.000000
#
# Coordination Sequence:
#
# PCOD9073187 Si02
#       8
#     2   2   2   2   2   2   2   2
#     4   9  20  34  53  76 114 150 175 220 275 329
#     4   9  20  35  52  82 119 145 169 215 279 338
#     4  11  20  32  51  85 112 141 182 221 274 332
#     4  10  18  31  53  80 116 140 176 220 277 331
#     4   9  18  31  52  84 106 142 178 228 272 324
#     4   9  18  37  53  77 106 144 188 226 270 317
#     4  11  20  33  57  84 107 143 186 228 269 325
#     4  10  21  35  56  81 106 141 193 233 272 315
#
# _framework density 23.556221000000001
#
# number of rings (size 3 to 8) (size 9 to 14) (size 15 to 20)
#    0.000    2.250    1.250    1.875    3.500    0.000 
#    0.000    0.625    0.000    0.750    3.250    0.000 
#    0.000    0.000    0.000    0.000    0.000    0.000 
#
# Total GULP energy -89356.966851 kJ/mol
# GULP energy per Si atom -5584.810428 kJ/mol
# Density = 2.350261 g / cm^3
# Si number density = 23.556221 Si / 1000 Ang^3
#
#
#
# Elastic Constant Matrix: (Units=GPa)
#
#
# Indices 1 2 3 4 5 6 
#
# 1 103.1906 33.1482 38.2009 -26.4087 -4.9962 -11.5459
# 2 33.1482 112.2148 22.1641 -18.7202 -9.3588 3.9433
# 3 38.2009 22.1641 49.1405 -17.1892 -5.2942 9.4253
# 4 -26.4087 -18.7202 -17.1892 27.7063 0.1039 -3.2884
# 5 -4.9962 -9.3588 -5.2942 0.1039 46.4906 -22.8722
# 6 -11.5459 3.9433 9.4253 -3.2884 -22.8722 33.0080
#
#
#
# Elastic Compliance Matrix: (Units=1/GPa)
#
#
# Indices 1 2 3 4 5 6 
#
# 1 0.021539 -0.001168 -0.014375 0.013192 0.010399 0.020299
# 2 -0.001168 0.010642 -0.002136 0.004857 0.002237 0.000964
# 3 -0.014375 -0.002136 0.037569 0.005790 -0.007665 -0.020235
# 4 0.013192 0.004857 0.005790 0.057324 0.010481 0.015354
# 5 0.010399 0.002237 -0.007665 0.010481 0.038583 0.033338
# 6 0.020299 0.000964 -0.020235 0.015354 0.033338 0.067690
#
#
# Mechanical properties :
#
#
# Convention : Reuss Voigt Hill
#
# Bulk Modulus (GPa) = 29.07864 50.17470 39.62667
# Shear Modulus (GPa) = 17.84637 32.84316 25.34477
#
# Velocity S-wave (km/s) = 2.75545 3.73801 3.28369
# Velocity P-wave (km/s) = 4.74284 6.32270 5.58887
#
# Compressibility (1/GPa) = 0.03438950
#
# Stress axis : x y z
#
# Youngs Moduli (GPa) = 46.42814 93.97149 26.61769
#
# Poissons Ratio (x) = 0.10980 0.38263
# Poissons Ratio (y) = 0.05425 0.05686
# Poissons Ratio (z) = 0.66741 0.20075
#
# Static dielectric constant tensor:
#      x y z
#    x 1.931580 -0.018710 0.018540 
#    y -0.018710 1.943190 -0.030400 
#    z 0.018540 -0.030400 1.888040 
# 
# From -- ./inp_files/218084.got.cif
#   From: 2010.05.17/outbox.cif.g08.bks.cpg/sg2_110_cif.got.tgz:218084.got - 2010.06.03 11:33:40.
