data_PCOD9073409
_publ_section_title
;
Structure prediction by ZEFSAII (Michael W. Deem and Ramdas Pophale) SiO2 
 PCOD9073409
Probable space group: P -1
;
_chemical_formula_sum "Si O2"
_cell_formula_units_Z 14
_cell_length_a 12.000000
_cell_length_b 15.000000
_cell_length_c 15.000000
_cell_angle_alpha 150.000000
_cell_angle_beta 30.000000
_cell_angle_gamma 150.000000
_cell_volume 597.902827
_symmetry_space_group_name_H-M "P -1"
_symmetry_group_IT_number 2
_symmetry_cell_setting 'triclinic'
loop_
_space_group_symop_operation_xyz
x,y,z
-x,-y,-z
loop_
_atom_site_type_symbol
_atom_site_label
_atom_site_fract_x
_atom_site_fract_y
_atom_site_fract_z
Si Si1 0.757682 0.866427 0.992072
Si Si2 0.242996 0.873774 0.939937
Si Si3 0.571540 0.203582 0.677952
Si Si4 0.070699 0.340163 0.863140
Si Si5 0.550171 0.655883 0.522316
Si Si6 0.122368 0.550103 0.605982
Si Si7 0.527515 0.421113 0.744887
O O1 0.521226 0.835790 0.190611
O O2 0.738844 0.940651 0.969782
O O3 0.736627 0.647354 0.811106
O O4 0.000000 0.000000 0.000000
O O5 0.490667 0.840483 0.742042
O O6 0.074695 0.693566 0.831258
O O7 0.138343 0.824538 0.070075
O O8 0.439409 0.309609 0.802959
O O9 0.865725 0.355405 0.599406
O O10 0.500000 0.000000 0.500000
O O11 0.182877 0.264270 0.640086
O O12 0.304276 0.426422 0.846965
O O13 0.000000 0.500000 0.000000
O O14 0.500000 0.500000 0.500000
O O15 0.326035 0.510644 0.485108
O O16 0.308059 0.669523 0.499170
#
# Coordination Sequence:
#
# PCOD9073409 Si02
#       7
#     2   2   2   2   2   2   2
#     4  12  24  39  59  91 129 161 211 257 306 375
#     4  10  21  39  63  92 127 160 209 249 313 366
#     4  12  23  38  63  88 123 167 207 254 317 369
#     4  11  20  38  69  90 122 168 206 255 313 363
#     4   9  19  37  67  94 123 163 207 253 310 370
#     4   9  20  38  61  88 125 155 206 252 309 362
#     4  11  23  39  61  91 124 164 209 255 313 368
#
# _framework density 23.415175999999999
#
# number of rings (size 3 to 8) (size 9 to 14) (size 15 to 20)
#    0.857    0.571    1.429    5.143    0.000    0.000 
#    0.000    0.714    3.143    1.714    0.000    0.000 
#    0.000    0.000    0.000    0.000    0.000    0.000 
#
# Total GULP energy -77972.359433 kJ/mol
# GULP energy per Si atom -5569.454245 kJ/mol
# Density = 2.336188 g / cm^3
# Si number density = 23.415176 Si / 1000 Ang^3
#
#
#
# Elastic Constant Matrix: (Units=GPa)
#
#
# Indices 1 2 3 4 5 6 
#
# 1 96.1658 40.3392 26.4457 -3.2555 -10.0602 -37.1281
# 2 40.3392 74.0249 45.3777 -6.5216 -2.8936 -29.3967
# 3 26.4457 45.3777 95.5969 -30.5468 -2.3626 -19.0791
# 4 -3.2555 -6.5216 -30.5468 43.2482 -7.2975 4.1132
# 5 -10.0602 -2.8936 -2.3626 -7.2975 33.7654 -4.0581
# 6 -37.1281 -29.3967 -19.0791 4.1132 -4.0581 57.4610
#
#
#
# Elastic Compliance Matrix: (Units=1/GPa)
#
#
# Indices 1 2 3 4 5 6 
#
# 1 0.016442 -0.005428 -0.000022 0.000559 0.005537 0.008191
# 2 -0.005428 0.024985 -0.010732 -0.004888 -0.000560 0.006021
# 3 -0.000022 -0.010732 0.019850 0.012920 0.003302 0.000395
# 4 0.000559 -0.004888 0.012920 0.032834 0.007790 0.000350
# 5 0.005537 -0.000560 0.003302 0.007790 0.033881 0.006223
# 6 0.008191 0.006021 0.000395 0.000350 0.006223 0.026322
#
#
# Mechanical properties :
#
#
# Convention : Reuss Voigt Hill
#
# Bulk Modulus (GPa) = 34.58717 54.45696 44.52207
# Shear Modulus (GPa) = 25.46943 37.13659 31.30301
#
# Velocity S-wave (km/s) = 3.30166 3.98679 3.66029
# Velocity P-wave (km/s) = 5.41645 6.67085 6.07611
#
# Compressibility (1/GPa) = 0.02891245
#
# Stress axis : x y z
#
# Youngs Moduli (GPa) = 60.81877 40.02467 50.37899
#
# Poissons Ratio (x) = 0.21727 0.00109
# Poissons Ratio (y) = 0.33015 0.54067
# Poissons Ratio (z) = 0.00131 0.42955
#
# Static dielectric constant tensor:
#      x y z
#    x 1.645550 0.027890 -0.046120 
#    y 0.027890 1.911270 -0.023950 
#    z -0.046120 -0.023950 1.981030 
# 
# From -- ./inp_files/521841.got.cif
#   From: 2010.05.17/outbox.ucp.g08.bks.cvg/sg2_261_cif.got.tgz:521841.got - 2010.06.11 11:32:03.
