data_PCOD9073299
_publ_section_title
;
Structure prediction by ZEFSAII (Michael W. Deem and Ramdas Pophale) SiO2 
 PCOD9073299
Probable space group: P -1
;
_chemical_formula_sum "Si O2"
_cell_formula_units_Z 14
_cell_length_a 9.000000
_cell_length_b 18.000000
_cell_length_c 21.000000
_cell_angle_alpha 160.000000
_cell_angle_beta 40.000000
_cell_angle_gamma 130.000000
_cell_volume 700.468056
_symmetry_space_group_name_H-M "P -1"
_symmetry_group_IT_number 2
_symmetry_cell_setting 'triclinic'
loop_
_space_group_symop_operation_xyz
x,y,z
-x,-y,-z
loop_
_atom_site_type_symbol
_atom_site_label
_atom_site_fract_x
_atom_site_fract_y
_atom_site_fract_z
Si Si1 0.545382 0.250957 0.125091
Si Si2 0.573548 0.990817 0.283286
Si Si3 0.918897 0.395416 0.207847
Si Si4 0.602827 0.422381 0.687752
Si Si5 0.918732 0.775660 0.422244
Si Si6 0.239543 0.727118 0.159740
Si Si7 0.805408 0.705296 0.607590
O O1 0.747644 0.314770 0.151587
O O2 0.485256 0.402290 0.202414
O O3 0.306994 0.305578 0.294141
O O4 0.662773 0.973557 0.849802
O O5 0.425820 0.821743 0.214912
O O6 0.589757 0.169888 0.474770
O O7 0.378806 0.156624 0.430497
O O8 0.837177 0.829453 0.040388
O O9 0.772702 0.521210 0.419513
O O10 0.003350 0.589037 0.299532
O O11 0.897111 0.367032 0.551352
O O12 0.418330 0.542121 0.903310
O O13 0.060759 0.672756 0.226266
O O14 0.926205 0.037341 0.634382
#
# Coordination Sequence:
#
# PCOD9073299 Si02
#       7
#     2   2   2   2   2   2   2
#     4  11  24  40  61  88 116 153 198 241 290 345
#     4  10  21  38  59  86 123 149 198 232 288 347
#     4  12  21  41  62  85 121 155 189 244 290 340
#     4  12  21  41  62  85 121 155 189 244 290 340
#     4   9  20  41  59  86 120 154 191 238 287 347
#     4   9  20  41  59  86 120 154 191 238 287 347
#     4  11  24  40  61  88 116 153 198 241 290 345
#
# _framework density 19.986636000000001
#
# number of rings (size 3 to 8) (size 9 to 14) (size 15 to 20)
#    0.857    0.571    4.286    1.714    0.000    1.143 
#    0.000    1.429    0.000    0.000    0.000    0.000 
#    0.000    0.000    0.000    0.000    0.000    0.000 
#
# Total GULP energy -77977.315110 kJ/mol
# GULP energy per Si atom -5569.808222 kJ/mol
# Density = 1.994115 g / cm^3
# Si number density = 19.986636 Si / 1000 Ang^3
#
#
#
# Elastic Constant Matrix: (Units=GPa)
#
#
# Indices 1 2 3 4 5 6 
#
# 1 59.6780 17.5898 42.6222 -8.7336 -4.0154 4.4940
# 2 17.5898 57.0009 49.4493 -14.8769 2.7060 -12.1693
# 3 42.6222 49.4493 187.1415 -31.6910 11.1256 -8.8608
# 4 -8.7336 -14.8769 -31.6910 29.7487 2.8369 5.5664
# 5 -4.0154 2.7060 11.1256 2.8369 32.9440 -1.2375
# 6 4.4940 -12.1693 -8.8608 5.5664 -1.2375 21.6977
#
#
#
# Elastic Compliance Matrix: (Units=1/GPa)
#
#
# Indices 1 2 3 4 5 6 
#
# 1 0.022447 -0.005172 -0.004308 0.000747 0.004203 -0.009261
# 2 -0.005172 0.027176 -0.004460 0.004986 -0.001292 0.013139
# 3 -0.004308 -0.004460 0.008772 0.006163 -0.003645 0.000184
# 4 0.000747 0.004986 0.006163 0.044767 -0.006506 -0.006697
# 5 0.004203 -0.001292 -0.003645 -0.006506 0.032781 0.000455
# 6 -0.009261 0.013139 0.000184 -0.006697 0.000455 0.057194
#
#
# Mechanical properties :
#
#
# Convention : Reuss Voigt Hill
#
# Bulk Modulus (GPa) = 32.76859 58.12700 45.44780
# Shear Modulus (GPa) = 21.62739 29.82201 25.72470
#
# Velocity S-wave (km/s) = 3.29309 3.86696 3.59150
# Velocity P-wave (km/s) = 5.55788 7.00599 6.32353
#
# Compressibility (1/GPa) = 0.03051702
#
# Stress axis : x y z
#
# Youngs Moduli (GPa) = 44.54942 36.79699 113.99653
#
# Poissons Ratio (x) = 0.19030 0.49108
# Poissons Ratio (y) = 0.23039 0.50840
# Poissons Ratio (z) = 0.19191 0.16411
#
# Static dielectric constant tensor:
#      x y z
#    x 1.768140 0.051690 0.011210 
#    y 0.051690 1.705330 0.016090 
#    z 0.011210 0.016090 1.698950 
# 
# From -- ./inp_files/591012.got.cif
#   From: 2010.05.17/outbox.ucp.g08.bks.cvg/sg2_296_cif.got.tgz:591012.got - 2010.06.11 11:32:03.
