data_PCOD9073634
_publ_section_title
;
Structure prediction by ZEFSAII (Michael W. Deem and Ramdas Pophale) SiO2 
 PCOD9073634
Probable space group: P -1
;
_chemical_formula_sum "Si O2"
_cell_formula_units_Z 16
_cell_length_a 20.372248
_cell_length_b 18.840468
_cell_length_c 5.467900
_cell_angle_alpha 73.127799
_cell_angle_beta 89.995952
_cell_angle_gamma 28.021171
_cell_volume 775.408247
_symmetry_space_group_name_H-M "P -1"
_symmetry_group_IT_number 2
_symmetry_cell_setting 'triclinic'
loop_
_space_group_symop_operation_xyz
x,y,z
-x,-y,-z
loop_
_atom_site_type_symbol
_atom_site_label
_atom_site_fract_x
_atom_site_fract_y
_atom_site_fract_z
Si Si1 0.879550 0.895507 0.604745
Si Si2 0.111423 0.151371 0.848370
Si Si3 0.765782 0.567911 0.931693
Si Si4 0.749487 0.847342 0.152922
Si Si5 0.077689 0.837636 0.662524
Si Si6 0.797976 0.355620 0.644229
Si Si7 0.415032 0.293620 0.706756
Si Si8 0.797931 0.709041 0.791193
O O1 0.791026 0.968938 0.279772
O O2 0.933666 0.924024 0.576154
O O3 0.791042 0.968942 0.782917
O O4 0.047002 0.666281 0.834005
O O5 0.087294 0.266036 0.733697
O O6 0.947333 0.265845 0.733906
O O7 0.676887 0.634936 0.615942
O O8 0.754459 0.668149 0.832088
O O9 0.676496 0.635050 0.112696
O O10 0.743105 0.806429 0.442270
O O11 0.743236 0.806279 0.945582
O O12 0.591742 0.067207 0.933006
O O13 0.176695 0.717091 0.531055
O O14 0.176534 0.717306 0.034987
O O15 0.000000 0.000000 0.500000
O O16 0.617359 0.584635 0.415511
O O17 0.000000 0.500000 0.000000
#
# Coordination Sequence:
#
# PCOD9073634 Si02
#       8
#     2   2   2   2   2   2   2   2
#     4  10  18  34  58  83 103 151 189 213 288 333
#     4  10  18  35  58  76 109 144 187 236 260 333
#     4  12  21  39  59  75 114 155 185 232 286 346
#     4  12  26  40  56  90 111 143 205 241 281 328
#     4  10  18  31  55  92 118 134 181 239 272 328
#     4  10  19  35  58  84 110 157 183 214 297 332
#     4  12  23  38  61  81 115 151 192 231 285 345
#     4  12  27  40  60  82 112 151 194 247 293 320
#
# _framework density 20.634291999999999
#
# number of rings (size 3 to 8) (size 9 to 14) (size 15 to 20)
#    0.000    1.000    5.000    4.500    0.000    3.000 
#    0.000    0.000    0.000    0.000    0.000   21.000 
#    0.000    0.000    0.000    0.000    0.000    0.000 
#
# Total GULP energy -89264.892688 kJ/mol
# GULP energy per Si atom -5579.055793 kJ/mol
# Density = 2.058733 g / cm^3
# Si number density = 20.634292 Si / 1000 Ang^3
#
#
#
# Elastic Constant Matrix: (Units=GPa)
#
#
# Indices 1 2 3 4 5 6 
#
# 1 68.3289 46.0426 46.7462 5.1035 -29.6958 32.1056
# 2 46.0426 153.4265 98.7982 23.6064 -17.2390 32.5082
# 3 46.7462 98.7982 160.2470 27.8462 -31.2552 18.7565
# 4 5.1035 23.6064 27.8462 57.0651 2.9961 -2.3538
# 5 -29.6958 -17.2390 -31.2552 2.9961 31.7108 -4.9255
# 6 32.1056 32.5082 18.7565 -2.3538 -4.9255 32.4206
#
#
#
# Elastic Compliance Matrix: (Units=1/GPa)
#
#
# Indices 1 2 3 4 5 6 
#
# 1 0.066541 0.000525 -0.000313 -0.011289 0.054220 -0.058823
# 2 0.000525 0.013188 -0.006692 -0.002640 -0.000255 -0.010102
# 3 -0.000313 -0.006692 0.012859 -0.003934 0.009223 0.000697
# 4 -0.011289 -0.002640 -0.003934 0.023002 -0.015666 0.015392
# 5 0.054220 -0.000255 0.009223 -0.015666 0.085452 -0.046928
# 6 -0.058823 -0.010102 0.000697 0.015392 -0.046928 0.092810
#
#
# Mechanical properties :
#
#
# Convention : Reuss Voigt Hill
#
# Bulk Modulus (GPa) = 12.55849 85.01957 48.78903
# Shear Modulus (GPa) = 14.99904 36.93366 25.96635
#
# Velocity S-wave (km/s) = 2.69903 4.23533 3.55125
# Velocity P-wave (km/s) = 3.97649 8.07526 6.36484
#
# Compressibility (1/GPa) = 0.07962742
#
# Stress axis : x y z
#
# Youngs Moduli (GPa) = 15.02824 75.82806 77.76909
#
# Poissons Ratio (x) = -0.03982 0.02433
# Poissons Ratio (y) = -0.00789 0.52047
# Poissons Ratio (z) = 0.00470 0.50748
#
# Static dielectric constant tensor:
#      x y z
#    x 1.709920 -0.084030 0.079220 
#    y -0.084030 1.729140 0.075620 
#    z 0.079220 0.075620 1.738370 
# 
# From -- ./inp_files/116022.got.cif
#   From: 2010.05.17/outbox.cif.g08.bks.cpg/sg2_59_cif.got.tgz:116022.got - 2010.06.03 11:33:40.
