data_PCOD9073265
_publ_section_title
;
Structure prediction by ZEFSAII (Michael W. Deem and Ramdas Pophale) SiO2 
 PCOD9073265
Probable space group: P -1
;
_chemical_formula_sum "Si O2"
_cell_formula_units_Z 16
_cell_length_a 9.000000
_cell_length_b 21.000000
_cell_length_c 15.000000
_cell_angle_alpha 20.000000
_cell_angle_beta 110.000000
_cell_angle_gamma 120.000000
_cell_volume 757.501203
_symmetry_space_group_name_H-M "P -1"
_symmetry_group_IT_number 2
_symmetry_cell_setting 'triclinic'
loop_
_space_group_symop_operation_xyz
x,y,z
-x,-y,-z
loop_
_atom_site_type_symbol
_atom_site_label
_atom_site_fract_x
_atom_site_fract_y
_atom_site_fract_z
Si Si1 0.297698 0.265702 0.282310
Si Si2 0.123363 0.822486 0.716927
Si Si3 0.759008 0.700228 0.384698
Si Si4 0.647753 0.708918 0.162190
Si Si5 0.042100 0.569972 0.669895
Si Si6 0.086824 0.408591 0.706869
Si Si7 0.816091 0.873568 0.361804
Si Si8 0.822184 0.144541 0.518189
O O1 0.302134 0.207762 0.463900
O O2 0.096691 0.248773 0.248660
O O3 0.257138 0.069381 0.463003
O O4 0.500000 0.500000 0.000000
O O5 0.195694 0.811988 0.646334
O O6 0.107925 0.651530 0.012745
O O7 0.756473 0.812944 0.142464
O O8 0.575739 0.449931 0.661742
O O9 0.938574 0.683020 0.458155
O O10 0.733438 0.793704 0.349982
O O11 0.727292 0.564369 0.332868
O O12 0.691618 0.888469 0.859215
O O13 0.119100 0.509491 0.679780
O O14 0.191982 0.719569 0.582012
O O15 0.000000 0.500000 0.500000
O O16 0.937290 0.141701 0.034975
O O17 0.964886 0.800135 0.500433
#
# Coordination Sequence:
#
# PCOD9073265 Si02
#       8
#     2   2   2   2   2   2   2   2
#     4  10  21  37  62  92 126 168 202 253 317 366
#     4  10  21  40  60  90 128 159 211 254 302 379
#     4  10  22  39  60  83 126 156 199 250 308 367
#     4  10  22  40  58  88 117 162 200 248 305 376
#     4  11  21  39  61  89 119 157 199 261 301 357
#     4  11  21  36  62  88 115 155 205 249 304 360
#     4   9  20  37  58  87 117 160 202 242 302 382
#     4   9  21  37  62  82 117 163 201 240 309 365
#
# _framework density 21.122078999999999
#
# number of rings (size 3 to 8) (size 9 to 14) (size 15 to 20)
#    0.000    2.000    2.500    0.375    5.250    1.500 
#    2.250    2.500    0.000    0.000    0.000    0.000 
#    0.000    0.000    0.000    0.000    0.000    0.000 
#
# Total GULP energy -89243.198082 kJ/mol
# GULP energy per Si atom -5577.699880 kJ/mol
# Density = 2.107400 g / cm^3
# Si number density = 21.122079 Si / 1000 Ang^3
#
#
#
# Elastic Constant Matrix: (Units=GPa)
#
#
# Indices 1 2 3 4 5 6 
#
# 1 31.6906 37.5822 22.9129 -6.8028 -11.5264 -19.1941
# 2 37.5822 135.4127 20.9050 -1.3934 -3.4619 -45.6028
# 3 22.9129 20.9050 61.3607 -2.7620 -9.4721 -2.4809
# 4 -6.8028 -1.3934 -2.7620 37.5951 -7.2790 -6.3914
# 5 -11.5264 -3.4619 -9.4721 -7.2790 24.3122 -1.3897
# 6 -19.1941 -45.6028 -2.4809 -6.3914 -1.3897 37.1537
#
#
#
# Elastic Compliance Matrix: (Units=1/GPa)
#
#
# Indices 1 2 3 4 5 6 
#
# 1 0.162883 -0.007937 -0.039407 0.056648 0.082536 0.084607
# 2 -0.007937 0.014376 -0.001525 0.001058 -0.001217 0.013580
# 3 -0.039407 -0.001525 0.028140 -0.011448 -0.012667 -0.022795
# 4 0.056648 0.001058 -0.011448 0.050588 0.039979 0.039997
# 5 0.082536 -0.001217 -0.012667 0.039979 0.090012 0.050543
# 6 0.084607 0.013580 -0.022795 0.039997 0.050543 0.094541
#
#
# Mechanical properties :
#
#
# Convention : Reuss Voigt Hill
#
# Bulk Modulus (GPa) = 9.28848 43.47379 26.38113
# Shear Modulus (GPa) = 8.70830 29.61647 19.16238
#
# Velocity S-wave (km/s) = 2.03268 3.74860 3.01528
# Velocity P-wave (km/s) = 3.14899 6.27398 4.96382
#
# Compressibility (1/GPa) = 0.10766021
#
# Stress axis : x y z
#
# Youngs Moduli (GPa) = 6.13937 69.56030 35.53708
#
# Poissons Ratio (x) = 0.55208 1.40042
# Poissons Ratio (y) = 0.04873 0.05421
# Poissons Ratio (z) = 0.24194 0.10610
#
# Static dielectric constant tensor:
#      x y z
#    x 1.774360 -0.021940 0.022200 
#    y -0.021940 1.765110 -0.009550 
#    z 0.022200 -0.009550 1.810090 
# 
# From -- ./inp_files/270400.got.cif
#   From: 2010.05.17/outbox.ucp.g08.bks.cvg/sg2_136_cif.got.tgz:270400.got - 2010.06.11 11:32:03.
