data_PCOD9073904
_publ_section_title
;
Structure prediction by ZEFSAII (Michael W. Deem and Ramdas Pophale) SiO2 
 PCOD9073904
Probable space group: P -1
;
_chemical_formula_sum "Si O2"
_cell_formula_units_Z 16
_cell_length_a 6.877752
_cell_length_b 12.693146
_cell_length_c 7.955315
_cell_angle_alpha 109.374394
_cell_angle_beta 74.028578
_cell_angle_gamma 109.138103
_cell_volume 608.077960
_symmetry_space_group_name_H-M "P -1"
_symmetry_group_IT_number 2
_symmetry_cell_setting 'triclinic'
loop_
_space_group_symop_operation_xyz
x,y,z
-x,-y,-z
loop_
_atom_site_type_symbol
_atom_site_label
_atom_site_fract_x
_atom_site_fract_y
_atom_site_fract_z
Si Si1 0.218089 0.451022 0.855874
Si Si2 0.799915 0.938113 0.858312
Si Si3 0.063987 0.205416 0.642429
Si Si4 0.721504 0.367836 0.351405
Si Si5 0.339235 0.893106 0.789379
Si Si6 0.781742 0.007240 0.443177
Si Si7 0.711966 0.465812 0.759494
Si Si8 0.757079 0.697068 0.697193
O O1 0.086750 0.316159 0.814873
O O2 0.186035 0.522416 0.734100
O O3 0.458992 0.441363 0.802004
O O4 0.213463 0.531287 0.063601
O O5 0.574455 0.919458 0.813915
O O6 0.776434 0.809648 0.866629
O O7 0.996864 0.964747 0.701998
O O8 0.800326 0.039559 0.039194
O O9 0.233607 0.128403 0.590802
O O10 0.106859 0.264296 0.480388
O O11 0.843779 0.107182 0.625348
O O12 0.761339 0.243040 0.245721
O O13 0.759227 0.392145 0.553208
O O14 0.475455 0.346483 0.349412
O O15 0.365181 0.950086 0.629298
O O16 0.801846 0.595887 0.740429
#
# Coordination Sequence:
#
# PCOD9073904 Si02
#       8
#     2   2   2   2   2   2   2   2
#     4  10  19  33  59  92 127 166 215 266 312 379
#     4   9  20  38  61  93 122 166 218 264 312 371
#     4  10  19  37  58  87 127 164 212 267 311 373
#     4  10  18  36  57  89 132 160 207 269 312 378
#     4  10  21  39  63  93 127 173 209 260 327 380
#     4  10  22  38  62  90 126 170 213 261 316 379
#     4  10  18  31  59  96 119 169 216 256 323 377
#     4   9  16  33  59  85 123 163 208 264 314 371
#
# _framework density 26.312415000000001
#
# number of rings (size 3 to 8) (size 9 to 14) (size 15 to 20)
#    0.000    2.250    2.500    1.125    1.750    0.000 
#    2.250   14.375    0.000    1.500    0.000    0.000 
#    0.000    0.000    0.000    0.000    0.000    0.000 
#
# Total GULP energy -89413.256306 kJ/mol
# GULP energy per Si atom -5588.328519 kJ/mol
# Density = 2.625253 g / cm^3
# Si number density = 26.312415 Si / 1000 Ang^3
#
#
#
# Elastic Constant Matrix: (Units=GPa)
#
#
# Indices 1 2 3 4 5 6 
#
# 1 53.3809 21.1377 13.3267 13.7333 13.0259 -9.5294
# 2 21.1377 156.6467 52.9346 37.0590 13.8719 -13.2619
# 3 13.3267 52.9346 129.8838 40.0269 15.7007 -3.2962
# 4 13.7333 37.0590 40.0269 44.8809 2.7377 -0.8579
# 5 13.0259 13.8719 15.7007 2.7377 43.6987 -7.5276
# 6 -9.5294 -13.2619 -3.2962 -0.8579 -7.5276 44.4754
#
#
#
# Elastic Compliance Matrix: (Units=1/GPa)
#
#
# Indices 1 2 3 4 5 6 
#
# 1 0.022595 -0.001015 0.000854 -0.006422 -0.005713 0.003511
# 2 -0.001015 0.008562 -0.001577 -0.005243 -0.001190 0.001916
# 3 0.000854 -0.001577 0.011403 -0.008930 -0.003322 -0.000177
# 4 -0.006422 -0.005243 -0.008930 0.036246 0.004137 -0.002202
# 5 -0.005713 -0.001190 -0.003322 0.004137 0.026367 0.002717
# 6 0.003511 0.001916 -0.000177 -0.002202 0.002717 0.024212
#
#
# Mechanical properties :
#
#
# Convention : Reuss Voigt Hill
#
# Bulk Modulus (GPa) = 25.58573 57.18994 41.38784
# Shear Modulus (GPa) = 34.27263 43.44517 38.85890
#
# Velocity S-wave (km/s) = 3.61297 4.06782 3.84712
# Velocity P-wave (km/s) = 5.21053 6.62155 5.95796
#
# Compressibility (1/GPa) = 0.03908428
#
# Stress axis : x y z
#
# Youngs Moduli (GPa) = 44.25757 116.79925 87.69376
#
# Poissons Ratio (x) = 0.11857 -0.07490
# Poissons Ratio (y) = 0.04493 0.13828
# Poissons Ratio (z) = -0.03780 0.18417
#
# Static dielectric constant tensor:
#      x y z
#    x 2.221560 0.009730 0.012570 
#    y 0.009730 2.044260 -0.000420 
#    z 0.012570 -0.000420 2.148480 
# 
# From -- ./inp_files/189251.got.cif
#   From: 2010.05.17/outbox.cif.g08.bks.cpg/sg2_95_cif.got.tgz:189251.got - 2010.06.03 11:33:40.
