data_PCOD9073593
_publ_section_title
;
Structure prediction by ZEFSAII (Michael W. Deem and Ramdas Pophale) SiO2 
 PCOD9073593
Probable space group: P -1
;
_chemical_formula_sum "Si O2"
_cell_formula_units_Z 16
_cell_length_a 15.000000
_cell_length_b 9.000000
_cell_length_c 15.000000
_cell_angle_alpha 130.000000
_cell_angle_beta 40.000000
_cell_angle_gamma 100.000000
_cell_volume 759.999475
_symmetry_space_group_name_H-M "P -1"
_symmetry_group_IT_number 2
_symmetry_cell_setting 'triclinic'
loop_
_space_group_symop_operation_xyz
x,y,z
-x,-y,-z
loop_
_atom_site_type_symbol
_atom_site_label
_atom_site_fract_x
_atom_site_fract_y
_atom_site_fract_z
Si Si1 0.679724 0.129699 0.602560
Si Si2 0.238431 0.100794 0.975488
Si Si3 0.144622 0.643460 0.364991
Si Si4 0.268590 0.453868 0.993101
Si Si5 0.623811 0.794659 0.636276
Si Si6 0.820557 0.249450 0.183883
Si Si7 0.962473 0.316612 0.924453
Si Si8 0.137076 0.400884 0.452119
O O1 0.757162 0.244505 0.641491
O O2 0.676611 0.937648 0.592262
O O3 0.480001 0.329701 0.787797
O O4 0.838441 0.955144 0.342850
O O5 0.257188 0.232555 0.929591
O O6 0.041920 0.322500 0.259675
O O7 0.405703 0.985542 0.869968
O O8 0.279664 0.856185 0.806913
O O9 0.192477 0.582634 0.199340
O O10 0.197954 0.453210 0.334780
O O11 0.934009 0.756841 0.569016
O O12 0.150075 0.605223 0.053199
O O13 0.716800 0.512940 0.418387
O O14 0.704887 0.743462 0.652445
O O15 0.864944 0.300468 0.073862
O O16 0.000000 0.000000 0.000000
O O17 0.000000 0.500000 0.000000
#
# Coordination Sequence:
#
# PCOD9073593 Si02
#       8
#     2   2   2   2   2   2   2   2
#     4  11  23  43  67  98 132 171 214 266 323 378
#     4  10  21  41  64  94 131 168 214 265 317 381
#     4  10  22  42  70  94 132 172 213 267 320 379
#     4  10  24  45  66  95 136 167 213 270 316 385
#     4  11  23  40  63  94 131 170 215 264 319 384
#     4  12  23  42  66  91 128 173 215 266 324 379
#     4  12  25  43  65  96 129 170 217 262 324 384
#     4  10  21  42  64  95 131 168 213 263 319 379
#
# _framework density 21.052645999999999
#
# number of rings (size 3 to 8) (size 9 to 14) (size 15 to 20)
#    0.000    1.250    2.500    3.750    0.000    3.500 
#    2.250   11.250    0.000    0.000    0.000    0.000 
#    0.000    0.000    0.000    0.000    0.000    0.000 
#
# Total GULP energy -89150.404103 kJ/mol
# GULP energy per Si atom -5571.900256 kJ/mol
# Density = 2.100473 g / cm^3
# Si number density = 21.052646 Si / 1000 Ang^3
#
#
#
# Elastic Constant Matrix: (Units=GPa)
#
#
# Indices 1 2 3 4 5 6 
#
# 1 109.8846 30.5134 20.5381 -6.4744 -11.3168 -5.6532
# 2 30.5134 68.7462 8.3806 4.4038 1.3677 14.5877
# 3 20.5381 8.3806 54.7236 0.7385 -10.6063 -6.1293
# 4 -6.4744 4.4038 0.7385 12.2894 -6.9853 2.5493
# 5 -11.3168 1.3677 -10.6063 -6.9853 30.4029 10.7011
# 6 -5.6532 14.5877 -6.1293 2.5493 10.7011 56.4162
#
#
#
# Elastic Compliance Matrix: (Units=1/GPa)
#
#
# Indices 1 2 3 4 5 6 
#
# 1 0.012938 -0.006576 -0.002591 0.013102 0.006934 0.000808
# 2 -0.006576 0.019517 -0.001869 -0.012467 -0.005316 -0.004337
# 3 -0.002591 -0.001869 0.020869 0.001361 0.006277 0.001239
# 4 0.013102 -0.012467 0.001361 0.113723 0.034505 -0.006999
# 5 0.006934 -0.005316 0.006277 0.034505 0.048658 -0.008037
# 6 0.000808 -0.004337 0.001239 -0.006999 -0.008037 0.020903
#
#
# Mechanical properties :
#
#
# Convention : Reuss Voigt Hill
#
# Bulk Modulus (GPa) = 31.99637 39.13540 35.56588
# Shear Modulus (GPa) = 18.58055 31.41653 24.99854
#
# Velocity S-wave (km/s) = 2.97404 3.86720 3.44965
# Velocity P-wave (km/s) = 5.19851 6.21047 5.72689
#
# Compressibility (1/GPa) = 0.03125355
#
# Stress axis : x y z
#
# Youngs Moduli (GPa) = 77.28974 51.23640 47.91730
#
# Poissons Ratio (x) = 0.33691 0.12417
# Poissons Ratio (y) = 0.50822 0.08955
# Poissons Ratio (z) = 0.20028 0.09576
#
# Static dielectric constant tensor:
#      x y z
#    x 1.800840 0.052300 0.024820 
#    y 0.052300 1.805700 0.037350 
#    z 0.024820 0.037350 1.797700 
# 
# From -- ./inp_files/530134.got.cif
#   From: 2010.05.17/outbox.ucp.g08.bks.cvg/sg2_266_cif.got.tgz:530134.got - 2010.06.11 11:32:03.
