data_PCOD9073668
_publ_section_title
;
Structure prediction by ZEFSAII (Michael W. Deem and Ramdas Pophale) SiO2 
 PCOD9073668
Probable space group: P -1
;
_chemical_formula_sum "Si O2"
_cell_formula_units_Z 14
_cell_length_a 6.415155
_cell_length_b 19.713988
_cell_length_c 14.231036
_cell_angle_alpha 18.109163
_cell_angle_beta 80.519938
_cell_angle_gamma 79.951603
_cell_volume 550.836288
_symmetry_space_group_name_H-M "P -1"
_symmetry_group_IT_number 2
_symmetry_cell_setting 'triclinic'
loop_
_space_group_symop_operation_xyz
x,y,z
-x,-y,-z
loop_
_atom_site_type_symbol
_atom_site_label
_atom_site_fract_x
_atom_site_fract_y
_atom_site_fract_z
Si Si1 0.037395 0.564129 0.742852
Si Si2 0.322623 0.173574 0.690248
Si Si3 0.679249 0.358867 0.729147
Si Si4 0.352934 0.677039 0.837339
Si Si5 0.541736 0.627542 0.091484
Si Si6 0.094388 0.216118 0.826258
Si Si7 0.300827 0.935110 0.328905
O O1 0.205325 0.404119 0.886199
O O2 0.176184 0.720320 0.589799
O O3 0.890229 0.721846 0.480286
O O4 0.872067 0.425326 0.994122
O O5 0.463427 0.380448 0.431204
O O6 0.240250 0.081308 0.916886
O O7 0.479200 0.059983 0.751361
O O8 0.500000 0.500000 0.500000
O O9 0.570802 0.260511 0.957581
O O10 0.836754 0.539381 0.516771
O O11 0.841318 0.212722 0.844622
O O12 0.328547 0.893954 0.491171
O O13 0.500000 0.500000 0.000000
O O14 0.457088 0.710187 0.887794
O O15 0.159339 0.133842 0.033539
#
# Coordination Sequence:
#
# PCOD9073668 Si02
#       7
#     2   2   2   2   2   2   2
#     4  10  18  31  56  80 113 142 177 211 276 323
#     4   9  18  33  52  82 114 140 173 222 275 328
#     4  10  21  41  60  76 103 147 193 227 269 316
#     4  11  19  35  54  84 116 145 173 215 271 334
#     4   9  19  33  56  81 106 142 187 221 263 321
#     4  10  22  37  56  79 111 143 183 231 272 312
#     4  11  21  32  53  86 115 144 175 220 272 329
#
# _framework density 25.415901000000002
#
# number of rings (size 3 to 8) (size 9 to 14) (size 15 to 20)
#    0.000    2.000    4.286    1.714    0.000    2.857 
#    0.000    0.714    0.000    1.714    0.000    0.000 
#    0.000    0.000    0.000    0.000    0.000    0.000 
#
# Total GULP energy -78299.731118 kJ/mol
# GULP energy per Si atom -5592.837937 kJ/mol
# Density = 2.535805 g / cm^3
# Si number density = 25.415901 Si / 1000 Ang^3
#
#
#
# Elastic Constant Matrix: (Units=GPa)
#
#
# Indices 1 2 3 4 5 6 
#
# 1 178.3053 51.9789 54.4345 29.0927 -10.9129 -39.8611
# 2 51.9789 140.4731 37.6562 28.2582 6.9589 -19.1483
# 3 54.4345 37.6562 136.6664 41.3437 6.8393 -12.2629
# 4 29.0927 28.2582 41.3437 48.4507 5.9547 -5.8468
# 5 -10.9129 6.9589 6.8393 5.9547 44.6634 3.2719
# 6 -39.8611 -19.1483 -12.2629 -5.8468 3.2719 38.1896
#
#
#
# Elastic Compliance Matrix: (Units=1/GPa)
#
#
# Indices 1 2 3 4 5 6 
#
# 1 0.008725 -0.001406 -0.001882 -0.002234 0.002406 0.007250
# 2 -0.001406 0.008867 -0.000579 -0.003378 -0.001361 0.002393
# 3 -0.001882 -0.000579 0.010513 -0.007371 -0.001003 0.000079
# 4 -0.002234 -0.003378 -0.007371 0.030409 -0.002836 -0.001494
# 5 0.002406 -0.001361 -0.001003 -0.002836 0.023792 -0.000966
# 6 0.007250 0.002393 0.000079 -0.001494 -0.000966 0.034831
#
#
# Mechanical properties :
#
#
# Convention : Reuss Voigt Hill
#
# Bulk Modulus (GPa) = 49.08474 82.62043 65.85259
# Shear Modulus (GPa) = 37.97632 47.01908 42.49770
#
# Velocity S-wave (km/s) = 3.86968 4.30581 4.09356
# Velocity P-wave (km/s) = 6.27060 7.56954 6.95048
#
# Compressibility (1/GPa) = 0.02037293
#
# Stress axis : x y z
#
# Youngs Moduli (GPa) = 114.61102 112.77665 95.11919
#
# Poissons Ratio (x) = 0.15851 0.17901
# Poissons Ratio (y) = 0.16109 0.05505
# Poissons Ratio (z) = 0.21569 0.06527
#
# Static dielectric constant tensor:
#      x y z
#    x 2.006730 0.037490 -0.015940 
#    y 0.037490 2.145360 -0.077660 
#    z -0.015940 -0.077660 2.007150 
# 
# From -- ./inp_files/64540.got.cif
#   From: 2010.05.17/outbox.cif.g08.bks.cpg/sg2_33_cif.got.tgz:64540.got - 2010.06.03 11:33:40.
