data_PCOD9073843
_publ_section_title
;
Structure prediction by ZEFSAII (Michael W. Deem and Ramdas Pophale) SiO2 
 PCOD9073843
Probable space group: P -1
;
_chemical_formula_sum "Si O2"
_cell_formula_units_Z 10
_cell_length_a 14.172978
_cell_length_b 8.343696
_cell_length_c 14.382147
_cell_angle_alpha 40.284104
_cell_angle_beta 20.032994
_cell_angle_gamma 40.331442
_cell_volume 368.628628
_symmetry_space_group_name_H-M "P -1"
_symmetry_group_IT_number 2
_symmetry_cell_setting 'triclinic'
loop_
_space_group_symop_operation_xyz
x,y,z
-x,-y,-z
loop_
_atom_site_type_symbol
_atom_site_label
_atom_site_fract_x
_atom_site_fract_y
_atom_site_fract_z
Si Si1 0.444891 0.467931 0.227006
Si Si2 0.931188 0.746130 0.217535
Si Si3 0.784841 0.067256 0.873945
Si Si4 0.251321 0.350375 0.773094
Si Si5 0.256181 0.870997 0.383552
O O1 0.304628 0.232573 0.493193
O O2 0.278036 0.632346 0.224300
O O3 0.382347 0.631816 0.307231
O O4 0.780618 0.409007 0.935750
O O5 0.838296 0.628736 0.259944
O O6 0.000000 0.000000 0.000000
O O7 0.085557 0.926322 0.615737
O O8 0.731595 0.939464 0.078270
O O9 0.525364 0.994167 0.090432
O O10 0.500000 0.500000 0.500000
O O11 0.000000 0.500000 0.000000
O O12 0.000000 0.000000 0.500000
#
# Coordination Sequence:
#
# PCOD9073843 Si02
#       5
#     2   2   2   2   2
#     4  11  21  39  63  87 121 170 212 249 301 378
#     4  12  26  44  63  90 128 171 209 253 315 377
#     4  11  21  35  59  93 123 157 205 257 305 361
#     4  12  25  41  64  96 130 160 201 262 318 362
#     4  10  18  31  57  92 123 150 195 255 308 358
#
# _framework density 27.127571
#
# number of rings (size 3 to 8) (size 9 to 14) (size 15 to 20)
#    0.000    0.800    0.000   12.600    0.000    0.000 
#    0.000    2.000    0.000    0.000    0.000    0.000 
#    0.000    0.000    0.000    0.000    0.000    0.000 
#
# Total GULP energy -55825.984700 kJ/mol
# GULP energy per Si atom -5582.598470 kJ/mol
# Density = 2.706583 g / cm^3
# Si number density = 27.127571 Si / 1000 Ang^3
#
#
#
# Elastic Constant Matrix: (Units=GPa)
#
#
# Indices 1 2 3 4 5 6 
#
# 1 101.6040 45.2270 51.7145 1.6221 13.8072 -16.0567
# 2 45.2270 41.1242 16.1406 -2.2491 5.7054 -13.5245
# 3 51.7145 16.1406 189.7371 12.8437 8.2262 -2.2968
# 4 1.6221 -2.2491 12.8437 43.2901 -15.7681 10.1498
# 5 13.8072 5.7054 8.2262 -15.7681 48.4377 -7.8479
# 6 -16.0567 -13.5245 -2.2968 10.1498 -7.8479 47.3119
#
#
#
# Elastic Compliance Matrix: (Units=1/GPa)
#
#
# Indices 1 2 3 4 5 6 
#
# 1 0.022591 -0.022629 -0.003892 -0.002452 -0.003764 0.000911
# 2 -0.022629 0.050587 0.001718 0.002107 0.001978 0.006740
# 3 -0.003892 0.001718 0.006346 -0.001889 -0.000827 -0.000254
# 4 -0.002452 0.002107 -0.001889 0.028362 0.009214 -0.004878
# 5 -0.003764 0.001978 -0.000827 0.009214 0.024851 0.001393
# 6 0.000911 0.006740 -0.000254 -0.004878 0.001393 0.024637
#
#
# Mechanical properties :
#
#
# Convention : Reuss Voigt Hill
#
# Bulk Modulus (GPa) = 33.42691 62.06992 47.74842
# Shear Modulus (GPa) = 23.04657 42.43348 32.74002
#
# Velocity S-wave (km/s) = 2.91789 3.95931 3.47780
# Velocity P-wave (km/s) = 4.86836 6.62057 5.81089
#
# Compressibility (1/GPa) = 0.02991601
#
# Stress axis : x y z
#
# Youngs Moduli (GPa) = 44.26618 19.76799 157.58427
#
# Poissons Ratio (x) = 0.44733 0.61333
# Poissons Ratio (y) = 1.00171 -0.27068
# Poissons Ratio (z) = 0.17229 -0.03396
#
# Static dielectric constant tensor:
#      x y z
#    x 2.163690 0.011170 0.052640 
#    y 0.011170 2.358460 -0.144380 
#    z 0.052640 -0.144380 2.006650 
# 
# From -- ./inp_files/433610.got.cif
#   From: 2010.05.17/outbox.cif.g08.bks.cpg/sg2_217_cif.got.tgz:433610.got - 2010.06.03 11:33:40.
