data_PCOD9073838
_publ_section_title
;
Structure prediction by ZEFSAII (Michael W. Deem and Ramdas Pophale) SiO2 
 PCOD9073838
Probable space group: P -1
;
_chemical_formula_sum "Si O2"
_cell_formula_units_Z 16
_cell_length_a 8.659880
_cell_length_b 9.860747
_cell_length_c 14.841277
_cell_angle_alpha 144.008112
_cell_angle_beta 81.908097
_cell_angle_gamma 88.871858
_cell_volume 717.666511
_symmetry_space_group_name_H-M "P -1"
_symmetry_group_IT_number 2
_symmetry_cell_setting 'triclinic'
loop_
_space_group_symop_operation_xyz
x,y,z
-x,-y,-z
loop_
_atom_site_type_symbol
_atom_site_label
_atom_site_fract_x
_atom_site_fract_y
_atom_site_fract_z
Si Si1 0.038155 0.869568 0.832437
Si Si2 0.749503 0.333095 0.583527
Si Si3 0.671778 0.870525 0.380146
Si Si4 0.321001 0.851984 0.173644
Si Si5 0.019368 0.692639 0.027620
Si Si6 0.178460 0.337054 0.377388
Si Si7 0.923541 0.574386 0.313348
Si Si8 0.528639 0.459792 0.841307
O O1 0.136725 0.607955 0.712431
O O2 0.870264 0.819359 0.784265
O O3 0.092687 0.047523 0.853128
O O4 0.000000 0.000000 0.000000
O O5 0.723263 0.487168 0.578194
O O6 0.620906 0.443441 0.730499
O O7 0.924135 0.347104 0.615072
O O8 0.740986 0.062104 0.422885
O O9 0.785834 0.793785 0.414108
O O10 0.630510 0.646404 0.213289
O O11 0.500000 0.000000 0.500000
O O12 0.168705 0.779463 0.103445
O O13 0.360432 0.718041 0.193359
O O14 0.273445 0.138269 0.330605
O O15 0.471996 0.721429 0.028876
O O16 0.033639 0.556178 0.857089
O O17 0.000000 0.500000 0.000000
O O18 0.000000 0.500000 0.500000
#
# Coordination Sequence:
#
# PCOD9073838 Si02
#       8
#     2   2   2   2   2   2   2   2
#     4   8  18  34  55  85 119 153 192 248 305 361
#     4  10  22  38  63  90 120 160 216 247 308 375
#     4  10  21  36  58  87 122 159 203 251 302 365
#     4  10  21  39  62  84 131 164 198 258 316 363
#     4  10  18  31  57  91 118 146 197 252 299 356
#     4  10  22  39  61  92 126 160 204 265 315 362
#     4  10  18  35  58  85 118 152 203 247 298 356
#     4  10  21  40  62  89 122 166 210 249 309 376
#
# _framework density 22.294478000000002
#
# number of rings (size 3 to 8) (size 9 to 14) (size 15 to 20)
#    0.000    2.250    1.250    1.125    0.000    7.500 
#    0.000    0.625   11.000    0.000    0.000    0.000 
#    0.000    0.000    0.000    0.000    0.000    0.000 
#
# Total GULP energy -89089.499069 kJ/mol
# GULP energy per Si atom -5568.093692 kJ/mol
# Density = 2.224373 g / cm^3
# Si number density = 22.294478 Si / 1000 Ang^3
#
#
#
# Elastic Constant Matrix: (Units=GPa)
#
#
# Indices 1 2 3 4 5 6 
#
# 1 50.2703 27.6001 19.6543 16.7727 6.0245 3.7098
# 2 27.6001 177.5078 49.2853 38.0529 -20.2891 16.9173
# 3 19.6543 49.2853 67.8877 20.0801 -10.6950 9.5138
# 4 16.7727 38.0529 20.0801 46.5679 -8.7153 2.9887
# 5 6.0245 -20.2891 -10.6950 -8.7153 30.5090 -0.6841
# 6 3.7098 16.9173 9.5138 2.9887 -0.6841 19.6561
#
#
#
# Elastic Compliance Matrix: (Units=1/GPa)
#
#
# Indices 1 2 3 4 5 6 
#
# 1 0.027235 -0.002326 -0.005777 -0.007520 -0.011089 0.000415
# 2 -0.002326 0.008574 -0.003166 -0.003778 0.003866 -0.004699
# 3 -0.005777 -0.003166 0.021305 -0.003118 0.005482 -0.005831
# 4 -0.007520 -0.003778 -0.003118 0.029692 0.006404 0.001889
# 5 -0.011089 0.003866 0.005482 0.006404 0.041212 -0.003428
# 6 0.000415 -0.004699 -0.005831 0.001889 -0.003428 0.057257
#
#
# Mechanical properties :
#
#
# Convention : Reuss Voigt Hill
#
# Bulk Modulus (GPa) = 28.92204 54.30501 41.61353
# Shear Modulus (GPa) = 22.79586 32.62168 27.70877
#
# Velocity S-wave (km/s) = 3.20111 3.82935 3.52924
# Velocity P-wave (km/s) = 5.16369 6.63045 5.94250
#
# Compressibility (1/GPa) = 0.03457570
#
# Stress axis : x y z
#
# Youngs Moduli (GPa) = 36.71692 116.63291 46.93821
#
# Poissons Ratio (x) = 0.27123 0.27118
# Poissons Ratio (y) = 0.08539 0.14861
# Poissons Ratio (z) = 0.21213 0.36927
#
# Static dielectric constant tensor:
#      x y z
#    x 1.826320 -0.011370 -0.007010 
#    y -0.011370 1.895690 0.024380 
#    z -0.007010 0.024380 1.972430 
# 
# From -- ./inp_files/495817.got.cif
#   From: 2010.05.17/outbox.cif.g08.bks.cpg/sg2_248_cif.got.tgz:495817.got - 2010.06.03 11:33:40.
