data_PCOD9073478
_publ_section_title
;
Structure prediction by ZEFSAII (Michael W. Deem and Ramdas Pophale) SiO2 
 PCOD9073478
Probable space group: P -1
;
_chemical_formula_sum "Si O2"
_cell_formula_units_Z 14
_cell_length_a 9.000000
_cell_length_b 12.000000
_cell_length_c 12.000000
_cell_angle_alpha 110.000000
_cell_angle_beta 120.000000
_cell_angle_gamma 40.000000
_cell_volume 719.485186
_symmetry_space_group_name_H-M "P -1"
_symmetry_group_IT_number 2
_symmetry_cell_setting 'triclinic'
loop_
_space_group_symop_operation_xyz
x,y,z
-x,-y,-z
loop_
_atom_site_type_symbol
_atom_site_label
_atom_site_fract_x
_atom_site_fract_y
_atom_site_fract_z
Si Si1 0.297255 0.168095 0.215997
Si Si2 0.573421 0.638085 0.041246
Si Si3 0.953102 0.330926 0.925122
Si Si4 0.714894 0.555224 0.609541
Si Si5 0.236292 0.221523 0.761497
Si Si6 0.522799 0.453530 0.674968
Si Si7 0.172129 0.688436 0.815018
O O1 0.280691 0.314360 0.295017
O O2 0.122205 0.181237 0.238631
O O3 0.583547 0.980062 0.260980
O O4 0.158366 0.213008 0.060161
O O5 0.586982 0.754092 0.148759
O O6 0.695085 0.480309 0.116492
O O7 0.297627 0.742713 0.931621
O O8 0.761973 0.528939 0.967878
O O9 0.103843 0.278712 0.851781
O O10 0.752289 0.330398 0.809386
O O11 0.598380 0.523423 0.645573
O O12 0.553649 0.616893 0.457560
O O13 0.005926 0.365661 0.641250
O O14 0.278544 0.614402 0.707519
#
# Coordination Sequence:
#
# PCOD9073478 Si02
#       7
#     2   2   2   2   2   2   2
#     4  11  22  35  59  87 113 141 189 229 277 327
#     4   9  17  32  58  81 112 145 183 228 279 321
#     4   9  18  35  57  86 106 143 187 229 270 323
#     4  10  21  40  59  83 108 151 186 228 273 332
#     4  11  20  34  59  85 115 144 183 233 275 327
#     4   9  20  37  64  76 112 153 183 223 286 321
#     4   9  18  34  56  83 110 147 183 226 276 332
#
# _framework density 19.458358
#
# number of rings (size 3 to 8) (size 9 to 14) (size 15 to 20)
#    0.000    2.286    2.857    1.714    4.000    1.143 
#    0.000    7.143    3.143    0.000    0.000    0.000 
#    0.000    0.000    0.000    0.000    0.000    0.000 
#
# Total GULP energy -77950.149867 kJ/mol
# GULP energy per Si atom -5567.867848 kJ/mol
# Density = 1.941407 g / cm^3
# Si number density = 19.458358 Si / 1000 Ang^3
#
#
#
# Elastic Constant Matrix: (Units=GPa)
#
#
# Indices 1 2 3 4 5 6 
#
# 1 56.3251 12.3158 16.5266 7.5271 19.8278 -15.8275
# 2 12.3158 74.2361 33.7387 -7.7320 18.6232 -5.4128
# 3 16.5266 33.7387 112.1530 4.2171 22.8770 -4.6301
# 4 7.5271 -7.7320 4.2171 9.9770 -0.6658 0.5123
# 5 19.8278 18.6232 22.8770 -0.6658 17.7208 0.2359
# 6 -15.8275 -5.4128 -4.6301 0.5123 0.2359 8.0898
#
#
#
# Elastic Compliance Matrix: (Units=1/GPa)
#
#
# Indices 1 2 3 4 5 6 
#
# 1 -0.060506 -0.014060 -0.017092 0.056634 0.108590 -0.144321
# 2 -0.014060 0.018980 -0.006835 0.029672 0.006000 -0.020774
# 3 -0.017092 -0.006835 0.008582 0.006779 0.015935 -0.033996
# 4 0.056634 0.029672 0.006779 0.063928 -0.102677 0.133482
# 5 0.108590 0.006000 0.015935 -0.102677 -0.098933 0.234976
# 6 -0.144321 -0.020774 -0.033996 0.133482 0.234976 -0.207410
#
#
# Mechanical properties :
#
#
# Convention : Reuss Voigt Hill
#
# Bulk Modulus (GPa) = -9.18129 40.87518 15.84695
# Shear Modulus (GPa) = -21.21425 19.16640 -1.02393
#
# Velocity S-wave (km/s) = -3.30546 3.14187 -0.72619
# Velocity P-wave (km/s) = 4.39281 5.84926 2.73104
#
# Compressibility (1/GPa) = -0.10891721
#
# Stress axis : x y z
#
# Youngs Moduli (GPa) = -16.52740 52.68687 116.51778
#
# Poissons Ratio (x) = 0.74076 1.99155
# Poissons Ratio (y) = -0.23237 0.79642
# Poissons Ratio (z) = -0.28249 0.36013
#
# Static dielectric constant tensor:
#      x y z
#    x 1.767490 -0.011040 0.003790 
#    y -0.011040 1.665650 -0.004010 
#    z 0.003790 -0.004010 1.713520 
# 
# From -- ./inp_files/252728.got.cif
#   From: 2010.05.17/outbox.ucp.g08.bks.cvg/sg2_127_cif.got.tgz:252728.got - 2010.06.11 11:32:03.
