data_PCOD9073911
_publ_section_title
;
Structure prediction by ZEFSAII (Michael W. Deem and Ramdas Pophale) SiO2 
 PCOD9073911
Probable space group: P -1
;
_chemical_formula_sum "Si O2"
_cell_formula_units_Z 14
_cell_length_a 15.000000
_cell_length_b 27.000000
_cell_length_c 27.000000
_cell_angle_alpha 170.000000
_cell_angle_beta 20.000000
_cell_angle_gamma 160.000000
_cell_volume 630.401208
_symmetry_space_group_name_H-M "P -1"
_symmetry_group_IT_number 2
_symmetry_cell_setting 'triclinic'
loop_
_space_group_symop_operation_xyz
x,y,z
-x,-y,-z
loop_
_atom_site_type_symbol
_atom_site_label
_atom_site_fract_x
_atom_site_fract_y
_atom_site_fract_z
Si Si1 0.202181 0.773400 0.722519
Si Si2 0.705829 0.819370 0.571620
Si Si3 0.988825 0.582817 0.029678
Si Si4 0.316731 0.197822 0.315150
Si Si5 0.829219 0.170825 0.318096
Si Si6 0.694038 0.089825 0.535445
Si Si7 0.569436 0.541503 0.126380
O O1 0.438084 0.847349 0.711256
O O2 0.286518 0.883324 0.730778
O O3 0.102369 0.426202 0.424476
O O4 0.946008 0.888045 0.988863
O O5 0.689952 0.840974 0.659982
O O6 0.947641 0.067739 0.666515
O O7 0.773884 0.517218 0.221829
O O8 0.724670 0.457839 0.011048
O O9 0.000000 0.500000 0.000000
O O10 0.500000 0.500000 0.500000
O O11 0.007494 0.203887 0.467707
O O12 0.500000 0.000000 0.000000
O O13 0.651672 0.301902 0.578639
O O14 0.500000 0.000000 0.500000
O O15 0.723517 0.812216 0.279158
O O16 0.562778 0.286729 0.836757
#
# Coordination Sequence:
#
# PCOD9073911 Si02
#       7
#     2   2   2   2   2   2   2
#     4  10  22  40  62  97 141 180 228 276 345 425
#     4  12  24  44  67  98 139 178 233 288 346 423
#     4  12  24  41  71 104 139 180 223 279 357 426
#     4  12  26  47  73  98 138 186 242 302 364 418
#     4  10  22  39  64  96 138 183 223 281 346 429
#     4  12  27  48  72 102 142 186 244 313 363 429
#     4  12  23  45  70 100 141 179 236 291 361 422
#
# _framework density 22.208079000000001
#
# number of rings (size 3 to 8) (size 9 to 14) (size 15 to 20)
#    0.000    0.571    2.857    5.143    0.000    6.857 
#    0.000    0.000    0.000    0.000    0.000    0.000 
#    0.000    0.000    0.000    0.000    0.000    0.000 
#
# Total GULP energy -78012.713382 kJ/mol
# GULP energy per Si atom -5572.336670 kJ/mol
# Density = 2.215753 g / cm^3
# Si number density = 22.208079 Si / 1000 Ang^3
#
#
#
# Elastic Constant Matrix: (Units=GPa)
#
#
# Indices 1 2 3 4 5 6 
#
# 1 155.2828 52.2062 22.5661 -8.7611 24.6911 12.9251
# 2 52.2062 91.1449 28.9841 -9.3326 3.4975 0.8149
# 3 22.5661 28.9841 133.8489 -10.2824 20.9530 -3.2938
# 4 -8.7611 -9.3326 -10.2824 48.0430 -13.3318 -5.8967
# 5 24.6911 3.4975 20.9530 -13.3318 36.5951 -5.7047
# 6 12.9251 0.8149 -3.2938 -5.8967 -5.7047 36.6726
#
#
#
# Elastic Compliance Matrix: (Units=1/GPa)
#
#
# Indices 1 2 3 4 5 6 
#
# 1 0.009793 -0.005634 0.000526 -0.001961 -0.007835 -0.004813
# 2 -0.005634 0.015211 -0.002908 0.003203 0.005612 0.002774
# 3 0.000526 -0.002908 0.008814 -0.000030 -0.005156 -0.000136
# 4 -0.001961 0.003203 -0.000030 0.024936 0.011109 0.006355
# 5 -0.007835 0.005612 -0.005156 0.011109 0.040679 0.010288
# 6 -0.004813 0.002774 -0.000136 0.006355 0.010288 0.031513
#
#
# Mechanical properties :
#
#
# Convention : Reuss Voigt Hill
#
# Bulk Modulus (GPa) = 56.22240 65.30994 60.76617
# Shear Modulus (GPa) = 32.69979 42.69681 37.69830
#
# Velocity S-wave (km/s) = 3.84139 4.38948 4.12455
# Velocity P-wave (km/s) = 6.71164 7.42712 7.07843
#
# Compressibility (1/GPa) = 0.01778650
#
# Stress axis : x y z
#
# Youngs Moduli (GPa) = 102.10964 65.74108 113.46171
#
# Poissons Ratio (x) = 0.37038 -0.05972
# Poissons Ratio (y) = 0.57528 0.32997
# Poissons Ratio (z) = -0.05375 0.19119
#
# Static dielectric constant tensor:
#      x y z
#    x 1.760560 0.022210 -0.005390 
#    y 0.022210 1.884770 0.068740 
#    z -0.005390 0.068740 1.768300 
# 
# From -- ./inp_files/533780.got.cif
#   From: 2010.05.17/outbox.ucp.g08.bks.cvg/sg2_267_cif.got.tgz:533780.got - 2010.06.11 11:32:03.
