data_PCOD9073038
_publ_section_title
;
Structure prediction by ZEFSAII (Michael W. Deem and Ramdas Pophale) SiO2 
 PCOD9073038
Probable space group: P -1
;
_chemical_formula_sum "Si O2"
_cell_formula_units_Z 16
_cell_length_a 18.000000
_cell_length_b 9.000000
_cell_length_c 6.000000
_cell_angle_alpha 100.000000
_cell_angle_beta 50.000000
_cell_angle_gamma 90.000000
_cell_volume 725.212580
_symmetry_space_group_name_H-M "P -1"
_symmetry_group_IT_number 2
_symmetry_cell_setting 'triclinic'
loop_
_space_group_symop_operation_xyz
x,y,z
-x,-y,-z
loop_
_atom_site_type_symbol
_atom_site_label
_atom_site_fract_x
_atom_site_fract_y
_atom_site_fract_z
Si Si1 0.980399 0.333121 0.926605
Si Si2 0.537379 0.384019 0.098509
Si Si3 0.645467 0.608526 0.226137
Si Si4 0.256043 0.114013 0.961051
Si Si5 0.318489 0.851886 0.473960
Si Si6 0.222835 0.638888 0.886195
Si Si7 0.033416 0.188339 0.280683
Si Si8 0.836171 0.101114 0.587536
O O1 0.016869 0.277471 0.584457
O O2 0.864733 0.345746 0.114395
O O3 0.000000 0.500000 0.000000
O O4 0.011989 0.248457 0.079526
O O5 0.615524 0.474537 0.094833
O O6 0.449100 0.355087 0.423364
O O7 0.500000 0.500000 0.000000
O O8 0.593546 0.221664 0.868638
O O9 0.686567 0.746037 0.058910
O O10 0.736905 0.532912 0.178370
O O11 0.326779 0.003070 0.633249
O O12 0.150775 0.150725 0.050482
O O13 0.222622 0.018543 0.207095
O O14 0.308385 0.720072 0.638604
O O15 0.215768 0.882345 0.545512
O O16 0.186916 0.736318 0.199333
O O17 0.953992 0.067002 0.393008
#
# Coordination Sequence:
#
# PCOD9073038 Si02
#       8
#     2   2   2   2   2   2   2   2
#     4  11  23  39  66 103 146 188 242 300 349 409
#     4  11  24  44  76  97 128 176 229 289 366 440
#     4  11  24  44  68 104 134 169 234 297 361 422
#     4  11  27  41  66 103 143 181 231 297 349 415
#     4  11  22  43  69  95 132 180 233 275 357 422
#     4  10  20  40  67  96 130 182 230 286 346 422
#     4  11  24  43  66 103 145 199 243 284 350 424
#     4  10  22  43  66  96 139 189 231 277 341 426
#
# _framework density 22.062495999999999
#
# number of rings (size 3 to 8) (size 9 to 14) (size 15 to 20)
#    0.000    1.250    3.750    1.500    1.750    4.000 
#    0.000    1.250    0.000    0.000    0.000    0.000 
#    0.000    0.000    0.000    0.000    0.000    0.000 
#
# Total GULP energy -89102.085279 kJ/mol
# GULP energy per Si atom -5568.880330 kJ/mol
# Density = 2.201228 g / cm^3
# Si number density = 22.062496 Si / 1000 Ang^3
#
#
#
# Elastic Constant Matrix: (Units=GPa)
#
#
# Indices 1 2 3 4 5 6 
#
# 1 54.8875 25.2082 22.7257 -4.8713 9.6930 -13.1073
# 2 25.2082 87.0181 43.4937 -6.2646 -4.2323 14.2270
# 3 22.7257 43.4937 81.6387 1.3013 1.6201 1.8517
# 4 -4.8713 -6.2646 1.3013 19.2979 -0.6453 -6.3093
# 5 9.6930 -4.2323 1.6201 -0.6453 39.4446 -4.0298
# 6 -13.1073 14.2270 1.8517 -6.3093 -4.0298 22.3284
#
#
#
# Elastic Compliance Matrix: (Units=1/GPa)
#
#
# Indices 1 2 3 4 5 6 
#
# 1 0.036535 -0.013237 -0.004003 0.015941 -0.006547 0.033536
# 2 -0.013237 0.022924 -0.008075 -0.002315 0.003792 -0.021677
# 3 -0.004003 -0.008075 0.017762 -0.004917 -0.000713 -0.000196
# 4 0.015941 -0.002315 -0.004917 0.065127 0.000133 0.029667
# 5 -0.006547 0.003792 -0.000713 0.000133 0.027272 -0.001240
# 6 0.033536 -0.021677 -0.000196 0.029667 -0.001240 0.086460
#
#
# Mechanical properties :
#
#
# Convention : Reuss Voigt Hill
#
# Bulk Modulus (GPa) = 37.60515 45.15551 41.38033
# Shear Modulus (GPa) = 15.84407 25.02197 20.43302
#
# Velocity S-wave (km/s) = 2.68273 3.37135 3.04656
# Velocity P-wave (km/s) = 5.16506 5.97212 5.58319
#
# Compressibility (1/GPa) = 0.02659210
#
# Stress axis : x y z
#
# Youngs Moduli (GPa) = 27.37090 43.62158 56.29846
#
# Poissons Ratio (x) = 0.57741 0.22537
# Poissons Ratio (y) = 0.36230 0.45462
# Poissons Ratio (z) = 0.10957 0.35225
#
# Static dielectric constant tensor:
#      x y z
#    x 1.806640 -0.088640 0.007190 
#    y -0.088640 1.832750 0.072440 
#    z 0.007190 0.072440 1.835960 
# 
# From -- ./inp_files/39907.got.cif
#   From: 2010.05.17/outbox.ucp.g08.bks.cvg/sg2_20_cif.got.tgz:39907.got - 2010.06.11 11:32:03.
