data_PCOD9073629
_publ_section_title
;
Structure prediction by ZEFSAII (Michael W. Deem and Ramdas Pophale) SiO2 
 PCOD9073629
Probable space group: P -1
;
_chemical_formula_sum "Si O2"
_cell_formula_units_Z 16
_cell_length_a 21.000000
_cell_length_b 18.000000
_cell_length_c 12.000000
_cell_angle_alpha 150.000000
_cell_angle_beta 150.000000
_cell_angle_gamma 20.000000
_cell_volume 738.640068
_symmetry_space_group_name_H-M "P -1"
_symmetry_group_IT_number 2
_symmetry_cell_setting 'triclinic'
loop_
_space_group_symop_operation_xyz
x,y,z
-x,-y,-z
loop_
_atom_site_type_symbol
_atom_site_label
_atom_site_fract_x
_atom_site_fract_y
_atom_site_fract_z
Si Si1 0.720230 0.108021 0.823663
Si Si2 0.963018 0.828308 0.156461
Si Si3 0.290188 0.148484 0.055817
Si Si4 0.815653 0.280483 0.439760
Si Si5 0.424443 0.526674 0.088835
Si Si6 0.278318 0.184782 0.671276
Si Si7 0.013273 0.326565 0.660253
Si Si8 0.123704 0.604775 0.876544
O O1 0.713190 0.250788 0.910251
O O2 0.635339 0.039840 0.545483
O O3 0.571797 0.294131 0.936391
O O4 0.927847 0.855068 0.851313
O O5 0.105164 0.693294 0.303520
O O6 0.889066 0.054067 0.296622
O O7 0.775613 0.903736 0.012045
O O8 0.086303 0.659975 0.022367
O O9 0.172708 0.403261 0.242716
O O10 0.524683 0.930403 0.119996
O O11 0.185863 0.196917 0.844175
O O12 0.583743 0.488334 0.343286
O O13 0.925483 0.240179 0.441864
O O14 0.297928 0.540700 0.999124
O O15 0.108632 0.283683 0.630016
O O16 0.190645 0.371566 0.684788
#
# Coordination Sequence:
#
# PCOD9073629 Si02
#       8
#     2   2   2   2   2   2   2   2
#     4  11  27  46  64  96 129 173 226 272 323 376
#     4  10  21  41  67  99 133 168 206 270 329 385
#     4  10  21  43  64  95 139 170 212 262 328 390
#     4  10  21  41  69  96 132 170 210 266 330 381
#     4  11  25  47  70  93 128 176 220 275 321 387
#     4  12  25  40  69 100 127 178 220 263 324 396
#     4  10  22  40  67  97 136 171 208 271 322 389
#     4  12  25  44  68  95 136 170 219 272 325 386
#
# _framework density 21.661429999999999
#
# number of rings (size 3 to 8) (size 9 to 14) (size 15 to 20)
#    0.000    1.250    2.500    2.625    1.750    4.000 
#    2.250    0.000    0.000    0.000    0.000    0.000 
#    0.000    0.000    0.000    0.000    0.000    0.000 
#
# Total GULP energy -89234.715768 kJ/mol
# GULP energy per Si atom -5577.169735 kJ/mol
# Density = 2.161213 g / cm^3
# Si number density = 21.661430 Si / 1000 Ang^3
#
#
#
# Elastic Constant Matrix: (Units=GPa)
#
#
# Indices 1 2 3 4 5 6 
#
# 1 137.6890 33.6579 26.3226 -11.6266 40.2219 6.7336
# 2 33.6579 121.1782 21.2715 -9.2780 19.3913 14.4306
# 3 26.3226 21.2715 24.8349 -3.2862 7.9294 11.3606
# 4 -11.6266 -9.2780 -3.2862 24.8491 6.0842 6.2243
# 5 40.2219 19.3913 7.9294 6.0842 28.8975 3.0816
# 6 6.7336 14.4306 11.3606 6.2243 3.0816 31.4451
#
#
#
# Elastic Compliance Matrix: (Units=1/GPa)
#
#
# Indices 1 2 3 4 5 6 
#
# 1 0.017461 0.002316 -0.009403 0.014634 -0.026173 -0.001737
# 2 0.002316 0.011470 -0.005869 0.008245 -0.010595 -0.004233
# 3 -0.009403 -0.005869 0.065687 0.007302 -0.000356 -0.020435
# 4 0.014634 0.008245 0.007302 0.065525 -0.039714 -0.018634
# 5 -0.026173 -0.010595 -0.000356 -0.039714 0.085530 0.010075
# 6 -0.001737 -0.004233 -0.020435 -0.018634 0.010075 0.044200
#
#
# Mechanical properties :
#
#
# Convention : Reuss Voigt Hill
#
# Bulk Modulus (GPa) = 14.55480 49.57845 32.06662
# Shear Modulus (GPa) = 14.76293 30.53500 22.64897
#
# Velocity S-wave (km/s) = 2.61345 3.75860 3.23707
# Velocity P-wave (km/s) = 3.98003 6.46326 5.36723
#
# Compressibility (1/GPa) = 0.06870584
#
# Stress axis : x y z
#
# Youngs Moduli (GPa) = 57.27200 87.18433 15.22368
#
# Poissons Ratio (x) = -0.20196 0.14315
# Poissons Ratio (y) = -0.13267 0.08935
# Poissons Ratio (z) = 0.53853 0.51171
#
# Static dielectric constant tensor:
#      x y z
#    x 1.753230 0.022200 -0.017590 
#    y 0.022200 1.769080 -0.019060 
#    z -0.017590 -0.019060 1.958940 
# 
# From -- ./inp_files/84290.got.cif
#   From: 2010.05.17/outbox.ucp.g08.bks.cvg/sg2_43_cif.got.tgz:84290.got - 2010.06.11 11:32:03.
