data_PCOD9073283
_publ_section_title
;
Structure prediction by ZEFSAII (Michael W. Deem and Ramdas Pophale) SiO2 
 PCOD9073283
Probable space group: P -1
;
_chemical_formula_sum "Si O2"
_cell_formula_units_Z 16
_cell_length_a 9.000000
_cell_length_b 18.000000
_cell_length_c 12.000000
_cell_angle_alpha 30.000000
_cell_angle_beta 130.000000
_cell_angle_gamma 130.000000
_cell_volume 725.531033
_symmetry_space_group_name_H-M "P -1"
_symmetry_group_IT_number 2
_symmetry_cell_setting 'triclinic'
loop_
_space_group_symop_operation_xyz
x,y,z
-x,-y,-z
loop_
_atom_site_type_symbol
_atom_site_label
_atom_site_fract_x
_atom_site_fract_y
_atom_site_fract_z
Si Si1 0.130268 0.433385 0.559490
Si Si2 0.496228 0.328764 0.963049
Si Si3 0.257636 0.019592 0.358023
Si Si4 0.396617 0.166849 0.464734
Si Si5 0.888239 0.020426 0.301710
Si Si6 0.815536 0.242338 0.520786
Si Si7 0.206841 0.670797 0.088671
Si Si8 0.768942 0.542796 0.993269
O O1 0.311945 0.401445 0.756833
O O2 0.200552 0.553169 0.338474
O O3 0.000000 0.500000 0.500000
O O4 0.014330 0.278011 0.642645
O O5 0.610055 0.317912 0.918298
O O6 0.648161 0.444779 0.963906
O O7 0.404928 0.160533 0.186607
O O8 0.340137 0.044535 0.493898
O O9 0.036570 0.041777 0.243835
O O10 0.214159 0.862846 0.468624
O O11 0.623816 0.173325 0.590072
O O12 0.337798 0.323362 0.192661
O O13 0.282601 0.129650 0.574752
O O14 0.796961 0.165576 0.077589
O O15 0.000000 0.000000 0.500000
O O16 0.785285 0.411882 0.258903
O O17 0.000243 0.622021 0.981427
#
# Coordination Sequence:
#
# PCOD9073283 Si02
#       8
#     2   2   2   2   2   2   2   2
#     4  11  26  46  68  92 136 179 219 268 328 392
#     4  12  25  41  70  94 138 176 219 270 329 386
#     4  11  23  40  65  97 136 165 216 272 333 380
#     4  11  21  39  65  99 136 168 214 273 332 387
#     4  10  21  37  66  96 139 169 208 270 343 380
#     4  11  24  40  68  99 129 170 226 269 326 392
#     4  11  23  44  65 101 130 172 223 273 325 392
#     4  11  23  38  69 101 132 167 223 274 330 385
#
# _framework density 22.052813
#
# number of rings (size 3 to 8) (size 9 to 14) (size 15 to 20)
#    0.000    1.000    3.750    3.750    5.250    2.500 
#    0.000    1.250    0.000    5.250    0.000    0.000 
#    0.000    0.000    0.000    0.000    0.000    0.000 
#
# Total GULP energy -89170.646399 kJ/mol
# GULP energy per Si atom -5573.165400 kJ/mol
# Density = 2.200262 g / cm^3
# Si number density = 22.052813 Si / 1000 Ang^3
#
#
#
# Elastic Constant Matrix: (Units=GPa)
#
#
# Indices 1 2 3 4 5 6 
#
# 1 130.6433 -3.7367 11.8421 -12.6948 -3.1279 -0.7548
# 2 -3.7367 33.0254 14.7178 -11.8180 -5.1482 -19.8293
# 3 11.8421 14.7178 30.8601 -11.1192 2.5421 2.3185
# 4 -12.6948 -11.8180 -11.1192 26.0200 0.1532 9.5391
# 5 -3.1279 -5.1482 2.5421 0.1532 32.8437 -5.1471
# 6 -0.7548 -19.8293 2.3185 9.5391 -5.1471 15.7643
#
#
#
# Elastic Compliance Matrix: (Units=1/GPa)
#
#
# Indices 1 2 3 4 5 6 
#
# 1 0.007798 -0.005092 0.002955 0.006924 -0.002094 -0.011340
# 2 -0.005092 -0.066919 0.061622 0.041502 -0.036385 -0.130474
# 3 0.002955 0.061622 -0.010613 -0.009429 0.025415 0.093218
# 4 0.006924 0.041502 -0.009429 0.045359 0.012470 0.030547
# 5 -0.002094 -0.036385 0.025415 0.012470 0.014294 -0.052484
# 6 -0.011340 -0.130474 0.093218 0.030547 -0.052484 -0.150556
#
#
# Mechanical properties :
#
#
# Convention : Reuss Voigt Hill
#
# Bulk Modulus (GPa) = 20.30968 26.68616 23.49792
# Shear Modulus (GPa) = -18.99721 26.37264 3.68772
#
# Velocity S-wave (km/s) = -2.93822 3.46191 1.29455
# Velocity P-wave (km/s) = 1.51039 5.30161 3.59345
#
# Compressibility (1/GPa) = 0.04923761
#
# Stress axis : x y z
#
# Youngs Moduli (GPa) = 128.23619 -14.94350 -94.22000
#
# Poissons Ratio (x) = -0.07609 0.27846
# Poissons Ratio (y) = 0.65297 5.80606
# Poissons Ratio (z) = -0.37899 0.92085
#
# Static dielectric constant tensor:
#      x y z
#    x 1.907520 0.112280 -0.016780 
#    y 0.112280 1.881100 -0.010600 
#    z -0.016780 -0.010600 1.836620 
# 
# From -- ./inp_files/402744.got.cif
#   From: 2010.05.17/outbox.ucp.g08.bks.cvg/sg2_202_cif.got.tgz:402744.got - 2010.06.11 11:32:03.
