data_PCOD9073220
_publ_section_title
;
Structure prediction by ZEFSAII (Michael W. Deem and Ramdas Pophale) SiO2 
 PCOD9073220
Probable space group: P -1
;
_chemical_formula_sum "Si O2"
_cell_formula_units_Z 16
_cell_length_a 12.000000
_cell_length_b 12.000000
_cell_length_c 12.000000
_cell_angle_alpha 120.000000
_cell_angle_beta 80.000000
_cell_angle_gamma 50.000000
_cell_volume 763.164900
_symmetry_space_group_name_H-M "P -1"
_symmetry_group_IT_number 2
_symmetry_cell_setting 'triclinic'
loop_
_space_group_symop_operation_xyz
x,y,z
-x,-y,-z
loop_
_atom_site_type_symbol
_atom_site_label
_atom_site_fract_x
_atom_site_fract_y
_atom_site_fract_z
Si Si1 0.517182 0.003616 0.188010
Si Si2 0.100399 0.434757 0.570316
Si Si3 0.059431 0.300448 0.933454
Si Si4 0.774707 0.196714 0.033836
Si Si5 0.010332 0.079199 0.719828
Si Si6 0.275226 0.363410 0.197915
Si Si7 0.906747 0.309191 0.177514
Si Si8 0.286293 0.638881 0.299253
O O1 0.339864 0.144987 0.382737
O O2 0.411276 0.185095 0.193159
O O3 0.701029 0.912352 0.163809
O O4 0.589688 0.799664 0.017736
O O5 0.127194 0.559312 0.650490
O O6 0.000000 0.500000 0.500000
O O7 0.930360 0.531676 0.728048
O O8 0.045135 0.197023 0.796608
O O9 0.000000 0.500000 0.000000
O O10 0.915820 0.389616 0.106919
O O11 0.941488 0.079432 0.848674
O O12 0.749875 0.343030 0.193909
O O13 0.544753 0.385312 0.117300
O O14 0.870410 0.983675 0.979022
O O15 0.821615 0.238457 0.741029
O O16 0.213115 0.815383 0.490611
O O17 0.209813 0.573716 0.323584
#
# Coordination Sequence:
#
# PCOD9073220 Si02
#       8
#     2   2   2   2   2   2   2   2
#     4  10  21  36  62  90 123 166 202 248 316 365
#     4  10  22  36  61  95 128 153 201 261 300 365
#     4  11  22  43  65  88 131 165 202 259 312 367
#     4  10  23  42  67  88 128 167 199 260 310 362
#     4  10  25  41  61  96 121 167 214 250 302 373
#     4  10  21  38  61  94 126 159 204 261 304 363
#     4  10  22  43  62  97 126 156 211 257 306 373
#     4  11  23  41  66  89 125 167 209 254 306 373
#
# _framework density 20.965325
#
# number of rings (size 3 to 8) (size 9 to 14) (size 15 to 20)
#    0.000    1.750    1.250    1.875    8.750    0.000 
#    0.000    8.125    0.000    0.000    0.000    0.000 
#    0.000    0.000    0.000    0.000    0.000    0.000 
#
# Total GULP energy -89186.660962 kJ/mol
# GULP energy per Si atom -5574.166310 kJ/mol
# Density = 2.091761 g / cm^3
# Si number density = 20.965325 Si / 1000 Ang^3
#
#
#
# Elastic Constant Matrix: (Units=GPa)
#
#
# Indices 1 2 3 4 5 6 
#
# 1 71.3585 16.1405 56.9520 -2.1780 26.2261 -4.6997
# 2 16.1405 52.3080 15.3476 -4.8437 3.6640 10.1492
# 3 56.9520 15.3476 40.5469 0.3805 22.1949 -4.5056
# 4 -2.1780 -4.8437 0.3805 12.9815 -10.8793 6.0538
# 5 26.2261 3.6640 22.1949 -10.8793 39.2968 6.9434
# 6 -4.6997 10.1492 -4.5056 6.0538 6.9434 34.7503
#
#
#
# Elastic Compliance Matrix: (Units=1/GPa)
#
#
# Indices 1 2 3 4 5 6 
#
# 1 -0.023743 -0.030410 0.084944 -0.091229 -0.062515 0.045068
# 2 -0.030410 0.024606 0.025569 0.019059 0.011230 -0.013548
# 3 0.084944 0.025569 -0.135662 0.085800 0.048036 -0.038114
# 4 -0.091229 0.019059 0.085800 0.130139 0.053780 -0.040197
# 5 -0.062515 0.011230 0.048036 0.053780 0.058577 -0.026580
# 6 0.045068 -0.013548 -0.038114 -0.040197 -0.026580 0.046201
#
#
# Mechanical properties :
#
#
# Convention : Reuss Voigt Hill
#
# Bulk Modulus (GPa) = 39.35997 37.89928 38.62962
# Shear Modulus (GPa) = -96.86522 22.45728 -37.20397
#
# Velocity S-wave (km/s) = -6.80462 3.27641 -4.21711
# Velocity P-wave (km/s) = 6.55153 5.69469 2.29053
#
# Compressibility (1/GPa) = 0.02540653
#
# Stress axis : x y z
#
# Youngs Moduli (GPa) = -42.11809 40.64051 -7.37127
#
# Poissons Ratio (x) = 1.23589 0.62615
# Poissons Ratio (y) = -1.28082 0.18847
# Poissons Ratio (z) = 3.57768 -1.03913
#
# Static dielectric constant tensor:
#      x y z
#    x 1.792900 -0.006870 -0.003240 
#    y -0.006870 1.769610 -0.005230 
#    z -0.003240 -0.005230 1.850210 
# 
# From -- ./inp_files/428720.got.cif
#   From: 2010.05.17/outbox.ucp.g08.bks.cvg/sg2_215_cif.got.tgz:428720.got - 2010.06.11 11:32:03.
