data_PCOD9073195
_publ_section_title
;
Structure prediction by ZEFSAII (Michael W. Deem and Ramdas Pophale) SiO2 
 PCOD9073195
Probable space group: P -1
;
_chemical_formula_sum "Si O2"
_cell_formula_units_Z 14
_cell_length_a 15.000000
_cell_length_b 12.000000
_cell_length_c 9.000000
_cell_angle_alpha 80.000000
_cell_angle_beta 90.000000
_cell_angle_gamma 30.000000
_cell_volume 759.581896
_symmetry_space_group_name_H-M "P -1"
_symmetry_group_IT_number 2
_symmetry_cell_setting 'triclinic'
loop_
_space_group_symop_operation_xyz
x,y,z
-x,-y,-z
loop_
_atom_site_type_symbol
_atom_site_label
_atom_site_fract_x
_atom_site_fract_y
_atom_site_fract_z
Si Si1 0.686638 0.914965 0.943156
Si Si2 0.430960 0.740917 0.633506
Si Si3 0.710232 0.249711 0.821488
Si Si4 0.738485 0.602709 0.106047
Si Si5 0.858682 0.891390 0.710355
Si Si6 0.212913 0.006453 0.872525
Si Si7 0.206635 0.596514 0.146459
O O1 0.462355 0.178604 0.864283
O O2 0.795371 0.862916 0.829434
O O3 0.742113 0.916745 0.094692
O O4 0.742214 0.722825 0.003038
O O5 0.529712 0.506400 0.681353
O O6 0.295951 0.890099 0.740326
O O7 0.609829 0.622591 0.697101
O O8 0.298463 0.926319 0.457831
O O9 0.805791 0.253610 0.890140
O O10 0.838769 0.034581 0.760338
O O11 0.675764 0.199411 0.964778
O O12 0.922443 0.375657 0.258836
O O13 0.749248 0.503378 0.991608
O O14 0.991536 0.230199 0.837935
#
# Coordination Sequence:
#
# PCOD9073195 Si02
#       7
#     2   2   2   2   2   2   2
#     4  10  22  38  65  84 107 150 199 232 281 335
#     4  10  23  36  55  90 121 145 185 236 286 332
#     4   9  20  37  58  84 118 149 192 228 273 343
#     4  11  21  39  64  85 108 148 201 235 270 347
#     4  11  22  39  58  87 119 149 181 240 292 326
#     4  11  19  37  62  83 110 159 191 227 280 337
#     4  10  21  35  61  85 114 145 199 230 272 338
#
# _framework density 18.431191999999999
#
# number of rings (size 3 to 8) (size 9 to 14) (size 15 to 20)
#    0.857    0.857    4.286    1.714    0.000    1.143 
#    0.000    2.143    0.000    0.000    0.000    0.000 
#    0.000    0.000    0.000    0.000    0.000    0.000 
#
# Total GULP energy -77949.300656 kJ/mol
# GULP energy per Si atom -5567.807190 kJ/mol
# Density = 1.838924 g / cm^3
# Si number density = 18.431192 Si / 1000 Ang^3
#
#
#
# Elastic Constant Matrix: (Units=GPa)
#
#
# Indices 1 2 3 4 5 6 
#
# 1 39.7601 -4.2115 10.5243 -14.6340 13.4069 -11.9873
# 2 -4.2115 61.3480 36.2538 -26.4145 6.2308 -25.4828
# 3 10.5243 36.2538 44.7528 -24.2604 14.3606 6.9736
# 4 -14.6340 -26.4145 -24.2604 22.7855 -9.3453 -0.5578
# 5 13.4069 6.2308 14.3606 -9.3453 12.8021 0.7551
# 6 -11.9873 -25.4828 6.9736 -0.5578 0.7551 7.2140
#
#
#
# Elastic Compliance Matrix: (Units=1/GPa)
#
#
# Indices 1 2 3 4 5 6 
#
# 1 0.031138 -0.013881 0.033121 0.019018 -0.047778 -0.022837
# 2 -0.013881 -0.000208 0.003249 -0.001707 0.011414 -0.028266
# 3 0.033121 0.003249 0.071240 0.075994 -0.061292 0.009939
# 4 0.019018 -0.001707 0.075994 0.131650 -0.006042 -0.037078
# 5 -0.047778 0.011414 -0.061292 -0.006042 0.186925 0.000146
# 6 -0.022837 -0.028266 0.009939 -0.037078 0.000146 -0.011664
#
#
# Mechanical properties :
#
#
# Convention : Reuss Voigt Hill
#
# Bulk Modulus (GPa) = 6.79583 25.66601 16.23092
# Shear Modulus (GPa) = 12.10205 15.44660 13.77433
#
# Velocity S-wave (km/s) = 2.56521 2.89808 2.73671
# Velocity P-wave (km/s) = 3.53113 5.01538 4.33722
#
# Compressibility (1/GPa) = 0.14714896
#
# Stress axis : x y z
#
# Youngs Moduli (GPa) = 32.11484 -4818.84531 14.03714
#
# Poissons Ratio (x) = -66.88933 -0.46493
# Poissons Ratio (y) = 0.44578 -0.04560
# Poissons Ratio (z) = -1.06369 15.65540
#
# Static dielectric constant tensor:
#      x y z
#    x 1.643060 -0.001110 0.033010 
#    y -0.001110 1.647650 -0.010810 
#    z 0.033010 -0.010810 1.644650 
# 
# From -- ./inp_files/201298.got.cif
#   From: 2010.05.17/outbox.ucp.g08.bks.cvg/sg2_101_cif.got.tgz:201298.got - 2010.06.11 11:32:03.
