data_PCOD9073279
_publ_section_title
;
Structure prediction by ZEFSAII (Michael W. Deem and Ramdas Pophale) SiO2 
 PCOD9073279
Probable space group: P -1
;
_chemical_formula_sum "Si O2"
_cell_formula_units_Z 16
_cell_length_a 17.754179
_cell_length_b 11.119778
_cell_length_c 8.758940
_cell_angle_alpha 120.367900
_cell_angle_beta 149.742260
_cell_angle_gamma 52.474816
_cell_volume 690.125539
_symmetry_space_group_name_H-M "P -1"
_symmetry_group_IT_number 2
_symmetry_cell_setting 'triclinic'
loop_
_space_group_symop_operation_xyz
x,y,z
-x,-y,-z
loop_
_atom_site_type_symbol
_atom_site_label
_atom_site_fract_x
_atom_site_fract_y
_atom_site_fract_z
Si Si1 0.040232 0.484711 0.823519
Si Si2 0.379020 0.110528 0.236337
Si Si3 0.557028 0.660845 0.315319
Si Si4 0.424065 0.849043 0.678770
Si Si5 0.227950 0.393667 0.799533
Si Si6 0.154900 0.639827 0.379678
Si Si7 0.286475 0.894235 0.781675
Si Si8 0.641325 0.373220 0.766965
O O1 0.883198 0.604053 0.534714
O O2 0.974510 0.387656 0.755787
O O3 0.153557 0.377244 0.821104
O O4 0.119905 0.584653 0.117118
O O5 0.334140 0.268387 0.350341
O O6 0.494048 0.094857 0.279111
O O7 0.500000 0.000000 0.500000
O O8 0.248379 0.042133 0.915152
O O9 0.672043 0.493549 0.355853
O O10 0.434882 0.651061 0.224793
O O11 0.452535 0.771730 0.071629
O O12 0.321643 0.938064 0.700530
O O13 0.314868 0.774449 0.353744
O O14 0.586366 0.721463 0.956391
O O15 0.225863 0.562238 0.919518
O O16 0.171055 0.800644 0.514273
O O17 0.500000 0.500000 0.500000
#
# Coordination Sequence:
#
# PCOD9073279 Si02
#       8
#     2   2   2   2   2   2   2   2
#     4  10  21  31  47  72 106 139 173 211 242 289
#     4   9  20  34  50  77 108 133 157 199 263 320
#     4  10  19  33  53  77 106 134 164 206 261 312
#     4  10  18  31  54  76 102 131 164 208 258 309
#     4  10  18  32  49  74 104 138 171 203 252 299
#     4  11  20  33  51  76 105 135 171 211 250 289
#     4  11  20  32  53  81 105 128 166 213 259 304
#     4   9  16  28  49  75 100 128 162 205 253 302
#
# _framework density 23.184186
#
# number of rings (size 3 to 8) (size 9 to 14) (size 15 to 20)
#    0.000    2.000    0.000    6.750    0.000    0.000 
#    0.000    0.000    0.000    7.500    0.000    3.500 
#    0.000    0.000    0.000    0.000    0.000    0.000 
#
# Total GULP energy -89309.863109 kJ/mol
# GULP energy per Si atom -5581.866444 kJ/mol
# Density = 2.313142 g / cm^3
# Si number density = 23.184186 Si / 1000 Ang^3
#
#
#
# Elastic Constant Matrix: (Units=GPa)
#
#
# Indices 1 2 3 4 5 6 
#
# 1 97.9382 10.4955 15.6471 8.5650 -13.6890 9.9798
# 2 10.4955 48.4117 22.7798 31.3293 -3.7857 7.1195
# 3 15.6471 22.7798 108.9759 29.6659 -10.3960 5.6247
# 4 8.5650 31.3293 29.6659 45.4460 3.4607 -2.9399
# 5 -13.6890 -3.7857 -10.3960 3.4607 30.0524 -5.1169
# 6 9.9798 7.1195 5.6247 -2.9399 -5.1169 21.6402
#
#
#
# Elastic Compliance Matrix: (Units=1/GPa)
#
#
# Indices 1 2 3 4 5 6 
#
# 1 0.011623 0.000808 -0.000229 -0.003284 0.004868 -0.004862
# 2 0.000808 0.044980 0.001311 -0.033757 0.007245 -0.018385
# 3 -0.000229 0.001311 0.012123 -0.009368 0.004715 -0.003635
# 4 -0.003284 -0.033757 -0.009368 0.054184 -0.011891 0.019605
# 5 0.004868 0.007245 0.004715 -0.011891 0.039733 0.001926
# 6 -0.004862 -0.018385 -0.003635 0.019605 0.001926 0.058564
#
#
# Mechanical properties :
#
#
# Convention : Reuss Voigt Hill
#
# Bulk Modulus (GPa) = 13.79156 39.24118 26.51637
# Shear Modulus (GPa) = 20.69581 33.18794 26.94188
#
# Velocity S-wave (km/s) = 2.99100 3.78761 3.41263
# Velocity P-wave (km/s) = 4.22962 6.00754 5.19520
#
# Compressibility (1/GPa) = 0.07250813
#
# Stress axis : x y z
#
# Youngs Moduli (GPa) = 86.03346 22.23209 82.48958
#
# Poissons Ratio (x) = -0.01797 0.01886
# Poissons Ratio (y) = -0.06956 -0.10816
# Poissons Ratio (z) = 0.01967 -0.02915
#
# Static dielectric constant tensor:
#      x y z
#    x 1.872360 0.014390 -0.010140 
#    y 0.014390 1.918250 0.031780 
#    z -0.010140 0.031780 1.914020 
# 
# From -- ./inp_files/256511.got.cif
#   From: 2010.05.17/outbox.cif.g08.bks.cpg/sg2_129_cif.got.tgz:256511.got - 2010.06.03 11:33:40.
