data_PCOD9073267
_publ_section_title
;
Structure prediction by ZEFSAII (Michael W. Deem and Ramdas Pophale) SiO2 
 PCOD9073267
Probable space group: P -1
;
_chemical_formula_sum "Si O2"
_cell_formula_units_Z 16
_cell_length_a 15.000000
_cell_length_b 12.000000
_cell_length_c 9.000000
_cell_angle_alpha 70.000000
_cell_angle_beta 100.000000
_cell_angle_gamma 150.000000
_cell_volume 734.803614
_symmetry_space_group_name_H-M "P -1"
_symmetry_group_IT_number 2
_symmetry_cell_setting 'triclinic'
loop_
_space_group_symop_operation_xyz
x,y,z
-x,-y,-z
loop_
_atom_site_type_symbol
_atom_site_label
_atom_site_fract_x
_atom_site_fract_y
_atom_site_fract_z
Si Si1 0.096799 0.468604 0.804684
Si Si2 0.376428 0.814748 0.187793
Si Si3 0.218568 0.362419 0.802298
Si Si4 0.258065 0.899317 0.312383
Si Si5 0.890107 0.858422 0.797609
Si Si6 0.318025 0.954825 0.656975
Si Si7 0.420893 0.333922 0.188325
Si Si8 0.004851 0.277358 0.189288
O O1 0.223330 0.508389 0.757994
O O2 0.213867 0.713688 0.777563
O O3 0.954363 0.343433 0.691955
O O4 0.997829 0.306467 0.999042
O O5 0.350036 0.897325 0.250225
O O6 0.177330 0.543063 0.194247
O O7 0.484304 0.835925 0.302369
O O8 0.500000 0.000000 0.000000
O O9 0.408409 0.520150 0.735713
O O10 0.171096 0.258206 0.001788
O O11 0.057069 0.138090 0.749863
O O12 0.304713 0.943097 0.480020
O O13 0.326898 0.109656 0.194514
O O14 0.724139 0.747086 0.736148
O O15 0.950147 0.810462 0.750528
O O16 0.187896 0.908454 0.706395
O O17 0.500000 0.500000 0.000000
#
# Coordination Sequence:
#
# PCOD9073267 Si02
#       8
#     2   2   2   2   2   2   2   2
#     4  11  20  40  67  95 128 167 220 265 318 387
#     4  12  25  42  66  98 133 171 217 268 321 389
#     4   9  18  34  61  90 121 157 211 272 312 362
#     4  12  25  42  67  98 132 172 214 268 333 386
#     4   9  19  36  58  93 120 158 214 269 312 363
#     4  12  25  44  63  96 137 172 213 268 328 391
#     4  10  21  37  62  94 123 162 219 267 312 378
#     4  11  24  41  66  97 129 173 221 266 323 384
#
# _framework density 21.774525000000001
#
# number of rings (size 3 to 8) (size 9 to 14) (size 15 to 20)
#    0.000    1.250    3.750    2.625    5.250    1.000 
#    0.000    0.625    0.000    1.500    0.000    0.000 
#    0.000    0.000    0.000    0.000    0.000    0.000 
#
# Total GULP energy -89427.175181 kJ/mol
# GULP energy per Si atom -5589.198449 kJ/mol
# Density = 2.172497 g / cm^3
# Si number density = 21.774525 Si / 1000 Ang^3
#
#
#
# Elastic Constant Matrix: (Units=GPa)
#
#
# Indices 1 2 3 4 5 6 
#
# 1 196.3667 26.4422 35.7416 4.2750 -12.3141 8.5140
# 2 26.4422 37.4568 11.1325 9.2985 10.5207 13.4332
# 3 35.7416 11.1325 48.4890 30.6293 -14.0957 11.7919
# 4 4.2750 9.2985 30.6293 25.1118 2.9943 9.0328
# 5 -12.3141 10.5207 -14.0957 2.9943 8.3307 10.5485
# 6 8.5140 13.4332 11.7919 9.0328 10.5485 40.3305
#
#
#
# Elastic Compliance Matrix: (Units=1/GPa)
#
#
# Indices 1 2 3 4 5 6 
#
# 1 0.007783 -0.007852 -0.006421 0.008868 0.009384 -0.001591
# 2 -0.007852 0.038344 0.020540 -0.034499 -0.001471 -0.009008
# 3 -0.006421 0.020540 -0.009540 0.008624 -0.072982 0.014460
# 4 0.008868 -0.034499 0.008624 0.038918 0.088709 -0.024821
# 5 0.009384 -0.001471 -0.072982 0.088709 -0.029277 0.007637
# 6 -0.001591 -0.009008 0.014460 -0.024821 0.007637 0.027465
#
#
# Mechanical properties :
#
#
# Convention : Reuss Voigt Hill
#
# Bulk Modulus (GPa) = 20.35814 47.66057 34.00935
# Shear Modulus (GPa) = 64.48789 28.68766 46.58777
#
# Velocity S-wave (km/s) = 5.44798 3.63366 4.63055
# Velocity P-wave (km/s) = 6.99599 6.28811 6.65147
#
# Compressibility (1/GPa) = 0.04912040
#
# Stress axis : x y z
#
# Youngs Moduli (GPa) = 128.48604 26.07977 -104.82400
#
# Poissons Ratio (x) = 0.20479 -0.67306
# Poissons Ratio (y) = 1.00893 2.15309
# Poissons Ratio (z) = 0.82499 -0.53568
#
# Static dielectric constant tensor:
#      x y z
#    x 1.803320 0.039690 0.012720 
#    y 0.039690 1.831860 -0.050850 
#    z 0.012720 -0.050850 1.792860 
# 
# From -- ./inp_files/282055.got.cif
#   From: 2010.05.17/outbox.ucp.g08.bks.cvg/sg2_142_cif.got.tgz:282055.got - 2010.06.11 11:32:03.
