data_PCOD9073077
_publ_section_title
;
Structure prediction by ZEFSAII (Michael W. Deem and Ramdas Pophale) SiO2 
 PCOD9073077
Probable space group: P -1
;
_chemical_formula_sum "Si O2"
_cell_formula_units_Z 16
_cell_length_a 18.000000
_cell_length_b 9.000000
_cell_length_c 12.000000
_cell_angle_alpha 130.000000
_cell_angle_beta 30.000000
_cell_angle_gamma 130.000000
_cell_volume 725.531033
_symmetry_space_group_name_H-M "P -1"
_symmetry_group_IT_number 2
_symmetry_cell_setting 'triclinic'
loop_
_space_group_symop_operation_xyz
x,y,z
-x,-y,-z
loop_
_atom_site_type_symbol
_atom_site_label
_atom_site_fract_x
_atom_site_fract_y
_atom_site_fract_z
Si Si1 0.123381 0.714492 0.467159
Si Si2 0.385326 0.129872 0.601183
Si Si3 0.442128 0.791419 0.197453
Si Si4 0.321871 0.401480 0.290870
Si Si5 0.945102 0.857955 0.603450
Si Si6 0.183192 0.884553 0.922741
Si Si7 0.315480 0.520049 0.605881
Si Si8 0.130076 0.132430 0.783430
O O1 0.296501 0.713553 0.269028
O O2 0.000000 0.500000 0.500000
O O3 0.099493 0.818681 0.433962
O O4 0.105067 0.896389 0.665020
O O5 0.510156 0.340635 0.545965
O O6 0.214183 0.153537 0.802908
O O7 0.433623 0.990863 0.372781
O O8 0.336776 0.996104 0.711240
O O9 0.426143 0.613045 0.221161
O O10 0.591457 0.776874 0.927263
O O11 0.170182 0.339898 0.384848
O O12 0.283821 0.441248 0.484200
O O13 0.000000 0.000000 0.500000
O O14 0.860901 0.966209 0.857110
O O15 0.216614 0.684801 0.836834
O O16 0.034381 0.821935 0.005932
O O17 0.255741 0.311358 0.647099
#
# Coordination Sequence:
#
# PCOD9073077 Si02
#       8
#     2   2   2   2   2   2   2   2
#     4  10  20  41  66  94 126 168 216 262 319 385
#     4  11  23  43  66  95 129 173 220 266 317 386
#     4  10  22  39  64  95 125 166 216 271 310 377
#     4  11  22  37  64  94 128 164 218 263 320 372
#     4  11  24  43  65  97 132 167 213 270 329 386
#     4  11  23  42  68  94 128 173 222 260 320 389
#     4  12  24  42  67  96 134 174 213 266 326 385
#     4  10  24  42  63  97 134 166 214 271 328 381
#
# _framework density 22.052813
#
# number of rings (size 3 to 8) (size 9 to 14) (size 15 to 20)
#    0.000    1.250    2.500    3.750    3.500    0.000 
#    0.000   11.875    0.000    0.000    0.000    0.000 
#    0.000    0.000    0.000    0.000    0.000    0.000 
#
# Total GULP energy -89070.884983 kJ/mol
# GULP energy per Si atom -5566.930311 kJ/mol
# Density = 2.200262 g / cm^3
# Si number density = 22.052813 Si / 1000 Ang^3
#
#
#
# Elastic Constant Matrix: (Units=GPa)
#
#
# Indices 1 2 3 4 5 6 
#
# 1 89.2736 14.0037 18.8211 0.5606 -7.2341 17.9163
# 2 14.0037 97.8204 14.1367 -3.6283 15.3038 15.2175
# 3 18.8211 14.1367 22.3646 -5.4904 -4.8062 13.6401
# 4 0.5606 -3.6283 -5.4904 20.3076 6.6642 -2.5489
# 5 -7.2341 15.3038 -4.8062 6.6642 31.7642 -4.5035
# 6 17.9163 15.2175 13.6401 -2.5489 -4.5035 40.6003
#
#
#
# Elastic Compliance Matrix: (Units=1/GPa)
#
#
# Indices 1 2 3 4 5 6 
#
# 1 0.014287 -0.000697 -0.010640 -0.004554 0.002585 -0.002468
# 2 -0.000697 0.013293 -0.007086 0.002944 -0.008689 -0.003073
# 3 -0.010640 -0.007086 0.072519 0.014493 0.006746 -0.015354
# 4 -0.004554 0.002944 0.014493 0.057737 -0.012622 -0.001738
# 5 0.002585 -0.008689 0.006746 -0.012622 0.040428 0.003542
# 6 -0.002468 -0.003073 -0.015354 -0.001738 0.003542 0.032313
#
#
# Mechanical properties :
#
#
# Convention : Reuss Voigt Hill
#
# Bulk Modulus (GPa) = 15.80957 33.70905 24.75931
# Shear Modulus (GPa) = 17.33041 29.36755 23.34898
#
# Velocity S-wave (km/s) = 2.80636 3.65319 3.25741
# Velocity P-wave (km/s) = 4.20540 5.75441 5.03977
#
# Compressibility (1/GPa) = 0.06325284
#
# Stress axis : x y z
#
# Youngs Moduli (GPa) = 69.99134 75.22541 13.78942
#
# Poissons Ratio (x) = 0.05244 0.14672
# Poissons Ratio (y) = 0.04879 0.09772
# Poissons Ratio (z) = 0.74473 0.53307
#
# Static dielectric constant tensor:
#      x y z
#    x 1.892680 -0.079220 -0.028260 
#    y -0.079220 1.921150 0.020540 
#    z -0.028260 0.020540 1.839690 
# 
# From -- ./inp_files/352245.got.cif
#   From: 2010.05.17/outbox.ucp.g08.bks.cvg/sg2_177_cif.got.tgz:352245.got - 2010.06.11 11:32:03.
