data_PCOD9073881
_publ_section_title
;
Structure prediction by ZEFSAII (Michael W. Deem and Ramdas Pophale) SiO2 
 PCOD9073881
Probable space group: P -1
;
_chemical_formula_sum "Si O2"
_cell_formula_units_Z 14
_cell_length_a 10.528536
_cell_length_b 20.222392
_cell_length_c 9.632256
_cell_angle_alpha 54.778678
_cell_angle_beta 75.803632
_cell_angle_gamma 30.060822
_cell_volume 658.133742
_symmetry_space_group_name_H-M "P -1"
_symmetry_group_IT_number 2
_symmetry_cell_setting 'triclinic'
loop_
_space_group_symop_operation_xyz
x,y,z
-x,-y,-z
loop_
_atom_site_type_symbol
_atom_site_label
_atom_site_fract_x
_atom_site_fract_y
_atom_site_fract_z
Si Si1 0.221599 0.314582 0.833286
Si Si2 0.313583 0.399132 0.940089
Si Si3 0.834441 0.140410 0.747826
Si Si4 0.467366 0.234959 0.567551
Si Si5 0.441212 0.181180 0.349469
Si Si6 0.738476 0.939672 0.311339
Si Si7 0.659517 0.491354 0.408407
O O1 0.300186 0.345627 0.876834
O O2 0.359064 0.251505 0.718693
O O3 0.834717 0.535787 0.667509
O O4 0.415330 0.132223 0.073721
O O5 0.450466 0.405717 0.833394
O O6 0.938946 0.622564 0.811521
O O7 0.484044 0.248134 0.193156
O O8 0.780836 0.110856 0.670231
O O9 0.471546 0.371780 0.609104
O O10 0.041963 0.103616 0.716139
O O11 0.000000 0.000000 0.000000
O O12 0.512562 0.148896 0.531455
O O13 0.642878 0.003173 0.421238
O O14 0.964713 0.739734 0.438816
O O15 0.500000 0.500000 0.500000
#
# Coordination Sequence:
#
# PCOD9073881 Si02
#       7
#     2   2   2   2   2   2   2
#     4   9  17  33  58  83 106 140 192 233 261 313
#     4   9  16  35  57  80 108 145 188 222 266 326
#     4  11  19  35  59  80 103 146 193 230 263 316
#     4  10  18  31  59  85 107 134 190 241 266 304
#     4   9  19  32  57  84 109 140 179 231 278 319
#     4  10  20  35  53  81 114 148 179 215 280 338
#     4  10  21  34  57  81 109 149 188 221 263 333
#
# _framework density 21.272272000000001
#
# number of rings (size 3 to 8) (size 9 to 14) (size 15 to 20)
#    0.000    2.286    2.857    1.714    0.000    1.143 
#    0.000    0.714    3.143    2.571    0.000    0.000 
#    0.000    0.000    0.000    0.000    0.000    0.000 
#
# Total GULP energy -77967.956198 kJ/mol
# GULP energy per Si atom -5569.139728 kJ/mol
# Density = 2.122386 g / cm^3
# Si number density = 21.272272 Si / 1000 Ang^3
#
#
#
# Elastic Constant Matrix: (Units=GPa)
#
#
# Indices 1 2 3 4 5 6 
#
# 1 47.3035 5.4421 24.4864 8.9103 -7.4136 -9.4853
# 2 5.4421 136.6895 35.3581 -5.6011 2.6837 17.8520
# 3 24.4864 35.3581 74.3030 3.2484 5.1823 10.5817
# 4 8.9103 -5.6011 3.2484 41.2973 -1.9242 -3.8643
# 5 -7.4136 2.6837 5.1823 -1.9242 33.3537 11.2266
# 6 -9.4853 17.8520 10.5817 -3.8643 11.2266 20.9666
#
#
#
# Elastic Compliance Matrix: (Units=1/GPa)
#
#
# Indices 1 2 3 4 5 6 
#
# 1 0.033607 -0.000719 -0.013655 -0.004231 0.002470 0.020605
# 2 -0.000719 0.009162 -0.003260 0.001058 0.002179 -0.007452
# 3 -0.013655 -0.003260 0.021571 -0.000533 -0.001601 -0.013530
# 4 -0.004231 0.001058 -0.000533 0.025516 -0.000240 0.002285
# 5 0.002470 0.002179 -0.001601 -0.000240 0.037305 -0.019949
# 6 0.020605 -0.007452 -0.013530 0.002285 -0.019949 0.081293
#
#
# Mechanical properties :
#
#
# Convention : Reuss Voigt Hill
#
# Bulk Modulus (GPa) = 34.39585 43.20767 38.80176
# Shear Modulus (GPa) = 19.73077 31.99081 25.86079
#
# Velocity S-wave (km/s) = 3.04885 3.88219 3.49048
# Velocity P-wave (km/s) = 5.34775 6.36011 5.87577
#
# Compressibility (1/GPa) = 0.02907327
#
# Stress axis : x y z
#
# Youngs Moduli (GPa) = 29.75580 109.15197 46.35799
#
# Poissons Ratio (x) = 0.07846 0.63300
# Poissons Ratio (y) = 0.02139 0.15111
# Poissons Ratio (z) = 0.40631 0.35580
#
# Static dielectric constant tensor:
#      x y z
#    x 1.793890 -0.041010 -0.034040 
#    y -0.041010 1.852590 -0.014610 
#    z -0.034040 -0.014610 1.810920 
# 
# From -- ./inp_files/171315.got.cif
#   From: 2010.05.17/outbox.cif.g08.bks.cpg/sg2_86_cif.got.tgz:171315.got - 2010.06.03 11:33:40.
