data_PCOD9073118
_publ_section_title
;
Structure prediction by ZEFSAII (Michael W. Deem and Ramdas Pophale) SiO2 
 PCOD9073118
Probable space group: P -1
;
_chemical_formula_sum "Si O2"
_cell_formula_units_Z 14
_cell_length_a 12.000000
_cell_length_b 15.000000
_cell_length_c 9.000000
_cell_angle_alpha 150.000000
_cell_angle_beta 120.000000
_cell_angle_gamma 50.000000
_cell_volume 613.666794
_symmetry_space_group_name_H-M "P -1"
_symmetry_group_IT_number 2
_symmetry_cell_setting 'triclinic'
loop_
_space_group_symop_operation_xyz
x,y,z
-x,-y,-z
loop_
_atom_site_type_symbol
_atom_site_label
_atom_site_fract_x
_atom_site_fract_y
_atom_site_fract_z
Si Si1 0.584762 0.626576 0.741150
Si Si2 0.328778 0.085587 0.704699
Si Si3 0.886611 0.286212 0.397952
Si Si4 0.507464 0.690295 0.448840
Si Si5 0.014180 0.429147 0.077792
Si Si6 0.843510 0.060792 0.778421
Si Si7 0.259307 0.617672 0.070101
O O1 0.500000 0.500000 0.500000
O O2 0.750502 0.458232 0.638253
O O3 0.558392 0.711002 0.676194
O O4 0.573971 0.803215 0.095372
O O5 0.427094 0.895616 0.598622
O O6 0.270746 0.024822 0.431401
O O7 0.174369 0.227812 0.895624
O O8 0.977231 0.398070 0.566037
O O9 0.819835 0.210621 0.114861
O O10 0.991864 0.110853 0.325403
O O11 0.645561 0.537350 0.221264
O O12 0.384718 0.613491 0.256459
O O13 0.870083 0.415460 0.000668
O O14 0.000000 0.500000 0.000000
O O15 0.824108 0.168213 0.763663
#
# Coordination Sequence:
#
# PCOD9073118 Si02
#       7
#     2   2   2   2   2   2   2
#     4  11  24  40  65  96 130 170 205 270 320 383
#     4  10  23  42  66  94 129 165 219 266 317 380
#     4  10  22  40  63  91 134 161 216 262 318 379
#     4  10  22  44  63  96 132 171 214 253 324 394
#     4  11  23  42  65  98 125 167 218 274 319 369
#     4  10  20  42  65  90 125 169 211 263 314 379
#     4  10  23  41  69  92 131 174 210 265 320 384
#
# _framework density 22.813683000000001
#
# number of rings (size 3 to 8) (size 9 to 14) (size 15 to 20)
#    0.000    1.714    2.857    0.429    4.000    4.000 
#    5.143    1.429    0.000    0.000    0.000    0.000 
#    0.000    0.000    0.000    0.000    0.000    0.000 
#
# Total GULP energy -78037.912359 kJ/mol
# GULP energy per Si atom -5574.136597 kJ/mol
# Density = 2.276176 g / cm^3
# Si number density = 22.813683 Si / 1000 Ang^3
#
#
#
# Elastic Constant Matrix: (Units=GPa)
#
#
# Indices 1 2 3 4 5 6 
#
# 1 106.7936 13.8852 42.3340 2.0716 32.6577 -17.1988
# 2 13.8852 95.8359 36.3453 5.1479 -5.6475 -9.7061
# 3 42.3340 36.3453 126.3178 -25.1110 41.4938 -8.5894
# 4 2.0716 5.1479 -25.1110 39.0523 -10.6299 -1.1430
# 5 32.6577 -5.6475 41.4938 -10.6299 25.8778 -1.5453
# 6 -17.1988 -9.7061 -8.5894 -1.1430 -1.5453 15.6840
#
#
#
# Elastic Compliance Matrix: (Units=1/GPa)
#
#
# Indices 1 2 3 4 5 6 
#
# 1 0.028395 -0.010110 0.014119 -0.007239 -0.062103 0.025967
# 2 -0.010110 0.021381 -0.018531 -0.001722 0.046217 -0.003575
# 3 0.014119 -0.018531 0.035405 0.004273 -0.075908 0.016237
# 4 -0.007239 -0.001722 0.004273 0.033056 0.015323 -0.002745
# 5 -0.062103 0.046217 -0.075908 0.015323 0.251818 -0.055144
# 6 0.025967 -0.003575 0.016237 -0.002745 -0.055144 0.093281
#
#
# Mechanical properties :
#
#
# Convention : Reuss Voigt Hill
#
# Bulk Modulus (GPa) = 17.81322 57.11959 37.46640
# Shear Modulus (GPa) = 9.78300 31.88168 20.83234
#
# Velocity S-wave (km/s) = 2.07305 3.74234 3.02512
# Velocity P-wave (km/s) = 3.68173 6.61553 5.35352
#
# Compressibility (1/GPa) = 0.05613809
#
# Stress axis : x y z
#
# Youngs Moduli (GPa) = 35.21771 46.77051 28.24485
#
# Poissons Ratio (x) = 0.47283 -0.39880
# Poissons Ratio (y) = 0.35604 0.52340
# Poissons Ratio (z) = -0.49725 0.86670
#
# Static dielectric constant tensor:
#      x y z
#    x 1.921520 0.014350 0.110750 
#    y 0.014350 1.815270 0.036990 
#    z 0.110750 0.036990 2.053140 
# 
# From -- ./inp_files/274936.got.cif
#   From: 2010.05.17/outbox.ucp.g08.bks.cvg/sg2_138_cif.got.tgz:274936.got - 2010.06.11 11:32:03.
