data_PCOD9073748
_publ_section_title
;
Structure prediction by ZEFSAII (Michael W. Deem and Ramdas Pophale) SiO2 
 PCOD9073748
Probable space group: P -1
;
_chemical_formula_sum "Si O2"
_cell_formula_units_Z 16
_cell_length_a 12.969421
_cell_length_b 14.413986
_cell_length_c 9.681963
_cell_angle_alpha 83.194472
_cell_angle_beta 53.442096
_cell_angle_gamma 39.956439
_cell_volume 705.214252
_symmetry_space_group_name_H-M "P -1"
_symmetry_group_IT_number 2
_symmetry_cell_setting 'triclinic'
loop_
_space_group_symop_operation_xyz
x,y,z
-x,-y,-z
loop_
_atom_site_type_symbol
_atom_site_label
_atom_site_fract_x
_atom_site_fract_y
_atom_site_fract_z
Si Si1 0.411034 0.426532 0.874639
Si Si2 0.605166 0.481785 0.599827
Si Si3 0.268572 0.779893 0.608547
Si Si4 0.437560 0.048333 0.816308
Si Si5 0.908549 0.623996 0.174885
Si Si6 0.738839 0.665543 0.585812
Si Si7 0.299393 0.840476 0.063406
Si Si8 0.836129 0.878719 0.730139
O O1 0.398476 0.544599 0.828312
O O2 0.585349 0.275251 0.634300
O O3 0.577642 0.309809 0.901014
O O4 0.140807 0.541788 0.065658
O O5 0.457790 0.658464 0.610097
O O6 0.738747 0.327922 0.402905
O O7 0.862817 0.334197 0.511336
O O8 0.978992 0.005238 0.812792
O O9 0.304057 0.175240 0.765496
O O10 0.594413 0.855809 0.689011
O O11 0.642884 0.985648 0.738061
O O12 0.236326 0.146018 0.082036
O O13 0.813028 0.618551 0.375143
O O14 0.000000 0.500000 0.000000
O O15 0.000000 0.500000 0.500000
O O16 0.529650 0.723802 0.797437
O O17 0.224905 0.978712 0.191477
#
# Coordination Sequence:
#
# PCOD9073748 Si02
#       8
#     2   2   2   2   2   2   2   2
#     4  10  18  31  56  87 119 151 198 244 299 350
#     4   8  16  29  50  87 117 150 196 247 285 351
#     4   8  16  28  50  86 111 150 198 238 287 352
#     4  10  22  37  62  88 122 165 195 244 311 353
#     4  12  25  40  62  94 120 156 211 253 297 365
#     4  11  24  42  58  87 126 163 199 253 305 358
#     4  10  18  33  56  85 119 157 196 244 299 357
#     4   9  18  33  59  90 121 149 201 245 297 363
#
# _framework density 22.688140000000001
#
# number of rings (size 3 to 8) (size 9 to 14) (size 15 to 20)
#    0.750    1.500    1.250    2.250    7.000    0.000 
#    0.000    0.000    0.000    1.500    0.000    0.000 
#    0.000    0.000    0.000    0.000    0.000    0.000 
#
# Total GULP energy -89311.133100 kJ/mol
# GULP energy per Si atom -5581.945819 kJ/mol
# Density = 2.263650 g / cm^3
# Si number density = 22.688140 Si / 1000 Ang^3
#
#
#
# Elastic Constant Matrix: (Units=GPa)
#
#
# Indices 1 2 3 4 5 6 
#
# 1 34.3788 11.4975 12.7414 6.3798 -4.8106 -10.2943
# 2 11.4975 159.9273 55.7889 -8.0540 -7.3774 -23.0960
# 3 12.7414 55.7889 89.4033 -12.8154 -9.8471 -4.7255
# 4 6.3798 -8.0540 -12.8154 29.3760 -1.0751 -5.1653
# 5 -4.8106 -7.3774 -9.8471 -1.0751 30.6666 8.8480
# 6 -10.2943 -23.0960 -4.7255 -5.1653 8.8480 17.8097
#
#
#
# Elastic Compliance Matrix: (Units=1/GPa)
#
#
# Indices 1 2 3 4 5 6 
#
# 1 0.038717 0.002594 -0.007175 -0.006858 -0.002511 0.023098
# 2 0.002594 0.010434 -0.006105 0.002288 -0.003530 0.015828
# 3 -0.007175 -0.006105 0.017040 0.006016 0.005558 -0.008560
# 4 -0.006858 0.002288 0.006016 0.041026 -0.000889 0.012939
# 5 -0.002511 -0.003530 0.005558 -0.000889 0.040282 -0.024824
# 6 0.023098 0.015828 -0.008560 0.012939 -0.024824 0.103841
#
#
# Mechanical properties :
#
#
# Convention : Reuss Voigt Hill
#
# Bulk Modulus (GPa) = 22.31225 49.30722 35.80974
# Shear Modulus (GPa) = 17.38214 29.14923 23.26569
#
# Velocity S-wave (km/s) = 2.77091 3.58827 3.20575
# Velocity P-wave (km/s) = 4.48252 6.24078 5.43325
#
# Compressibility (1/GPa) = 0.04481842
#
# Stress axis : x y z
#
# Youngs Moduli (GPa) = 25.82834 95.83831 58.68675
#
# Poissons Ratio (x) = -0.24861 0.42110
# Poissons Ratio (y) = -0.06700 0.35828
# Poissons Ratio (z) = 0.18533 0.58509
#
# Static dielectric constant tensor:
#      x y z
#    x 1.856030 0.039170 0.000750 
#    y 0.039170 1.795700 0.007110 
#    z 0.000750 0.007110 1.856810 
# 
# From -- ./inp_files/317631.got.cif
#   From: 2010.05.17/outbox.cif.g08.bks.cpg/sg2_159_cif.got.tgz:317631.got - 2010.06.03 11:33:40.
