data_PCOD9073720
_publ_section_title
;
Structure prediction by ZEFSAII (Michael W. Deem and Ramdas Pophale) SiO2 
 PCOD9073720
Probable space group: P -1
;
_chemical_formula_sum "Si O2"
_cell_formula_units_Z 14
_cell_length_a 18.000000
_cell_length_b 12.000000
_cell_length_c 9.000000
_cell_angle_alpha 110.000000
_cell_angle_beta 150.000000
_cell_angle_gamma 50.000000
_cell_volume 616.684141
_symmetry_space_group_name_H-M "P -1"
_symmetry_group_IT_number 2
_symmetry_cell_setting 'triclinic'
loop_
_space_group_symop_operation_xyz
x,y,z
-x,-y,-z
loop_
_atom_site_type_symbol
_atom_site_label
_atom_site_fract_x
_atom_site_fract_y
_atom_site_fract_z
Si Si1 0.176452 0.499798 0.479586
Si Si2 0.094051 0.284435 0.173719
Si Si3 0.479110 0.893674 0.746713
Si Si4 0.654706 0.570202 0.736918
Si Si5 0.395853 0.722978 0.052755
Si Si6 0.284882 0.992715 0.761811
Si Si7 0.825132 0.341117 0.193495
O O1 0.212287 0.337441 0.450104
O O2 0.397730 0.427674 0.763854
O O3 0.121512 0.570665 0.582528
O O4 0.985274 0.648507 0.101445
O O5 0.251992 0.078890 0.368091
O O6 0.882737 0.408308 0.972449
O O7 0.620338 0.718876 0.817996
O O8 0.403121 0.878833 0.764208
O O9 0.619452 0.931013 0.023268
O O10 0.483358 0.678494 0.353289
O O11 0.648731 0.484988 0.829649
O O12 0.227031 0.716631 0.785864
O O13 0.308682 0.893196 0.900456
O O14 0.025514 0.164577 0.372736
#
# Coordination Sequence:
#
# PCOD9073720 Si02
#       7
#     2   2   2   2   2   2   2
#     4  10  22  39  68  92 127 170 214 259 329 367
#     4  10  21  43  63 101 130 157 213 276 313 385
#     4  11  23  42  69  94 133 158 212 275 326 370
#     4  11  25  41  69  96 125 174 210 262 329 367
#     4  11  24  44  62  92 133 172 217 257 308 389
#     4  11  24  41  65  96 128 165 216 267 317 377
#     4  12  24  42  65  93 132 174 215 257 311 386
#
# _framework density 22.702058999999998
#
# number of rings (size 3 to 8) (size 9 to 14) (size 15 to 20)
#    0.000    1.143    2.857    3.000    4.000    1.714 
#    0.000    0.714    0.000    0.000    0.000    0.000 
#    0.000    0.000    0.000    0.000    0.000    0.000 
#
# Total GULP energy -78085.149512 kJ/mol
# GULP energy per Si atom -5577.510679 kJ/mol
# Density = 2.265039 g / cm^3
# Si number density = 22.702059 Si / 1000 Ang^3
#
#
#
# Elastic Constant Matrix: (Units=GPa)
#
#
# Indices 1 2 3 4 5 6 
#
# 1 77.4343 42.1261 9.9479 -3.7004 -43.6206 21.4467
# 2 42.1261 34.3405 27.6318 -3.4369 -1.2563 14.8676
# 3 9.9479 27.6318 54.8254 -14.3879 -21.4940 6.9891
# 4 -3.7004 -3.4369 -14.3879 13.6210 6.0697 -15.8013
# 5 -43.6206 -1.2563 -21.4940 6.0697 29.2485 -8.7050
# 6 21.4467 14.8676 6.9891 -15.8013 -8.7050 38.8007
#
#
#
# Elastic Compliance Matrix: (Units=1/GPa)
#
#
# Indices 1 2 3 4 5 6 
#
# 1 0.003544 0.022163 -0.024537 -0.046356 -0.010274 -0.027215
# 2 0.022163 0.002123 0.006397 -0.019306 0.037805 -0.013597
# 3 -0.024537 0.006397 0.021903 0.058756 -0.024819 0.025526
# 4 -0.046356 -0.019306 0.058756 0.290026 -0.048372 0.129696
# 5 -0.010274 0.037805 -0.024819 -0.048372 0.005505 -0.022801
# 6 -0.027215 -0.013597 0.025526 0.129696 -0.022801 0.089130
#
#
# Mechanical properties :
#
#
# Convention : Reuss Voigt Hill
#
# Bulk Modulus (GPa) = 28.07740 36.22354 32.15047
# Shear Modulus (GPa) = 12.01755 22.12699 17.07227
#
# Velocity S-wave (km/s) = 2.30328 3.12536 2.74526
# Velocity P-wave (km/s) = 4.41226 5.38651 4.92354
#
# Compressibility (1/GPa) = 0.03561583
#
# Stress axis : x y z
#
# Youngs Moduli (GPa) = 282.15280 471.03012 45.65519
#
# Poissons Ratio (x) = -10.43941 1.12024
# Poissons Ratio (y) = -6.25333 -0.29204
# Poissons Ratio (z) = 6.92315 -3.01299
#
# Static dielectric constant tensor:
#      x y z
#    x 1.814080 0.034410 0.043820 
#    y 0.034410 1.861810 0.047790 
#    z 0.043820 0.047790 1.970330 
# 
# From -- ./inp_files/157196.got.cif
#   From: 2010.05.17/outbox.ucp.g08.bks.cvg/sg2_79_cif.got.tgz:157196.got - 2010.06.11 11:32:03.
