data_PCOD9073714
_publ_section_title
;
Structure prediction by ZEFSAII (Michael W. Deem and Ramdas Pophale) SiO2 
 PCOD9073714
Probable space group: P -1
;
_chemical_formula_sum "Si O2"
_cell_formula_units_Z 16
_cell_length_a 9.000000
_cell_length_b 18.000000
_cell_length_c 12.000000
_cell_angle_alpha 50.000000
_cell_angle_beta 40.000000
_cell_angle_gamma 80.000000
_cell_volume 729.599496
_symmetry_space_group_name_H-M "P -1"
_symmetry_group_IT_number 2
_symmetry_cell_setting 'triclinic'
loop_
_space_group_symop_operation_xyz
x,y,z
-x,-y,-z
loop_
_atom_site_type_symbol
_atom_site_label
_atom_site_fract_x
_atom_site_fract_y
_atom_site_fract_z
Si Si1 0.870956 0.233841 0.200890
Si Si2 0.722917 0.489475 0.208030
Si Si3 0.582459 0.725671 0.223660
Si Si4 0.329864 0.968725 0.858237
Si Si5 0.968056 0.961714 0.880544
Si Si6 0.344256 0.396175 0.287092
Si Si7 0.552910 0.776392 0.724921
Si Si8 0.676097 0.259186 0.868313
O O1 0.693253 0.249087 0.197066
O O2 0.632891 0.114594 0.530124
O O3 0.126950 0.367646 0.984834
O O4 0.066427 0.206454 0.054132
O O5 0.580725 0.399907 0.486463
O O6 0.512894 0.435730 0.271429
O O7 0.000000 0.500000 0.000000
O O8 0.471366 0.724343 0.166769
O O9 0.632572 0.835892 0.160084
O O10 0.104517 0.964598 0.072450
O O11 0.390254 0.874875 0.950759
O O12 0.153999 0.934645 0.874564
O O13 0.192830 0.070459 0.556253
O O14 0.322562 0.285852 0.346195
O O15 0.027249 0.356264 0.541504
O O16 0.500000 0.500000 0.000000
O O17 0.409611 0.718976 0.983887
#
# Coordination Sequence:
#
# PCOD9073714 Si02
#       8
#     2   2   2   2   2   2   2   2
#     4  11  24  43  70 103 134 188 233 286 341 413
#     4  12  24  47  72  99 138 182 240 282 343 418
#     4  12  27  43  68 105 142 184 231 285 347 414
#     4  10  21  42  74 101 138 178 232 289 348 412
#     4  10  21  42  72 104 131 184 235 283 348 413
#     4  12  27  48  73 104 141 184 231 290 350 412
#     4  11  24  46  74 102 139 183 235 286 351 412
#     4  12  27  46  69 106 147 181 227 292 350 413
#
# _framework density 21.929839999999999
#
# number of rings (size 3 to 8) (size 9 to 14) (size 15 to 20)
#    0.000    0.750    2.500    4.875    3.500    5.000 
#    0.000    0.000    0.000    0.000    0.000    0.000 
#    0.000    0.000    0.000    0.000    0.000    0.000 
#
# Total GULP energy -89291.692269 kJ/mol
# GULP energy per Si atom -5580.730767 kJ/mol
# Density = 2.187993 g / cm^3
# Si number density = 21.929840 Si / 1000 Ang^3
#
#
#
# Elastic Constant Matrix: (Units=GPa)
#
#
# Indices 1 2 3 4 5 6 
#
# 1 20.9203 18.5886 39.6090 -12.7483 30.9723 -2.3978
# 2 18.5886 17.5770 9.7370 -13.2526 3.0276 18.0468
# 3 39.6090 9.7370 144.2425 -2.1720 28.3643 11.1261
# 4 -12.7483 -13.2526 -2.1720 37.1509 -2.2764 -3.0786
# 5 30.9723 3.0276 28.3643 -2.2764 34.1363 6.3170
# 6 -2.3978 18.0468 11.1261 -3.0786 6.3170 21.2735
#
#
#
# Elastic Compliance Matrix: (Units=1/GPa)
#
#
# Indices 1 2 3 4 5 6 
#
# 1 0.003126 0.054897 -0.001472 0.017110 0.002763 -0.043792
# 2 0.054897 0.047297 -0.008470 0.031587 -0.042585 -0.012290
# 3 -0.001472 -0.008470 0.008771 -0.003073 -0.006109 0.003802
# 4 0.017110 0.031587 -0.003073 0.042074 -0.010358 -0.014096
# 5 0.002763 -0.042585 -0.006109 -0.010358 0.029516 0.029369
# 6 -0.043792 -0.012290 0.003802 -0.014096 0.029369 0.039748
#
#
# Mechanical properties :
#
#
# Convention : Reuss Voigt Hill
#
# Bulk Modulus (GPa) = 6.70671 35.40098 21.05384
# Shear Modulus (GPa) = 38.36648 26.16581 32.26614
#
# Velocity S-wave (km/s) = 4.18725 3.45796 3.83996
# Velocity P-wave (km/s) = 5.14221 5.66756 5.41126
#
# Compressibility (1/GPa) = 0.14910450
#
# Stress axis : x y z
#
# Youngs Moduli (GPa) = 319.88762 21.14281 114.01824
#
# Poissons Ratio (x) = -1.16067 0.16782
# Poissons Ratio (y) = -17.56082 0.96570
# Poissons Ratio (z) = 0.47083 0.17907
#
# Static dielectric constant tensor:
#      x y z
#    x 2.147760 -0.044560 0.142710 
#    y -0.044560 1.575470 0.045100 
#    z 0.142710 0.045100 1.840520 
# 
# From -- ./inp_files/180377.got.cif
#   From: 2010.05.17/outbox.ucp.g08.bks.cvg/sg2_91_cif.got.tgz:180377.got - 2010.06.11 11:32:03.
