data_PCOD9073587
_publ_section_title
;
Structure prediction by ZEFSAII (Michael W. Deem and Ramdas Pophale) SiO2 
 PCOD9073587
Probable space group: P -1
;
_chemical_formula_sum "Si O2"
_cell_formula_units_Z 16
_cell_length_a 12.000000
_cell_length_b 15.000000
_cell_length_c 12.000000
_cell_angle_alpha 30.000000
_cell_angle_beta 100.000000
_cell_angle_gamma 120.000000
_cell_volume 748.962810
_symmetry_space_group_name_H-M "P -1"
_symmetry_group_IT_number 2
_symmetry_cell_setting 'triclinic'
loop_
_space_group_symop_operation_xyz
x,y,z
-x,-y,-z
loop_
_atom_site_type_symbol
_atom_site_label
_atom_site_fract_x
_atom_site_fract_y
_atom_site_fract_z
Si Si1 0.488307 0.465236 0.402594
Si Si2 0.021494 0.444129 0.442377
Si Si3 0.110489 0.401329 0.901380
Si Si4 0.676137 0.064800 0.529783
Si Si5 0.167832 0.076101 0.147155
Si Si6 0.859479 0.300668 0.105259
Si Si7 0.374412 0.684338 0.026775
Si Si8 0.602226 0.044141 0.073223
O O1 0.500000 0.500000 0.500000
O O2 0.382169 0.501898 0.286191
O O3 0.419101 0.191011 0.664081
O O4 0.669607 0.692628 0.142164
O O5 0.000000 0.500000 0.500000
O O6 0.914299 0.470118 0.331509
O O7 0.212603 0.686134 0.195424
O O8 0.957207 0.173659 0.686822
O O9 0.253012 0.658433 0.721502
O O10 0.124990 0.217230 0.051103
O O11 0.939500 0.236837 0.114167
O O12 0.780758 0.024292 0.650221
O O13 0.706577 0.070919 0.397807
O O14 0.493329 0.820985 0.794713
O O15 0.799138 0.421190 0.912452
O O16 0.000000 0.500000 0.000000
O O17 0.460973 0.921030 0.868536
O O18 0.500000 0.000000 0.000000
#
# Coordination Sequence:
#
# PCOD9073587 Si02
#       8
#     2   2   2   2   2   2   2   2
#     4  11  23  41  68 100 137 179 222 272 337 401
#     4  11  25  41  63  97 136 180 223 269 340 401
#     4  10  21  41  63  96 136 172 223 279 337 409
#     4   9  21  40  69  94 132 173 226 280 348 393
#     4  10  23  42  67 101 134 177 227 279 333 411
#     4  10  21  43  67  97 132 179 226 286 350 392
#     4  11  22  42  67  98 134 177 226 279 333 409
#     4  12  25  42  65  98 139 178 221 273 339 402
#
# _framework density 21.362876
#
# number of rings (size 3 to 8) (size 9 to 14) (size 15 to 20)
#    0.000    1.500    2.500    1.875    5.250    2.000 
#    0.000    2.500    0.000    9.000    0.000    0.000 
#    0.000    0.000    0.000    0.000    0.000    0.000 
#
# Total GULP energy -89119.870500 kJ/mol
# GULP energy per Si atom -5569.991906 kJ/mol
# Density = 2.131425 g / cm^3
# Si number density = 21.362876 Si / 1000 Ang^3
#
#
#
# Elastic Constant Matrix: (Units=GPa)
#
#
# Indices 1 2 3 4 5 6 
#
# 1 160.5840 57.6059 67.0487 -3.1168 25.2073 -9.6429
# 2 57.6059 80.5287 35.9876 -0.1394 11.7974 -0.2068
# 3 67.0487 35.9876 107.5224 -10.8292 13.9977 -9.9890
# 4 -3.1168 -0.1394 -10.8292 41.3902 -14.2329 -1.7018
# 5 25.2073 11.7974 13.9977 -14.2329 43.1982 -5.6539
# 6 -9.6429 -0.2068 -9.9890 -1.7018 -5.6539 47.2603
#
#
#
# Elastic Compliance Matrix: (Units=1/GPa)
#
#
# Indices 1 2 3 4 5 6 
#
# 1 0.010473 -0.004930 -0.004497 -0.001676 -0.003774 0.000653
# 2 -0.004930 0.017491 -0.002894 -0.001756 -0.001778 -0.001817
# 3 -0.004497 -0.002894 0.013559 0.003433 0.000428 0.002111
# 4 -0.001676 -0.001756 0.003433 0.028498 0.010076 0.002608
# 5 -0.003774 -0.001778 0.000428 0.010076 0.029436 0.003197
# 6 0.000653 -0.001817 0.002111 0.002608 0.003197 0.022207
#
#
# Mechanical properties :
#
#
# Convention : Reuss Voigt Hill
#
# Bulk Modulus (GPa) = 59.24044 74.43550 66.83797
# Shear Modulus (GPa) = 32.90897 38.90260 35.90578
#
# Velocity S-wave (km/s) = 3.92915 4.27199 4.10415
# Velocity P-wave (km/s) = 6.95521 7.69755 7.33578
#
# Compressibility (1/GPa) = 0.01688036
#
# Stress axis : x y z
#
# Youngs Moduli (GPa) = 95.48660 57.17292 73.74934
#
# Poissons Ratio (x) = 0.28187 0.33167
# Poissons Ratio (y) = 0.47076 0.21342
# Poissons Ratio (z) = 0.42942 0.16545
#
# Static dielectric constant tensor:
#      x y z
#    x 1.793920 0.000110 -0.103130 
#    y 0.000110 1.895500 0.110300 
#    z -0.103130 0.110300 1.818690 
# 
# From -- ./inp_files/433690.got.cif
#   From: 2010.05.17/outbox.ucp.g08.bks.cvg/sg2_217_cif.got.tgz:433690.got - 2010.06.11 11:32:03.
