data_PCOD9073451
_publ_section_title
;
Structure prediction by ZEFSAII (Michael W. Deem and Ramdas Pophale) SiO2 
 PCOD9073451
Probable space group: P -1
;
_chemical_formula_sum "Si O2"
_cell_formula_units_Z 16
_cell_length_a 9.000000
_cell_length_b 12.000000
_cell_length_c 9.000000
_cell_angle_alpha 90.000000
_cell_angle_beta 90.000000
_cell_angle_gamma 120.000000
_cell_volume 841.776692
_symmetry_space_group_name_H-M "P -1"
_symmetry_group_IT_number 2
_symmetry_cell_setting 'triclinic'
loop_
_space_group_symop_operation_xyz
x,y,z
-x,-y,-z
loop_
_atom_site_type_symbol
_atom_site_label
_atom_site_fract_x
_atom_site_fract_y
_atom_site_fract_z
Si Si1 0.087387 0.674412 0.648674
Si Si2 0.439403 0.293903 0.488257
Si Si3 0.952752 0.728978 0.942451
Si Si4 0.379989 0.239516 0.135616
Si Si5 0.236008 0.528887 0.861305
Si Si6 0.392443 0.863517 0.419760
Si Si7 0.679591 0.048351 0.904336
Si Si8 0.758538 0.572823 0.448072
O O1 0.152056 0.598573 0.760212
O O2 0.239019 0.771519 0.536229
O O3 0.017426 0.733849 0.773156
O O4 0.927593 0.595646 0.535773
O O5 0.410154 0.257458 0.314079
O O6 0.485413 0.200762 0.581450
O O7 0.603945 0.436969 0.507019
O O8 0.278034 0.310584 0.527692
O O9 0.780378 0.744324 0.926324
O O10 0.880144 0.583942 0.017310
O O11 0.131341 0.840774 0.026166
O O12 0.574159 0.355654 0.082362
O O13 0.329247 0.090537 0.108985
O O14 0.251334 0.445400 0.728835
O O15 0.338973 0.892132 0.255928
O O16 0.500000 0.000000 0.500000
O O17 0.500000 0.000000 0.000000
#
# Coordination Sequence:
#
# PCOD9073451 Si02
#       8
#     2   2   2   2   2   2   2   2
#     4  12  23  41  66  98 137 172 224 277 329 400
#     4  10  21  41  68  95 128 171 221 277 325 392
#     4  12  26  42  68 100 138 182 220 272 343 405
#     4  11  22  48  66  96 140 177 224 279 335 404
#     4  11  23  42  67 102 135 175 226 283 334 394
#     4  12  23  44  71  92 130 179 224 275 331 397
#     4  12  27  46  70 100 135 176 226 277 341 404
#     4  10  21  39  66  96 129 169 219 274 335 384
#
# _framework density 19.007415999999999
#
# number of rings (size 3 to 8) (size 9 to 14) (size 15 to 20)
#    0.000    0.750    5.000    3.750    1.750    1.000 
#    0.000    5.000    0.000    0.000    0.000    0.000 
#    0.000    0.000    0.000    0.000    0.000    0.000 
#
# Total GULP energy -89069.218382 kJ/mol
# GULP energy per Si atom -5566.826149 kJ/mol
# Density = 1.896415 g / cm^3
# Si number density = 19.007416 Si / 1000 Ang^3
#
#
#
# Elastic Constant Matrix: (Units=GPa)
#
#
# Indices 1 2 3 4 5 6 
#
# 1 141.9668 64.6071 37.6995 -5.6328 25.6510 2.4517
# 2 64.6071 131.8675 38.9721 -7.4420 12.2082 7.3304
# 3 37.6995 38.9721 91.1004 -16.4417 15.2753 4.2562
# 4 -5.6328 -7.4420 -16.4417 40.2383 3.3084 8.2298
# 5 25.6510 12.2082 15.2753 3.3084 43.3242 4.3777
# 6 2.4517 7.3304 4.2562 8.2298 4.3777 46.7405
#
#
#
# Elastic Compliance Matrix: (Units=1/GPa)
#
#
# Indices 1 2 3 4 5 6 
#
# 1 0.010136 -0.004083 -0.001719 0.000186 -0.004323 0.000637
# 2 -0.004083 0.010437 -0.002718 0.000472 0.000531 -0.001308
# 3 -0.001719 -0.002718 0.014584 0.005822 -0.003652 -0.001495
# 4 0.000186 0.000472 0.005822 0.028755 -0.003956 -0.005306
# 5 -0.004323 0.000531 -0.003652 -0.003956 0.027221 -0.001377
# 6 0.000637 -0.001308 -0.001495 -0.005306 -0.001377 0.022766
#
#
# Mechanical properties :
#
#
# Convention : Reuss Voigt Hill
#
# Bulk Modulus (GPa) = 55.19612 71.94357 63.56984
# Shear Modulus (GPa) = 36.50251 40.97101 38.73676
#
# Velocity S-wave (km/s) = 4.38703 4.64780 4.51930
# Velocity P-wave (km/s) = 7.40025 8.16916 7.79419
#
# Compressibility (1/GPa) = 0.01811722
#
# Stress axis : x y z
#
# Youngs Moduli (GPa) = 98.65956 95.81199 68.56846
#
# Poissons Ratio (x) = 0.39116 0.11788
# Poissons Ratio (y) = 0.40278 0.18638
# Poissons Ratio (z) = 0.16962 0.26043
#
# Static dielectric constant tensor:
#      x y z
#    x 1.745920 -0.021860 -0.051750 
#    y -0.021860 1.684500 0.013010 
#    z -0.051750 0.013010 1.677540 
# 
# From -- ./inp_files/179124.got.cif
#   From: 2010.05.17/outbox.ucp.g08.bks.cvg/sg2_90_cif.got.tgz:179124.got - 2010.06.11 11:32:03.
