data_PCOD9073354
_publ_section_title
;
Structure prediction by ZEFSAII (Michael W. Deem and Ramdas Pophale) SiO2 
 PCOD9073354
Probable space group: P -1
;
_chemical_formula_sum "Si O2"
_cell_formula_units_Z 14
_cell_length_a 9.000000
_cell_length_b 24.000000
_cell_length_c 9.000000
_cell_angle_alpha 40.000000
_cell_angle_beta 50.000000
_cell_angle_gamma 30.000000
_cell_volume 623.501542
_symmetry_space_group_name_H-M "P -1"
_symmetry_group_IT_number 2
_symmetry_cell_setting 'triclinic'
loop_
_space_group_symop_operation_xyz
x,y,z
-x,-y,-z
loop_
_atom_site_type_symbol
_atom_site_label
_atom_site_fract_x
_atom_site_fract_y
_atom_site_fract_z
Si Si1 0.214723 0.970770 0.538911
Si Si2 0.264962 0.160770 0.141944
Si Si3 0.189822 0.944391 0.136890
Si Si4 0.173087 0.571827 0.311129
Si Si5 0.613449 0.649360 0.595254
Si Si6 0.397519 0.426171 0.915857
Si Si7 0.262037 0.288542 0.174131
O O1 0.551378 0.827301 0.585610
O O2 0.202156 0.078355 0.363083
O O3 0.000000 0.000000 0.500000
O O4 0.091546 0.952033 0.787425
O O5 0.293976 0.211094 0.170360
O O6 0.560057 0.070086 0.034830
O O7 0.011686 0.299353 0.936358
O O8 0.373755 0.798505 0.378010
O O9 0.000000 0.000000 0.000000
O O10 0.349011 0.444654 0.350340
O O11 0.379440 0.570113 0.269625
O O12 0.929784 0.594280 0.506101
O O13 0.539027 0.638658 0.828911
O O14 0.077463 0.580148 0.830822
O O15 0.380487 0.349171 0.972204
#
# Coordination Sequence:
#
# PCOD9073354 Si02
#       7
#     2   2   2   2   2   2   2
#     4  12  26  45  69  97 134 174 216 270 330 392
#     4  11  23  44  67  98 131 170 221 269 321 397
#     4  11  24  40  67  99 130 174 216 266 328 384
#     4  10  21  38  66  91 125 170 217 268 325 378
#     4  10  21  38  65  94 126 167 226 260 319 399
#     4  11  23  43  65  93 134 174 211 278 325 373
#     4  11  24  41  65  99 131 168 227 264 320 396
#
# _framework density 22.453834000000001
#
# number of rings (size 3 to 8) (size 9 to 14) (size 15 to 20)
#    0.000    1.143    2.857    3.429    2.000    0.571 
#    0.000    5.714    0.000    0.000    0.000    0.000 
#    0.000    0.000    0.000    0.000    0.000    0.000 
#
# Total GULP energy -78007.222437 kJ/mol
# GULP energy per Si atom -5571.944460 kJ/mol
# Density = 2.240273 g / cm^3
# Si number density = 22.453834 Si / 1000 Ang^3
#
#
#
# Elastic Constant Matrix: (Units=GPa)
#
#
# Indices 1 2 3 4 5 6 
#
# 1 144.1720 26.5745 46.4779 -2.7551 -32.5971 -5.0652
# 2 26.5745 63.4305 26.4885 -15.9299 -10.5719 -9.1385
# 3 46.4779 26.4885 56.3206 -0.8963 -3.1499 -8.7412
# 4 -2.7551 -15.9299 -0.8963 44.7469 -3.0925 -0.8581
# 5 -32.5971 -10.5719 -3.1499 -3.0925 59.1837 -3.3151
# 6 -5.0652 -9.1385 -8.7412 -0.8581 -3.3151 38.7497
#
#
#
# Elastic Compliance Matrix: (Units=1/GPa)
#
#
# Indices 1 2 3 4 5 6 
#
# 1 0.011081 0.000306 -0.008950 0.001009 0.005735 0.000015
# 2 0.000306 0.023346 -0.010259 0.008505 0.004450 0.003801
# 3 -0.008950 -0.010259 0.030023 -0.003912 -0.005220 0.002650
# 4 0.001009 0.008505 -0.003912 0.025630 0.003324 0.002107
# 5 0.005735 0.004450 -0.005220 0.003324 0.020885 0.002482
# 6 0.000015 0.003801 0.002650 0.002107 0.002482 0.027562
#
#
# Mechanical properties :
#
#
# Convention : Reuss Voigt Hill
#
# Bulk Modulus (GPa) = 37.52852 51.44499 44.48676
# Shear Modulus (GPa) = 26.99581 39.49488 33.24534
#
# Velocity S-wave (km/s) = 3.47115 4.19852 3.85204
# Velocity P-wave (km/s) = 5.72845 6.81649 6.29602
#
# Compressibility (1/GPa) = 0.02664640
#
# Stress axis : x y z
#
# Youngs Moduli (GPa) = 90.24075 42.83342 33.30774
#
# Poissons Ratio (x) = -0.01311 0.29809
# Poissons Ratio (y) = -0.02762 0.34169
# Poissons Ratio (z) = 0.80763 0.43941
#
# Static dielectric constant tensor:
#      x y z
#    x 1.913770 -0.040130 0.062000 
#    y -0.040130 1.785540 -0.047100 
#    z 0.062000 -0.047100 1.764060 
# 
# From -- ./inp_files/225928.got.cif
#   From: 2010.05.17/outbox.ucp.g08.bks.cvg/sg2_113_cif.got.tgz:225928.got - 2010.06.11 11:32:03.
