data_PCOD9073013
_publ_section_title
;
Structure prediction by ZEFSAII (Michael W. Deem and Ramdas Pophale) SiO2 
 PCOD9073013
Probable space group: P -1
;
_chemical_formula_sum "Si O2"
_cell_formula_units_Z 16
_cell_length_a 9.477473
_cell_length_b 12.980976
_cell_length_c 15.502585
_cell_angle_alpha 141.187564
_cell_angle_beta 137.490900
_cell_angle_gamma 38.154146
_cell_volume 699.316413
_symmetry_space_group_name_H-M "P -1"
_symmetry_group_IT_number 2
_symmetry_cell_setting 'triclinic'
loop_
_space_group_symop_operation_xyz
x,y,z
-x,-y,-z
loop_
_atom_site_type_symbol
_atom_site_label
_atom_site_fract_x
_atom_site_fract_y
_atom_site_fract_z
Si Si1 0.080640 0.032847 0.463350
Si Si2 0.229833 0.972961 0.031202
Si Si3 0.827102 0.491680 0.131052
Si Si4 0.476389 0.946547 0.287582
Si Si5 0.243674 0.515705 0.404368
Si Si6 0.528446 0.461144 0.131181
Si Si7 0.219231 0.527299 0.590166
Si Si8 0.986202 0.983901 0.767286
O O1 0.361722 0.970399 0.550338
O O2 0.939277 0.259425 0.535316
O O3 0.024696 0.959607 0.300936
O O4 0.000000 0.000000 0.500000
O O5 0.412511 0.749231 0.955224
O O6 0.124468 0.050284 0.939730
O O7 0.637730 0.964870 0.799335
O O8 0.000000 0.000000 0.000000
O O9 0.657288 0.721500 0.207302
O O10 0.733722 0.431568 0.134439
O O11 0.104859 0.437603 0.230845
O O12 0.725909 0.435095 0.965067
O O13 0.272900 0.962071 0.272177
O O14 0.500000 0.500000 0.500000
O O15 0.273781 0.437610 0.462808
O O16 0.574541 0.549161 0.294346
O O17 0.127067 0.752267 0.685342
O O18 0.000000 0.500000 0.500000
#
# Coordination Sequence:
#
# PCOD9073013 Si02
#       8
#     2   2   2   2   2   2   2   2
#     4  10  21  36  49  72 104 141 175 207 256 303
#     4   8  15  29  50  78 103 124 159 209 262 300
#     4   9  17  31  52  76 106 130 165 209 264 299
#     4   9  17  32  53  76 101 130 165 214 259 302
#     4  10  21  37  51  72 106 141 174 215 252 308
#     4   9  16  29  51  79 102 129 161 215 259 303
#     4  10  18  31  52  79 103 130 174 212 259 305
#     4   9  18  32  53  76 102 130 167 216 256 301
#
# _framework density 22.879486
#
# number of rings (size 3 to 8) (size 9 to 14) (size 15 to 20)
#    0.000    2.750    1.250    0.375    0.000    1.000 
#    4.500    1.250    0.000    0.000    0.000    0.000 
#    0.000    0.000    0.000    0.000    0.000    0.000 
#
# Total GULP energy -89168.009157 kJ/mol
# GULP energy per Si atom -5573.000572 kJ/mol
# Density = 2.282741 g / cm^3
# Si number density = 22.879486 Si / 1000 Ang^3
#
#
#
# Elastic Constant Matrix: (Units=GPa)
#
#
# Indices 1 2 3 4 5 6 
#
# 1 79.4173 8.8327 62.2665 -28.9222 -3.3574 15.3731
# 2 8.8327 79.0824 50.7797 -17.1944 -6.5621 0.4666
# 3 62.2665 50.7797 197.0456 -49.4893 -7.4092 10.2160
# 4 -28.9222 -17.1944 -49.4893 43.0644 1.6957 -4.3119
# 5 -3.3574 -6.5621 -7.4092 1.6957 36.7161 -17.1263
# 6 15.3731 0.4666 10.2160 -4.3119 -17.1263 24.4650
#
#
#
# Elastic Compliance Matrix: (Units=1/GPa)
#
#
# Indices 1 2 3 4 5 6 
#
# 1 0.021741 0.002123 -0.004660 0.008903 -0.005547 -0.014070
# 2 0.002123 0.015966 -0.003951 0.003430 0.003533 0.003089
# 3 -0.004660 -0.003951 0.008974 0.005655 0.000795 0.000810
# 4 0.008903 0.003430 0.005655 0.036924 0.000233 -0.001350
# 5 -0.005547 0.003533 0.000795 0.000233 0.043014 0.033239
# 6 -0.014070 0.003089 0.000810 -0.001350 0.033239 0.072349
#
#
# Mechanical properties :
#
#
# Convention : Reuss Voigt Hill
#
# Bulk Modulus (GPa) = 29.67088 66.58924 48.13006
# Shear Modulus (GPa) = 22.40347 36.42686 29.41517
#
# Velocity S-wave (km/s) = 3.13260 3.99447 3.58950
# Velocity P-wave (km/s) = 5.10693 7.10224 6.18557
#
# Compressibility (1/GPa) = 0.03370308
#
# Stress axis : x y z
#
# Youngs Moduli (GPa) = 45.99662 62.63445 111.43167
#
# Poissons Ratio (x) = -0.13294 0.51929
# Poissons Ratio (y) = -0.09763 0.44027
# Poissons Ratio (z) = 0.21435 0.24747
#
# Static dielectric constant tensor:
#      x y z
#    x 1.873340 -0.077860 -0.018130 
#    y -0.077860 1.959530 -0.033930 
#    z -0.018130 -0.033930 1.901500 
# 
# From -- ./inp_files/498237.got.cif
#   From: 2010.05.17/outbox.cif.g08.bks.cpg/sg2_250_cif.got.tgz:498237.got - 2010.06.03 11:33:40.
