data_PCOD9073181
_publ_section_title
;
Structure prediction by ZEFSAII (Michael W. Deem and Ramdas Pophale) SiO2 
 PCOD9073181
Probable space group: P -1
;
_chemical_formula_sum "Si O2"
_cell_formula_units_Z 14
_cell_length_a 9.000000
_cell_length_b 9.000000
_cell_length_c 15.000000
_cell_angle_alpha 50.000000
_cell_angle_beta 80.000000
_cell_angle_gamma 110.000000
_cell_volume 732.374747
_symmetry_space_group_name_H-M "P -1"
_symmetry_group_IT_number 2
_symmetry_cell_setting 'triclinic'
loop_
_space_group_symop_operation_xyz
x,y,z
-x,-y,-z
loop_
_atom_site_type_symbol
_atom_site_label
_atom_site_fract_x
_atom_site_fract_y
_atom_site_fract_z
Si Si1 0.210710 0.414811 0.574735
Si Si2 0.595793 0.197413 0.838023
Si Si3 0.506113 0.501378 0.638694
Si Si4 0.890266 0.000536 0.646076
Si Si5 0.034988 0.328327 0.326891
Si Si6 0.392276 0.922855 0.317783
Si Si7 0.349259 0.971376 0.592321
O O1 0.300961 0.406809 0.660235
O O2 0.379777 0.510446 0.449186
O O3 0.217846 0.653162 0.477652
O O4 0.026276 0.169172 0.649546
O O5 0.508804 0.346413 0.775849
O O6 0.811958 0.398690 0.765068
O O7 0.581696 0.085690 0.786265
O O8 0.500000 0.000000 0.000000
O O9 0.636591 0.790784 0.526144
O O10 0.681780 0.920739 0.714495
O O11 0.976286 0.170485 0.483898
O O12 0.888203 0.773001 0.711159
O O13 0.851479 0.267488 0.320116
O O14 0.574365 0.004609 0.325539
O O15 0.500000 0.000000 0.500000
#
# Coordination Sequence:
#
# PCOD9073181 Si02
#       7
#     2   2   2   2   2   2   2
#     4   9  16  28  54  86 115 134 177 238 300 343
#     4  11  24  41  58  77 117 169 204 226 267 349
#     4   9  17  32  53  83 113 145 181 234 294 341
#     4  11  18  32  59  93 118 138 182 252 309 337
#     4  11  21  34  56  89 122 144 186 242 299 339
#     4  10  21  34  59  90 117 150 189 233 296 353
#     4  11  20  33  60  97 121 138 175 254 314 341
#
# _framework density 19.115897
#
# number of rings (size 3 to 8) (size 9 to 14) (size 15 to 20)
#    0.000    1.714    5.714    2.143    0.000    0.000 
#    0.000    1.429    0.000    1.714    0.000    0.000 
#    0.000    0.000    0.000    0.000    0.000    0.000 
#
# Total GULP energy -78000.084505 kJ/mol
# GULP energy per Si atom -5571.434607 kJ/mol
# Density = 1.907239 g / cm^3
# Si number density = 19.115897 Si / 1000 Ang^3
#
#
#
# Elastic Constant Matrix: (Units=GPa)
#
#
# Indices 1 2 3 4 5 6 
#
# 1 84.2164 41.5457 34.0964 9.3543 8.1470 14.0297
# 2 41.5457 83.5249 27.1571 11.4104 -2.8878 27.1584
# 3 34.0964 27.1571 72.3477 11.1721 9.9417 17.9083
# 4 9.3543 11.4104 11.1721 4.5016 4.5574 -2.1422
# 5 8.1470 -2.8878 9.9417 4.5574 8.9205 4.0962
# 6 14.0297 27.1584 17.9083 -2.1422 4.0962 45.5219
#
#
#
# Elastic Compliance Matrix: (Units=1/GPa)
#
#
# Indices 1 2 3 4 5 6 
#
# 1 0.017871 -0.002927 -0.002125 -0.027872 0.001340 -0.004358
# 2 -0.002927 -0.006249 -0.010929 0.111593 -0.052878 0.018939
# 3 -0.002125 -0.010929 0.019495 0.022789 -0.036751 0.003885
# 4 -0.027872 0.111593 0.022789 -0.421166 0.303748 -0.114102
# 5 0.001340 -0.052878 -0.036751 0.303748 -0.050030 0.064388
# 6 -0.004358 0.018939 0.003885 -0.114102 0.064388 -0.000680
#
#
# Mechanical properties :
#
#
# Convention : Reuss Voigt Hill
#
# Bulk Modulus (GPa) = -1183.46727 49.52084 -566.97322
# Shear Modulus (GPa) = -12.22255 20.94144 4.35945
#
# Velocity S-wave (km/s) = -2.53136 3.31342 1.51178
# Velocity P-wave (km/s) = 25.07965 6.37183 17.15209
#
# Compressibility (1/GPa) = -0.00084497
#
# Stress axis : x y z
#
# Youngs Moduli (GPa) = 55.95734 -160.01930 51.29450
#
# Poissons Ratio (x) = -0.46842 0.10899
# Poissons Ratio (y) = 0.16380 0.56059
# Poissons Ratio (z) = 0.11890 -1.74882
#
# Static dielectric constant tensor:
#      x y z
#    x 1.944800 -0.201430 0.083640 
#    y -0.201430 1.904110 -0.069300 
#    z 0.083640 -0.069300 1.634400 
# 
# From -- ./inp_files/158886.got.cif
#   From: 2010.05.17/outbox.ucp.g08.bks.cvg/sg2_80_cif.got.tgz:158886.got - 2010.06.11 11:32:03.
