data_PCOD9073376
_publ_section_title
;
Structure prediction by ZEFSAII (Michael W. Deem and Ramdas Pophale) SiO2 
 PCOD9073376
Probable space group: P -1
;
_chemical_formula_sum "Si O2"
_cell_formula_units_Z 14
_cell_length_a 9.014407
_cell_length_b 11.137173
_cell_length_c 12.450026
_cell_angle_alpha 123.190808
_cell_angle_beta 35.821189
_cell_angle_gamma 107.602067
_cell_volume 586.081924
_symmetry_space_group_name_H-M "P -1"
_symmetry_group_IT_number 2
_symmetry_cell_setting 'triclinic'
loop_
_space_group_symop_operation_xyz
x,y,z
-x,-y,-z
loop_
_atom_site_type_symbol
_atom_site_label
_atom_site_fract_x
_atom_site_fract_y
_atom_site_fract_z
Si Si1 0.609347 0.985183 0.066747
Si Si2 0.498800 0.696419 0.641982
Si Si3 0.928133 0.954094 0.289605
Si Si4 0.694729 0.538577 0.236697
Si Si5 0.910600 0.818331 0.002254
Si Si6 0.824758 0.167096 0.719853
Si Si7 0.559186 0.272547 0.724527
O O1 0.442197 0.157171 0.271237
O O2 0.787173 0.940984 0.046805
O O3 0.447904 0.865154 0.098819
O O4 0.818957 0.982441 0.848714
O O5 0.686926 0.612201 0.396135
O O6 0.428803 0.597727 0.730096
O O7 0.217552 0.746942 0.769410
O O8 0.686943 0.095320 0.534029
O O9 0.877542 0.884570 0.173811
O O10 0.017118 0.821331 0.259539
O O11 0.499450 0.635595 0.306723
O O12 0.000000 0.500000 0.000000
O O13 0.734402 0.704549 0.045552
O O14 0.748540 0.281184 0.720055
O O15 0.000000 0.000000 0.500000
#
# Coordination Sequence:
#
# PCOD9073376 Si02
#       7
#     2   2   2   2   2   2   2
#     4  10  19  34  55  83 115 138 183 231 282 328
#     4  10  21  35  54  83 113 144 183 229 277 325
#     4  10  18  31  54  82 112 144 176 222 281 331
#     4  11  21  36  55  80 116 147 186 228 275 317
#     4  10  18  32  55  86 114 139 178 232 283 325
#     4   9  20  34  52  81 111 146 178 223 283 335
#     4  10  19  33  53  83 113 143 185 223 273 330
#
# _framework density 23.887446000000001
#
# number of rings (size 3 to 8) (size 9 to 14) (size 15 to 20)
#    0.000    2.000    1.429    4.286    0.000    2.286 
#    0.000    0.000    0.000    6.857    0.000    0.000 
#    0.000    0.000    0.000    0.000    0.000    0.000 
#
# Total GULP energy -78059.210188 kJ/mol
# GULP energy per Si atom -5575.657871 kJ/mol
# Density = 2.383308 g / cm^3
# Si number density = 23.887446 Si / 1000 Ang^3
#
#
#
# Elastic Constant Matrix: (Units=GPa)
#
#
# Indices 1 2 3 4 5 6 
#
# 1 94.8392 43.5642 10.8195 5.2402 5.4729 -58.4490
# 2 43.5642 122.2665 8.7967 -4.5832 -2.4567 -37.0504
# 3 10.8195 8.7967 100.1846 -14.0621 -1.5144 -3.4476
# 4 5.2402 -4.5832 -14.0621 26.0849 -4.0679 -3.8749
# 5 5.4729 -2.4567 -1.5144 -4.0679 23.9745 -0.9832
# 6 -58.4490 -37.0504 -3.4476 -3.8749 -0.9832 51.0371
#
#
#
# Elastic Compliance Matrix: (Units=1/GPa)
#
#
# Indices 1 2 3 4 5 6 
#
# 1 0.038083 -0.000854 -0.003348 -0.004580 -0.008036 0.042265
# 2 -0.000854 0.010841 -0.000098 0.003431 0.002176 0.007188
# 3 -0.003348 -0.000098 0.011244 0.006722 0.002499 -0.002587
# 4 -0.004580 0.003431 0.006722 0.045166 0.009539 0.001312
# 5 -0.008036 0.002176 0.002499 0.009539 0.045305 -0.005858
# 6 0.042265 0.007188 -0.002587 0.001312 -0.005858 0.073026
#
#
# Mechanical properties :
#
#
# Convention : Reuss Voigt Hill
#
# Bulk Modulus (GPa) = 19.39171 49.29456 34.34314
# Shear Modulus (GPa) = 20.04391 37.15997 28.60194
#
# Velocity S-wave (km/s) = 2.89986 3.94842 3.46405
# Velocity P-wave (km/s) = 4.39862 6.43954 5.51432
#
# Compressibility (1/GPa) = 0.05156842
#
# Stress axis : x y z
#
# Youngs Moduli (GPa) = 26.25857 92.24654 88.93612
#
# Poissons Ratio (x) = 0.07877 0.29773
# Poissons Ratio (y) = 0.02242 0.00870
# Poissons Ratio (z) = 0.08791 0.00903
#
# Static dielectric constant tensor:
#      x y z
#    x 2.014830 0.006060 -0.007040 
#    y 0.006060 1.970240 -0.020100 
#    z -0.007040 -0.020100 1.943730 
# 
# From -- ./inp_files/390589.got.cif
#   From: 2010.05.17/outbox.cif.g08.bks.cpg/sg2_196_cif.got.tgz:390589.got - 2010.06.03 11:33:40.
