data_PCOD9073509
_publ_section_title
;
Structure prediction by ZEFSAII (Michael W. Deem and Ramdas Pophale) SiO2 
 PCOD9073509
Probable space group: P -1
;
_chemical_formula_sum "Si O2"
_cell_formula_units_Z 14
_cell_length_a 6.000000
_cell_length_b 15.000000
_cell_length_c 12.000000
_cell_angle_alpha 120.000000
_cell_angle_beta 90.000000
_cell_angle_gamma 130.000000
_cell_volume 626.794717
_symmetry_space_group_name_H-M "P -1"
_symmetry_group_IT_number 2
_symmetry_cell_setting 'triclinic'
loop_
_space_group_symop_operation_xyz
x,y,z
-x,-y,-z
loop_
_atom_site_type_symbol
_atom_site_label
_atom_site_fract_x
_atom_site_fract_y
_atom_site_fract_z
Si Si1 0.307185 0.585481 0.879935
Si Si2 0.712120 0.601857 0.728286
Si Si3 0.120880 0.839012 0.689507
Si Si4 0.440878 0.650972 0.306048
Si Si5 0.851204 0.746931 0.162757
Si Si6 0.311495 0.822025 0.034534
Si Si7 0.285142 0.101265 0.379180
O O1 0.397701 0.555857 0.748356
O O2 0.913105 0.450370 0.816323
O O3 0.532320 0.623741 0.005529
O O4 0.416634 0.741569 0.963440
O O5 0.648304 0.459872 0.664280
O O6 0.847366 0.679738 0.657163
O O7 0.014015 0.739896 0.896890
O O8 0.378091 0.842786 0.634000
O O9 0.906729 0.861350 0.647448
O O10 0.387795 0.995713 0.859972
O O11 0.707748 0.686632 0.248718
O O12 0.590464 0.808743 0.448102
O O13 0.141385 0.775744 0.128319
O O14 0.011425 0.916660 0.264003
#
# Coordination Sequence:
#
# PCOD9073509 Si02
#       7
#     2   2   2   2   2   2   2
#     4  10  21  40  64  98 126 169 218 265 336 382
#     4  10  24  39  65  97 131 173 214 271 330 387
#     4  11  24  45  69  95 135 172 224 269 320 391
#     4  11  25  41  63  97 133 171 217 269 330 392
#     4  10  21  44  66  94 129 170 219 274 324 388
#     4   9  20  40  65  99 124 168 221 272 327 379
#     4  11  26  45  69  97 129 178 221 268 324 385
#
# _framework density 22.335861999999999
#
# number of rings (size 3 to 8) (size 9 to 14) (size 15 to 20)
#    0.000    1.714    1.429    1.286    6.000    8.000 
#    0.000    2.143    0.000    0.000    0.000    0.000 
#    0.000    0.000    0.000    0.000    0.000    0.000 
#
# Total GULP energy -78100.778248 kJ/mol
# GULP energy per Si atom -5578.627018 kJ/mol
# Density = 2.228502 g / cm^3
# Si number density = 22.335862 Si / 1000 Ang^3
#
#
#
# Elastic Constant Matrix: (Units=GPa)
#
#
# Indices 1 2 3 4 5 6 
#
# 1 102.6039 19.9508 3.8158 -2.4897 -13.7613 3.3154
# 2 19.9508 84.2190 8.4090 3.6974 9.0637 9.0956
# 3 3.8158 8.4090 72.5470 22.1301 -8.2222 0.9226
# 4 -2.4897 3.6974 22.1301 23.9637 3.4697 -0.0423
# 5 -13.7613 9.0637 -8.2222 3.4697 24.0752 0.3030
# 6 3.3154 9.0956 0.9226 -0.0423 0.3030 25.9563
#
#
#
# Elastic Compliance Matrix: (Units=1/GPa)
#
#
# Indices 1 2 3 4 5 6 
#
# 1 0.011546 -0.003667 0.000821 -0.000194 0.008293 -0.000316
# 2 -0.003667 0.014356 -0.002740 0.001164 -0.008549 -0.004363
# 3 0.000821 -0.002740 0.022019 -0.021583 0.012132 -0.000104
# 4 -0.000194 0.001164 -0.021583 0.063945 -0.017144 0.000688
# 5 0.008293 -0.008549 0.012132 -0.017144 0.056099 0.000823
# 6 -0.000316 -0.004363 -0.000104 0.000688 0.000823 0.040091
#
#
# Mechanical properties :
#
#
# Convention : Reuss Voigt Hill
#
# Bulk Modulus (GPa) = 27.21156 35.96903 31.59029
# Shear Modulus (GPa) = 21.60031 29.94532 25.77282
#
# Velocity S-wave (km/s) = 3.11315 3.66551 3.40056
# Velocity P-wave (km/s) = 5.01314 5.83552 5.43989
#
# Compressibility (1/GPa) = 0.03674909
#
# Stress axis : x y z
#
# Youngs Moduli (GPa) = 86.60666 69.65606 45.41606
#
# Poissons Ratio (x) = 0.25543 -0.03727
# Poissons Ratio (y) = 0.31759 0.12443
# Poissons Ratio (z) = -0.07108 0.19084
#
# Static dielectric constant tensor:
#      x y z
#    x 1.833630 -0.005210 0.020830 
#    y -0.005210 1.827380 -0.050690 
#    z 0.020830 -0.050690 1.842320 
# 
# From -- ./inp_files/65594.got.cif
#   From: 2010.05.17/outbox.ucp.g08.bks.cvg/sg2_33_cif.got.tgz:65594.got - 2010.06.11 11:32:03.
