data_PCOD9073626
_publ_section_title
;
Structure prediction by ZEFSAII (Michael W. Deem and Ramdas Pophale) SiO2 
 PCOD9073626
Probable space group: P -1
;
_chemical_formula_sum "Si O2"
_cell_formula_units_Z 12
_cell_length_a 15.000000
_cell_length_b 9.000000
_cell_length_c 9.000000
_cell_angle_alpha 100.000000
_cell_angle_beta 50.000000
_cell_angle_gamma 60.000000
_cell_volume 536.600320
_symmetry_space_group_name_H-M "P -1"
_symmetry_group_IT_number 2
_symmetry_cell_setting 'triclinic'
loop_
_space_group_symop_operation_xyz
x,y,z
-x,-y,-z
loop_
_atom_site_type_symbol
_atom_site_label
_atom_site_fract_x
_atom_site_fract_y
_atom_site_fract_z
Si Si1 0.764643 0.282051 0.265715
Si Si2 0.359045 0.791106 0.186259
Si Si3 0.773334 0.948668 0.246838
Si Si4 0.569703 0.815592 0.167904
Si Si5 0.929529 0.293241 0.866245
Si Si6 0.603083 0.121788 0.150776
O O1 0.678934 0.216757 0.410033
O O2 0.610318 0.574328 0.531070
O O3 0.793956 0.296025 0.065317
O O4 0.000000 0.000000 0.000000
O O5 0.486236 0.788086 0.130399
O O6 0.135818 0.018905 0.529245
O O7 0.500000 0.500000 0.000000
O O8 0.323788 0.869610 0.068563
O O9 0.606685 0.008306 0.489943
O O10 0.769281 0.947648 0.073241
O O11 0.976836 0.724383 0.086068
O O12 0.572610 0.978542 0.127930
O O13 0.782471 0.546676 0.966246
#
# Coordination Sequence:
#
# PCOD9073626 Si02
#       6
#     2   2   2   2   2   2
#     4  10  21  41  67  97 126 173 222 264 315 387
#     4  11  26  47  66  93 134 175 219 275 324 387
#     4  10  22  41  69  96 134 166 219 274 312 388
#     4  11  24  44  66  97 138 172 213 271 330 395
#     4  10  23  43  66  98 132 169 222 262 332 386
#     4  12  23  42  70  97 134 174 216 273 329 377
#
# _framework density 22.363012999999999
#
# number of rings (size 3 to 8) (size 9 to 14) (size 15 to 20)
#    0.000    1.333    1.667    4.500    2.333    2.000 
#   15.000    0.000    0.000    0.000    0.000    0.000 
#    0.000    0.000    0.000    0.000    0.000    0.000 
#
# Total GULP energy -66807.001074 kJ/mol
# GULP energy per Si atom -5567.250090 kJ/mol
# Density = 2.231211 g / cm^3
# Si number density = 22.363013 Si / 1000 Ang^3
#
#
#
# Elastic Constant Matrix: (Units=GPa)
#
#
# Indices 1 2 3 4 5 6 
#
# 1 47.8844 -34.1386 1.9888 2.5311 6.6242 -24.0284
# 2 -34.1386 13.0954 9.6162 -1.0118 20.1817 -3.9982
# 3 1.9888 9.6162 82.6093 -7.5343 -6.5962 -15.8112
# 4 2.5311 -1.0118 -7.5343 35.0848 -13.2155 3.2740
# 5 6.6242 20.1817 -6.5962 -13.2155 26.0933 4.6081
# 6 -24.0284 -3.9982 -15.8112 3.2740 4.6081 41.9624
#
#
#
# Elastic Compliance Matrix: (Units=1/GPa)
#
#
# Indices 1 2 3 4 5 6 
#
# 1 0.004373 -0.018768 0.004083 0.006794 0.017922 -0.000244
# 2 -0.018768 -0.011035 0.001725 0.010976 0.021838 -0.014403
# 3 0.004083 0.001725 0.013489 0.002318 0.000924 0.007303
# 4 0.006794 0.010976 0.002318 0.030581 0.005360 0.002835
# 5 0.017922 0.021838 0.000924 0.005360 0.018014 0.010295
# 6 -0.000244 -0.014403 0.007303 0.002835 0.010295 0.023719
#
#
# Mechanical properties :
#
#
# Convention : Reuss Voigt Hill
#
# Bulk Modulus (GPa) = -52.37375 10.94686 -20.71345
# Shear Modulus (GPa) = 50.66078 31.70295 41.18187
#
# Velocity S-wave (km/s) = 4.76477 3.76926 4.29595
# Velocity P-wave (km/s) = 2.60769 4.88352 3.91464
#
# Compressibility (1/GPa) = -0.01909353
#
# Stress axis : x y z
#
# Youngs Moduli (GPa) = 228.67774 -90.61698 74.13395
#
# Poissons Ratio (x) = -1.70070 -0.30272
# Poissons Ratio (y) = 4.29182 -0.12784
# Poissons Ratio (z) = -0.93378 0.15627
#
# Static dielectric constant tensor:
#      x y z
#    x 2.026800 0.017980 0.097490 
#    y 0.017980 1.831010 -0.075330 
#    z 0.097490 -0.075330 1.900800 
# 
# From -- ./inp_files/290708.got.cif
#   From: 2010.05.17/outbox.ucp.g08.bks.cvg/sg2_146_cif.got.tgz:290708.got - 2010.06.11 11:32:03.
