data_PCOD9073517
_publ_section_title
;
Structure prediction by ZEFSAII (Michael W. Deem and Ramdas Pophale) SiO2 
 PCOD9073517
Probable space group: P -1
;
_chemical_formula_sum "Si O2"
_cell_formula_units_Z 14
_cell_length_a 12.000000
_cell_length_b 9.000000
_cell_length_c 15.000000
_cell_angle_alpha 130.000000
_cell_angle_beta 30.000000
_cell_angle_gamma 120.000000
_cell_volume 613.666794
_symmetry_space_group_name_H-M "P -1"
_symmetry_group_IT_number 2
_symmetry_cell_setting 'triclinic'
loop_
_space_group_symop_operation_xyz
x,y,z
-x,-y,-z
loop_
_atom_site_type_symbol
_atom_site_label
_atom_site_fract_x
_atom_site_fract_y
_atom_site_fract_z
Si Si1 0.239829 0.407575 0.403362
Si Si2 0.931596 0.718856 0.090920
Si Si3 0.583978 0.863190 0.973671
Si Si4 0.479733 0.300001 0.759142
Si Si5 0.777602 0.905629 0.450784
Si Si6 0.401795 0.803146 0.780144
Si Si7 0.160589 0.662697 0.218166
O O1 0.247239 0.299169 0.259548
O O2 0.334139 0.605469 0.389753
O O3 0.442129 0.308899 0.292213
O O4 0.003248 0.396538 0.613005
O O5 0.710323 0.759201 0.198832
O O6 0.878443 0.859887 0.266452
O O7 0.000000 0.500000 0.000000
O O8 0.166554 0.742688 0.891090
O O9 0.365089 0.786337 0.136987
O O10 0.500000 0.000000 0.000000
O O11 0.670171 0.985579 0.040671
O O12 0.638930 0.125945 0.633060
O O13 0.311882 0.466784 0.995853
O O14 0.572500 0.790097 0.574732
O O15 0.983104 0.811509 0.337265
#
# Coordination Sequence:
#
# PCOD9073517 Si02
#       7
#     2   2   2   2   2   2   2
#     4   9  19  37  63  91 124 163 200 249 308 362
#     4  12  22  41  65  89 124 164 205 257 311 359
#     4   9  18  36  64  95 123 159 210 249 299 372
#     4  11  23  41  62  95 127 159 208 255 302 371
#     4  11  24  39  64  95 124 161 208 253 310 365
#     4  10  22  38  64  95 121 163 212 251 302 373
#     4  10  21  40  65  93 125 164 201 253 308 361
#
# _framework density 22.813683000000001
#
# number of rings (size 3 to 8) (size 9 to 14) (size 15 to 20)
#    0.000    1.714    2.857    2.143    0.000    9.714 
#    0.000    2.857    0.000   24.857    0.000    0.000 
#    0.000    0.000    0.000    0.000    0.000    0.000 
#
# Total GULP energy -78022.745274 kJ/mol
# GULP energy per Si atom -5573.053234 kJ/mol
# Density = 2.276176 g / cm^3
# Si number density = 22.813683 Si / 1000 Ang^3
#
#
#
# Elastic Constant Matrix: (Units=GPa)
#
#
# Indices 1 2 3 4 5 6 
#
# 1 21.6945 17.6883 41.5391 6.2133 -0.8617 -8.5333
# 2 17.6883 82.2552 62.1611 -19.5753 -12.0468 -5.4014
# 3 41.5391 62.1611 142.7849 -24.1459 -15.5376 -13.1968
# 4 6.2133 -19.5753 -24.1459 51.0314 -12.7205 -12.3805
# 5 -0.8617 -12.0468 -15.5376 -12.7205 17.9159 -2.2810
# 6 -8.5333 -5.4014 -13.1968 -12.3805 -2.2810 24.6140
#
#
#
# Elastic Compliance Matrix: (Units=1/GPa)
#
#
# Indices 1 2 3 4 5 6 
#
# 1 -0.176704 0.050936 0.096803 0.176707 0.249662 0.113836
# 2 0.050936 0.009565 -0.030147 -0.030893 -0.041205 -0.015763
# 3 0.096803 -0.030147 -0.036959 -0.078133 -0.108520 -0.042227
# 4 0.176707 -0.030893 -0.078133 -0.104121 -0.160926 -0.054694
# 5 0.249662 -0.041205 -0.108520 -0.160926 -0.178204 -0.078130
# 6 0.113836 -0.015763 -0.042227 -0.054694 -0.078130 0.019242
#
#
# Mechanical properties :
#
#
# Convention : Reuss Voigt Hill
#
# Bulk Modulus (GPa) = 32.16816 54.39017 43.27916
# Shear Modulus (GPa) = -7.22540 27.06866 9.92163
#
# Velocity S-wave (km/s) = -1.78158 3.44831 2.08768
# Velocity P-wave (km/s) = 3.14626 6.30454 4.98228
#
# Compressibility (1/GPa) = 0.03108664
#
# Stress axis : x y z
#
# Youngs Moduli (GPa) = -5.65919 104.55064 -27.05733
#
# Poissons Ratio (x) = -5.32542 2.61923
# Poissons Ratio (y) = 0.28826 -0.81571
# Poissons Ratio (z) = 0.54783 3.15192
#
# Static dielectric constant tensor:
#      x y z
#    x 1.850540 0.014070 0.034470 
#    y 0.014070 1.631650 0.034150 
#    z 0.034470 0.034150 1.815950 
# 
# From -- ./inp_files/207502.got.cif
#   From: 2010.05.17/outbox.ucp.g08.bks.cvg/sg2_104_cif.got.tgz:207502.got - 2010.06.11 11:32:03.
