data_PCOD9073883
_publ_section_title
;
Structure prediction by ZEFSAII (Michael W. Deem and Ramdas Pophale) SiO2 
 PCOD9073883
Probable space group: P -1
;
_chemical_formula_sum "Si O2"
_cell_formula_units_Z 14
_cell_length_a 28.477767
_cell_length_b 7.842337
_cell_length_c 8.666294
_cell_angle_alpha 146.262419
_cell_angle_beta 148.067867
_cell_angle_gamma 44.815503
_cell_volume 568.506077
_symmetry_space_group_name_H-M "P -1"
_symmetry_group_IT_number 2
_symmetry_cell_setting 'triclinic'
loop_
_space_group_symop_operation_xyz
x,y,z
-x,-y,-z
loop_
_atom_site_type_symbol
_atom_site_label
_atom_site_fract_x
_atom_site_fract_y
_atom_site_fract_z
Si Si1 0.450983 0.684846 0.636324
Si Si2 0.391230 0.351717 0.502011
Si Si3 0.288110 0.029300 0.317852
Si Si4 0.646109 0.285945 0.025366
Si Si5 0.969357 0.844386 0.641091
Si Si6 0.198324 0.361133 0.853716
Si Si7 0.860424 0.963811 0.854663
O O1 0.500000 0.500000 0.500000
O O2 0.457093 0.507418 0.681464
O O3 0.348839 0.776845 0.387038
O O4 0.500000 0.000000 0.000000
O O5 0.363134 0.612084 0.743940
O O6 0.300427 0.278257 0.101339
O O7 0.419375 0.016674 0.394478
O O8 0.339284 0.355954 0.718822
O O9 0.193435 0.078381 0.170697
O O10 0.284290 0.882736 0.026268
O O11 0.863609 0.826224 0.340398
O O12 0.000000 0.500000 0.500000
O O13 0.033256 0.992422 0.803027
O O14 0.000000 0.000000 0.000000
O O15 0.164754 0.289050 0.532806
O O16 0.178997 0.721231 0.093376
#
# Coordination Sequence:
#
# PCOD9073883 Si02
#       7
#     2   2   2   2   2   2   2
#     4  12  26  42  66  95 118 145 200 258 298 346
#     4  11  22  42  62  88 121 160 199 240 300 353
#     4  11  22  42  62  88 121 160 199 240 300 353
#     4  10  24  40  62  87 122 164 198 234 292 375
#     4   8  16  28  46  87 122 145 186 249 297 336
#     4  10  18  31  59  88 118 152 198 248 295 340
#     4  10  18  31  59  88 118 152 198 248 295 340
#
# _framework density 24.625945999999999
#
# number of rings (size 3 to 8) (size 9 to 14) (size 15 to 20)
#    0.000    1.714    1.429    3.429    2.000    0.000 
#    0.000   14.286    0.000    5.143    0.000    0.000 
#    0.000    0.000    0.000    0.000    0.000    0.000 
#
# Total GULP energy -77938.987618 kJ/mol
# GULP energy per Si atom -5567.070544 kJ/mol
# Density = 2.456990 g / cm^3
# Si number density = 24.625946 Si / 1000 Ang^3
#
#
#
# Elastic Constant Matrix: (Units=GPa)
#
#
# Indices 1 2 3 4 5 6 
#
# 1 206.2780 20.6571 52.8014 16.8772 10.2849 -9.8792
# 2 20.6571 66.6569 38.0468 21.3296 1.4485 -0.2321
# 3 52.8014 38.0468 122.5759 41.5956 -4.3731 -13.6850
# 4 16.8772 21.3296 41.5956 38.9593 -13.6126 -2.9264
# 5 10.2849 1.4485 -4.3731 -13.6126 48.4525 6.7973
# 6 -9.8792 -0.2321 -13.6850 -2.9264 6.7973 27.0451
#
#
#
# Elastic Compliance Matrix: (Units=1/GPa)
#
#
# Indices 1 2 3 4 5 6 
#
# 1 0.005598 -0.000361 -0.002009 -0.000578 -0.001717 0.001394
# 2 -0.000361 0.019765 -0.003600 -0.007945 -0.002799 -0.001940
# 3 -0.002009 -0.003600 0.015637 -0.014425 -0.002997 0.006340
# 4 -0.000578 -0.007945 -0.014425 0.050111 0.013930 -0.005657
# 5 -0.001717 -0.002799 -0.002997 0.013930 0.025730 -0.007127
# 6 0.001394 -0.001940 0.006340 -0.005657 -0.007127 0.041855
#
#
# Mechanical properties :
#
#
# Convention : Reuss Voigt Hill
#
# Bulk Modulus (GPa) = 34.41127 68.72459 51.56793
# Shear Modulus (GPa) = 27.72822 41.82508 34.77665
#
# Velocity S-wave (km/s) = 3.35920 4.12565 3.76200
# Velocity P-wave (km/s) = 5.38976 7.11777 6.31317
#
# Compressibility (1/GPa) = 0.02906025
#
# Stress axis : x y z
#
# Youngs Moduli (GPa) = 178.64120 50.59383 63.95211
#
# Poissons Ratio (x) = 0.01827 0.12847
# Poissons Ratio (y) = 0.06453 0.23021
# Poissons Ratio (z) = 0.35886 0.18212
#
# Static dielectric constant tensor:
#      x y z
#    x 2.027320 0.015510 0.082600 
#    y 0.015510 2.008650 -0.060940 
#    z 0.082600 -0.060940 1.937870 
# 
# From -- ./inp_files/356586.got.cif
#   From: 2010.05.17/outbox.cif.g08.bks.cpg/sg2_179_cif.got.tgz:356586.got - 2010.06.03 11:33:40.
