data_PCOD9073022
_publ_section_title
;
Structure prediction by ZEFSAII (Michael W. Deem and Ramdas Pophale) SiO2 
 PCOD9073022
Probable space group: P -1
;
_chemical_formula_sum "Si O2"
_cell_formula_units_Z 16
_cell_length_a 9.000000
_cell_length_b 15.000000
_cell_length_c 9.000000
_cell_angle_alpha 110.000000
_cell_angle_beta 50.000000
_cell_angle_gamma 100.000000
_cell_volume 872.810236
_symmetry_space_group_name_H-M "P -1"
_symmetry_group_IT_number 2
_symmetry_cell_setting 'triclinic'
loop_
_space_group_symop_operation_xyz
x,y,z
-x,-y,-z
loop_
_atom_site_type_symbol
_atom_site_label
_atom_site_fract_x
_atom_site_fract_y
_atom_site_fract_z
Si Si1 0.376080 0.874754 0.112233
Si Si2 0.408795 0.303375 0.958992
Si Si3 0.242887 0.598750 0.079029
Si Si4 0.624086 0.911711 0.685098
Si Si5 0.981530 0.777434 0.331345
Si Si6 0.960192 0.561808 0.712234
Si Si7 0.601053 0.745509 0.407545
Si Si8 0.644888 0.405001 0.345124
O O1 0.510922 0.792420 0.061134
O O2 0.163512 0.836146 0.199606
O O3 0.357088 0.975248 0.270363
O O4 0.475840 0.894588 0.902866
O O5 0.554685 0.382624 0.960761
O O6 0.431951 0.281286 0.756300
O O7 0.190304 0.345701 0.161667
O O8 0.088908 0.684024 0.280678
O O9 0.153042 0.502424 0.133604
O O10 0.283310 0.606944 0.879917
O O11 0.556117 0.855656 0.550077
O O12 0.829801 0.851952 0.555157
O O13 0.834172 0.734983 0.282326
O O14 0.000000 0.500000 0.500000
O O15 0.165633 0.585438 0.667113
O O16 0.480991 0.679719 0.557633
O O17 0.500000 0.500000 0.500000
#
# Coordination Sequence:
#
# PCOD9073022 Si02
#       8
#     2   2   2   2   2   2   2   2
#     4  10  20  40  64  92 117 163 201 259 294 368
#     4  11  23  38  58  86 126 156 198 247 315 362
#     4  11  22  39  61  87 117 166 204 246 299 364
#     4   9  21  37  67  87 122 153 217 243 305 356
#     4   9  20  36  65  85 120 153 206 246 299 355
#     4  12  25  38  59  88 126 160 200 252 308 361
#     4  10  21  38  58  88 120 157 194 254 304 354
#     4  12  23  39  63  86 121 160 214 249 294 364
#
# _framework density 18.331591
#
# number of rings (size 3 to 8) (size 9 to 14) (size 15 to 20)
#    0.750    0.750    0.000    6.375    1.750    0.500 
#    0.000    0.000    0.000    2.250    0.000    0.000 
#    0.000    0.000    0.000    0.000    0.000    0.000 
#
# Total GULP energy -89192.161181 kJ/mol
# GULP energy per Si atom -5574.510074 kJ/mol
# Density = 1.828987 g / cm^3
# Si number density = 18.331591 Si / 1000 Ang^3
#
#
#
# Elastic Constant Matrix: (Units=GPa)
#
#
# Indices 1 2 3 4 5 6 
#
# 1 131.9261 35.7623 42.9506 -1.3370 -8.9007 23.0809
# 2 35.7623 94.6501 22.8571 3.2811 -10.2700 15.8600
# 3 42.9506 22.8571 99.6929 9.8638 2.1907 7.0471
# 4 -1.3370 3.2811 9.8638 38.6850 -5.3328 -7.7219
# 5 -8.9007 -10.2700 2.1907 -5.3328 39.2305 1.7983
# 6 23.0809 15.8600 7.0471 -7.7219 1.7983 24.7331
#
#
#
# Elastic Compliance Matrix: (Units=1/GPa)
#
#
# Indices 1 2 3 4 5 6 
#
# 1 0.010855 -0.001520 -0.003829 0.000215 0.002683 -0.008192
# 2 -0.001520 0.013213 -0.001757 -0.001733 0.003313 -0.007335
# 3 -0.003829 -0.001757 0.012463 -0.003456 -0.002506 0.000253
# 4 0.000215 -0.001733 -0.003456 0.029510 0.003301 0.010868
# 5 0.002683 0.003313 -0.002506 0.003301 0.027780 -0.004904
# 6 -0.008192 -0.007335 0.000253 0.010868 -0.004904 0.056458
#
#
# Mechanical properties :
#
#
# Convention : Reuss Voigt Hill
#
# Bulk Modulus (GPa) = 44.80955 58.82323 51.81639
# Shear Modulus (GPa) = 29.08147 35.50965 32.29556
#
# Velocity S-wave (km/s) = 3.98730 4.40599 4.20187
# Velocity P-wave (km/s) = 6.75981 7.61852 7.20197
#
# Compressibility (1/GPa) = 0.02231667
#
# Stress axis : x y z
#
# Youngs Moduli (GPa) = 92.12087 75.68532 80.23973
#
# Poissons Ratio (x) = 0.11507 0.30727
# Poissons Ratio (y) = 0.14006 0.14100
# Poissons Ratio (z) = 0.35277 0.13299
#
# Static dielectric constant tensor:
#      x y z
#    x 1.633280 0.006250 -0.001840 
#    y 0.006250 1.646580 0.020120 
#    z -0.001840 0.020120 1.630870 
# 
# From -- ./inp_files/208167.got.cif
#   From: 2010.05.17/outbox.ucp.g08.bks.cvg/sg2_105_cif.got.tgz:208167.got - 2010.06.11 11:32:03.
