data_PCOD9073482
_publ_section_title
;
Structure prediction by ZEFSAII (Michael W. Deem and Ramdas Pophale) SiO2 
 PCOD9073482
Probable space group: P -1
;
_chemical_formula_sum "Si O2"
_cell_formula_units_Z 16
_cell_length_a 12.000000
_cell_length_b 18.000000
_cell_length_c 21.000000
_cell_angle_alpha 30.000000
_cell_angle_beta 20.000000
_cell_angle_gamma 30.000000
_cell_volume 738.640068
_symmetry_space_group_name_H-M "P -1"
_symmetry_group_IT_number 2
_symmetry_cell_setting 'triclinic'
loop_
_space_group_symop_operation_xyz
x,y,z
-x,-y,-z
loop_
_atom_site_type_symbol
_atom_site_label
_atom_site_fract_x
_atom_site_fract_y
_atom_site_fract_z
Si Si1 0.908202 0.081592 0.326314
Si Si2 0.150625 0.255524 0.949226
Si Si3 0.351076 0.748183 0.050063
Si Si4 0.242995 0.570149 0.360117
Si Si5 0.454038 0.057134 0.817287
Si Si6 0.234417 0.434903 0.150598
Si Si7 0.071777 0.744086 0.446004
Si Si8 0.598533 0.740120 0.428853
O O1 0.589743 0.162831 0.481532
O O2 0.214047 0.026561 0.255539
O O3 0.868129 0.924010 0.434849
O O4 0.994671 0.189216 0.143538
O O5 0.531794 0.258925 0.759646
O O6 0.960862 0.423378 0.896505
O O7 0.186844 0.144679 0.950021
O O8 0.433046 0.645852 0.148531
O O9 0.994407 0.729796 0.230510
O O10 0.336336 0.923184 0.945705
O O11 0.594882 0.695504 0.897104
O O12 0.024582 0.695425 0.435116
O O13 0.442743 0.430239 0.405566
O O14 0.000000 0.500000 0.500000
O O15 0.512836 0.176585 0.642269
O O16 0.024634 0.366720 0.366452
O O17 0.500000 0.500000 0.000000
#
# Coordination Sequence:
#
# PCOD9073482 Si02
#       8
#     2   2   2   2   2   2   2   2
#     4  11  24  42  65  95 127 167 213 260 313 377
#     4  11  24  44  66  94 128 168 212 263 317 376
#     4  11  23  41  62  91 127 166 209 260 314 373
#     4  10  21  40  62  89 124 163 205 257 309 367
#     4  11  22  41  63  91 127 164 209 263 312 373
#     4  12  25  43  66  97 129 167 213 262 316 380
#     4  11  23  43  67  94 128 168 211 262 318 374
#     4  11  23  40  62  91 126 167 208 259 315 370
#
# _framework density 21.661429999999999
#
# number of rings (size 3 to 8) (size 9 to 14) (size 15 to 20)
#    0.000    1.000    0.000    8.625    0.000    5.000 
#    0.000    6.250    0.000    0.000    0.000    0.000 
#    0.000    0.000    0.000    0.000    0.000    0.000 
#
# Total GULP energy -89377.147752 kJ/mol
# GULP energy per Si atom -5586.071735 kJ/mol
# Density = 2.161213 g / cm^3
# Si number density = 21.661430 Si / 1000 Ang^3
#
#
#
# Elastic Constant Matrix: (Units=GPa)
#
#
# Indices 1 2 3 4 5 6 
#
# 1 115.7525 18.5866 41.8074 -2.2699 48.2960 12.3011
# 2 18.5866 49.2786 4.8710 -3.6817 7.4043 8.7973
# 3 41.8074 4.8710 54.2725 -24.4061 37.5430 -7.6295
# 4 -2.2699 -3.6817 -24.4061 34.1227 -4.1616 12.8599
# 5 48.2960 7.4043 37.5430 -4.1616 49.8579 -10.2098
# 6 12.3011 8.7973 -7.6295 12.8599 -10.2098 45.9683
#
#
#
# Elastic Compliance Matrix: (Units=1/GPa)
#
#
# Indices 1 2 3 4 5 6 
#
# 1 0.017968 -0.002707 -0.005046 -0.001505 -0.014974 -0.008033
# 2 -0.002707 0.023923 0.010953 0.011883 -0.009727 -0.007521
# 3 -0.005046 0.010953 0.095615 0.068163 -0.066899 -0.018804
# 4 -0.001505 0.011883 0.068163 0.082473 -0.049806 -0.024693
# 5 -0.014974 -0.009727 -0.066899 -0.049806 0.088008 0.028246
# 6 -0.008033 -0.007521 -0.018804 -0.024693 0.028246 0.035404
#
#
# Mechanical properties :
#
#
# Convention : Reuss Voigt Hill
#
# Bulk Modulus (GPa) = 6.94891 38.87042 22.90966
# Shear Modulus (GPa) = 12.98837 36.25900 24.62369
#
# Velocity S-wave (km/s) = 2.45135 4.09577 3.37523
# Velocity P-wave (km/s) = 3.35068 6.35221 5.07827
#
# Compressibility (1/GPa) = 0.14390753
#
# Stress axis : x y z
#
# Youngs Moduli (GPa) = 55.65422 41.80081 10.45857
#
# Poissons Ratio (x) = 0.11315 0.05277
# Poissons Ratio (y) = 0.15065 -0.11455
# Poissons Ratio (z) = 0.28081 -0.45784
#
# Static dielectric constant tensor:
#      x y z
#    x 1.779090 -0.018450 -0.019250 
#    y -0.018450 1.932000 0.030820 
#    z -0.019250 0.030820 1.757560 
# 
# From -- ./inp_files/595990.got.cif
#   From: 2010.05.17/outbox.ucp.g08.bks.cvg/sg2_298_cif.got.tgz:595990.got - 2010.06.11 11:32:03.
