data_PCOD9073730
_publ_section_title
;
Structure prediction by ZEFSAII (Michael W. Deem and Ramdas Pophale) SiO2 
 PCOD9073730
Probable space group: P -1
;
_chemical_formula_sum "Si O2"
_cell_formula_units_Z 16
_cell_length_a 9.000000
_cell_length_b 12.000000
_cell_length_c 15.000000
_cell_angle_alpha 30.000000
_cell_angle_beta 110.000000
_cell_angle_gamma 100.000000
_cell_volume 734.803614
_symmetry_space_group_name_H-M "P -1"
_symmetry_group_IT_number 2
_symmetry_cell_setting 'triclinic'
loop_
_space_group_symop_operation_xyz
x,y,z
-x,-y,-z
loop_
_atom_site_type_symbol
_atom_site_label
_atom_site_fract_x
_atom_site_fract_y
_atom_site_fract_z
Si Si1 0.427027 0.537601 0.092829
Si Si2 0.882406 0.344760 0.515847
Si Si3 0.747446 0.658116 0.597628
Si Si4 0.145680 0.949219 0.751319
Si Si5 0.689497 0.677401 0.951456
Si Si6 0.589521 0.195160 0.497143
Si Si7 0.997099 0.643725 0.809277
Si Si8 0.942284 0.273567 0.772623
O O1 0.353738 0.488401 0.017994
O O2 0.504967 0.283037 0.324548
O O3 0.272565 0.724023 0.975351
O O4 0.568240 0.667052 0.014103
O O5 0.735221 0.314599 0.447570
O O6 0.838362 0.314388 0.630998
O O7 0.926057 0.582972 0.332361
O O8 0.028263 0.116985 0.680346
O O9 0.557747 0.676766 0.557739
O O10 0.843740 0.428380 0.725049
O O11 0.830655 0.693390 0.685205
O O12 0.757254 0.882990 0.388523
O O13 0.045757 0.866295 0.706597
O O14 0.658100 0.930736 0.725985
O O15 0.875328 0.534140 0.106032
O O16 0.000000 0.500000 0.000000
O O17 0.000000 0.000000 0.000000
#
# Coordination Sequence:
#
# PCOD9073730 Si02
#       8
#     2   2   2   2   2   2   2   2
#     4  10  22  38  60  93 137 180 213 257 321 380
#     4  10  25  45  69  99 124 167 221 272 324 391
#     4  11  24  42  66  98 131 174 217 268 328 382
#     4  10  21  43  65  94 139 172 219 265 313 394
#     4  10  22  39  57  94 139 176 217 260 310 387
#     4  12  24  38  66  97 132 166 216 272 328 379
#     4  11  23  38  65  98 135 178 220 258 320 389
#     4  10  25  47  73  90 123 170 221 271 328 388
#
# _framework density 21.774525000000001
#
# number of rings (size 3 to 8) (size 9 to 14) (size 15 to 20)
#    0.000    1.500    1.250    3.000    8.750    1.500 
#    0.000    0.625    0.000    0.000    0.000    0.000 
#    0.000    0.000    0.000    0.000    0.000    0.000 
#
# Total GULP energy -89159.668878 kJ/mol
# GULP energy per Si atom -5572.479305 kJ/mol
# Density = 2.172497 g / cm^3
# Si number density = 21.774525 Si / 1000 Ang^3
#
#
#
# Elastic Constant Matrix: (Units=GPa)
#
#
# Indices 1 2 3 4 5 6 
#
# 1 49.5526 -0.5609 4.7237 -4.0690 2.6722 5.4703
# 2 -0.5609 40.8510 9.2372 -12.6660 9.1496 -12.6133
# 3 4.7237 9.2372 80.4066 -28.0497 -10.6745 14.2444
# 4 -4.0690 -12.6660 -28.0497 35.7463 2.1729 -3.3352
# 5 2.6722 9.1496 -10.6745 2.1729 25.0954 5.7988
# 6 5.4703 -12.6133 14.2444 -3.3352 5.7988 13.2882
#
#
#
# Elastic Compliance Matrix: (Units=1/GPa)
#
#
# Indices 1 2 3 4 5 6 
#
# 1 0.018624 0.028008 -0.014782 0.006958 -0.030607 0.049867
# 2 0.028008 -0.290438 0.168513 -0.044838 0.321606 -0.619454
# 3 -0.014782 0.168513 -0.071832 0.042575 -0.169861 0.327851
# 4 0.006958 -0.044838 0.042575 0.032918 0.055606 -0.107068
# 5 -0.030607 0.321606 -0.169861 0.055606 -0.300239 0.644933
# 6 0.049867 -0.619454 0.327851 -0.107068 0.644933 -1.193021
#
#
# Mechanical properties :
#
#
# Convention : Reuss Voigt Hill
#
# Bulk Modulus (GPa) = 50.42502 21.95667 36.19085
# Shear Modulus (GPa) = -2.31390 25.31998 11.50304
#
# Velocity S-wave (km/s) = -1.03197 3.41372 2.30093
# Velocity P-wave (km/s) = 4.66777 5.06395 4.86989
#
# Compressibility (1/GPa) = 0.01983142
#
# Stress axis : x y z
#
# Youngs Moduli (GPa) = 53.69543 -3.44308 -13.92146
#
# Poissons Ratio (x) = 0.09643 -0.20579
# Poissons Ratio (y) = -1.50389 2.34594
# Poissons Ratio (z) = 0.79372 0.58020
#
# Static dielectric constant tensor:
#      x y z
#    x 1.948270 -0.021890 -0.016350 
#    y -0.021890 1.826410 0.024590 
#    z -0.016350 0.024590 1.803170 
# 
# From -- ./inp_files/499767.got.cif
#   From: 2010.05.17/outbox.ucp.g08.bks.cvg/sg2_250_cif.got.tgz:499767.got - 2010.06.11 11:32:03.
