data_PCOD9073685
_publ_section_title
;
Structure prediction by ZEFSAII (Michael W. Deem and Ramdas Pophale) SiO2 
 PCOD9073685
Probable space group: P -1
;
_chemical_formula_sum "Si O2"
_cell_formula_units_Z 16
_cell_length_a 12.000000
_cell_length_b 21.000000
_cell_length_c 9.000000
_cell_angle_alpha 110.000000
_cell_angle_beta 110.000000
_cell_angle_gamma 20.000000
_cell_volume 727.418465
_symmetry_space_group_name_H-M "P -1"
_symmetry_group_IT_number 2
_symmetry_cell_setting 'triclinic'
loop_
_space_group_symop_operation_xyz
x,y,z
-x,-y,-z
loop_
_atom_site_type_symbol
_atom_site_label
_atom_site_fract_x
_atom_site_fract_y
_atom_site_fract_z
Si Si1 0.352252 0.942942 0.595374
Si Si2 0.652254 0.644358 0.463947
Si Si3 0.850911 0.312771 0.587073
Si Si4 0.324423 0.294264 0.914289
Si Si5 0.808894 0.370270 0.958792
Si Si6 0.919786 0.671425 0.428599
Si Si7 0.447444 0.693284 0.097113
Si Si8 0.786849 0.958387 0.047402
O O1 0.387149 0.843471 0.527108
O O2 0.683874 0.798215 0.564684
O O3 0.306169 0.984026 0.778132
O O4 0.057521 0.133791 0.521424
O O5 0.551269 0.660649 0.282243
O O6 0.000000 0.500000 0.500000
O O7 0.726323 0.547292 0.541136
O O8 0.500000 0.500000 0.500000
O O9 0.811609 0.344937 0.770262
O O10 0.048158 0.272080 0.581740
O O11 0.234574 0.302334 0.729829
O O12 0.554574 0.236630 0.942102
O O13 0.000000 0.500000 0.000000
O O14 0.497426 0.145147 0.971999
O O15 0.113795 0.173799 0.027066
O O16 0.500000 0.500000 0.000000
O O17 0.737229 0.487913 0.017255
O O18 0.109680 0.831617 0.056557
#
# Coordination Sequence:
#
# PCOD9073685 Si02
#       8
#     2   2   2   2   2   2   2   2
#     4  10  22  45  63  97 132 170 221 261 336 391
#     4  10  21  42  67  97 131 173 220 266 336 390
#     4  11  25  45  68 100 131 172 221 275 327 393
#     4  12  24  43  65  99 135 174 223 274 331 395
#     4   9  22  44  64  96 130 171 216 267 333 381
#     4  11  24  44  66  96 134 173 220 268 333 396
#     4  11  22  44  69  96 134 174 226 277 324 389
#     4  10  24  42  68  99 132 174 226 271 328 391
#
# _framework density 21.995591999999998
#
# number of rings (size 3 to 8) (size 9 to 14) (size 15 to 20)
#    0.000    1.500    2.500    2.250    7.000    2.500 
#    9.000    1.875    0.000    0.000    0.000    0.000 
#    0.000    0.000    0.000    0.000    0.000    0.000 
#
# Total GULP energy -89353.234395 kJ/mol
# GULP energy per Si atom -5584.577150 kJ/mol
# Density = 2.194553 g / cm^3
# Si number density = 21.995592 Si / 1000 Ang^3
#
#
#
# Elastic Constant Matrix: (Units=GPa)
#
#
# Indices 1 2 3 4 5 6 
#
# 1 46.5247 41.2747 9.5490 0.6880 -22.8768 11.8158
# 2 41.2747 136.8838 32.0078 5.4214 -8.6406 51.2653
# 3 9.5490 32.0078 37.7899 10.1156 -8.9872 20.3862
# 4 0.6880 5.4214 10.1156 24.8149 8.3493 -6.7366
# 5 -22.8768 -8.6406 -8.9872 8.3493 31.6947 1.3625
# 6 11.8158 51.2653 20.3862 -6.7366 1.3625 52.1045
#
#
#
# Elastic Compliance Matrix: (Units=1/GPa)
#
#
# Indices 1 2 3 4 5 6 
#
# 1 0.062017 -0.013437 0.029671 -0.036078 0.059820 -0.018681
# 2 -0.013437 0.016586 -0.005175 -0.002379 -0.005527 -0.011410
# 3 0.029671 -0.005175 0.076360 -0.062093 0.059782 -0.041104
# 4 -0.036078 -0.002379 -0.062093 0.105838 -0.074345 0.050444
# 5 0.059820 -0.005527 0.059782 -0.074345 0.111651 -0.044049
# 6 -0.018681 -0.011410 -0.041104 0.050444 -0.044049 0.058411
#
#
# Mechanical properties :
#
#
# Convention : Reuss Voigt Hill
#
# Bulk Modulus (GPa) = 5.64712 42.98461 24.31587
# Shear Modulus (GPa) = 10.68900 30.94727 20.81814
#
# Velocity S-wave (km/s) = 2.20684 3.75504 3.07981
# Velocity P-wave (km/s) = 3.01106 6.19558 4.87092
#
# Compressibility (1/GPa) = 0.17708141
#
# Stress axis : x y z
#
# Youngs Moduli (GPa) = 16.12471 60.29329 13.09583
#
# Poissons Ratio (x) = 0.81014 -0.38857
# Poissons Ratio (y) = 0.21666 0.06777
# Poissons Ratio (z) = -0.47844 0.31203
#
# Static dielectric constant tensor:
#      x y z
#    x 1.820200 0.037000 -0.008600 
#    y 0.037000 1.871130 0.026650 
#    z -0.008600 0.026650 1.795510 
# 
# From -- ./inp_files/283140.got.cif
#   From: 2010.05.17/outbox.ucp.g08.bks.cvg/sg2_142_cif.got.tgz:283140.got - 2010.06.11 11:32:03.
