data_PCOD9073774
_publ_section_title
;
Structure prediction by ZEFSAII (Michael W. Deem and Ramdas Pophale) SiO2 
 PCOD9073774
Probable space group: P -1
;
_chemical_formula_sum "Si O2"
_cell_formula_units_Z 14
_cell_length_a 30.000000
_cell_length_b 12.000000
_cell_length_c 15.000000
_cell_angle_alpha 30.000000
_cell_angle_beta 160.000000
_cell_angle_gamma 160.000000
_cell_volume 624.976433
_symmetry_space_group_name_H-M "P -1"
_symmetry_group_IT_number 2
_symmetry_cell_setting 'triclinic'
loop_
_space_group_symop_operation_xyz
x,y,z
-x,-y,-z
loop_
_atom_site_type_symbol
_atom_site_label
_atom_site_fract_x
_atom_site_fract_y
_atom_site_fract_z
Si Si1 0.818534 0.241359 0.137881
Si Si2 0.598705 0.305054 0.200271
Si Si3 0.288269 0.465287 0.392969
Si Si4 0.697329 0.784179 0.912925
Si Si5 0.887415 0.820478 0.541367
Si Si6 0.341389 0.134862 0.416293
Si Si7 0.912118 0.114946 0.716993
O O1 0.918276 0.487326 0.241346
O O2 0.921473 0.134578 0.380960
O O3 0.785391 0.399887 0.890960
O O4 0.607260 0.892903 0.009038
O O5 0.626563 0.465184 0.047313
O O6 0.757139 0.581822 0.378556
O O7 0.596007 0.035394 0.371833
O O8 0.213056 0.358391 0.427384
O O9 0.207767 0.140461 0.413954
O O10 0.522510 0.736108 0.640772
O O11 0.725224 0.835891 0.822297
O O12 0.912915 0.068533 0.160667
O O13 0.500000 0.500000 0.500000
O O14 0.204402 0.937764 0.380675
O O15 0.000000 0.000000 0.000000
#
# Coordination Sequence:
#
# PCOD9073774 Si02
#       7
#     2   2   2   2   2   2   2
#     4  11  23  46  70 102 150 190 237 305 356 428
#     4  12  27  47  72 106 148 193 242 300 360 433
#     4  11  24  48  74 107 143 194 243 300 366 429
#     4  12  25  46  74 109 143 192 242 297 366 427
#     4  12  28  47  72 108 148 194 248 295 360 434
#     4  12  24  48  74 105 147 185 238 305 365 431
#     4  10  21  43  73 104 140 186 242 296 363 426
#
# _framework density 22.400845
#
# number of rings (size 3 to 8) (size 9 to 14) (size 15 to 20)
#    0.000    0.571    4.286    4.286    0.000    3.429 
#    2.571    0.000    0.000    0.000    0.000    0.000 
#    0.000    0.000    0.000    0.000    0.000    0.000 
#
# Total GULP energy -78186.641067 kJ/mol
# GULP energy per Si atom -5584.760076 kJ/mol
# Density = 2.234986 g / cm^3
# Si number density = 22.400845 Si / 1000 Ang^3
#
#
#
# Elastic Constant Matrix: (Units=GPa)
#
#
# Indices 1 2 3 4 5 6 
#
# 1 74.1487 -3.0905 10.6690 -7.9984 -12.1908 7.6212
# 2 -3.0905 60.1395 10.6879 -5.1185 -6.6887 -2.0671
# 3 10.6690 10.6879 100.2415 3.7371 1.0293 -3.3961
# 4 -7.9984 -5.1185 3.7371 48.3283 6.8481 -0.8801
# 5 -12.1908 -6.6887 1.0293 6.8481 37.4080 -7.5229
# 6 7.6212 -2.0671 -3.3961 -0.8801 -7.5229 37.5273
#
#
#
# Elastic Compliance Matrix: (Units=1/GPa)
#
#
# Indices 1 2 3 4 5 6 
#
# 1 0.015030 0.001725 -0.001984 0.002157 0.004424 -0.002199
# 2 0.001725 0.017704 -0.002136 0.001824 0.003697 0.001215
# 3 -0.001984 -0.002136 0.010504 -0.001222 -0.000887 0.001029
# 4 0.002157 0.001824 -0.001222 0.021756 -0.003030 -0.000545
# 5 0.004424 0.003697 -0.000887 -0.003030 0.030472 0.005263
# 6 -0.002199 0.001215 0.001029 -0.000545 0.005263 0.028296
#
#
# Mechanical properties :
#
#
# Convention : Reuss Voigt Hill
#
# Bulk Modulus (GPa) = 26.00880 30.11807 28.06344
# Shear Modulus (GPa) = 35.36834 39.07026 37.21930
#
# Velocity S-wave (km/s) = 3.97783 4.18082 4.08059
# Velocity P-wave (km/s) = 5.72130 6.06465 5.89548
#
# Compressibility (1/GPa) = 0.03844853
#
# Stress axis : x y z
#
# Youngs Moduli (GPa) = 66.53442 56.48293 95.19848
#
# Poissons Ratio (x) = -0.09743 0.18887
# Poissons Ratio (y) = -0.11477 0.20335
# Poissons Ratio (z) = 0.13200 0.12065
#
# Static dielectric constant tensor:
#      x y z
#    x 1.843980 0.175620 0.053640 
#    y 0.175620 1.993370 0.148870 
#    z 0.053640 0.148870 1.889160 
# 
# From -- ./inp_files/471839.got.cif
#   From: 2010.05.17/outbox.ucp.g08.bks.cvg/sg2_236_cif.got.tgz:471839.got - 2010.06.11 11:32:03.
