data_PCOD9073594
_publ_section_title
;
Structure prediction by ZEFSAII (Michael W. Deem and Ramdas Pophale) SiO2 
 PCOD9073594
Probable space group: P -1
;
_chemical_formula_sum "Si O2"
_cell_formula_units_Z 14
_cell_length_a 21.000000
_cell_length_b 21.000000
_cell_length_c 12.000000
_cell_angle_alpha 160.000000
_cell_angle_beta 150.000000
_cell_angle_gamma 20.000000
_cell_volume 612.476904
_symmetry_space_group_name_H-M "P -1"
_symmetry_group_IT_number 2
_symmetry_cell_setting 'triclinic'
loop_
_space_group_symop_operation_xyz
x,y,z
-x,-y,-z
loop_
_atom_site_type_symbol
_atom_site_label
_atom_site_fract_x
_atom_site_fract_y
_atom_site_fract_z
Si Si1 0.369605 0.569086 0.550418
Si Si2 0.169303 0.191344 0.703021
Si Si3 0.049930 0.963163 0.260609
Si Si4 0.273352 0.638892 0.277167
Si Si5 0.665181 0.845305 0.406657
Si Si6 0.462660 0.025372 0.172950
Si Si7 0.035601 0.622286 0.536750
O O1 0.303787 0.706650 0.553025
O O2 0.526923 0.547099 0.789993
O O3 0.482135 0.252572 0.199830
O O4 0.174560 0.760175 0.634327
O O5 0.378523 0.055361 0.801319
O O6 0.086041 0.230199 0.518275
O O7 0.167356 0.011738 0.478857
O O8 0.000000 0.500000 0.000000
O O9 0.109109 0.867246 0.320349
O O10 0.099657 0.740132 0.888481
O O11 0.252480 0.450145 0.972487
O O12 0.544649 0.025311 0.411266
O O13 0.862893 0.739578 0.550113
O O14 0.500000 0.000000 0.500000
O O15 0.234942 0.301482 0.282033
#
# Coordination Sequence:
#
# PCOD9073594 Si02
#       7
#     2   2   2   2   2   2   2
#     4  10  22  41  64  97 134 173 218 269 324 394
#     4  11  25  46  69  94 131 175 227 276 321 391
#     4  12  24  42  67  97 131 175 219 273 329 385
#     4  10  23  37  64  98 131 172 220 268 320 393
#     4  10  21  41  64  95 138 171 211 265 329 397
#     4  10  23  42  66  96 129 173 220 269 326 390
#     4  11  26  42  69 100 133 173 220 273 332 384
#
# _framework density 22.858004999999999
#
# number of rings (size 3 to 8) (size 9 to 14) (size 15 to 20)
#    0.000    1.429    1.429    2.571    2.000    9.143 
#    0.000    0.000    0.000    0.000    0.000    0.000 
#    0.000    0.000    0.000    0.000    0.000    0.000 
#
# Total GULP energy -78001.027135 kJ/mol
# GULP energy per Si atom -5571.501938 kJ/mol
# Density = 2.280598 g / cm^3
# Si number density = 22.858005 Si / 1000 Ang^3
#
#
#
# Elastic Constant Matrix: (Units=GPa)
#
#
# Indices 1 2 3 4 5 6 
#
# 1 43.2073 -1.5294 -0.9415 2.3829 -3.9522 -12.7613
# 2 -1.5294 102.1102 -4.3940 17.4608 -6.8914 -0.9328
# 3 -0.9415 -4.3940 56.3056 0.0390 -3.3759 7.1785
# 4 2.3829 17.4608 0.0390 33.9309 -10.6170 -4.9193
# 5 -3.9522 -6.8914 -3.3759 -10.6170 24.6476 4.8972
# 6 -12.7613 -0.9328 7.1785 -4.9193 4.8972 36.5179
#
#
#
# Elastic Compliance Matrix: (Units=1/GPa)
#
#
# Indices 1 2 3 4 5 6 
#
# 1 0.026003 0.000632 -0.000496 -0.000091 0.002479 0.008856
# 2 0.000632 0.010830 0.000995 -0.005367 0.001066 -0.000564
# 3 -0.000496 0.000995 0.018592 0.000006 0.003599 -0.004284
# 4 -0.000091 -0.005367 0.000006 0.036998 0.013835 0.002958
# 5 0.002479 0.001066 0.003599 0.013835 0.048608 -0.004469
# 6 0.008856 -0.000564 -0.004284 0.002958 -0.004469 0.032304
#
#
# Mechanical properties :
#
#
# Convention : Reuss Voigt Hill
#
# Bulk Modulus (GPa) = 17.33492 20.87703 19.10597
# Shear Modulus (GPa) = 26.27407 32.91846 29.59627
#
# Velocity S-wave (km/s) = 3.39403 3.79902 3.60222
# Velocity P-wave (km/s) = 4.79160 5.32884 5.06735
#
# Compressibility (1/GPa) = 0.05768703
#
# Stress axis : x y z
#
# Youngs Moduli (GPa) = 38.45681 92.33469 53.78765
#
# Poissons Ratio (x) = -0.05835 0.02669
# Poissons Ratio (y) = -0.02430 -0.05353
# Poissons Ratio (z) = 0.01908 -0.09190
#
# Static dielectric constant tensor:
#      x y z
#    x 2.032060 -0.073000 -0.042250 
#    y -0.073000 1.902510 0.020980 
#    z -0.042250 0.020980 1.916150 
# 
# From -- ./inp_files/60681.got.cif
#   From: 2010.05.17/outbox.ucp.g08.bks.cvg/sg2_31_cif.got.tgz:60681.got - 2010.06.11 11:32:03.
