data_PCOD9073130
_publ_section_title
;
Structure prediction by ZEFSAII (Michael W. Deem and Ramdas Pophale) SiO2 
 PCOD9073130
Probable space group: P -1
;
_chemical_formula_sum "Si O2"
_cell_formula_units_Z 14
_cell_length_a 6.092998
_cell_length_b 12.545876
_cell_length_c 11.275574
_cell_angle_alpha 83.872095
_cell_angle_beta 93.699145
_cell_angle_gamma 62.397726
_cell_volume 753.082125
_symmetry_space_group_name_H-M "P -1"
_symmetry_group_IT_number 2
_symmetry_cell_setting 'triclinic'
loop_
_space_group_symop_operation_xyz
x,y,z
-x,-y,-z
loop_
_atom_site_type_symbol
_atom_site_label
_atom_site_fract_x
_atom_site_fract_y
_atom_site_fract_z
Si Si1 0.341882 0.373582 0.924660
Si Si2 0.690225 0.873694 0.083132
Si Si3 0.891752 0.600187 0.839238
Si Si4 0.848138 0.260111 0.038993
Si Si5 0.092944 0.089028 0.435644
Si Si6 0.625766 0.211625 0.268236
Si Si7 0.420626 0.032479 0.670310
O O1 0.359062 0.241553 0.925513
O O2 0.127551 0.474478 0.822923
O O3 0.239015 0.421776 0.047331
O O4 0.620443 0.355413 0.938356
O O5 0.672410 0.895528 0.220062
O O6 0.952642 0.835897 0.031964
O O7 0.500000 0.000000 0.000000
O O8 0.653591 0.677735 0.738801
O O9 0.010955 0.682368 0.885293
O O10 0.723422 0.211696 0.138196
O O11 0.255924 0.106849 0.542390
O O12 0.845956 0.202503 0.362908
O O13 0.288666 0.017233 0.345928
O O14 0.000000 0.000000 0.500000
O O15 0.605624 0.089310 0.300444
#
# Coordination Sequence:
#
# PCOD9073130 Si02
#       7
#     2   2   2   2   2   2   2
#     4   9  19  31  46  70 101 137 168 201 245 290
#     4  11  21  32  48  75 109 135 160 198 247 305
#     4   9  17  31  48  70  99 130 173 212 237 284
#     4  10  19  31  50  74 102 136 166 198 248 297
#     4   9  19  34  53  74  97 131 169 207 250 292
#     4  10  18  31  53  76  99 130 169 209 247 287
#     4  10  20  34  50  76 106 129 164 207 248 298
#
# _framework density 18.590271000000001
#
# number of rings (size 3 to 8) (size 9 to 14) (size 15 to 20)
#    0.000    2.286    0.000    4.714    0.000    5.714 
#    0.000    0.000    0.000    0.857    0.000   15.000 
#    0.000    0.000    0.000    0.000    0.000    0.000 
#
# Total GULP energy -77949.388147 kJ/mol
# GULP energy per Si atom -5567.813439 kJ/mol
# Density = 1.854796 g / cm^3
# Si number density = 18.590271 Si / 1000 Ang^3
#
#
#
# Elastic Constant Matrix: (Units=GPa)
#
#
# Indices 1 2 3 4 5 6 
#
# 1 106.6071 45.1088 30.3902 -12.8511 7.1060 -39.3393
# 2 45.1088 91.2757 38.4566 -11.1627 16.7716 -30.5636
# 3 30.3902 38.4566 71.0196 -7.1324 10.5661 -20.7680
# 4 -12.8511 -11.1627 -7.1324 16.8823 -13.4436 7.3979
# 5 7.1060 16.7716 10.5661 -13.4436 40.7153 -15.1226
# 6 -39.3393 -30.5636 -20.7680 7.3979 -15.1226 36.7545
#
#
#
# Elastic Compliance Matrix: (Units=1/GPa)
#
#
# Indices 1 2 3 4 5 6 
#
# 1 0.018146 -0.002748 -0.001287 0.010270 0.008283 0.017751
# 2 -0.002748 0.017887 -0.005823 0.002633 -0.001764 0.007387
# 3 -0.001287 -0.005823 0.019194 0.001084 -0.000428 0.004232
# 4 0.010270 0.002633 0.001084 0.089020 0.029159 0.007874
# 5 0.008283 -0.001764 -0.000428 0.029159 0.040203 0.017829
# 6 0.017751 0.007387 0.004232 0.007874 0.017829 0.060491
#
#
# Mechanical properties :
#
#
# Convention : Reuss Voigt Hill
#
# Bulk Modulus (GPa) = 28.15945 55.20153 41.68049
# Shear Modulus (GPa) = 18.08363 29.20022 23.64192
#
# Velocity S-wave (km/s) = 3.12227 3.96754 3.57001
# Velocity P-wave (km/s) = 5.30833 7.12367 6.28192
#
# Compressibility (1/GPa) = 0.03551205
#
# Stress axis : x y z
#
# Youngs Moduli (GPa) = 55.10875 55.90754 52.09857
#
# Poissons Ratio (x) = 0.15361 0.06706
# Poissons Ratio (y) = 0.15142 0.30335
# Poissons Ratio (z) = 0.07094 0.32553
#
# Static dielectric constant tensor:
#      x y z
#    x 1.714680 -0.023630 0.042450 
#    y -0.023630 1.666160 -0.060150 
#    z 0.042450 -0.060150 1.687290 
# 
# From -- ./inp_files/63400.got.cif
#   From: 2010.05.17/outbox.cif.g08.bks.cpg/sg2_32_cif.got.tgz:63400.got - 2010.06.03 11:33:40.
