data_PCOD9073298
_publ_section_title
;
Structure prediction by ZEFSAII (Michael W. Deem and Ramdas Pophale) SiO2 
 PCOD9073298
Probable space group: P -1
;
_chemical_formula_sum "Si O2"
_cell_formula_units_Z 16
_cell_length_a 17.252039
_cell_length_b 11.001409
_cell_length_c 5.211113
_cell_angle_alpha 88.948757
_cell_angle_beta 124.399759
_cell_angle_gamma 90.182063
_cell_volume 815.914381
_symmetry_space_group_name_H-M "P -1"
_symmetry_group_IT_number 2
_symmetry_cell_setting 'triclinic'
loop_
_space_group_symop_operation_xyz
x,y,z
-x,-y,-z
loop_
_atom_site_type_symbol
_atom_site_label
_atom_site_fract_x
_atom_site_fract_y
_atom_site_fract_z
Si Si1 0.346598 0.785689 0.242704
Si Si2 0.529057 0.729837 0.285304
Si Si3 0.564863 0.987411 0.373831
Si Si4 0.395433 0.388455 0.077558
Si Si5 0.782109 0.581726 0.969414
Si Si6 0.675658 0.424016 0.412363
Si Si7 0.822038 0.322001 0.326359
Si Si8 0.985918 0.585876 0.223108
O O1 0.423430 0.777997 0.155106
O O2 0.365720 0.664446 0.450984
O O3 0.363290 0.903207 0.447669
O O4 0.240577 0.776035 0.936297
O O5 0.596732 0.847259 0.445383
O O6 0.552718 0.687397 0.044547
O O7 0.553310 0.633151 0.556273
O O8 0.500000 0.000000 0.500000
O O9 0.500000 0.000000 0.000000
O O10 0.286663 0.357464 0.951812
O O11 0.388691 0.524599 0.940018
O O12 0.808479 0.448610 0.139787
O O13 0.879574 0.636046 0.051155
O O14 0.716883 0.545671 0.610432
O O15 0.763583 0.348941 0.471621
O O16 0.931503 0.314953 0.601719
O O17 0.000000 0.500000 0.500000
O O18 0.000000 0.500000 0.000000
#
# Coordination Sequence:
#
# PCOD9073298 Si02
#       8
#     2   2   2   2   2   2   2   2
#     4  10  23  36  57  81 114 145 184 238 285 324
#     4  11  23  38  57  78 108 152 193 226 271 324
#     4  10  22  41  60  79 102 142 196 244 280 313
#     4  11  22  37  54  81 114 148 195 216 264 340
#     4   9  18  35  51  78 114 149 180 225 264 328
#     4  10  19  35  52  81 121 147 176 224 278 329
#     4   9  19  32  52  82 113 144 182 223 284 331
#     4  10  18  31  54  78 108 149 182 220 273 330
#
# _framework density 19.609902999999999
#
# number of rings (size 3 to 8) (size 9 to 14) (size 15 to 20)
#    0.000    2.000    2.500    1.500    5.250    1.000 
#    0.000    0.000    0.000    0.000    0.000    1.750 
#    0.000    0.125    0.000    0.000    0.000    0.000 
#
# Total GULP energy -89097.810644 kJ/mol
# GULP energy per Si atom -5568.613165 kJ/mol
# Density = 1.956527 g / cm^3
# Si number density = 19.609903 Si / 1000 Ang^3
#
#
#
# Elastic Constant Matrix: (Units=GPa)
#
#
# Indices 1 2 3 4 5 6 
#
# 1 127.9811 20.6582 71.4617 18.5381 4.7007 2.7225
# 2 20.6582 46.7986 33.9228 16.1628 7.9927 9.9178
# 3 71.4617 33.9228 123.3758 22.5662 -0.6855 10.0350
# 4 18.5381 16.1628 22.5662 31.5947 10.1212 -2.0380
# 5 4.7007 7.9927 -0.6855 10.1212 44.2777 5.1061
# 6 2.7225 9.9178 10.0350 -2.0380 5.1061 14.3792
#
#
#
# Elastic Compliance Matrix: (Units=1/GPa)
#
#
# Indices 1 2 3 4 5 6 
#
# 1 0.011821 -0.000226 -0.006784 -0.001354 -0.001349 0.002939
# 2 -0.000226 0.035430 -0.004780 -0.016053 -0.000089 -0.023303
# 3 -0.006784 -0.004780 0.015221 -0.006351 0.004245 -0.008449
# 4 -0.001354 -0.016053 -0.006351 0.050717 -0.011779 0.027131
# 5 -0.001349 -0.000089 0.004245 -0.011779 0.027110 -0.013942
# 6 0.002939 -0.023303 -0.008449 0.027131 -0.013942 0.099753
#
#
# Mechanical properties :
#
#
# Convention : Reuss Voigt Hill
#
# Bulk Modulus (GPa) = 25.71112 61.13790 43.42451
# Shear Modulus (GPa) = 18.07687 29.52451 23.80069
#
# Velocity S-wave (km/s) = 3.03945 3.88440 3.48761
# Velocity P-wave (km/s) = 5.04553 7.16679 6.19759
#
# Compressibility (1/GPa) = 0.03889368
#
# Stress axis : x y z
#
# Youngs Moduli (GPa) = 84.59385 28.22431 65.69708
#
# Poissons Ratio (x) = 0.00637 0.44569
# Poissons Ratio (y) = 0.01910 0.31403
# Poissons Ratio (z) = 0.57388 0.13491
#
# Static dielectric constant tensor:
#      x y z
#    x 1.748510 0.022180 0.025230 
#    y 0.022180 1.708080 0.055100 
#    z 0.025230 0.055100 1.778010 
# 
# From -- ./inp_files/109222.got.cif
#   From: 2010.05.17/outbox.cif.g08.bks.cpg/sg2_55_cif.got.tgz:109222.got - 2010.06.03 11:33:40.
