data_PCOD9073793
_publ_section_title
;
Structure prediction by ZEFSAII (Michael W. Deem and Ramdas Pophale) SiO2 
 PCOD9073793
Probable space group: P -1
;
_chemical_formula_sum "Si O2"
_cell_formula_units_Z 13
_cell_length_a 12.000000
_cell_length_b 9.000000
_cell_length_c 12.000000
_cell_angle_alpha 70.000000
_cell_angle_beta 110.000000
_cell_angle_gamma 50.000000
_cell_volume 583.178110
_symmetry_space_group_name_H-M "P -1"
_symmetry_group_IT_number 2
_symmetry_cell_setting 'triclinic'
loop_
_space_group_symop_operation_xyz
x,y,z
-x,-y,-z
loop_
_atom_site_type_symbol
_atom_site_label
_atom_site_fract_x
_atom_site_fract_y
_atom_site_fract_z
Si Si1 0.725116 0.234591 0.066246
Si Si2 0.500000 0.000000 0.000000
Si Si3 0.745852 0.766738 0.700095
Si Si4 0.015235 0.385620 0.692203
Si Si5 0.522834 0.950490 0.249699
Si Si6 0.537827 0.351995 0.728644
Si Si7 0.850603 0.014451 0.701582
O O1 0.871657 0.908408 0.231811
O O2 0.500000 0.500000 0.000000
O O3 0.630269 0.314853 0.886635
O O4 0.902358 0.179310 0.153022
O O5 0.216193 0.287152 0.798215
O O6 0.556153 0.862606 0.932746
O O7 0.930610 0.456453 0.772864
O O8 0.500000 0.000000 0.500000
O O9 0.686271 0.798368 0.798377
O O10 0.819300 0.866638 0.691827
O O11 0.776599 0.693612 0.459765
O O12 0.518726 0.772328 0.246912
O O13 0.726450 0.159461 0.743941
O O14 0.308800 0.701913 0.512394
#
# Coordination Sequence:
#
# PCOD9073793 Si02
#       7
#     2   1   2   2   2   2   2
#     4  12  26  44  65 100 137 181 225 268 332 406
#     4  12  24  40  66  94 144 180 214 264 344 392
#     4   9  22  44  71 102 129 170 226 277 337 391
#     4  11  24  45  67  95 139 174 222 281 328 395
#     4  10  21  45  68 100 131 177 221 279 331 401
#     4  10  21  44  71  94 132 170 228 279 328 391
#     4  10  22  44  73  97 129 177 220 281 340 382
#
# _framework density 22.291646
#
# number of rings (size 3 to 8) (size 9 to 14) (size 15 to 20)
#    0.000    1.538    3.077    0.923    4.308    1.231 
#    8.308    0.000    0.000    0.000    0.000    0.000 
#    0.000    0.000    0.000    0.000    0.000    0.000 
#
# Total GULP energy -72368.539060 kJ/mol
# GULP energy per Si atom -5566.810697 kJ/mol
# Density = 2.224091 g / cm^3
# Si number density = 22.291646 Si / 1000 Ang^3
#
#
#
# Elastic Constant Matrix: (Units=GPa)
#
#
# Indices 1 2 3 4 5 6 
#
# 1 87.3853 27.5628 29.1746 1.5954 65.3967 11.0202
# 2 27.5628 120.3880 33.8817 1.5353 17.5026 -7.7651
# 3 29.1746 33.8817 100.7871 22.7656 41.7221 4.7208
# 4 1.5954 1.5353 22.7656 41.1170 1.7962 5.2192
# 5 65.3967 17.5026 41.7221 1.7962 44.6337 -0.2956
# 6 11.0202 -7.7651 4.7208 5.2192 -0.2956 26.2297
#
#
#
# Elastic Compliance Matrix: (Units=1/GPa)
#
#
# Indices 1 2 3 4 5 6 
#
# 1 -0.026889 0.004316 -0.018719 0.006915 0.055025 0.015188
# 2 0.004316 0.008839 -0.000338 0.000007 -0.009469 0.000756
# 3 -0.018719 -0.000338 0.007847 -0.005475 0.020495 0.007673
# 4 0.006915 0.000007 -0.005475 0.028322 -0.006207 -0.007623
# 5 0.055025 -0.009469 0.020495 -0.006207 -0.073605 -0.029204
# 6 0.015188 0.000756 0.007673 -0.007623 -0.029204 0.031774
#
#
# Mechanical properties :
#
#
# Convention : Reuss Voigt Hill
#
# Bulk Modulus (GPa) = -25.19898 54.42206 14.61154
# Shear Modulus (GPa) = -670.41471 36.92550 -316.74460
#
# Velocity S-wave (km/s) = -17.36087 4.07439 -11.93313
# Velocity P-wave (km/s) = 20.32721 6.82649 13.53873
#
# Compressibility (1/GPa) = -0.03968414
#
# Stress axis : x y z
#
# Youngs Moduli (GPa) = -37.19034 113.13812 127.43620
#
# Poissons Ratio (x) = -0.48831 2.38547
# Poissons Ratio (y) = 0.16052 0.04304
# Poissons Ratio (z) = -0.69616 0.03821
#
# Static dielectric constant tensor:
#      x y z
#    x -1.007450 -1.615520 1.832910 
#    y -1.615520 1.050460 1.011190 
#    z 1.832910 1.011190 0.634270 
# 
# From -- ./inp_files/183820.got.cif
#   From: 2010.05.17/outbox.ucp.g08.bks.cvg/sg2_92_cif.got.tgz:183820.got - 2010.06.11 11:32:03.
