data_PCOD9073079
_publ_section_title
;
Structure prediction by ZEFSAII (Michael W. Deem and Ramdas Pophale) SiO2 
 PCOD9073079
Probable space group: P -1
;
_chemical_formula_sum "Si O2"
_cell_formula_units_Z 16
_cell_length_a 15.000000
_cell_length_b 12.000000
_cell_length_c 12.000000
_cell_angle_alpha 120.000000
_cell_angle_beta 150.000000
_cell_angle_gamma 50.000000
_cell_volume 818.222392
_symmetry_space_group_name_H-M "P -1"
_symmetry_group_IT_number 2
_symmetry_cell_setting 'triclinic'
loop_
_space_group_symop_operation_xyz
x,y,z
-x,-y,-z
loop_
_atom_site_type_symbol
_atom_site_label
_atom_site_fract_x
_atom_site_fract_y
_atom_site_fract_z
Si Si1 0.801091 0.665042 0.877582
Si Si2 0.201531 0.544872 0.621690
Si Si3 0.539483 0.647942 0.397594
Si Si4 0.907839 0.397306 0.226588
Si Si5 0.102767 0.889873 0.954381
Si Si6 0.593283 0.572694 0.796834
Si Si7 0.895957 0.934580 0.180120
Si Si8 0.759496 0.199364 0.326361
O O1 0.681460 0.695080 0.645213
O O2 0.655658 0.647427 0.803765
O O3 0.845940 0.800030 0.029132
O O4 0.000000 0.500000 0.000000
O O5 0.363065 0.437180 0.653989
O O6 0.239683 0.548931 0.797016
O O7 0.155857 0.705234 0.603907
O O8 0.042740 0.480141 0.418422
O O9 0.517525 0.526720 0.391343
O O10 0.329004 0.781980 0.193861
O O11 0.991598 0.220367 0.228880
O O12 0.796376 0.453192 0.017171
O O13 0.094169 0.985044 0.883268
O O14 0.000000 0.000000 0.000000
O O15 0.460519 0.691815 0.806427
O O16 0.100167 0.862983 0.441950
O O17 0.756798 0.073041 0.181967
#
# Coordination Sequence:
#
# PCOD9073079 Si02
#       8
#     2   2   2   2   2   2   2   2
#     4  12  25  42  66  93 129 164 212 259 311 376
#     4  10  20  41  66  95 120 162 214 262 305 367
#     4  10  24  40  67  91 125 165 213 254 311 376
#     4  10  21  39  67  93 125 164 210 258 311 369
#     4  11  26  42  62  92 135 171 202 253 318 381
#     4  10  22  39  67  91 119 162 212 266 307 366
#     4  11  25  42  64  90 130 168 203 262 317 368
#     4  10  22  43  67  92 123 162 215 261 315 367
#
# _framework density 19.554586
#
# number of rings (size 3 to 8) (size 9 to 14) (size 15 to 20)
#    0.000    1.500    1.250    3.375    8.750    2.500 
#    0.000    0.000    0.000    0.000    0.000    0.000 
#    0.000    0.000    0.000    0.000    0.000    0.000 
#
# Total GULP energy -89075.346167 kJ/mol
# GULP energy per Si atom -5567.209135 kJ/mol
# Density = 1.951008 g / cm^3
# Si number density = 19.554586 Si / 1000 Ang^3
#
#
#
# Elastic Constant Matrix: (Units=GPa)
#
#
# Indices 1 2 3 4 5 6 
#
# 1 113.0062 48.4235 14.5780 0.9315 -5.5465 2.7904
# 2 48.4235 141.2097 28.3717 24.7410 0.9975 0.1629
# 3 14.5780 28.3717 54.9838 19.8123 -10.0246 -1.6613
# 4 0.9315 24.7410 19.8123 42.5630 2.3145 -6.8715
# 5 -5.5465 0.9975 -10.0246 2.3145 28.6315 3.8683
# 6 2.7904 0.1629 -1.6613 -6.8715 3.8683 37.8110
#
#
#
# Elastic Compliance Matrix: (Units=1/GPa)
#
#
# Indices 1 2 3 4 5 6 
#
# 1 0.010758 -0.003838 -0.001516 0.002529 0.001556 -0.000544
# 2 -0.003838 0.009714 -0.002774 -0.004261 -0.001643 -0.000487
# 3 -0.001516 -0.002774 0.025828 -0.011211 0.009996 -0.001801
# 4 0.002529 -0.004261 -0.011211 0.032456 -0.006711 0.005924
# 5 0.001556 -0.001643 0.009996 -0.006711 0.040000 -0.004980
# 6 -0.000544 -0.000487 -0.001801 0.005924 -0.004980 0.027997
#
#
# Mechanical properties :
#
#
# Convention : Reuss Voigt Hill
#
# Bulk Modulus (GPa) = 33.28362 54.66066 43.97214
# Shear Modulus (GPa) = 28.89791 36.32288 32.61039
#
# Velocity S-wave (km/s) = 3.84840 4.31456 4.08813
# Velocity P-wave (km/s) = 6.06669 7.26871 6.69473
#
# Compressibility (1/GPa) = 0.03004480
#
# Stress axis : x y z
#
# Youngs Moduli (GPa) = 92.95249 102.94679 38.71752
#
# Poissons Ratio (x) = 0.39512 0.05869
# Poissons Ratio (y) = 0.35676 0.10739
# Poissons Ratio (z) = 0.14090 0.28555
#
# Static dielectric constant tensor:
#      x y z
#    x 1.704730 -0.001860 0.023410 
#    y -0.001860 1.721300 0.001530 
#    z 0.023410 0.001530 1.727060 
# 
# From -- ./inp_files/308253.got.cif
#   From: 2010.05.17/outbox.ucp.g08.bks.cvg/sg2_155_cif.got.tgz:308253.got - 2010.06.11 11:32:03.
