data_PCOD9073951
_publ_section_title
;
Structure prediction by ZEFSAII (Michael W. Deem and Ramdas Pophale) SiO2 
 PCOD9073951
Probable space group: P -1
;
_chemical_formula_sum "Si O2"
_cell_formula_units_Z 14
_cell_length_a 12.000000
_cell_length_b 12.000000
_cell_length_c 18.000000
_cell_angle_alpha 150.000000
_cell_angle_beta 40.000000
_cell_angle_gamma 150.000000
_cell_volume 646.664136
_symmetry_space_group_name_H-M "P -1"
_symmetry_group_IT_number 2
_symmetry_cell_setting 'triclinic'
loop_
_space_group_symop_operation_xyz
x,y,z
-x,-y,-z
loop_
_atom_site_type_symbol
_atom_site_label
_atom_site_fract_x
_atom_site_fract_y
_atom_site_fract_z
Si Si1 0.395390 0.972827 0.618222
Si Si2 0.559910 0.317530 0.226166
Si Si3 0.764852 0.369869 0.007415
Si Si4 0.958429 0.876876 0.793044
Si Si5 0.856820 0.388004 0.672277
Si Si6 0.950824 0.346641 0.114682
Si Si7 0.194277 0.350481 0.417991
O O1 0.880120 0.593847 0.714384
O O2 0.593211 0.161862 0.684667
O O3 0.500000 0.000000 0.500000
O O4 0.270794 0.651462 0.522828
O O5 0.772529 0.391459 0.205832
O O6 0.400157 0.391454 0.375757
O O7 0.392524 0.972489 0.111206
O O8 0.646847 0.436830 0.166301
O O9 0.838740 0.486202 0.953440
O O10 0.000000 0.500000 0.000000
O O11 0.223368 0.038510 0.743292
O O12 0.870210 0.833141 0.729290
O O13 0.871467 0.026777 0.964583
O O14 0.977074 0.558240 0.783555
O O15 0.967044 0.236727 0.509901
#
# Coordination Sequence:
#
# PCOD9073951 Si02
#       7
#     2   2   2   2   2   2   2
#     4  11  21  39  64  90 120 161 209 256 304 357
#     4  10  22  40  63  89 126 165 205 256 304 367
#     4   9  19  37  58  89 120 161 208 245 299 361
#     4  11  22  39  65  93 121 163 211 256 306 366
#     4  11  24  42  60  95 130 161 205 258 313 367
#     4  11  25  40  63  94 131 161 204 256 313 374
#     4  11  22  39  67  92 120 165 212 251 304 372
#
# _framework density 21.649569
#
# number of rings (size 3 to 8) (size 9 to 14) (size 15 to 20)
#    0.000    1.429    2.857    3.857    2.000    6.857 
#    0.000    1.429    0.000    0.000    0.000    0.000 
#    0.000    0.000    0.000    0.000    0.000    0.000 
#
# Total GULP energy -78039.872553 kJ/mol
# GULP energy per Si atom -5574.276611 kJ/mol
# Density = 2.160029 g / cm^3
# Si number density = 21.649569 Si / 1000 Ang^3
#
#
#
# Elastic Constant Matrix: (Units=GPa)
#
#
# Indices 1 2 3 4 5 6 
#
# 1 84.3485 4.2360 42.3200 -5.8159 -13.1195 26.3455
# 2 4.2360 39.1721 -22.0649 -1.9688 -3.2102 16.6030
# 3 42.3200 -22.0649 60.2927 -4.7282 -3.0348 17.8313
# 4 -5.8159 -1.9688 -4.7282 15.6575 10.1547 -8.4044
# 5 -13.1195 -3.2102 -3.0348 10.1547 40.1426 -0.8945
# 6 26.3455 16.6030 17.8313 -8.4044 -0.8945 27.4363
#
#
#
# Elastic Compliance Matrix: (Units=1/GPa)
#
#
# Indices 1 2 3 4 5 6 
#
# 1 0.024982 -0.011698 -0.020378 -0.005666 0.007007 -0.005173
# 2 -0.011698 0.231455 0.165966 -0.097099 0.045893 -0.264942
# 3 -0.020378 0.165966 0.145568 -0.067024 0.030227 -0.195018
# 4 -0.005666 -0.097099 -0.067024 0.139547 -0.046665 0.148985
# 5 0.007007 0.045893 0.030227 -0.046665 0.043467 -0.067022
# 6 -0.005173 -0.264942 -0.195018 0.148985 -0.067022 0.371942
#
#
# Mechanical properties :
#
#
# Convention : Reuss Voigt Hill
#
# Bulk Modulus (GPa) = 1.49302 25.86617 13.67959
# Shear Modulus (GPa) = 5.47979 27.26877 16.37428
#
# Velocity S-wave (km/s) = 1.59268 3.55287 2.75313
# Velocity P-wave (km/s) = 2.01824 5.36694 4.05447
#
# Compressibility (1/GPa) = 0.66978409
#
# Stress axis : x y z
#
# Youngs Moduli (GPa) = 40.02854 4.32050 6.86966
#
# Poissons Ratio (x) = 0.05054 0.13999
# Poissons Ratio (y) = 0.46826 -1.14013
# Poissons Ratio (z) = 0.81570 -0.71705
#
# Static dielectric constant tensor:
#      x y z
#    x 1.784870 -0.000670 0.052470 
#    y -0.000670 1.882250 -0.016820 
#    z 0.052470 -0.016820 1.893140 
# 
# From -- ./inp_files/569242.got.cif
#   From: 2010.05.17/outbox.ucp.g08.bks.cvg/sg2_285_cif.got.tgz:569242.got - 2010.06.11 11:32:03.
