data_PCOD9073260
_publ_section_title
;
Structure prediction by ZEFSAII (Michael W. Deem and Ramdas Pophale) SiO2 
 PCOD9073260
Probable space group: P -1
;
_chemical_formula_sum "Si O2"
_cell_formula_units_Z 16
_cell_length_a 9.000000
_cell_length_b 15.000000
_cell_length_c 12.000000
_cell_angle_alpha 80.000000
_cell_angle_beta 40.000000
_cell_angle_gamma 60.000000
_cell_volume 835.587839
_symmetry_space_group_name_H-M "P -1"
_symmetry_group_IT_number 2
_symmetry_cell_setting 'triclinic'
loop_
_space_group_symop_operation_xyz
x,y,z
-x,-y,-z
loop_
_atom_site_type_symbol
_atom_site_label
_atom_site_fract_x
_atom_site_fract_y
_atom_site_fract_z
Si Si1 0.470116 0.227708 0.757470
Si Si2 0.216356 0.171520 0.362670
Si Si3 0.048298 0.063074 0.325907
Si Si4 0.203598 0.459923 0.782731
Si Si5 0.013080 0.790780 0.874071
Si Si6 0.818123 0.377788 0.382773
Si Si7 0.811214 0.130085 0.041271
Si Si8 0.159799 0.832079 0.245416
O O1 0.301657 0.333715 0.749201
O O2 0.569777 0.254302 0.810836
O O3 0.746357 0.137449 0.547181
O O4 0.266198 0.195350 0.922992
O O5 0.252055 0.071695 0.290921
O O6 0.018831 0.278895 0.374509
O O7 0.082435 0.173942 0.557311
O O8 0.500211 0.160354 0.216683
O O9 0.049210 0.114823 0.197241
O O10 0.119517 0.944689 0.283841
O O11 0.511726 0.441775 0.606127
O O12 0.076159 0.546382 0.733493
O O13 0.000000 0.500000 0.000000
O O14 0.175090 0.682191 0.723897
O O15 0.157665 0.799632 0.898253
O O16 0.849386 0.160207 0.885518
O O17 0.000000 0.000000 0.000000
#
# Coordination Sequence:
#
# PCOD9073260 Si02
#       8
#     2   2   2   2   2   2   2   2
#     4  11  21  37  65  92 115 153 202 257 301 352
#     4  10  22  40  59  86 119 163 198 247 303 348
#     4  10  21  37  62  86 117 157 207 250 301 344
#     4  11  20  35  67 104 112 138 199 266 312 343
#     4  11  22  39  54  87 125 159 195 239 302 353
#     4  10  21  40  65  91 119 148 198 257 303 356
#     4  12  27  37  55  88 128 169 204 238 290 362
#     4  11  22  39  61  86 119 162 207 247 297 354
#
# _framework density 19.148195999999999
#
# number of rings (size 3 to 8) (size 9 to 14) (size 15 to 20)
#    0.000    1.250    6.250    3.000    3.500    2.500 
#    0.000    0.000    0.000    6.000    0.000    0.000 
#    0.000    0.000    0.000    0.000    0.000    0.000 
#
# Total GULP energy -89074.753197 kJ/mol
# GULP energy per Si atom -5567.172075 kJ/mol
# Density = 1.910461 g / cm^3
# Si number density = 19.148196 Si / 1000 Ang^3
#
#
#
# Elastic Constant Matrix: (Units=GPa)
#
#
# Indices 1 2 3 4 5 6 
#
# 1 105.7895 15.0426 67.4809 -16.3431 13.0967 -3.4733
# 2 15.0426 103.5683 42.8232 -27.5805 9.8695 -17.2875
# 3 67.4809 42.8232 139.2768 -46.2461 1.2674 -1.8054
# 4 -16.3431 -27.5805 -46.2461 42.1855 -14.1722 14.1970
# 5 13.0967 9.8695 1.2674 -14.1722 14.1797 -2.0161
# 6 -3.4733 -17.2875 -1.8054 14.1970 -2.0161 10.5375
#
#
#
# Elastic Compliance Matrix: (Units=1/GPa)
#
#
# Indices 1 2 3 4 5 6 
#
# 1 0.004112 -0.006394 0.010339 0.033816 0.026729 -0.047809
# 2 -0.006394 0.008724 0.009154 0.027715 0.024019 -0.018971
# 3 0.010339 0.009154 -0.016135 -0.051047 -0.054989 0.073914
# 4 0.033816 0.027715 -0.051047 -0.087446 -0.112875 0.144087
# 5 0.026729 0.024019 -0.054989 -0.112875 -0.053089 0.180710
# 6 -0.047809 -0.018971 0.073914 0.144087 0.180710 -0.098870
#
#
# Mechanical properties :
#
#
# Convention : Reuss Voigt Hill
#
# Bulk Modulus (GPa) = 43.67060 66.59203 55.13131
# Shear Modulus (GPa) = -19.13742 28.26640 4.56449
#
# Velocity S-wave (km/s) = -3.16482 3.84629 1.54562
# Velocity P-wave (km/s) = 3.08243 7.38769 5.66036
#
# Compressibility (1/GPa) = 0.02289870
#
# Stress axis : x y z
#
# Youngs Moduli (GPa) = 243.17570 114.62057 -61.97564
#
# Poissons Ratio (x) = 0.73293 0.64078
# Poissons Ratio (y) = 1.55495 0.56732
# Poissons Ratio (z) = -2.51423 -1.04922
#
# Static dielectric constant tensor:
#      x y z
#    x 1.672840 -0.044830 -0.024050 
#    y -0.044830 1.815300 0.045160 
#    z -0.024050 0.045160 1.694920 
# 
# From -- ./inp_files/397332.got.cif
#   From: 2010.05.17/outbox.ucp.g08.bks.cvg/sg2_199_cif.got.tgz:397332.got - 2010.06.11 11:32:03.
