data_PCOD9073769
_publ_section_title
;
Structure prediction by ZEFSAII (Michael W. Deem and Ramdas Pophale) SiO2 
 PCOD9073769
Probable space group: P -1
;
_chemical_formula_sum "Si O2"
_cell_formula_units_Z 16
_cell_length_a 12.000000
_cell_length_b 9.000000
_cell_length_c 15.000000
_cell_angle_alpha 110.000000
_cell_angle_beta 150.000000
_cell_angle_gamma 70.000000
_cell_volume 757.522634
_symmetry_space_group_name_H-M "P -1"
_symmetry_group_IT_number 2
_symmetry_cell_setting 'triclinic'
loop_
_space_group_symop_operation_xyz
x,y,z
-x,-y,-z
loop_
_atom_site_type_symbol
_atom_site_label
_atom_site_fract_x
_atom_site_fract_y
_atom_site_fract_z
Si Si1 0.013272 0.832149 0.304365
Si Si2 0.598480 0.845046 0.902882
Si Si3 0.283166 0.743558 0.136760
Si Si4 0.088561 0.374867 0.637351
Si Si5 0.339497 0.079942 0.658395
Si Si6 0.619347 0.454472 0.238287
Si Si7 0.357573 0.675022 0.372374
Si Si8 0.245768 0.313233 0.214683
O O1 0.164409 0.722923 0.318693
O O2 0.935838 0.719413 0.306787
O O3 0.177739 0.962446 0.475580
O O4 0.799977 0.898281 0.112341
O O5 0.481979 0.711713 0.849813
O O6 0.683406 0.775980 0.848815
O O7 0.417475 0.990446 0.784827
O O8 0.425488 0.877811 0.216008
O O9 0.419981 0.585291 0.157840
O O10 0.334263 0.762812 0.280500
O O11 0.010940 0.722854 0.943391
O O12 0.183875 0.239996 0.605231
O O13 0.269866 0.503099 0.771812
O O14 0.838765 0.448588 0.453603
O O15 0.304793 0.494761 0.274152
O O16 0.585691 0.714263 0.588926
#
# Coordination Sequence:
#
# PCOD9073769 Si02
#       8
#     2   2   2   2   2   2   2   2
#     4  12  24  41  68  95 130 176 216 256 329 383
#     4  12  23  42  69  96 131 170 217 260 325 388
#     4  11  23  42  67  97 133 167 215 264 321 384
#     4  10  23  45  69  91 130 170 215 276 316 372
#     4  11  26  45  63  94 136 173 215 266 316 382
#     4  10  21  43  71  95 123 167 217 270 323 371
#     4  11  22  39  69  97 129 170 213 264 322 389
#     4  11  22  40  66  99 131 170 207 268 324 377
#
# _framework density 21.121480999999999
#
# number of rings (size 3 to 8) (size 9 to 14) (size 15 to 20)
#    0.000    1.000    5.000    1.500    1.750    3.000 
#    0.000    0.000    0.000    0.000    0.000    0.000 
#    0.000    0.000    0.000    0.000    0.000    0.000 
#
# Total GULP energy -89217.445577 kJ/mol
# GULP energy per Si atom -5576.090349 kJ/mol
# Density = 2.107341 g / cm^3
# Si number density = 21.121481 Si / 1000 Ang^3
#
#
#
# Elastic Constant Matrix: (Units=GPa)
#
#
# Indices 1 2 3 4 5 6 
#
# 1 81.8028 13.5486 10.9657 9.8259 18.7566 23.8586
# 2 13.5486 70.2400 21.1622 -1.1639 1.6874 25.7173
# 3 10.9657 21.1622 148.5953 3.6406 14.6981 19.6692
# 4 9.8259 -1.1639 3.6406 17.6930 4.7247 18.4506
# 5 18.7566 1.6874 14.6981 4.7247 39.5427 1.2595
# 6 23.8586 25.7173 19.6692 18.4506 1.2595 30.1802
#
#
#
# Elastic Compliance Matrix: (Units=1/GPa)
#
#
# Indices 1 2 3 4 5 6 
#
# 1 0.003876 -0.027828 -0.004925 -0.082166 0.008648 0.073729
# 2 -0.027828 -0.040910 -0.013491 -0.167380 0.034655 0.166534
# 3 -0.004925 -0.013491 0.005038 -0.035166 0.004176 0.033430
# 4 -0.082166 -0.167380 -0.035166 -0.451651 0.097145 0.502565
# 5 0.008648 0.034655 0.004176 0.097145 0.009698 -0.098883
# 6 0.073729 0.166534 0.033430 0.502565 -0.098883 -0.491963
#
#
# Mechanical properties :
#
#
# Convention : Reuss Voigt Hill
#
# Bulk Modulus (GPa) = -8.03321 43.55456 17.76067
# Shear Modulus (GPa) = -5.46496 34.48061 14.50783
#
# Velocity S-wave (km/s) = -1.61028 4.04479 2.62367
# Velocity P-wave (km/s) = 2.69610 6.51763 4.19587
#
# Compressibility (1/GPa) = -0.12448320
#
# Stress axis : x y z
#
# Youngs Moduli (GPa) = 257.98172 -24.44366 198.49710
#
# Poissons Ratio (x) = -0.68022 0.97753
# Poissons Ratio (y) = 7.17912 2.67789
# Poissons Ratio (z) = 1.27047 -0.32976
#
# Static dielectric constant tensor:
#      x y z
#    x 1.755330 0.017770 -0.002480 
#    y 0.017770 1.832500 -0.033610 
#    z -0.002480 -0.033610 1.766780 
# 
# From -- ./inp_files/400130.got.cif
#   From: 2010.05.17/outbox.ucp.g08.bks.cvg/sg2_201_cif.got.tgz:400130.got - 2010.06.11 11:32:03.
