data_PCOD9073431
_publ_section_title
;
Structure prediction by ZEFSAII (Michael W. Deem and Ramdas Pophale) SiO2 
 PCOD9073431
Probable space group: P -1
;
_chemical_formula_sum "Si O2"
_cell_formula_units_Z 16
_cell_length_a 11.379881
_cell_length_b 12.676240
_cell_length_c 22.741529
_cell_angle_alpha 149.742507
_cell_angle_beta 153.581166
_cell_angle_gamma 36.987908
_cell_volume 730.821301
_symmetry_space_group_name_H-M "P -1"
_symmetry_group_IT_number 2
_symmetry_cell_setting 'triclinic'
loop_
_space_group_symop_operation_xyz
x,y,z
-x,-y,-z
loop_
_atom_site_type_symbol
_atom_site_label
_atom_site_fract_x
_atom_site_fract_y
_atom_site_fract_z
Si Si1 0.691148 0.711781 0.484953
Si Si2 0.402627 0.196032 0.767436
Si Si3 0.438337 0.122698 0.618763
Si Si4 0.733295 0.893065 0.842884
Si Si5 0.101034 0.516234 0.868923
Si Si6 0.030653 0.640146 0.024122
Si Si7 0.712563 0.285554 0.242142
Si Si8 0.558037 0.996433 0.942875
O O1 0.709614 0.809493 0.475007
O O2 0.585345 0.490654 0.318248
O O3 0.991967 0.676198 0.624921
O O4 0.522211 0.874013 0.529198
O O5 0.307089 0.184221 0.651932
O O6 0.189549 0.309669 0.771515
O O7 0.527056 0.965623 0.734168
O O8 0.651253 0.338886 0.950470
O O9 0.706538 0.239507 0.793978
O O10 0.600892 0.992265 0.891147
O O11 0.846090 0.653153 0.791443
O O12 0.000000 0.000000 0.000000
O O13 0.049570 0.493377 0.903906
O O14 0.000000 0.500000 0.000000
O O15 0.798249 0.830758 0.997420
O O16 0.698793 0.095971 0.190781
O O17 0.576160 0.218896 0.089343
#
# Coordination Sequence:
#
# PCOD9073431 Si02
#       8
#     2   2   2   2   2   2   2   2
#     4  10  21  37  55  81 113 155 187 225 285 349
#     4   9  17  32  51  76 106 144 186 230 273 327
#     4  10  20  36  55  79 111 149 193 229 275 344
#     4   9  18  31  53  82 113 144 177 237 288 329
#     4   8  17  30  47  80 112 138 182 227 281 336
#     4  10  18  31  54  86 118 145 175 238 294 330
#     4  10  21  36  57  84 112 148 185 231 289 341
#     4  10  20  35  56  88 117 137 186 243 284 334
#
# _framework density 21.893177000000001
#
# number of rings (size 3 to 8) (size 9 to 14) (size 15 to 20)
#    0.000    2.500    1.250    1.500    0.000    6.000 
#    2.250    0.000    0.000    1.500    0.000    0.000 
#    0.000    0.000    0.000    0.000    0.000    0.000 
#
# Total GULP energy -89280.785670 kJ/mol
# GULP energy per Si atom -5580.049104 kJ/mol
# Density = 2.184335 g / cm^3
# Si number density = 21.893177 Si / 1000 Ang^3
#
#
#
# Elastic Constant Matrix: (Units=GPa)
#
#
# Indices 1 2 3 4 5 6 
#
# 1 92.8933 16.2990 13.2045 4.5409 -31.6438 -0.3130
# 2 16.2990 55.2900 18.7559 6.7658 -16.2452 0.7315
# 3 13.2045 18.7559 48.9700 17.2746 -15.5222 -15.0655
# 4 4.5409 6.7658 17.2746 24.2504 -5.9338 -7.6766
# 5 -31.6438 -16.2452 -15.5222 -5.9338 31.3143 4.1117
# 6 -0.3130 0.7315 -15.0655 -7.6766 4.1117 26.5531
#
#
#
# Elastic Compliance Matrix: (Units=1/GPa)
#
#
# Indices 1 2 3 4 5 6 
#
# 1 0.016574 0.000132 0.000145 0.000238 0.017240 -0.002327
# 2 0.000132 0.023651 -0.007991 -0.000854 0.009179 -0.006852
# 3 0.000145 -0.007991 0.036955 -0.017206 0.009115 0.014804
# 4 0.000238 -0.000854 -0.017206 0.055927 0.001043 0.006271
# 5 0.017240 0.009179 0.009115 0.001043 0.059328 -0.003763
# 6 -0.002327 -0.006852 0.014804 0.006271 -0.003763 0.048617
#
#
# Mechanical properties :
#
#
# Convention : Reuss Voigt Hill
#
# Bulk Modulus (GPa) = 16.19384 32.63022 24.41203
# Shear Modulus (GPa) = 18.04635 26.34984 22.19810
#
# Velocity S-wave (km/s) = 2.87416 3.47301 3.18768
# Velocity P-wave (km/s) = 4.29269 5.56947 4.97223
#
# Compressibility (1/GPa) = 0.06175188
#
# Stress axis : x y z
#
# Youngs Moduli (GPa) = 60.33367 42.28217 27.05966
#
# Poissons Ratio (x) = -0.00557 -0.00393
# Poissons Ratio (y) = -0.00795 0.21624
# Poissons Ratio (z) = -0.00875 0.33788
#
# Static dielectric constant tensor:
#      x y z
#    x 1.799690 -0.030380 0.035080 
#    y -0.030380 1.854200 0.003350 
#    z 0.035080 0.003350 1.805630 
# 
# From -- ./inp_files/180362.got.cif
#   From: 2010.05.17/outbox.cif.g08.bks.cpg/sg2_91_cif.got.tgz:180362.got - 2010.06.03 11:33:40.
