data_PCOD9073257
_publ_section_title
;
Structure prediction by ZEFSAII (Michael W. Deem and Ramdas Pophale) SiO2 
 PCOD9073257
Probable space group: P -1
;
_chemical_formula_sum "Si O2"
_cell_formula_units_Z 14
_cell_length_a 15.000000
_cell_length_b 27.000000
_cell_length_c 27.000000
_cell_angle_alpha 10.000000
_cell_angle_beta 20.000000
_cell_angle_gamma 20.000000
_cell_volume 630.401208
_symmetry_space_group_name_H-M "P -1"
_symmetry_group_IT_number 2
_symmetry_cell_setting 'triclinic'
loop_
_space_group_symop_operation_xyz
x,y,z
-x,-y,-z
loop_
_atom_site_type_symbol
_atom_site_label
_atom_site_fract_x
_atom_site_fract_y
_atom_site_fract_z
Si Si1 0.575624 0.218674 0.010696
Si Si2 0.004933 0.773305 0.675027
Si Si3 0.783159 0.076777 0.791175
Si Si4 0.831601 0.004780 0.426827
Si Si5 0.905379 0.587689 0.290626
Si Si6 0.443552 0.622141 0.024649
Si Si7 0.388985 0.368524 0.492581
O O1 0.664874 0.246287 0.993920
O O2 0.730573 0.371117 0.739803
O O3 0.251735 0.357681 0.049501
O O4 0.593212 0.908795 0.279977
O O5 0.311174 0.589169 0.694583
O O6 0.951214 0.900414 0.521788
O O7 0.000000 0.000000 0.500000
O O8 0.781827 0.374557 0.529257
O O9 0.961980 0.056656 0.667040
O O10 0.500000 0.000000 0.000000
O O11 0.902536 0.849983 0.995733
O O12 0.697591 0.346497 0.167102
O O13 0.579185 0.857801 0.695252
O O14 0.742257 0.648410 0.368402
O O15 0.211705 0.514143 0.222991
#
# Coordination Sequence:
#
# PCOD9073257 Si02
#       7
#     2   2   2   2   2   2   2
#     4  10  21  37  61  94 132 166 209 263 317 385
#     4   9  19  37  62  93 124 160 210 260 317 381
#     4  12  27  47  68  97 127 165 217 271 327 378
#     4  11  24  42  68  93 130 171 210 272 321 370
#     4  12  27  44  67  94 131 173 219 265 310 389
#     4  11  24  43  65  98 129 170 220 257 319 387
#     4  11  22  38  62  94 130 172 209 262 324 370
#
# _framework density 22.208079000000001
#
# number of rings (size 3 to 8) (size 9 to 14) (size 15 to 20)
#    0.000    1.143    0.000    6.857    0.000   11.429 
#    0.000    0.000    0.000    0.000    0.000    0.000 
#    0.000    0.000    0.000    0.000    0.000    0.000 
#
# Total GULP energy -78056.089417 kJ/mol
# GULP energy per Si atom -5575.434958 kJ/mol
# Density = 2.215753 g / cm^3
# Si number density = 22.208079 Si / 1000 Ang^3
#
#
#
# Elastic Constant Matrix: (Units=GPa)
#
#
# Indices 1 2 3 4 5 6 
#
# 1 109.5447 45.5411 18.7850 24.4582 12.2370 27.3487
# 2 45.5411 75.5110 12.3591 20.8991 8.2183 22.0006
# 3 18.7850 12.3591 77.4275 0.8475 5.3071 11.4141
# 4 24.4582 20.8991 0.8475 32.4456 8.9303 1.9013
# 5 12.2370 8.2183 5.3071 8.9303 53.9601 11.2356
# 6 27.3487 22.0006 11.4141 1.9013 11.2356 48.6724
#
#
#
# Elastic Compliance Matrix: (Units=1/GPa)
#
#
# Indices 1 2 3 4 5 6 
#
# 1 0.014401 -0.004822 -0.001878 -0.007384 -0.000048 -0.005172
# 2 -0.004822 0.020698 -0.001178 -0.009559 0.000932 -0.006212
# 3 -0.001878 -0.001178 0.013818 0.002119 -0.000781 -0.001556
# 4 -0.007384 -0.009559 0.002119 0.043664 -0.005892 0.007628
# 5 -0.000048 0.000932 -0.000781 -0.005892 0.020431 -0.004698
# 6 -0.005172 -0.006212 -0.001556 0.007628 -0.004698 0.027411
#
#
# Mechanical properties :
#
#
# Convention : Reuss Voigt Hill
#
# Bulk Modulus (GPa) = 30.15382 46.20596 38.17989
# Shear Modulus (GPa) = 29.89861 39.40214 34.65037
#
# Velocity S-wave (km/s) = 3.67317 4.21673 3.95430
# Velocity P-wave (km/s) = 5.62111 6.67524 6.17072
#
# Compressibility (1/GPa) = 0.03316329
#
# Stress axis : x y z
#
# Youngs Moduli (GPa) = 69.44166 48.31365 72.36695
#
# Poissons Ratio (x) = 0.23296 0.13587
# Poissons Ratio (y) = 0.33484 0.08521
# Poissons Ratio (z) = 0.13038 0.05689
#
# Static dielectric constant tensor:
#      x y z
#    x 1.818980 -0.079120 0.051780 
#    y -0.079120 1.851470 -0.085050 
#    z 0.051780 -0.085050 2.010750 
# 
# From -- ./inp_files/362751.got.cif
#   From: 2010.05.17/outbox.ucp.g08.bks.cvg/sg2_182_cif.got.tgz:362751.got - 2010.06.11 11:32:03.
