data_PCOD9073875
_publ_section_title
;
Structure prediction by ZEFSAII (Michael W. Deem and Ramdas Pophale) SiO2 
 PCOD9073875
Probable space group: P -1
;
_chemical_formula_sum "Si O2"
_cell_formula_units_Z 11
_cell_length_a 7.818945
_cell_length_b 13.117345
_cell_length_c 4.960040
_cell_angle_alpha 76.409085
_cell_angle_beta 120.260246
_cell_angle_gamma 121.628438
_cell_volume 373.842224
_symmetry_space_group_name_H-M "P -1"
_symmetry_group_IT_number 2
_symmetry_cell_setting 'triclinic'
loop_
_space_group_symop_operation_xyz
x,y,z
-x,-y,-z
loop_
_atom_site_type_symbol
_atom_site_label
_atom_site_fract_x
_atom_site_fract_y
_atom_site_fract_z
Si Si1 0.500924 0.122572 0.359347
Si Si2 0.884694 0.681742 0.902550
Si Si3 0.266065 0.534112 0.725424
Si Si4 0.337979 0.673324 0.200820
Si Si5 0.958509 0.168090 0.554059
Si Si6 0.000000 0.000000 0.000000
O O1 0.541529 0.206846 0.598583
O O2 0.730753 0.178303 0.324175
O O3 0.500000 0.000000 0.500000
O O4 0.264378 0.086249 0.058077
O O5 0.859601 0.738463 0.567702
O O6 0.729261 0.575965 0.050123
O O7 0.076550 0.644529 0.016426
O O8 0.983528 0.797968 0.103729
O O9 0.358327 0.575554 0.472891
O O10 0.000000 0.500000 0.500000
O O11 0.384720 0.645840 0.954897
O O12 0.908542 0.033510 0.625133
#
# Coordination Sequence:
#
# PCOD9073875 Si02
#       6
#     2   2   2   2   2   1
#     4   9  20  40  64  91 124 164 210 260 311 365
#     4  10  18  34  58  90 125 158 198 248 305 368
#     4  10  18  31  58  94 127 161 203 249 306 374
#     4  10  18  32  57  92 127 159 204 255 303 366
#     4  10  21  38  63  91 122 158 203 254 305 366
#     4  10  22  44  64  88 122 166 212 260 314 366
#
# _framework density 29.424177
#
# number of rings (size 3 to 8) (size 9 to 14) (size 15 to 20)
#    0.000    2.182    0.000    6.545    0.000    0.727 
#    0.000   40.000    0.000    6.545    0.000    0.000 
#    0.000    0.000    0.000    0.000    0.000    0.000 
#
# Total GULP energy -61272.261190 kJ/mol
# GULP energy per Si atom -5570.205563 kJ/mol
# Density = 2.935721 g / cm^3
# Si number density = 29.424177 Si / 1000 Ang^3
#
#
#
# Elastic Constant Matrix: (Units=GPa)
#
#
# Indices 1 2 3 4 5 6 
#
# 1 124.0093 20.4287 51.7607 7.7801 -2.6005 8.7535
# 2 20.4287 91.8227 31.6191 -11.0670 -24.6502 31.5186
# 3 51.7607 31.6191 150.0344 -11.8758 -14.4061 13.1449
# 4 7.7801 -11.0670 -11.8758 72.6950 6.0410 -6.5672
# 5 -2.6005 -24.6502 -14.4061 6.0410 71.1957 -0.3378
# 6 8.7535 31.5186 13.1449 -6.5672 -0.3378 34.5245
#
#
#
# Elastic Compliance Matrix: (Units=1/GPa)
#
#
# Indices 1 2 3 4 5 6 
#
# 1 0.009762 -0.001285 -0.003259 -0.001759 -0.000600 -0.000402
# 2 -0.001285 0.018991 -0.001489 0.000814 0.006081 -0.016230
# 3 -0.003259 -0.001489 0.008364 0.001344 0.000940 -0.000734
# 4 -0.001759 0.000814 0.001344 0.014525 -0.000734 0.001947
# 5 -0.000600 0.006081 0.000940 -0.000734 0.016355 -0.005737
# 6 -0.000402 -0.016230 -0.000734 0.001947 -0.005737 0.044478
#
#
# Mechanical properties :
#
#
# Convention : Reuss Voigt Hill
#
# Bulk Modulus (GPa) = 39.91661 63.72040 51.81850
# Shear Modulus (GPa) = 37.62532 53.15359 45.38945
#
# Velocity S-wave (km/s) = 3.57980 4.25486 3.93184
# Velocity P-wave (km/s) = 5.53913 6.77061 6.18560
#
# Compressibility (1/GPa) = 0.02505223
#
# Stress axis : x y z
#
# Youngs Moduli (GPa) = 102.43940 52.65713 119.55851
#
# Poissons Ratio (x) = 0.06766 0.38960
# Poissons Ratio (y) = 0.13163 0.17798
# Poissons Ratio (z) = 0.33381 0.07839
#
# Static dielectric constant tensor:
#      x y z
#    x 2.527960 0.292170 0.213680 
#    y 0.292170 0.875360 -0.314500 
#    z 0.213680 -0.314500 2.211970 
# 
# From -- ./inp_files/31909.got.cif
#   From: 2010.05.17/outbox.cif.g08.bks.cpg/sg2_16_cif.got.tgz:31909.got - 2010.06.03 11:33:40.
