data_PCOD9073906
_publ_section_title
;
Structure prediction by ZEFSAII (Michael W. Deem and Ramdas Pophale) SiO2 
 PCOD9073906
Probable space group: P -1
;
_chemical_formula_sum "Si O2"
_cell_formula_units_Z 16
_cell_length_a 12.000000
_cell_length_b 6.000000
_cell_length_c 12.000000
_cell_angle_alpha 110.000000
_cell_angle_beta 110.000000
_cell_angle_gamma 80.000000
_cell_volume 761.358403
_symmetry_space_group_name_H-M "P -1"
_symmetry_group_IT_number 2
_symmetry_cell_setting 'triclinic'
loop_
_space_group_symop_operation_xyz
x,y,z
-x,-y,-z
loop_
_atom_site_type_symbol
_atom_site_label
_atom_site_fract_x
_atom_site_fract_y
_atom_site_fract_z
Si Si1 0.378802 0.075255 0.404535
Si Si2 0.345384 0.662084 0.143024
Si Si3 0.459382 0.130065 0.896277
Si Si4 0.508751 0.669086 0.700125
Si Si5 0.251578 0.608832 0.666204
Si Si6 0.779450 0.557245 0.118116
Si Si7 0.088657 0.059695 0.685523
Si Si8 0.864672 0.802186 0.529870
O O1 0.420252 0.301223 0.385549
O O2 0.264147 0.098191 0.450769
O O3 0.500000 0.000000 0.500000
O O4 0.342994 0.883370 0.265678
O O5 0.444299 0.700641 0.089220
O O6 0.396369 0.444126 0.199216
O O7 0.230139 0.615499 0.020775
O O8 0.334771 0.260818 0.902467
O O9 0.461292 0.931737 0.766929
O O10 0.500000 0.000000 0.000000
O O11 0.384130 0.543551 0.652149
O O12 0.242498 0.540454 0.781527
O O13 0.203845 0.878995 0.699309
O O14 0.158012 0.476987 0.533910
O O15 0.893887 0.711883 0.192816
O O16 0.972790 0.916897 0.649825
O O17 0.099212 0.143000 0.575459
#
# Coordination Sequence:
#
# PCOD9073906 Si02
#       8
#     2   2   2   2   2   2   2   2
#     4  11  25  40  58  85 122 158 193 236 286 356
#     4  11  23  36  55  89 124 157 192 230 299 355
#     4  11  19  32  55  88 126 152 184 243 293 343
#     4  11  21  34  57  88 120 155 186 236 298 351
#     4  11  20  35  63  88 116 149 193 245 298 342
#     4  11  21  34  58  92 118 148 197 242 290 351
#     4  10  22  39  64  85 114 151 194 254 293 331
#     4  10  23  42  58  87 117 151 203 240 285 350
#
# _framework density 21.015070000000001
#
# number of rings (size 3 to 8) (size 9 to 14) (size 15 to 20)
#    0.000    1.250    3.750    3.000    3.500    3.000 
#    0.000    0.625    0.000    1.500    0.000    0.000 
#    0.000    0.000    0.000    0.000    0.000    0.000 
#
# Total GULP energy -89112.143994 kJ/mol
# GULP energy per Si atom -5569.509000 kJ/mol
# Density = 2.096724 g / cm^3
# Si number density = 21.015070 Si / 1000 Ang^3
#
#
#
# Elastic Constant Matrix: (Units=GPa)
#
#
# Indices 1 2 3 4 5 6 
#
# 1 85.7748 -1.6541 30.4553 14.9609 12.7268 19.7583
# 2 -1.6541 32.4003 16.2678 3.3033 7.7491 16.3794
# 3 30.4553 16.2678 111.7044 26.0024 20.1871 23.3545
# 4 14.9609 3.3033 26.0024 38.1978 4.9633 -0.7154
# 5 12.7268 7.7491 20.1871 4.9633 29.2715 6.7642
# 6 19.7583 16.3794 23.3545 -0.7154 6.7642 25.5000
#
#
#
# Elastic Compliance Matrix: (Units=1/GPa)
#
#
# Indices 1 2 3 4 5 6 
#
# 1 0.019919 0.015553 0.000738 -0.009336 -0.005978 -0.024777
# 2 0.015553 0.059529 0.002316 -0.012393 -0.010468 -0.049981
# 3 0.000738 0.002316 0.014869 -0.010078 -0.006170 -0.014324
# 4 -0.009336 -0.012393 -0.010078 0.037964 0.002091 0.024935
# 5 -0.005978 -0.010468 -0.006170 0.002091 0.042069 0.005906
# 6 -0.024777 -0.049981 -0.014324 0.024935 0.005906 0.102770
#
#
# Mechanical properties :
#
#
# Convention : Reuss Voigt Hill
#
# Bulk Modulus (GPa) = 7.60263 35.55748 21.58006
# Shear Modulus (GPa) = 17.62120 30.91456 24.26788
#
# Velocity S-wave (km/s) = 2.89883 3.83961 3.40190
# Velocity P-wave (km/s) = 3.85096 6.05091 5.07166
#
# Compressibility (1/GPa) = 0.13153339
#
# Stress axis : x y z
#
# Youngs Moduli (GPa) = 50.20299 16.79846 67.25215
#
# Poissons Ratio (x) = -0.26127 -0.04963
# Poissons Ratio (y) = -0.78083 -0.15578
# Poissons Ratio (z) = -0.03705 -0.03891
#
# Static dielectric constant tensor:
#      x y z
#    x 1.743230 0.023330 0.104920 
#    y 0.023330 1.816280 0.138430 
#    z 0.104920 0.138430 1.723180 
# 
# From -- ./inp_files/71120.got.cif
#   From: 2010.05.17/outbox.ucp.g08.bks.cvg/sg2_36_cif.got.tgz:71120.got - 2010.06.11 11:32:03.
