data_PCOD9073574
_publ_section_title
;
Structure prediction by ZEFSAII (Michael W. Deem and Ramdas Pophale) SiO2 
 PCOD9073574
Probable space group: P -1
;
_chemical_formula_sum "Si O2"
_cell_formula_units_Z 16
_cell_length_a 15.000000
_cell_length_b 15.000000
_cell_length_c 9.000000
_cell_angle_alpha 40.000000
_cell_angle_beta 40.000000
_cell_angle_gamma 40.000000
_cell_volume 753.872439
_symmetry_space_group_name_H-M "P -1"
_symmetry_group_IT_number 2
_symmetry_cell_setting 'triclinic'
loop_
_space_group_symop_operation_xyz
x,y,z
-x,-y,-z
loop_
_atom_site_type_symbol
_atom_site_label
_atom_site_fract_x
_atom_site_fract_y
_atom_site_fract_z
Si Si1 0.725740 0.189294 0.466205
Si Si2 0.919768 0.129415 0.573023
Si Si3 0.413185 0.257334 0.893070
Si Si4 0.880355 0.440765 0.660344
Si Si5 0.725872 0.462914 0.520146
Si Si6 0.409652 0.466275 0.905035
Si Si7 0.067770 0.089045 0.907571
Si Si8 0.220511 0.072990 0.447426
O O1 0.877613 0.117576 0.467667
O O2 0.591649 0.159910 0.752302
O O3 0.665765 0.369066 0.291969
O O4 0.730799 0.108102 0.406281
O O5 0.801307 0.307285 0.527458
O O6 0.073842 0.131081 0.447584
O O7 0.881588 0.014281 0.877462
O O8 0.327456 0.385999 0.709798
O O9 0.422000 0.344718 0.919044
O O10 0.329235 0.148667 0.160703
O O11 0.846043 0.450527 0.514225
O O12 0.000000 0.500000 0.500000
O O13 0.943305 0.264470 0.862990
O O14 0.711619 0.536274 0.819146
O O15 0.567671 0.457017 0.783272
O O16 0.189230 0.107511 0.617820
O O17 0.000000 0.000000 0.000000
#
# Coordination Sequence:
#
# PCOD9073574 Si02
#       8
#     2   2   2   2   2   2   2   2
#     4  11  22  41  62  93 118 165 208 246 297 375
#     4  11  21  40  65  88 122 162 211 244 296 372
#     4  11  23  42  62  93 128 156 202 260 308 355
#     4  12  25  41  63  95 125 156 207 260 305 355
#     4  11  22  42  64  90 124 165 202 251 302 368
#     4  11  22  41  67  88 121 168 207 242 305 372
#     4  10  21  41  61  86 122 162 202 246 299 364
#     4  11  23  38  63  89 125 160 200 258 311 342
#
# _framework density 21.223749999999999
#
# number of rings (size 3 to 8) (size 9 to 14) (size 15 to 20)
#    0.000    1.000    5.000    4.125    0.000    2.500 
#    0.000    0.625    0.000    0.000    0.000    0.000 
#    0.000    0.000    0.000    0.000    0.000    0.000 
#
# Total GULP energy -89162.957655 kJ/mol
# GULP energy per Si atom -5572.684853 kJ/mol
# Density = 2.117544 g / cm^3
# Si number density = 21.223750 Si / 1000 Ang^3
#
#
#
# Elastic Constant Matrix: (Units=GPa)
#
#
# Indices 1 2 3 4 5 6 
#
# 1 94.4041 0.4388 16.1607 -7.2952 -6.8615 14.0437
# 2 0.4388 21.9259 -1.6611 -1.7578 -14.1678 22.1326
# 3 16.1607 -1.6611 72.6594 3.6524 -22.9523 20.6458
# 4 -7.2952 -1.7578 3.6524 32.7562 2.7605 8.5223
# 5 -6.8615 -14.1678 -22.9523 2.7605 36.2921 0.1097
# 6 14.0437 22.1326 20.6458 8.5223 0.1097 25.5579
#
#
#
# Elastic Compliance Matrix: (Units=1/GPa)
#
#
# Indices 1 2 3 4 5 6 
#
# 1 0.010727 -0.007456 -0.005198 0.001850 -0.004323 0.004163
# 2 -0.007456 -0.034165 -0.024034 -0.013368 -0.029104 0.057680
# 3 -0.005198 -0.024034 0.007319 -0.008161 -0.005177 0.020499
# 4 0.001850 -0.013368 -0.008161 0.030329 -0.012358 0.007092
# 5 -0.004323 -0.029104 -0.005177 -0.012358 0.012933 0.035826
# 6 0.004163 0.057680 0.020499 0.007092 0.035826 -0.032188
#
#
# Mechanical properties :
#
#
# Convention : Reuss Voigt Hill
#
# Bulk Modulus (GPa) = -11.17404 24.31846 6.57221
# Shear Modulus (GPa) = 129.87278 30.52465 80.19871
#
# Velocity S-wave (km/s) = 7.83103 3.79652 6.15380
# Velocity P-wave (km/s) = 8.74588 5.54085 7.32091
#
# Compressibility (1/GPa) = -0.08949318
#
# Stress axis : x y z
#
# Youngs Moduli (GPa) = 93.22608 -29.27014 136.62219
#
# Poissons Ratio (x) = -0.21823 0.71013
# Poissons Ratio (y) = 0.69508 3.28354
# Poissons Ratio (z) = 0.48457 -0.70347
#
# Static dielectric constant tensor:
#      x y z
#    x 1.712560 0.018130 0.033560 
#    y 0.018130 1.967500 0.157240 
#    z 0.033560 0.157240 1.838770 
# 
# From -- ./inp_files/189766.got.cif
#   From: 2010.05.17/outbox.ucp.g08.bks.cvg/sg2_95_cif.got.tgz:189766.got - 2010.06.11 11:32:03.
