data_PCOD9073296
_publ_section_title
;
Structure prediction by ZEFSAII (Michael W. Deem and Ramdas Pophale) SiO2 
 PCOD9073296
Probable space group: P -1
;
_chemical_formula_sum "Si O2"
_cell_formula_units_Z 14
_cell_length_a 9.432197
_cell_length_b 7.461376
_cell_length_c 9.589440
_cell_angle_alpha 85.358025
_cell_angle_beta 114.462717
_cell_angle_gamma 108.749767
_cell_volume 580.627941
_symmetry_space_group_name_H-M "P -1"
_symmetry_group_IT_number 2
_symmetry_cell_setting 'triclinic'
loop_
_space_group_symop_operation_xyz
x,y,z
-x,-y,-z
loop_
_atom_site_type_symbol
_atom_site_label
_atom_site_fract_x
_atom_site_fract_y
_atom_site_fract_z
Si Si1 0.857785 0.645724 0.947609
Si Si2 0.071534 0.113075 0.307071
Si Si3 0.248970 0.085451 0.652574
Si Si4 0.191470 0.789823 0.226292
Si Si5 0.390831 0.138823 0.132134
Si Si6 0.542304 0.339955 0.931587
Si Si7 0.387629 0.817184 0.549129
O O1 0.903313 0.720502 0.804648
O O2 0.767552 0.793515 0.960616
O O3 0.717274 0.446381 0.927015
O O4 0.023227 0.663745 0.097338
O O5 0.166649 0.169498 0.488648
O O6 0.140878 0.956046 0.276028
O O7 0.884494 0.005507 0.278352
O O8 0.403171 0.246785 0.767552
O O9 0.292707 0.908620 0.614018
O O10 0.273099 0.699417 0.387269
O O11 0.322259 0.918953 0.161010
O O12 0.489801 0.252917 0.300742
O O13 0.515483 0.183805 0.051921
O O14 0.500000 0.500000 0.000000
O O15 0.500000 0.000000 0.500000
#
# Coordination Sequence:
#
# PCOD9073296 Si02
#       7
#     2   2   2   2   2   2   2
#     4  10  18  31  54  78 105 136 167 208 257 306
#     4   9  17  30  51  79 102 128 175 218 252 292
#     4  10  19  32  53  79 104 132 171 217 255 300
#     4   9  16  31  55  77 100 133 172 214 253 296
#     4   9  17  32  53  76 101 133 173 210 250 298
#     4  10  20  32  49  77 109 136 167 207 257 307
#     4   9  19  34  55  79 101 131 174 217 256 296
#
# _framework density 24.111829
#
# number of rings (size 3 to 8) (size 9 to 14) (size 15 to 20)
#    0.000    2.571    0.000    5.143    0.000    1.143 
#    0.000    0.714    0.000    7.714    0.000    0.000 
#    0.000    0.000    0.000    0.000    0.000    0.000 
#
# Total GULP energy -78226.838098 kJ/mol
# GULP energy per Si atom -5587.631293 kJ/mol
# Density = 2.405695 g / cm^3
# Si number density = 24.111829 Si / 1000 Ang^3
#
#
#
# Elastic Constant Matrix: (Units=GPa)
#
#
# Indices 1 2 3 4 5 6 
#
# 1 78.3966 47.9466 41.9088 -7.1793 7.9975 33.1166
# 2 47.9466 125.7154 93.1845 14.5199 -6.7385 40.6085
# 3 41.9088 93.1845 194.5807 21.1619 20.3725 40.3195
# 4 -7.1793 14.5199 21.1619 36.0673 17.1181 -2.3832
# 5 7.9975 -6.7385 20.3725 17.1181 36.8474 0.6724
# 6 33.1166 40.6085 40.3195 -2.3832 0.6724 54.7940
#
#
#
# Elastic Compliance Matrix: (Units=1/GPa)
#
#
# Indices 1 2 3 4 5 6 
#
# 1 0.024224 -0.010205 0.001034 0.014690 -0.014392 -0.007023
# 2 -0.010205 0.021572 -0.007182 -0.015027 0.017210 -0.005400
# 3 0.001034 -0.007182 0.009458 0.000769 -0.007085 -0.002142
# 4 0.014690 -0.015027 0.000769 0.050784 -0.030032 0.004270
# 5 -0.014392 0.017210 -0.007085 -0.030032 0.051294 -0.000779
# 6 -0.007023 -0.005400 -0.002142 0.004270 -0.000779 0.028268
#
#
# Mechanical properties :
#
#
# Convention : Reuss Voigt Hill
#
# Bulk Modulus (GPa) = 44.34691 84.97474 64.66082
# Shear Modulus (GPa) = 22.14137 39.91860 31.02998
#
# Velocity S-wave (km/s) = 3.03360 4.07327 3.59126
# Velocity P-wave (km/s) = 5.54097 7.57895 6.63863
#
# Compressibility (1/GPa) = 0.02254949
#
# Stress axis : x y z
#
# Youngs Moduli (GPa) = 41.28080 46.35582 105.73381
#
# Poissons Ratio (x) = 0.47306 -0.10936
# Poissons Ratio (y) = 0.42127 0.75934
# Poissons Ratio (z) = -0.04270 0.33291
#
# Static dielectric constant tensor:
#      x y z
#    x 2.035300 -0.019420 -0.016240 
#    y -0.019420 1.954090 -0.003460 
#    z -0.016240 -0.003460 2.001690 
# 
# From -- ./inp_files/251971.got.cif
#   From: 2010.05.17/outbox.cif.g08.bks.cpg/sg2_126_cif.got.tgz:251971.got - 2010.06.03 11:33:40.
