data_PCOD9073897
_publ_section_title
;
Structure prediction by ZEFSAII (Michael W. Deem and Ramdas Pophale) SiO2 
 PCOD9073897
Probable space group: P -1
;
_chemical_formula_sum "Si O2"
_cell_formula_units_Z 16
_cell_length_a 15.000000
_cell_length_b 12.000000
_cell_length_c 15.000000
_cell_angle_alpha 120.000000
_cell_angle_beta 30.000000
_cell_angle_gamma 140.000000
_cell_volume 747.221570
_symmetry_space_group_name_H-M "P -1"
_symmetry_group_IT_number 2
_symmetry_cell_setting 'triclinic'
loop_
_space_group_symop_operation_xyz
x,y,z
-x,-y,-z
loop_
_atom_site_type_symbol
_atom_site_label
_atom_site_fract_x
_atom_site_fract_y
_atom_site_fract_z
Si Si1 0.928251 0.270724 0.422450
Si Si2 0.453504 0.620404 0.371247
Si Si3 0.208668 0.756982 0.660960
Si Si4 0.534204 0.284499 0.789571
Si Si5 0.306059 0.242563 0.327074
Si Si6 0.243061 0.284498 0.679922
Si Si7 0.863361 0.882446 0.767562
Si Si8 0.102051 0.452319 0.966687
O O1 0.968755 0.288877 0.287488
O O2 0.646926 0.199631 0.650927
O O3 0.184126 0.482834 0.335061
O O4 0.945529 0.137807 0.393772
O O5 0.247249 0.626326 0.556559
O O6 0.589632 0.726580 0.199654
O O7 0.312319 0.400707 0.403009
O O8 0.645408 0.734834 0.339276
O O9 0.500000 0.000000 0.500000
O O10 0.073755 0.675698 0.842769
O O11 0.318946 0.191562 0.016889
O O12 0.340405 0.244025 0.190917
O O13 0.577004 0.346087 0.192458
O O14 0.000000 0.000000 0.500000
O O15 0.500000 0.500000 0.500000
O O16 0.071328 0.302527 0.880061
O O17 0.081488 0.120470 0.677104
O O18 0.000000 0.500000 0.000000
#
# Coordination Sequence:
#
# PCOD9073897 Si02
#       8
#     2   2   2   2   2   2   2   2
#     4  10  22  39  63 100 144 170 220 291 357 413
#     4  10  22  43  66  95 144 179 230 291 353 420
#     4  11  24  41  69 106 143 186 234 297 364 429
#     4  10  22  39  63 102 133 177 223 285 355 428
#     4  11  25  47  72 100 137 193 243 288 358 433
#     4  11  25  44  66  95 137 186 239 286 348 427
#     4  12  23  41  72  98 137 181 233 285 363 422
#     4  11  26  48  72 100 143 190 243 298 362 431
#
# _framework density 21.412658
#
# number of rings (size 3 to 8) (size 9 to 14) (size 15 to 20)
#    0.000    1.250    1.250    4.125    7.000    1.500 
#    0.000    1.250    0.000    0.000    0.000    0.000 
#    0.000    0.000    0.000    0.000    0.000    0.000 
#
# Total GULP energy -89228.825456 kJ/mol
# GULP energy per Si atom -5576.801591 kJ/mol
# Density = 2.136392 g / cm^3
# Si number density = 21.412658 Si / 1000 Ang^3
#
#
#
# Elastic Constant Matrix: (Units=GPa)
#
#
# Indices 1 2 3 4 5 6 
#
# 1 144.3465 18.8737 12.9742 2.1393 -10.6912 12.5699
# 2 18.8737 109.5083 28.7978 4.5227 -9.1232 13.4895
# 3 12.9742 28.7978 68.1752 0.0458 17.3427 -7.9920
# 4 2.1393 4.5227 0.0458 26.3712 6.4632 -1.9795
# 5 -10.6912 -9.1232 17.3427 6.4632 37.1594 1.4980
# 6 12.5699 13.4895 -7.9920 -1.9795 1.4980 36.5184
#
#
#
# Elastic Compliance Matrix: (Units=1/GPa)
#
#
# Indices 1 2 3 4 5 6 
#
# 1 0.007857 0.000428 -0.003246 -0.002073 0.004397 -0.003865
# 2 0.000428 0.013208 -0.008734 -0.004962 0.008610 -0.007560
# 3 -0.003246 -0.008734 0.024280 0.006430 -0.015958 0.010660
# 4 -0.002073 -0.004962 0.006430 0.042495 -0.012480 0.006769
# 5 0.004397 0.008610 -0.015958 -0.012480 0.040332 -0.010517
# 6 -0.003865 -0.007560 0.010660 0.006769 -0.010517 0.034638
#
#
# Mechanical properties :
#
#
# Convention : Reuss Voigt Hill
#
# Bulk Modulus (GPa) = 44.96312 49.25794 47.11053
# Shear Modulus (GPa) = 25.86291 37.43543 31.64917
#
# Velocity S-wave (km/s) = 3.47916 4.18579 3.84872
# Velocity P-wave (km/s) = 6.09782 6.81287 6.46523
#
# Compressibility (1/GPa) = 0.02224045
#
# Stress axis : x y z
#
# Youngs Moduli (GPa) = 127.28182 75.71044 41.18649
#
# Poissons Ratio (x) = -0.03237 0.13369
# Poissons Ratio (y) = -0.05442 0.35971
# Poissons Ratio (z) = 0.41315 0.66123
#
# Static dielectric constant tensor:
#      x y z
#    x 1.653330 -0.006070 -0.032360 
#    y -0.006070 1.805500 0.007510 
#    z -0.032360 0.007510 1.828710 
# 
# From -- ./inp_files/532579.got.cif
#   From: 2010.05.17/outbox.ucp.g08.bks.cvg/sg2_267_cif.got.tgz:532579.got - 2010.06.11 11:32:03.
