data_PCOD9073680
_publ_section_title
;
Structure prediction by ZEFSAII (Michael W. Deem and Ramdas Pophale) SiO2 
 PCOD9073680
Probable space group: P -1
;
_chemical_formula_sum "Si O2"
_cell_formula_units_Z 14
_cell_length_a 9.473055
_cell_length_b 22.298034
_cell_length_c 24.908716
_cell_angle_alpha 164.142321
_cell_angle_beta 28.624239
_cell_angle_gamma 145.135369
_cell_volume 677.198269
_symmetry_space_group_name_H-M "P -1"
_symmetry_group_IT_number 2
_symmetry_cell_setting 'triclinic'
loop_
_space_group_symop_operation_xyz
x,y,z
-x,-y,-z
loop_
_atom_site_type_symbol
_atom_site_label
_atom_site_fract_x
_atom_site_fract_y
_atom_site_fract_z
Si Si1 0.901321 0.820579 0.661339
Si Si2 0.016914 0.710792 0.926785
Si Si3 0.943080 0.015034 0.358652
Si Si4 0.421317 0.257406 0.814663
Si Si5 0.908233 0.297265 0.388494
Si Si6 0.252510 0.808399 0.829177
Si Si7 0.574793 0.738878 0.556818
O O1 0.586197 0.751737 0.693887
O O2 0.086221 0.829584 0.552012
O O3 0.058602 0.691984 0.549184
O O4 0.826351 0.082116 0.929902
O O5 0.040622 0.696109 0.842136
O O6 0.182502 0.482830 0.702203
O O7 0.687611 0.782668 0.123434
O O8 0.704266 0.101194 0.558736
O O9 0.265574 0.049202 0.302265
O O10 0.858223 0.786819 0.167462
O O11 0.500000 0.500000 0.000000
O O12 0.575730 0.271582 0.459185
O O13 0.000000 0.500000 0.500000
O O14 0.127168 0.070835 0.102018
O O15 0.307735 0.744840 0.694403
#
# Coordination Sequence:
#
# PCOD9073680 Si02
#       7
#     2   2   2   2   2   2   2
#     4   9  19  36  56  81 115 147 191 230 277 342
#     4  10  18  31  56  82 106 150 181 232 279 330
#     4   9  20  35  58  87 109 146 190 244 273 333
#     4  10  18  35  59  86 109 139 199 241 279 323
#     4  11  21  34  53  81 121 158 181 226 287 342
#     4  10  20  35  53  81 115 147 193 229 275 342
#     4  11  20  33  54  85 119 145 188 232 287 334
#
# _framework density 20.673414000000001
#
# number of rings (size 3 to 8) (size 9 to 14) (size 15 to 20)
#    0.000    2.000    1.429    4.286    0.000    1.143 
#    0.000    0.000    0.000   14.571    0.000    0.000 
#    0.000    0.000    0.000    0.000    0.000    0.000 
#
# Total GULP energy -78043.196477 kJ/mol
# GULP energy per Si atom -5574.514034 kJ/mol
# Density = 2.062636 g / cm^3
# Si number density = 20.673414 Si / 1000 Ang^3
#
#
#
# Elastic Constant Matrix: (Units=GPa)
#
#
# Indices 1 2 3 4 5 6 
#
# 1 112.3811 40.7912 17.6140 3.3433 -6.1367 7.5141
# 2 40.7912 99.9627 24.9723 -9.0709 7.8471 3.7589
# 3 17.6140 24.9723 66.5815 -4.1714 12.0830 -15.9960
# 4 3.3433 -9.0709 -4.1714 37.2992 -7.0865 20.1794
# 5 -6.1367 7.8471 12.0830 -7.0865 28.0240 0.6732
# 6 7.5141 3.7589 -15.9960 20.1794 0.6732 38.9818
#
#
#
# Elastic Compliance Matrix: (Units=1/GPa)
#
#
# Indices 1 2 3 4 5 6 
#
# 1 0.011389 -0.004071 -0.003244 0.000510 0.005246 -0.003489
# 2 -0.004071 0.013715 -0.004866 0.006018 -0.000977 -0.005633
# 3 -0.003244 -0.004866 0.022981 -0.008864 -0.011866 0.015318
# 4 0.000510 0.006018 -0.008864 0.045037 0.014307 -0.027877
# 5 0.005246 -0.000977 -0.011866 0.014307 0.046176 -0.013990
# 6 -0.003489 -0.005633 0.015318 -0.027877 -0.013990 0.047827
#
#
# Mechanical properties :
#
#
# Convention : Reuss Voigt Hill
#
# Bulk Modulus (GPa) = 42.15481 49.52004 45.83742
# Shear Modulus (GPa) = 22.78994 33.89750 28.34372
#
# Velocity S-wave (km/s) = 3.32381 4.05367 3.70675
# Velocity P-wave (km/s) = 5.93004 6.77607 6.36713
#
# Compressibility (1/GPa) = 0.02372209
#
# Stress axis : x y z
#
# Youngs Moduli (GPa) = 87.80358 72.91117 43.51488
#
# Poissons Ratio (x) = 0.29685 0.14117
# Poissons Ratio (y) = 0.35748 0.21175
# Poissons Ratio (z) = 0.28484 0.35479
#
# Static dielectric constant tensor:
#      x y z
#    x 1.780610 0.005100 0.035640 
#    y 0.005100 1.812940 0.013720 
#    z 0.035640 0.013720 1.762520 
# 
# From -- ./inp_files/341574.got.cif
#   From: 2010.05.17/outbox.cif.g08.bks.cpg/sg2_171_cif.got.tgz:341574.got - 2010.06.03 11:33:40.
