data_PCOD9073711
_publ_section_title
;
Structure prediction by ZEFSAII (Michael W. Deem and Ramdas Pophale) SiO2 
 PCOD9073711
Probable space group: P -1
;
_chemical_formula_sum "Si O2"
_cell_formula_units_Z 12
_cell_length_a 12.238621
_cell_length_b 10.136528
_cell_length_c 7.548571
_cell_angle_alpha 57.056126
_cell_angle_beta 37.473566
_cell_angle_gamma 63.075054
_cell_volume 477.709534
_symmetry_space_group_name_H-M "P -1"
_symmetry_group_IT_number 2
_symmetry_cell_setting 'triclinic'
loop_
_space_group_symop_operation_xyz
x,y,z
-x,-y,-z
loop_
_atom_site_type_symbol
_atom_site_label
_atom_site_fract_x
_atom_site_fract_y
_atom_site_fract_z
Si Si1 0.688095 0.680839 0.510573
Si Si2 0.576818 0.542330 0.139088
Si Si3 0.896803 0.847226 0.686363
Si Si4 0.498357 0.157342 0.763790
Si Si5 0.972015 0.511871 0.740394
Si Si6 0.202084 0.028859 0.659178
O O1 0.548375 0.604055 0.615223
O O2 0.694804 0.863132 0.415825
O O3 0.891623 0.616832 0.257926
O O4 0.633170 0.601553 0.828539
O O5 0.480981 0.690504 0.251801
O O6 0.759406 0.497204 0.042266
O O7 0.010943 0.683209 0.646389
O O8 0.832284 0.873130 0.548347
O O9 0.709533 0.834167 0.042459
O O10 0.000000 0.000000 0.500000
O O11 0.666797 0.119851 0.445959
O O12 0.500000 0.000000 0.000000
O O13 0.000000 0.500000 0.500000
O O14 0.000000 0.000000 0.000000
#
# Coordination Sequence:
#
# PCOD9073711 Si02
#       6
#     2   2   2   2   2   2
#     4  10  18  31  56  85 106 146 181 240 282 319
#     4   9  17  30  55  82 105 138 194 237 272 316
#     4  10  20  34  60  85 105 146 190 237 275 319
#     4   9  17  34  53  79 110 142 191 228 267 331
#     4   9  16  31  51  85 108 126 192 241 263 316
#     4  11  22  38  54  82 120 149 181 226 290 348
#
# _framework density 25.119868
#
# number of rings (size 3 to 8) (size 9 to 14) (size 15 to 20)
#    0.000    2.333    6.667    0.000    4.667    1.333 
#    0.000    1.667    0.000    2.000    0.000    0.000 
#    0.000    0.000    0.000    0.000    0.000    0.000 
#
# Total GULP energy -67125.983459 kJ/mol
# GULP energy per Si atom -5593.831955 kJ/mol
# Density = 2.506269 g / cm^3
# Si number density = 25.119868 Si / 1000 Ang^3
#
#
#
# Elastic Constant Matrix: (Units=GPa)
#
#
# Indices 1 2 3 4 5 6 
#
# 1 70.0466 42.6842 12.1587 8.1175 -12.6102 20.4990
# 2 42.6842 206.2952 65.9667 23.2583 -41.8215 26.3443
# 3 12.1587 65.9667 140.3441 11.1243 -19.9282 16.9012
# 4 8.1175 23.2583 11.1243 48.4186 0.2409 -19.2905
# 5 -12.6102 -41.8215 -19.9282 0.2409 46.9902 -5.2254
# 6 20.4990 26.3443 16.9012 -19.2905 -5.2254 47.2450
#
#
#
# Elastic Compliance Matrix: (Units=1/GPa)
#
#
# Indices 1 2 3 4 5 6 
#
# 1 0.019535 -0.001712 0.001381 -0.006974 0.003171 -0.010512
# 2 -0.001712 0.008045 -0.001935 -0.004940 0.005408 -0.004470
# 3 0.001381 -0.001935 0.008856 -0.002781 0.002018 -0.003601
# 4 -0.006974 -0.004940 -0.002781 0.032629 -0.005447 0.019496
# 5 0.003171 0.005408 0.002018 -0.005447 0.027349 -0.004313
# 6 -0.010512 -0.004470 -0.003601 0.019496 -0.004313 0.036991
#
#
# Mechanical properties :
#
#
# Convention : Reuss Voigt Hill
#
# Bulk Modulus (GPa) = 31.34404 73.14501 52.24452
# Shear Modulus (GPa) = 33.65381 48.25584 40.95482
#
# Velocity S-wave (km/s) = 3.66420 4.38770 4.04217
# Velocity P-wave (km/s) = 5.51423 7.40614 6.52907
#
# Compressibility (1/GPa) = 0.03190399
#
# Stress axis : x y z
#
# Youngs Moduli (GPa) = 51.18938 124.30782 112.91906
#
# Poissons Ratio (x) = 0.21283 -0.15599
# Poissons Ratio (y) = 0.08764 0.21852
# Poissons Ratio (z) = -0.07071 0.24056
#
# Static dielectric constant tensor:
#      x y z
#    x 2.062600 -0.025490 0.085010 
#    y -0.025490 1.947860 -0.033430 
#    z 0.085010 -0.033430 2.098810 
# 
# From -- ./inp_files/145280.got.cif
#   From: 2010.05.17/outbox.cif.g08.bks.cpg/sg2_73_cif.got.tgz:145280.got - 2010.06.03 11:33:40.
