data_PCOD9073822
_publ_section_title
;
Structure prediction by ZEFSAII (Michael W. Deem and Ramdas Pophale) SiO2 
 PCOD9073822
Probable space group: P -1
;
_chemical_formula_sum "Si O2"
_cell_formula_units_Z 16
_cell_length_a 7.188320
_cell_length_b 13.678904
_cell_length_c 9.400064
_cell_angle_alpha 90.851025
_cell_angle_beta 123.764434
_cell_angle_gamma 61.498780
_cell_volume 634.382686
_symmetry_space_group_name_H-M "P -1"
_symmetry_group_IT_number 2
_symmetry_cell_setting 'triclinic'
loop_
_space_group_symop_operation_xyz
x,y,z
-x,-y,-z
loop_
_atom_site_type_symbol
_atom_site_label
_atom_site_fract_x
_atom_site_fract_y
_atom_site_fract_z
Si Si1 0.574839 0.865717 0.179554
Si Si2 0.992988 0.849329 0.723459
Si Si3 0.078595 0.355106 0.882966
Si Si4 0.794178 0.008680 0.227050
Si Si5 0.893238 0.463312 0.255242
Si Si6 0.449807 0.756439 0.712436
Si Si7 0.713054 0.346563 0.940827
Si Si8 0.611327 0.777691 0.486461
O O1 0.730189 0.750269 0.145751
O O2 0.480974 0.841536 0.285498
O O3 0.785400 0.904311 0.287873
O O4 0.328844 0.967804 0.982808
O O5 0.961973 0.972998 0.684477
O O6 0.203222 0.763363 0.686359
O O7 0.730176 0.848344 0.606897
O O8 0.160199 0.782122 0.936510
O O9 0.973538 0.474924 0.758847
O O10 0.856312 0.339280 0.855343
O O11 0.274734 0.343284 0.094757
O O12 0.596222 0.121580 0.246082
O O13 0.609928 0.567394 0.205071
O O14 0.121238 0.352656 0.439936
O O15 0.805713 0.407549 0.094324
O O16 0.461302 0.757043 0.548252
#
# Coordination Sequence:
#
# PCOD9073822 Si02
#       8
#     2   2   2   2   2   2   2   2
#     4  10  21  38  58  85 115 149 181 232 290 332
#     4   9  18  36  58  84 110 143 189 241 258 328
#     4  11  19  35  58  79 113 156 187 218 271 345
#     4   8  19  40  64  75 113 151 185 231 277 338
#     4  10  20  31  53  85 112 144 192 232 262 322
#     4   9  18  35  60  82 111 145 191 229 271 327
#     4  10  18  31  57  85 107 145 196 226 265 325
#     4  11  22  34  59  87 116 142 187 239 281 319
#
# _framework density 25.22137
#
# number of rings (size 3 to 8) (size 9 to 14) (size 15 to 20)
#    0.750    1.500    3.750    0.375    0.000    1.500 
#    0.000    3.750    2.750    0.000    0.000    0.000 
#    0.000    0.000    0.000    0.000    0.000    0.000 
#
# Total GULP energy -89402.710945 kJ/mol
# GULP energy per Si atom -5587.669434 kJ/mol
# Density = 2.516396 g / cm^3
# Si number density = 25.221370 Si / 1000 Ang^3
#
#
#
# Elastic Constant Matrix: (Units=GPa)
#
#
# Indices 1 2 3 4 5 6 
#
# 1 85.3914 -4.5067 32.4270 9.2318 -28.9601 -2.9170
# 2 -4.5067 33.1238 4.7559 -4.1476 2.7895 9.8847
# 3 32.4270 4.7559 117.0349 -8.5137 -22.0002 -3.0114
# 4 9.2318 -4.1476 -8.5137 26.5568 -1.9653 -8.0392
# 5 -28.9601 2.7895 -22.0002 -1.9653 39.0524 0.3652
# 6 -2.9170 9.8847 -3.0114 -8.0392 0.3652 29.8448
#
#
#
# Elastic Compliance Matrix: (Units=1/GPa)
#
#
# Indices 1 2 3 4 5 6 
#
# 1 0.017283 0.001441 -0.003361 -0.006378 0.010509 -0.000974
# 2 0.001441 0.034430 -0.002572 0.000406 -0.002713 -0.011379
# 3 -0.003361 -0.002572 0.010812 0.005449 0.004028 0.003033
# 4 -0.006378 0.000406 0.005449 0.045351 0.000481 0.012002
# 5 0.010509 -0.002713 0.004028 0.000481 0.035868 0.002023
# 6 -0.000974 -0.011379 0.003033 0.012002 0.002023 0.040695
#
#
# Mechanical properties :
#
#
# Convention : Reuss Voigt Hill
#
# Bulk Modulus (GPa) = 18.67674 33.43363 26.05518
# Shear Modulus (GPa) = 23.66650 32.61573 28.14111
#
# Velocity S-wave (km/s) = 3.06657 3.59998 3.34393
# Velocity P-wave (km/s) = 4.46763 5.52853 5.02615
#
# Compressibility (1/GPa) = 0.05354253
#
# Stress axis : x y z
#
# Youngs Moduli (GPa) = 57.85925 29.04432 92.49196
#
# Poissons Ratio (x) = -0.04185 0.31085
# Poissons Ratio (y) = -0.08338 0.23784
# Poissons Ratio (z) = 0.19446 0.07469
#
# Static dielectric constant tensor:
#      x y z
#    x 2.008320 0.001660 0.044610 
#    y 0.001660 1.986320 0.002720 
#    z 0.044610 0.002720 1.995130 
# 
# From -- ./inp_files/200839.got.cif
#   From: 2010.05.17/outbox.cif.g08.bks.cpg/sg2_101_cif.got.tgz:200839.got - 2010.06.03 11:33:40.
