data_PCOD9073916
_publ_section_title
;
Structure prediction by ZEFSAII (Michael W. Deem and Ramdas Pophale) SiO2 
 PCOD9073916
Probable space group: P -1
;
_chemical_formula_sum "Si O2"
_cell_formula_units_Z 15
_cell_length_a 10.346105
_cell_length_b 7.620123
_cell_length_c 12.623474
_cell_angle_alpha 63.582404
_cell_angle_beta 72.298773
_cell_angle_gamma 115.451975
_cell_volume 636.196794
_symmetry_space_group_name_H-M "P -1"
_symmetry_group_IT_number 2
_symmetry_cell_setting 'triclinic'
loop_
_space_group_symop_operation_xyz
x,y,z
-x,-y,-z
loop_
_atom_site_type_symbol
_atom_site_label
_atom_site_fract_x
_atom_site_fract_y
_atom_site_fract_z
Si Si1 0.994022 0.246597 0.168667
Si Si2 0.886326 0.693056 0.100126
Si Si3 0.114000 0.316377 0.660334
Si Si4 0.097653 0.823602 0.443784
Si Si5 0.468303 0.445404 0.730624
Si Si6 0.327897 0.972324 0.540274
Si Si7 0.500000 0.500000 0.500000
Si Si8 0.226034 0.385283 0.258508
O O1 0.167179 0.439127 0.152569
O O2 0.821349 0.172577 0.291655
O O3 0.039994 0.342977 0.011175
O O4 0.963330 0.980420 0.248659
O O5 0.901459 0.620759 0.233253
O O6 0.679145 0.564941 0.171089
O O7 0.000000 0.000000 0.000000
O O8 0.987939 0.315979 0.610080
O O9 0.325025 0.491008 0.534487
O O10 0.235587 0.849655 0.482121
O O11 0.923834 0.706563 0.591340
O O12 0.204573 0.130989 0.315515
O O13 0.389533 0.279804 0.688092
O O14 0.578866 0.413361 0.789024
O O15 0.594810 0.726159 0.556794
O O16 0.500000 0.000000 0.500000
#
# Coordination Sequence:
#
# PCOD9073916 Si02
#       8
#     2   2   2   2   2   2   1   2
#     4   9  16  30  43  67 100 117 148 191 238 273
#     4   9  19  28  43  71 101 124 141 183 243 288
#     4   9  14  25  45  69  94 118 144 183 240 277
#     4   8  13  25  43  67  92 115 151 194 233 262
#     4  10  17  28  46  74  93 119 158 182 233 283
#     4  10  19  31  50  69  89 124 164 196 221 264
#     4  10  14  22  44  70  90 112 148 186 214 272
#     4   8  13  23  44  66  93 118 141 191 239 271
#
# _framework density 23.577611999999998
#
# number of rings (size 3 to 8) (size 9 to 14) (size 15 to 20)
#    0.000    2.933    2.667    1.600    0.000    0.533 
#    0.000    0.667    0.000    4.000    0.000    0.000 
#    0.000    0.000    0.000    0.000    0.000    0.000 
#
# Total GULP energy -83505.077120 kJ/mol
# GULP energy per Si atom -5567.005141 kJ/mol
# Density = 2.352395 g / cm^3
# Si number density = 23.577612 Si / 1000 Ang^3
#
#
#
# Elastic Constant Matrix: (Units=GPa)
#
#
# Indices 1 2 3 4 5 6 
#
# 1 190.9143 60.6593 52.4105 37.6453 1.8409 32.4068
# 2 60.6593 82.4439 28.9310 24.1293 5.3371 5.1782
# 3 52.4105 28.9310 92.1705 37.2369 -6.6829 -5.6393
# 4 37.6453 24.1293 37.2369 38.8606 3.0822 7.2958
# 5 1.8409 5.3371 -6.6829 3.0822 21.7623 5.6848
# 6 32.4068 5.1782 -5.6393 7.2958 5.6848 42.6132
#
#
#
# Elastic Compliance Matrix: (Units=1/GPa)
#
#
# Indices 1 2 3 4 5 6 
#
# 1 0.009091 -0.004731 -0.003424 -0.001430 0.001298 -0.006720
# 2 -0.004731 0.017650 -0.000458 -0.006182 -0.003972 0.002981
# 3 -0.003424 -0.000458 0.021821 -0.019397 0.007806 0.007827
# 4 -0.001430 -0.006182 -0.019397 0.051861 -0.009485 -0.008342
# 5 0.001298 -0.003972 0.007806 -0.009485 0.051799 -0.004757
# 6 -0.006720 0.002981 0.007827 -0.008342 -0.004757 0.031314
#
#
# Mechanical properties :
#
#
# Convention : Reuss Voigt Hill
#
# Bulk Modulus (GPa) = 31.91155 72.17003 52.04079
# Shear Modulus (GPa) = 23.67325 35.54908 29.61117
#
# Velocity S-wave (km/s) = 3.17212 3.88718 3.54772
# Velocity P-wave (km/s) = 5.19428 7.12902 6.23713
#
# Compressibility (1/GPa) = 0.03133662
#
# Stress axis : x y z
#
# Youngs Moduli (GPa) = 109.99589 56.65608 45.82668
#
# Poissons Ratio (x) = 0.26804 0.15691
# Poissons Ratio (y) = 0.52039 0.02100
# Poissons Ratio (z) = 0.37663 0.02596
#
# Static dielectric constant tensor:
#      x y z
#    x 1.876220 -0.199980 0.029640 
#    y -0.199980 1.343590 -0.111200 
#    z 0.029640 -0.111200 1.909480 
# 
# From -- ./inp_files/494365.got.cif
#   From: 2010.05.17/outbox.cif.g08.bks.cpg/sg2_248_cif.got.tgz:494365.got - 2010.06.03 11:33:40.
