data_PCOD9073781
_publ_section_title
;
Structure prediction by ZEFSAII (Michael W. Deem and Ramdas Pophale) SiO2 
 PCOD9073781
Probable space group: P -1
;
_chemical_formula_sum "Si O2"
_cell_formula_units_Z 16
_cell_length_a 12.000000
_cell_length_b 18.000000
_cell_length_c 9.000000
_cell_angle_alpha 120.000000
_cell_angle_beta 130.000000
_cell_angle_gamma 30.000000
_cell_volume 736.400153
_symmetry_space_group_name_H-M "P -1"
_symmetry_group_IT_number 2
_symmetry_cell_setting 'triclinic'
loop_
_space_group_symop_operation_xyz
x,y,z
-x,-y,-z
loop_
_atom_site_type_symbol
_atom_site_label
_atom_site_fract_x
_atom_site_fract_y
_atom_site_fract_z
Si Si1 0.601832 0.152715 0.405294
Si Si2 0.114590 0.173702 0.132391
Si Si3 0.561186 0.871941 0.028265
Si Si4 0.393508 0.685694 0.646544
Si Si5 0.116334 0.674214 0.227331
Si Si6 0.947173 0.599181 0.674583
Si Si7 0.817524 0.019654 0.782995
Si Si8 0.563815 0.707209 0.066136
O O1 0.603678 0.077402 0.206198
O O2 0.634376 0.225951 0.414557
O O3 0.311010 0.296822 0.356511
O O4 0.777303 0.048152 0.597267
O O5 0.090270 0.282510 0.283824
O O6 0.108807 0.106386 0.196076
O O7 0.910439 0.276366 0.918974
O O8 0.382444 0.018078 0.125217
O O9 0.627992 0.751454 0.050127
O O10 0.832271 0.778641 0.121268
O O11 0.196748 0.710173 0.445872
O O12 0.667316 0.503414 0.724235
O O13 0.361718 0.746354 0.840936
O O14 0.000000 0.500000 0.500000
O O15 0.196528 0.466744 0.858606
O O16 0.547729 0.186652 0.783725
O O17 0.000000 0.000000 0.000000
#
# Coordination Sequence:
#
# PCOD9073781 Si02
#       8
#     2   2   2   2   2   2   2   2
#     4  11  22  42  69  95 132 174 227 263 336 384
#     4  11  24  43  69  97 135 170 225 275 326 392
#     4  10  22  41  71 100 126 170 219 287 321 382
#     4  10  22  38  68  98 132 173 213 284 324 398
#     4  11  20  38  64 104 134 158 223 275 343 374
#     4  12  23  42  69  97 131 174 223 275 318 393
#     4  11  25  45  65  96 140 181 215 266 335 407
#     4  10  21  44  66  95 129 175 224 263 331 390
#
# _framework density 21.727318
#
# number of rings (size 3 to 8) (size 9 to 14) (size 15 to 20)
#    0.000    1.250    3.750    1.875    0.000    3.500 
#    0.000    8.125    0.000    0.000    0.000    0.000 
#    0.000    0.000    0.000    0.000    0.000    0.000 
#
# Total GULP energy -89255.176874 kJ/mol
# GULP energy per Si atom -5578.448555 kJ/mol
# Density = 2.167787 g / cm^3
# Si number density = 21.727318 Si / 1000 Ang^3
#
#
#
# Elastic Constant Matrix: (Units=GPa)
#
#
# Indices 1 2 3 4 5 6 
#
# 1 79.1026 40.2523 50.0389 1.5258 -9.6737 34.9446
# 2 40.2523 131.6736 45.1773 1.3380 -2.4718 37.4560
# 3 50.0389 45.1773 154.2034 -1.5433 -4.4356 19.3110
# 4 1.5258 1.3380 -1.5433 53.9227 8.7280 -1.9371
# 5 -9.6737 -2.4718 -4.4356 8.7280 36.9548 -3.2702
# 6 34.9446 37.4560 19.3110 -1.9371 -3.2702 38.0654
#
#
#
# Elastic Compliance Matrix: (Units=1/GPa)
#
#
# Indices 1 2 3 4 5 6 
#
# 1 0.026082 0.000020 -0.005755 -0.002438 0.004878 -0.020748
# 2 0.000020 0.011130 -0.002029 -0.000658 -0.000223 -0.009993
# 3 -0.005755 -0.002029 0.008573 0.000646 -0.000507 0.002920
# 4 -0.002438 -0.000658 0.000646 0.019562 -0.004948 0.003128
# 5 0.004878 -0.000223 -0.000507 -0.004948 0.029276 -0.001738
# 6 -0.020748 -0.009993 0.002920 0.003128 -0.001738 0.053680
#
#
# Mechanical properties :
#
#
# Convention : Reuss Voigt Hill
#
# Bulk Modulus (GPa) = 33.05055 70.65739 51.85397
# Shear Modulus (GPa) = 28.74959 41.08933 34.91946
#
# Velocity S-wave (km/s) = 3.64153 4.35344 4.01330
# Velocity P-wave (km/s) = 5.73808 7.60661 6.73744
#
# Compressibility (1/GPa) = 0.03025668
#
# Stress axis : x y z
#
# Youngs Moduli (GPa) = 38.34115 89.84993 116.64443
#
# Poissons Ratio (x) = -0.00179 0.67130
# Poissons Ratio (y) = -0.00076 0.23663
# Poissons Ratio (z) = 0.22066 0.18228
#
# Static dielectric constant tensor:
#      x y z
#    x 1.825080 -0.015910 0.007910 
#    y -0.015910 1.805150 0.018520 
#    z 0.007910 0.018520 1.841450 
# 
# From -- ./inp_files/279730.got.cif
#   From: 2010.05.17/outbox.ucp.g08.bks.cvg/sg2_140_cif.got.tgz:279730.got - 2010.06.11 11:32:03.
