data_PCOD9073291
_publ_section_title
;
Structure prediction by ZEFSAII (Michael W. Deem and Ramdas Pophale) SiO2 
 PCOD9073291
Probable space group: P -1
;
_chemical_formula_sum "Si O2"
_cell_formula_units_Z 14
_cell_length_a 15.000000
_cell_length_b 15.000000
_cell_length_c 30.000000
_cell_angle_alpha 20.000000
_cell_angle_beta 20.000000
_cell_angle_gamma 20.000000
_cell_volume 690.755125
_symmetry_space_group_name_H-M "P -1"
_symmetry_group_IT_number 2
_symmetry_cell_setting 'triclinic'
loop_
_space_group_symop_operation_xyz
x,y,z
-x,-y,-z
loop_
_atom_site_type_symbol
_atom_site_label
_atom_site_fract_x
_atom_site_fract_y
_atom_site_fract_z
Si Si1 0.091070 0.503518 0.600138
Si Si2 0.833684 0.600882 0.578255
Si Si3 0.787493 0.193011 0.319969
Si Si4 0.754144 0.251871 0.936079
Si Si5 0.387155 0.784585 0.174775
Si Si6 0.083940 0.584423 0.120559
Si Si7 0.792729 0.194482 0.420833
O O1 0.439713 0.325013 0.531549
O O2 0.041087 0.522007 0.561337
O O3 0.907209 0.355947 0.777726
O O4 0.957786 0.844555 0.518695
O O5 0.664791 0.407144 0.749468
O O6 0.000000 0.500000 0.500000
O O7 0.650722 0.962381 0.493421
O O8 0.600386 0.515657 0.234078
O O9 0.844969 0.225712 0.329066
O O10 0.088699 0.003381 0.239404
O O11 0.844812 0.340963 0.898729
O O12 0.396745 0.414767 0.027109
O O13 0.879937 0.897854 0.044828
O O14 0.500000 0.000000 0.000000
O O15 0.924104 0.383524 0.294385
#
# Coordination Sequence:
#
# PCOD9073291 Si02
#       7
#     2   2   2   2   2   2   2
#     4  11  23  37  60  90 117 149 202 245 282 344
#     4   9  20  38  58  78 113 155 187 233 291 339
#     4  10  21  38  55  78 114 150 190 234 290 349
#     4  10  22  41  60  89 119 154 194 235 293 353
#     4  11  22  36  56  83 111 147 196 243 285 338
#     4  10  22  40  63  84 121 159 187 234 299 353
#     4  11  22  38  60  88 115 154 195 240 288 341
#
# _framework density 20.267674
#
# number of rings (size 3 to 8) (size 9 to 14) (size 15 to 20)
#    0.000    1.714    0.000    5.143    0.000    6.857 
#    0.000    0.000    0.000    0.000    0.000    0.000 
#    0.000    0.000    0.000    0.000    0.000    0.000 
#
# Total GULP energy -78184.471431 kJ/mol
# GULP energy per Si atom -5584.605102 kJ/mol
# Density = 2.022154 g / cm^3
# Si number density = 20.267674 Si / 1000 Ang^3
#
#
#
# Elastic Constant Matrix: (Units=GPa)
#
#
# Indices 1 2 3 4 5 6 
#
# 1 15.8347 6.5925 -0.0637 -0.2930 1.7321 0.9485
# 2 6.5925 132.4063 29.9127 -6.2225 10.2606 -9.0801
# 3 -0.0637 29.9127 107.8660 -12.6955 6.1965 2.3476
# 4 -0.2930 -6.2225 -12.6955 42.7169 3.9011 0.0055
# 5 1.7321 10.2606 6.1965 3.9011 25.5339 -0.9757
# 6 0.9485 -9.0801 2.3476 0.0055 -0.9757 9.9960
#
#
#
# Elastic Compliance Matrix: (Units=1/GPa)
#
#
# Indices 1 2 3 4 5 6 
#
# 1 0.065925 -0.004078 0.001703 0.000710 -0.003765 -0.010727
# 2 -0.004078 0.009180 -0.002503 0.000800 -0.002581 0.009061
# 3 0.001703 -0.002503 0.010565 0.003000 -0.002329 -0.005145
# 4 0.000710 0.000800 0.003000 0.024872 -0.004918 -0.000539
# 5 -0.003765 -0.002581 -0.002329 -0.004918 0.041874 0.002650
# 6 -0.010727 0.009061 -0.005145 -0.000539 0.002650 0.110757
#
#
# Mechanical properties :
#
#
# Convention : Reuss Voigt Hill
#
# Bulk Modulus (GPa) = 13.17280 36.55447 24.86364
# Shear Modulus (GPa) = 16.76547 30.29372 23.52959
#
# Velocity S-wave (km/s) = 2.87923 3.87031 3.41096
# Velocity P-wave (km/s) = 4.19128 6.16825 5.27324
#
# Compressibility (1/GPa) = 0.07591399
#
# Stress axis : x y z
#
# Youngs Moduli (GPa) = 15.16885 108.93268 94.65451
#
# Poissons Ratio (x) = 0.44419 -0.16119
# Poissons Ratio (y) = 0.06185 0.23692
# Poissons Ratio (z) = -0.02583 0.27265
#
# Static dielectric constant tensor:
#      x y z
#    x 1.737190 -0.007830 -0.033220 
#    y -0.007830 1.721460 0.016930 
#    z -0.033220 0.016930 1.741930 
# 
# From -- ./inp_files/105327.got.cif
#   From: 2010.05.17/outbox.ucp.g08.bks.cvg/sg2_53_cif.got.tgz:105327.got - 2010.06.11 11:32:03.
