data_PCOD9073700
_publ_section_title
;
Structure prediction by ZEFSAII (Michael W. Deem and Ramdas Pophale) SiO2 
 PCOD9073700
Probable space group: P -1
;
_chemical_formula_sum "Si O2"
_cell_formula_units_Z 16
_cell_length_a 30.000000
_cell_length_b 24.000000
_cell_length_c 18.000000
_cell_angle_alpha 160.000000
_cell_angle_beta 20.000000
_cell_angle_gamma 170.000000
_cell_volume 747.142172
_symmetry_space_group_name_H-M "P -1"
_symmetry_group_IT_number 2
_symmetry_cell_setting 'triclinic'
loop_
_space_group_symop_operation_xyz
x,y,z
-x,-y,-z
loop_
_atom_site_type_symbol
_atom_site_label
_atom_site_fract_x
_atom_site_fract_y
_atom_site_fract_z
Si Si1 0.206503 0.342448 0.908236
Si Si2 0.802403 0.153012 0.904604
Si Si3 0.997899 0.032886 0.388130
Si Si4 0.776979 0.981733 0.879564
Si Si5 0.612023 0.748617 0.276345
Si Si6 0.112282 0.239502 0.220287
Si Si7 0.735706 0.251266 0.710078
Si Si8 0.752935 0.255352 0.371031
O O1 0.497316 0.614845 0.824747
O O2 0.172972 0.499659 0.174270
O O3 0.152698 0.241467 0.780360
O O4 0.999981 0.999684 0.840913
O O5 0.830625 0.015682 0.642186
O O6 0.906430 0.213211 0.897918
O O7 0.000000 0.500000 0.000000
O O8 0.519258 0.935810 0.086996
O O9 0.044804 0.966769 0.302269
O O10 0.304898 0.409883 0.358233
O O11 0.714911 0.056909 0.130047
O O12 0.657982 0.984796 0.469577
O O13 0.662817 0.633351 0.008248
O O14 0.856137 0.994649 0.261430
O O15 0.210867 0.525757 0.448073
O O16 0.980209 0.489620 0.681102
O O17 0.500000 0.000000 0.500000
#
# Coordination Sequence:
#
# PCOD9073700 Si02
#       8
#     2   2   2   2   2   2   2   2
#     4  11  25  41  71 105 136 178 235 284 345 414
#     4  11  25  46  71 101 138 182 234 292 341 400
#     4  12  23  46  71  98 139 182 231 284 343 412
#     4  11  25  47  70 102 141 185 227 284 351 407
#     4  10  21  42  69  95 143 179 230 281 346 415
#     4  10  23  40  68 104 132 186 228 283 346 414
#     4  10  23  44  65 104 135 177 226 289 337 411
#     4  11  24  46  73 100 144 184 228 279 351 417
#
# _framework density 21.414933999999999
#
# number of rings (size 3 to 8) (size 9 to 14) (size 15 to 20)
#    0.000    1.250    3.750    1.125    5.250    3.000 
#    4.500    0.625    0.000    0.000    0.000    0.000 
#    0.000    0.000    0.000    0.000    0.000    0.000 
#
# Total GULP energy -89250.084852 kJ/mol
# GULP energy per Si atom -5578.130303 kJ/mol
# Density = 2.136619 g / cm^3
# Si number density = 21.414934 Si / 1000 Ang^3
#
#
#
# Elastic Constant Matrix: (Units=GPa)
#
#
# Indices 1 2 3 4 5 6 
#
# 1 48.8600 22.7709 11.1017 8.0057 -23.4600 -0.3732
# 2 22.7709 87.2064 24.7338 0.3690 -15.0964 -4.2840
# 3 11.1017 24.7338 111.0518 0.5529 -35.7226 1.3003
# 4 8.0057 0.3690 0.5529 35.9026 -1.4984 -8.3334
# 5 -23.4600 -15.0964 -35.7226 -1.4984 33.6686 10.1363
# 6 -0.3732 -4.2840 1.3003 -8.3334 10.1363 40.1040
#
#
#
# Elastic Compliance Matrix: (Units=1/GPa)
#
#
# Indices 1 2 3 4 5 6 
#
# 1 0.043847 -0.007906 0.011348 -0.011327 0.042747 -0.013962
# 2 -0.007906 0.014027 -0.003621 0.002204 -0.003858 0.002975
# 3 0.011348 -0.003621 0.017593 -0.003598 0.027353 -0.008513
# 4 -0.011327 0.002204 -0.003598 0.032232 -0.012316 0.010057
# 5 0.042747 -0.003858 0.027353 -0.012316 0.094460 -0.027335
# 6 -0.013962 0.002975 -0.008513 0.010057 -0.027335 0.034398
#
#
# Mechanical properties :
#
#
# Convention : Reuss Voigt Hill
#
# Bulk Modulus (GPa) = 13.31376 40.48122 26.89749
# Shear Modulus (GPa) = 19.08760 34.50251 26.79505
#
# Velocity S-wave (km/s) = 2.98874 4.01826 3.54111
# Velocity P-wave (km/s) = 4.25918 6.36183 5.41357
#
# Compressibility (1/GPa) = 0.07511025
#
# Stress axis : x y z
#
# Youngs Moduli (GPa) = 22.80669 71.29024 56.84050
#
# Poissons Ratio (x) = 0.56359 -0.64503
# Poissons Ratio (y) = 0.18030 0.20581
# Poissons Ratio (z) = -0.25881 0.25813
#
# Static dielectric constant tensor:
#      x y z
#    x 1.864980 -0.068910 0.043330 
#    y -0.068910 1.792220 0.003400 
#    z 0.043330 0.003400 1.794000 
# 
# From -- ./inp_files/580207.got.cif
#   From: 2010.05.17/outbox.ucp.g08.bks.cvg/sg2_291_cif.got.tgz:580207.got - 2010.06.11 11:32:03.
