data_PCOD9073452
_publ_section_title
;
Structure prediction by ZEFSAII (Michael W. Deem and Ramdas Pophale) SiO2 
 PCOD9073452
Probable space group: P -1
;
_chemical_formula_sum "Si O2"
_cell_formula_units_Z 16
_cell_length_a 18.000000
_cell_length_b 9.000000
_cell_length_c 12.000000
_cell_angle_alpha 120.000000
_cell_angle_beta 150.000000
_cell_angle_gamma 50.000000
_cell_volume 736.400153
_symmetry_space_group_name_H-M "P -1"
_symmetry_group_IT_number 2
_symmetry_cell_setting 'triclinic'
loop_
_space_group_symop_operation_xyz
x,y,z
-x,-y,-z
loop_
_atom_site_type_symbol
_atom_site_label
_atom_site_fract_x
_atom_site_fract_y
_atom_site_fract_z
Si Si1 0.134702 0.493682 0.531055
Si Si2 0.386023 0.914726 0.471505
Si Si3 0.855568 0.945792 0.325397
Si Si4 0.456543 0.579671 0.268645
Si Si5 0.242669 0.837681 0.487476
Si Si6 0.479973 0.804249 0.171779
Si Si7 0.936831 0.958261 0.019748
Si Si8 0.874978 0.362589 0.177612
O O1 0.329928 0.366588 0.689691
O O2 0.156439 0.541259 0.705416
O O3 0.970177 0.708838 0.364491
O O4 0.042526 0.361510 0.349789
O O5 0.469873 0.706808 0.436225
O O6 0.314269 0.894511 0.491549
O O7 0.492848 0.024022 0.673763
O O8 0.229928 0.048550 0.234755
O O9 0.805953 0.009965 0.415263
O O10 0.000000 0.000000 0.500000
O O11 0.679135 0.079992 0.078062
O O12 0.614981 0.373412 0.369911
O O13 0.427538 0.702312 0.162864
O O14 0.303649 0.531276 0.079310
O O15 0.091577 0.798269 0.230102
O O16 0.901319 0.144707 0.119483
O O17 0.000000 0.000000 0.000000
#
# Coordination Sequence:
#
# PCOD9073452 Si02
#       8
#     2   2   2   2   2   2   2   2
#     4  11  23  42  67 103 138 182 233 286 339 415
#     4  10  24  44  71  98 137 183 238 292 338 410
#     4  12  27  44  72 103 147 183 229 285 357 426
#     4  11  24  45  70  99 145 183 229 291 354 412
#     4  11  22  42  72 105 130 185 240 281 351 414
#     4  12  27  47  69 105 146 186 225 288 360 414
#     4   9  18  38  64  94 135 173 223 281 339 396
#     4  10  21  39  66  97 139 177 230 289 339 399
#
# _framework density 21.727318
#
# number of rings (size 3 to 8) (size 9 to 14) (size 15 to 20)
#    0.000    1.250    1.250    4.500    5.250    2.000 
#    2.250    0.625    0.000    0.000    0.000    0.000 
#    0.000    0.000    0.000    0.000    0.000    0.000 
#
# Total GULP energy -89097.730136 kJ/mol
# GULP energy per Si atom -5568.608133 kJ/mol
# Density = 2.167787 g / cm^3
# Si number density = 21.727318 Si / 1000 Ang^3
#
#
#
# Elastic Constant Matrix: (Units=GPa)
#
#
# Indices 1 2 3 4 5 6 
#
# 1 92.3248 32.9611 35.6514 -2.3575 9.5381 -18.1053
# 2 32.9611 83.7215 49.9732 -15.2253 2.7625 -15.5728
# 3 35.6514 49.9732 165.8733 -6.4953 3.2337 3.3724
# 4 -2.3575 -15.2253 -6.4953 37.8967 -3.5097 1.1650
# 5 9.5381 2.7625 3.2337 -3.5097 32.9907 -4.9285
# 6 -18.1053 -15.5728 3.3724 1.1650 -4.9285 35.3396
#
#
#
# Elastic Compliance Matrix: (Units=1/GPa)
#
#
# Indices 1 2 3 4 5 6 
#
# 1 0.014254 -0.003427 -0.002140 -0.001301 -0.002921 0.005632
# 2 -0.003427 0.018518 -0.004765 0.006347 0.001610 0.006874
# 3 -0.002140 -0.004765 0.007990 -0.000594 -0.000426 -0.003998
# 4 -0.001301 0.006347 -0.000594 0.029003 0.003240 0.001683
# 5 -0.002921 0.001610 -0.000426 0.003240 0.031946 0.003602
# 6 0.005632 0.006874 -0.003998 0.001683 0.003602 0.035040
#
#
# Mechanical properties :
#
#
# Convention : Reuss Voigt Hill
#
# Bulk Modulus (GPa) = 49.75408 64.34344 57.04876
# Shear Modulus (GPa) = 30.46662 36.13434 33.30048
#
# Velocity S-wave (km/s) = 3.74869 4.08252 3.91916
# Velocity P-wave (km/s) = 6.45647 7.20423 6.84057
#
# Compressibility (1/GPa) = 0.02009886
#
# Stress axis : x y z
#
# Youngs Moduli (GPa) = 70.15476 54.00267 125.15018
#
# Poissons Ratio (x) = 0.18508 0.26777
# Poissons Ratio (y) = 0.24044 0.59632
# Poissons Ratio (z) = 0.15011 0.25731
#
# Static dielectric constant tensor:
#      x y z
#    x 1.852800 0.010090 0.067930 
#    y 0.010090 1.886210 -0.092970 
#    z 0.067930 -0.092970 1.917170 
# 
# From -- ./inp_files/462376.got.cif
#   From: 2010.05.17/outbox.ucp.g08.bks.cvg/sg2_232_cif.got.tgz:462376.got - 2010.06.11 11:32:03.
