data_PCOD9073841
_publ_section_title
;
Structure prediction by ZEFSAII (Michael W. Deem and Ramdas Pophale) SiO2 
 PCOD9073841
Probable space group: P -1
;
_chemical_formula_sum "Si O2"
_cell_formula_units_Z 16
_cell_length_a 9.000000
_cell_length_b 15.000000
_cell_length_c 30.000000
_cell_angle_alpha 20.000000
_cell_angle_beta 40.000000
_cell_angle_gamma 50.000000
_cell_volume 833.890543
_symmetry_space_group_name_H-M "P -1"
_symmetry_group_IT_number 2
_symmetry_cell_setting 'triclinic'
loop_
_space_group_symop_operation_xyz
x,y,z
-x,-y,-z
loop_
_atom_site_type_symbol
_atom_site_label
_atom_site_fract_x
_atom_site_fract_y
_atom_site_fract_z
Si Si1 0.423489 0.477240 0.475269
Si Si2 0.243167 0.047071 0.023555
Si Si3 0.919558 0.478439 0.316507
Si Si4 0.670350 0.507524 0.041298
Si Si5 0.534872 0.911454 0.819831
Si Si6 0.014727 0.889554 0.855355
Si Si7 0.007277 0.440444 0.846397
Si Si8 0.179309 0.079847 0.342950
O O1 0.500000 0.500000 0.500000
O O2 0.641664 0.450121 0.407351
O O3 0.389905 0.766922 0.334107
O O4 0.189037 0.196208 0.656096
O O5 0.107487 0.071543 0.088965
O O6 0.091777 0.761824 0.167092
O O7 0.212716 0.309311 0.878554
O O8 0.500000 0.000000 0.000000
O O9 0.971069 0.534148 0.225175
O O10 0.938738 0.199770 0.468436
O O11 0.650876 0.701099 0.914252
O O12 0.805689 0.722791 0.947221
O O13 0.822121 0.310076 0.085401
O O14 0.398353 0.310066 0.212061
O O15 0.654316 0.951142 0.723359
O O16 0.247725 0.763912 0.973763
O O17 0.000397 0.754120 0.710054
#
# Coordination Sequence:
#
# PCOD9073841 Si02
#       8
#     2   2   2   2   2   2   2   2
#     4  12  20  39  67  91 125 165 217 263 315 380
#     4  12  26  42  66  91 135 176 212 263 338 388
#     4  12  24  42  68  98 129 175 219 268 320 386
#     4  10  22  36  65  98 127 163 211 276 319 376
#     4  11  21  38  71  96 125 168 224 264 316 384
#     4  11  22  42  62  95 132 166 212 269 329 375
#     4  11  24  41  65 100 128 169 224 268 315 392
#     4  11  21  42  71  95 128 171 226 263 319 386
#
# _framework density 19.187169999999998
#
# number of rings (size 3 to 8) (size 9 to 14) (size 15 to 20)
#    0.000    0.750    5.000    3.750    3.500    0.500 
#    0.000    1.875    0.000    0.000    0.000    0.000 
#    0.000    0.000    0.000    0.000    0.000    0.000 
#
# Total GULP energy -89082.950653 kJ/mol
# GULP energy per Si atom -5567.684416 kJ/mol
# Density = 1.914350 g / cm^3
# Si number density = 19.187170 Si / 1000 Ang^3
#
#
#
# Elastic Constant Matrix: (Units=GPa)
#
#
# Indices 1 2 3 4 5 6 
#
# 1 73.7459 34.5149 37.8064 -0.8160 16.3235 -6.8656
# 2 34.5149 106.1519 39.4909 0.9258 10.3830 7.4220
# 3 37.8064 39.4909 118.3244 -20.4284 24.4409 -4.6177
# 4 -0.8160 0.9258 -20.4284 45.0463 -0.4537 14.8308
# 5 16.3235 10.3830 24.4409 -0.4537 33.2530 -4.7251
# 6 -6.8656 7.4220 -4.6177 14.8308 -4.7251 34.5511
#
#
#
# Elastic Compliance Matrix: (Units=1/GPa)
#
#
# Indices 1 2 3 4 5 6 
#
# 1 0.019185 -0.004640 -0.004018 -0.003067 -0.004348 0.004994
# 2 -0.004640 0.012244 -0.002810 -0.000368 -0.000021 -0.003773
# 3 -0.004018 -0.002810 0.013193 0.006637 -0.007076 -0.002248
# 4 -0.003067 -0.000368 0.006637 0.029356 -0.004688 -0.012885
# 5 -0.004348 -0.000021 -0.007076 -0.004688 0.038120 0.005420
# 6 0.004994 -0.003773 -0.002248 -0.012885 0.005420 0.036717
#
#
# Mechanical properties :
#
#
# Convention : Reuss Voigt Hill
#
# Bulk Modulus (GPa) = 46.11540 57.98294 52.04917
# Shear Modulus (GPa) = 27.93615 34.99742 31.46679
#
# Velocity S-wave (km/s) = 3.81987 4.27547 4.05407
# Velocity P-wave (km/s) = 6.59863 7.39311 7.00714
#
# Compressibility (1/GPa) = 0.02168473
#
# Stress axis : x y z
#
# Youngs Moduli (GPa) = 52.12403 81.67434 75.80037
#
# Poissons Ratio (x) = 0.37900 0.30454
# Poissons Ratio (y) = 0.24188 0.21302
# Poissons Ratio (z) = 0.20942 0.22952
#
# Static dielectric constant tensor:
#      x y z
#    x 1.742620 -0.006770 -0.013050 
#    y -0.006770 1.709020 -0.014270 
#    z -0.013050 -0.014270 1.657810 
# 
# From -- ./inp_files/509126.got.cif
#   From: 2010.05.17/outbox.ucp.g08.bks.cvg/sg2_255_cif.got.tgz:509126.got - 2010.06.11 11:32:03.
