data_PCOD9073998
_publ_section_title
;
Structure prediction by ZEFSAII (Michael W. Deem and Ramdas Pophale) SiO2 
 PCOD9073998
Probable space group: P -1
;
_chemical_formula_sum "Si O2"
_cell_formula_units_Z 16
_cell_length_a 16.058745
_cell_length_b 15.523718
_cell_length_c 16.586521
_cell_angle_alpha 129.061114
_cell_angle_beta 137.508884
_cell_angle_gamma 18.602172
_cell_volume 844.445499
_symmetry_space_group_name_H-M "P -1"
_symmetry_group_IT_number 2
_symmetry_cell_setting 'triclinic'
loop_
_space_group_symop_operation_xyz
x,y,z
-x,-y,-z
loop_
_atom_site_type_symbol
_atom_site_label
_atom_site_fract_x
_atom_site_fract_y
_atom_site_fract_z
Si Si1 0.359713 0.536560 0.849279
Si Si2 0.870379 0.327807 0.687577
Si Si3 0.224305 0.462555 0.929545
Si Si4 0.771430 0.130710 0.217780
Si Si5 0.328328 0.919148 0.119142
Si Si6 0.866532 0.120828 0.830722
Si Si7 0.143737 0.335014 0.923517
Si Si8 0.274771 0.705216 0.567142
O O1 0.430311 0.349849 0.810772
O O2 0.543896 0.398891 0.814828
O O3 0.500000 0.500000 0.000000
O O4 0.007143 0.878822 0.793718
O O5 0.585749 0.509701 0.642520
O O6 0.777637 0.371102 0.555447
O O7 0.938199 0.400005 0.787367
O O8 0.161654 0.022736 0.759848
O O9 0.446438 0.367128 0.080265
O O10 0.457846 0.221622 0.886401
O O11 0.136331 0.438580 0.913711
O O12 0.919729 0.777411 0.859873
O O13 0.756827 0.250644 0.334773
O O14 0.049971 0.912812 0.221605
O O15 0.095841 0.013091 0.980376
O O16 0.000000 0.500000 0.000000
O O17 0.500000 0.000000 0.000000
O O18 0.000000 0.000000 0.500000
#
# Coordination Sequence:
#
# PCOD9073998 Si02
#       8
#     2   2   2   2   2   2   2   2
#     4  10  18  32  45  70 103 144 177 211 264 322
#     4  10  21  37  56  74 109 150 183 228 273 321
#     4  11  21  32  50  77 104 146 180 216 258 313
#     4  10  20  31  52  76 110 137 185 219 271 322
#     4  10  19  32  47  67 105 142 179 210 257 321
#     4  10  19  27  49  74 102 139 178 218 260 322
#     4  12  24  37  54  80 112 143 187 228 265 315
#     4   9  20  37  55  76  99 149 184 228 280 318
#
# _framework density 18.947346
#
# number of rings (size 3 to 8) (size 9 to 14) (size 15 to 20)
#    0.000    1.750    1.250    6.000    8.750    0.000 
#    0.000    0.000    0.000    0.000    0.000    0.000 
#    0.000    6.000    0.000    0.000    0.000    0.000 
#
# Total GULP energy -89094.500829 kJ/mol
# GULP energy per Si atom -5568.406302 kJ/mol
# Density = 1.890422 g / cm^3
# Si number density = 18.947346 Si / 1000 Ang^3
#
#
#
# Elastic Constant Matrix: (Units=GPa)
#
#
# Indices 1 2 3 4 5 6 
#
# 1 83.0086 16.9168 27.5194 9.1925 -0.5739 7.6473
# 2 16.9168 102.7749 23.0537 2.8112 2.6411 -2.4445
# 3 27.5194 23.0537 75.0926 18.0930 7.5865 -8.7178
# 4 9.1925 2.8112 18.0930 20.9473 -1.1293 -9.9555
# 5 -0.5739 2.6411 7.5865 -1.1293 20.3159 5.6041
# 6 7.6473 -2.4445 -8.7178 -9.9555 5.6041 32.6297
#
#
#
# Elastic Compliance Matrix: (Units=1/GPa)
#
#
# Indices 1 2 3 4 5 6 
#
# 1 0.015393 -0.001513 -0.005183 -0.005406 0.004335 -0.007500
# 2 -0.001513 0.010653 -0.003132 0.002458 -0.000436 0.001141
# 3 -0.005183 -0.003132 0.020975 -0.014073 -0.009433 0.003911
# 4 -0.005406 0.002458 -0.014073 0.071042 0.003558 0.018756
# 5 0.004335 -0.000436 -0.009433 0.003558 0.056483 -0.012184
# 6 -0.007500 0.001141 0.003911 0.018756 -0.012184 0.041350
#
#
# Mechanical properties :
#
#
# Convention : Reuss Voigt Hill
#
# Bulk Modulus (GPa) = 36.54134 43.98398 40.26266
# Shear Modulus (GPa) = 20.43543 27.67099 24.05321
#
# Velocity S-wave (km/s) = 3.28767 3.82568 3.56684
# Velocity P-wave (km/s) = 5.80856 6.54054 6.18539
#
# Compressibility (1/GPa) = 0.02736627
#
# Stress axis : x y z
#
# Youngs Moduli (GPa) = 64.96428 93.87352 47.67512
#
# Poissons Ratio (x) = 0.14204 0.24709
# Poissons Ratio (y) = 0.09830 0.14930
# Poissons Ratio (z) = 0.33669 0.29398
#
# Static dielectric constant tensor:
#      x y z
#    x 1.733080 0.054950 -0.064700 
#    y 0.054950 1.798310 -0.024980 
#    z -0.064700 -0.024980 1.670250 
# 
# From -- ./inp_files/574039.got.cif
#   From: 2010.05.17/outbox.cif.g08.bks.cpg/sg2_288_cif.got.tgz:574039.got - 2010.06.03 11:33:40.
