data_PCOD9073762
_publ_section_title
;
Structure prediction by ZEFSAII (Michael W. Deem and Ramdas Pophale) SiO2 
 PCOD9073762
Probable space group: P -1
;
_chemical_formula_sum "Si O2"
_cell_formula_units_Z 16
_cell_length_a 15.000000
_cell_length_b 9.000000
_cell_length_c 12.000000
_cell_angle_alpha 110.000000
_cell_angle_beta 120.000000
_cell_angle_gamma 120.000000
_cell_volume 745.925389
_symmetry_space_group_name_H-M "P -1"
_symmetry_group_IT_number 2
_symmetry_cell_setting 'triclinic'
loop_
_space_group_symop_operation_xyz
x,y,z
-x,-y,-z
loop_
_atom_site_type_symbol
_atom_site_label
_atom_site_fract_x
_atom_site_fract_y
_atom_site_fract_z
Si Si1 0.087872 0.719820 0.768855
Si Si2 0.100529 0.365057 0.004085
Si Si3 0.271324 0.938520 0.568388
Si Si4 0.029992 0.990484 0.702976
Si Si5 0.781444 0.136675 0.877582
Si Si6 0.721432 0.684531 0.262061
Si Si7 0.506444 0.196549 0.561731
Si Si8 0.411245 0.042110 0.902945
O O1 0.922501 0.397234 0.625302
O O2 0.029156 0.822957 0.724686
O O3 0.207459 0.804083 0.763049
O O4 0.225096 0.900120 0.005097
O O5 0.017864 0.129795 0.808928
O O6 0.945463 0.234749 0.957132
O O7 0.167584 0.613444 0.050245
O O8 0.279117 0.505154 0.205253
O O9 0.267296 0.115746 0.650118
O O10 0.367649 0.060759 0.540551
O O11 0.398504 0.008151 0.753467
O O12 0.211298 0.241376 0.804835
O O13 0.866963 0.783762 0.458718
O O14 0.592859 0.863445 0.625617
O O15 0.532315 0.353284 0.077271
O O16 0.500000 0.000000 0.500000
O O17 0.500000 0.000000 0.000000
#
# Coordination Sequence:
#
# PCOD9073762 Si02
#       8
#     2   2   2   2   2   2   2   2
#     4  12  26  43  66 101 140 173 220 285 344 395
#     4  10  21  43  70  97 130 184 233 276 334 404
#     4  12  24  45  72  96 136 179 227 277 334 410
#     4  11  24  42  69  94 136 177 226 278 340 401
#     4  10  22  43  66 101 134 179 229 282 337 402
#     4  11  25  44  68  98 131 180 228 271 337 415
#     4  10  22  39  71 100 126 179 234 273 329 402
#     4  12  28  42  66 104 138 174 222 282 342 400
#
# _framework density 21.449867000000001
#
# number of rings (size 3 to 8) (size 9 to 14) (size 15 to 20)
#    0.000    1.000    1.250    6.000   10.500    0.500 
#    2.250    0.625    0.000    0.000    0.000    0.000 
#    0.000    0.000    0.000    0.000    0.000    0.000 
#
# Total GULP energy -89458.901142 kJ/mol
# GULP energy per Si atom -5591.181321 kJ/mol
# Density = 2.140105 g / cm^3
# Si number density = 21.449867 Si / 1000 Ang^3
#
#
#
# Elastic Constant Matrix: (Units=GPa)
#
#
# Indices 1 2 3 4 5 6 
#
# 1 79.3613 9.4282 1.1474 9.5507 -6.8159 -12.1469
# 2 9.4282 64.1130 34.2792 -13.7085 3.9196 -20.3676
# 3 1.1474 34.2792 106.5159 -9.1110 12.6292 -2.1312
# 4 9.5507 -13.7085 -9.1110 47.3068 1.3379 -0.2719
# 5 -6.8159 3.9196 12.6292 1.3379 34.3616 -1.8804
# 6 -12.1469 -20.3676 -2.1312 -0.2719 -1.8804 24.6372
#
#
#
# Elastic Compliance Matrix: (Units=1/GPa)
#
#
# Indices 1 2 3 4 5 6 
#
# 1 0.014424 -0.000580 -0.000540 -0.003247 0.003626 0.006826
# 2 -0.000580 0.028892 -0.008307 0.007004 0.000629 0.023006
# 3 -0.000540 -0.008307 0.012440 0.000177 -0.004087 -0.006367
# 4 -0.003247 0.007004 0.000177 0.023945 -0.002205 0.004300
# 5 0.003626 0.000629 -0.004087 -0.002205 0.031575 0.004339
# 6 0.006826 0.023006 -0.006367 0.004300 0.004339 0.062801
#
#
# Mechanical properties :
#
#
# Convention : Reuss Voigt Hill
#
# Bulk Modulus (GPa) = 27.09845 37.74442 32.42144
# Shear Modulus (GPa) = 24.36271 34.93680 29.64975
#
# Velocity S-wave (km/s) = 3.37382 4.04017 3.72194
# Velocity P-wave (km/s) = 5.27614 6.27685 5.79812
#
# Compressibility (1/GPa) = 0.03690249
#
# Stress axis : x y z
#
# Youngs Moduli (GPa) = 69.32727 34.61183 80.38763
#
# Poissons Ratio (x) = 0.02007 0.04339
# Poissons Ratio (y) = 0.04021 0.66778
# Poissons Ratio (z) = 0.03742 0.28752
#
# Static dielectric constant tensor:
#      x y z
#    x 2.308980 0.265700 0.154210 
#    y 0.265700 1.847080 0.031950 
#    z 0.154210 0.031950 1.882440 
# 
# From -- ./inp_files/447872.got.cif
#   From: 2010.05.17/outbox.ucp.g08.bks.cvg/sg2_224_cif.got.tgz:447872.got - 2010.06.11 11:32:03.
