data_PCOD9073412
_publ_section_title
;
Structure prediction by ZEFSAII (Michael W. Deem and Ramdas Pophale) SiO2 
 PCOD9073412
Probable space group: P -1
;
_chemical_formula_sum "Si O2"
_cell_formula_units_Z 16
_cell_length_a 27.000000
_cell_length_b 9.000000
_cell_length_c 27.000000
_cell_angle_alpha 140.000000
_cell_angle_beta 10.000000
_cell_angle_gamma 140.000000
_cell_volume 728.340053
_symmetry_space_group_name_H-M "P -1"
_symmetry_group_IT_number 2
_symmetry_cell_setting 'triclinic'
loop_
_space_group_symop_operation_xyz
x,y,z
-x,-y,-z
loop_
_atom_site_type_symbol
_atom_site_label
_atom_site_fract_x
_atom_site_fract_y
_atom_site_fract_z
Si Si1 0.083912 0.829314 0.831798
Si Si2 0.465591 0.120613 0.672554
Si Si3 0.396675 0.732444 0.020485
Si Si4 0.406814 0.378800 0.010255
Si Si5 0.188412 0.892176 0.505090
Si Si6 0.237956 0.385231 0.625437
Si Si7 0.769388 0.337438 0.152982
Si Si8 0.799487 0.457164 0.504367
O O1 0.340285 0.967952 0.584302
O O2 0.191758 0.604993 0.693801
O O3 0.804277 0.772448 0.058360
O O4 0.000000 0.000000 0.000000
O O5 0.691877 0.310224 0.524714
O O6 0.339029 0.904912 0.775731
O O7 0.454067 0.580938 0.973912
O O8 0.587367 0.651683 0.768206
O O9 0.089953 0.615322 0.273153
O O10 0.500000 0.000000 0.000000
O O11 0.607474 0.178074 0.756006
O O12 0.500000 0.500000 0.000000
O O13 0.108681 0.233208 0.254122
O O14 0.240108 0.748563 0.467862
O O15 0.270762 0.160830 0.503075
O O16 0.489425 0.439862 0.432524
O O17 0.951816 0.296647 0.914508
O O18 0.000000 0.500000 0.000000
#
# Coordination Sequence:
#
# PCOD9073412 Si02
#       8
#     2   2   2   2   2   2   2   2
#     4  12  28  48  69  98 148 188 217 288 369 414
#     4  12  25  47  73 102 136 182 237 281 348 417
#     4  10  21  39  63  96 132 170 214 273 337 398
#     4  10  21  39  63  95 130 172 217 265 337 400
#     4  10  21  40  69  92 131 174 219 282 332 389
#     4  12  25  47  69 102 142 179 233 284 353 409
#     4  12  26  44  75 105 131 175 241 293 327 413
#     4  10  21  40  69  94 130 173 222 281 335 388
#
# _framework density 21.967760999999999
#
# number of rings (size 3 to 8) (size 9 to 14) (size 15 to 20)
#    0.000    1.000    1.250    5.250    3.500    2.000 
#    6.750    0.000    0.000    0.000    0.000    0.000 
#    0.000    0.000    0.000    0.000    0.000    0.000 
#
# Total GULP energy -89126.915770 kJ/mol
# GULP energy per Si atom -5570.432236 kJ/mol
# Density = 2.191776 g / cm^3
# Si number density = 21.967761 Si / 1000 Ang^3
#
#
#
# Elastic Constant Matrix: (Units=GPa)
#
#
# Indices 1 2 3 4 5 6 
#
# 1 47.5708 0.8448 17.5226 -24.7556 -33.1060 -10.0375
# 2 0.8448 115.7314 4.3332 -21.5229 -16.5468 6.3852
# 3 17.5226 4.3332 33.8886 2.9406 6.8953 -6.8528
# 4 -24.7556 -21.5229 2.9406 9.7785 -7.8584 -8.5187
# 5 -33.1060 -16.5468 6.8953 -7.8584 32.9731 -1.5282
# 6 -10.0375 6.3852 -6.8528 -8.5187 -1.5282 22.1851
#
#
#
# Elastic Compliance Matrix: (Units=1/GPa)
#
#
# Indices 1 2 3 4 5 6 
#
# 1 0.000700 -0.005265 0.002649 -0.023354 -0.008379 -0.006895
# 2 -0.005265 0.007986 0.001356 -0.003151 -0.002575 -0.005649
# 3 0.002649 0.001356 0.029450 0.016726 0.001930 0.016460
# 4 -0.023354 -0.003151 0.016726 0.005331 -0.027458 -0.004337
# 5 -0.008379 -0.002575 0.001930 -0.027458 0.013115 -0.012094
# 6 -0.006895 -0.005649 0.016460 -0.004337 -0.012094 0.046168
#
#
# Mechanical properties :
#
#
# Convention : Reuss Voigt Hill
#
# Bulk Modulus (GPa) = 28.07798 26.95467 27.51632
# Shear Modulus (GPa) = 42.68367 24.62001 33.65184
#
# Velocity S-wave (km/s) = 4.41275 3.35137 3.91816
# Velocity P-wave (km/s) = 6.22674 5.22229 5.74650
#
# Compressibility (1/GPa) = 0.03561509
#
# Stress axis : x y z
#
# Youngs Moduli (GPa) = 1429.26509 125.22133 33.95600
#
# Poissons Ratio (x) = 0.65931 -0.08994
# Poissons Ratio (y) = 7.52528 -0.04606
# Poissons Ratio (z) = -3.78555 -0.16985
#
# Static dielectric constant tensor:
#      x y z
#    x 1.744050 -0.064110 0.073020 
#    y -0.064110 1.604500 0.067260 
#    z 0.073020 0.067260 1.839890 
# 
# From -- ./inp_files/621163.got.cif
#   From: 2010.05.17/outbox.ucp.g08.bks.cvg/sg2_311_cif.got.tgz:621163.got - 2010.06.11 11:32:03.
