data_PCOD9073541
_publ_section_title
;
Structure prediction by ZEFSAII (Michael W. Deem and Ramdas Pophale) SiO2 
 PCOD9073541
Probable space group: P -1
;
_chemical_formula_sum "Si O2"
_cell_formula_units_Z 16
_cell_length_a 15.000000
_cell_length_b 15.000000
_cell_length_c 15.000000
_cell_angle_alpha 40.000000
_cell_angle_beta 140.000000
_cell_angle_gamma 160.000000
_cell_volume 725.414092
_symmetry_space_group_name_H-M "P -1"
_symmetry_group_IT_number 2
_symmetry_cell_setting 'triclinic'
loop_
_space_group_symop_operation_xyz
x,y,z
-x,-y,-z
loop_
_atom_site_type_symbol
_atom_site_label
_atom_site_fract_x
_atom_site_fract_y
_atom_site_fract_z
Si Si1 0.095647 0.020655 0.272261
Si Si2 0.367934 0.498256 0.569562
Si Si3 0.627643 0.788499 0.306963
Si Si4 0.846375 0.159323 0.677643
Si Si5 0.944560 0.674054 0.694632
Si Si6 0.715944 0.279807 0.338283
Si Si7 0.237677 0.668843 0.870434
Si Si8 0.827681 0.079094 0.053072
O O1 0.351305 0.233704 0.371898
O O2 0.983312 0.079652 0.131993
O O3 0.158908 0.998744 0.245351
O O4 0.846731 0.725703 0.349267
O O5 0.389008 0.385499 0.604058
O O6 0.217910 0.479068 0.406153
O O7 0.315371 0.556659 0.263226
O O8 0.758634 0.981596 0.176653
O O9 0.852793 0.019320 0.377419
O O10 0.793801 0.217497 0.508917
O O11 0.118649 0.445772 0.710390
O O12 0.599144 0.968314 0.700849
O O13 0.159565 0.735018 0.818439
O O14 0.792123 0.319168 0.265219
O O15 0.027280 0.374826 0.965031
O O16 0.537220 0.868043 0.955024
#
# Coordination Sequence:
#
# PCOD9073541 Si02
#       8
#     2   2   2   2   2   2   2   2
#     4  11  22  41  66  90 121 166 205 241 304 369
#     4  11  22  39  64  94 126 152 198 263 313 358
#     4  11  23  41  61  89 123 161 206 254 305 355
#     4  10  21  40  67  94 121 152 196 246 309 371
#     4  12  24  38  64  92 120 160 206 257 310 363
#     4  10  22  40  63  94 126 152 189 255 309 355
#     4  12  25  42  61  88 126 165 206 248 300 356
#     4  11  25  43  60  84 125 169 208 250 290 353
#
# _framework density 22.056367999999999
#
# number of rings (size 3 to 8) (size 9 to 14) (size 15 to 20)
#    0.000    1.000    0.000    8.250    0.000    6.000 
#    0.000    3.750    0.000    0.000    0.000    0.000 
#    0.000    0.000    0.000    0.000    0.000    0.000 
#
# Total GULP energy -89396.580282 kJ/mol
# GULP energy per Si atom -5587.286268 kJ/mol
# Density = 2.200617 g / cm^3
# Si number density = 22.056368 Si / 1000 Ang^3
#
#
#
# Elastic Constant Matrix: (Units=GPa)
#
#
# Indices 1 2 3 4 5 6 
#
# 1 79.3789 10.6771 19.3738 2.9443 24.6868 -5.0305
# 2 10.6771 139.5215 9.3976 15.7360 9.7068 1.5060
# 3 19.3738 9.3976 34.6284 5.9205 14.2728 6.1590
# 4 2.9443 15.7360 5.9205 34.2592 11.6810 1.5152
# 5 24.6868 9.7068 14.2728 11.6810 33.1742 -7.9002
# 6 -5.0305 1.5060 6.1590 1.5152 -7.9002 16.1910
#
#
#
# Elastic Compliance Matrix: (Units=1/GPa)
#
#
# Indices 1 2 3 4 5 6 
#
# 1 0.017601 -0.000583 -0.006138 0.003467 -0.010991 0.002171
# 2 -0.000583 0.007665 -0.000992 -0.003157 -0.000365 -0.000399
# 3 -0.006138 -0.000992 0.047848 0.002383 -0.024198 -0.032046
# 4 0.003467 -0.003157 0.002383 0.036762 -0.018482 -0.011994
# 5 -0.010991 -0.000365 -0.024198 -0.018482 0.064661 0.039104
# 6 0.002171 -0.000399 -0.032046 -0.011994 0.039104 0.094868
#
#
# Mechanical properties :
#
#
# Convention : Reuss Voigt Hill
#
# Bulk Modulus (GPa) = 17.33523 36.93621 27.13572
# Shear Modulus (GPa) = 16.44409 30.99689 23.72049
#
# Velocity S-wave (km/s) = 2.73344 3.75286 3.28296
# Velocity P-wave (km/s) = 4.22360 5.96333 5.16721
#
# Compressibility (1/GPa) = 0.05768600
#
# Stress axis : x y z
#
# Youngs Moduli (GPa) = 56.81354 130.47015 20.89953
#
# Poissons Ratio (x) = 0.07612 0.12829
# Poissons Ratio (y) = 0.03315 0.02074
# Poissons Ratio (z) = 0.34873 0.12948
#
# Static dielectric constant tensor:
#      x y z
#    x 1.840180 -0.032560 -0.004000 
#    y -0.032560 1.764680 0.010150 
#    z -0.004000 0.010150 1.867150 
# 
# From -- ./inp_files/534273.got.cif
#   From: 2010.05.17/outbox.ucp.g08.bks.cvg/sg2_268_cif.got.tgz:534273.got - 2010.06.11 11:32:03.
