data_PCOD9073741
_publ_section_title
;
Structure prediction by ZEFSAII (Michael W. Deem and Ramdas Pophale) SiO2 
 PCOD9073741
Probable space group: P -1
;
_chemical_formula_sum "Si O2"
_cell_formula_units_Z 16
_cell_length_a 6.000000
_cell_length_b 18.000000
_cell_length_c 9.000000
_cell_angle_alpha 90.000000
_cell_angle_beta 80.000000
_cell_angle_gamma 50.000000
_cell_volume 725.212580
_symmetry_space_group_name_H-M "P -1"
_symmetry_group_IT_number 2
_symmetry_cell_setting 'triclinic'
loop_
_space_group_symop_operation_xyz
x,y,z
-x,-y,-z
loop_
_atom_site_type_symbol
_atom_site_label
_atom_site_fract_x
_atom_site_fract_y
_atom_site_fract_z
Si Si1 0.925529 0.424696 0.662734
Si Si2 0.896363 0.603845 0.685199
Si Si3 0.683173 0.425090 0.117183
Si Si4 0.933881 0.848022 0.408164
Si Si5 0.073096 0.258854 0.864861
Si Si6 0.316350 0.943655 0.651643
Si Si7 0.773043 0.209599 0.329232
Si Si8 0.378839 0.104644 0.072805
O O1 0.010821 0.493429 0.673880
O O2 0.570646 0.509712 0.729610
O O3 0.987708 0.387895 0.485787
O O4 0.075249 0.335757 0.765993
O O5 0.537942 0.694488 0.705703
O O6 0.024244 0.609752 0.824679
O O7 0.500000 0.500000 0.000000
O O8 0.805921 0.327687 0.013924
O O9 0.981149 0.791867 0.252616
O O10 0.614255 0.894749 0.519076
O O11 0.170178 0.774142 0.508568
O O12 0.905472 0.941475 0.366763
O O13 0.341734 0.171267 0.940576
O O14 0.216382 0.880994 0.641045
O O15 0.401884 0.924548 0.816074
O O16 0.056330 0.166154 0.191854
O O17 0.500000 0.000000 0.000000
#
# Coordination Sequence:
#
# PCOD9073741 Si02
#       8
#     2   2   2   2   2   2   2   2
#     4  10  24  43  70  95 134 176 222 275 336 398
#     4  11  23  44  69 103 130 172 229 274 328 407
#     4  10  23  42  68  96 136 175 214 270 339 397
#     4  10  22  41  65  95 135 171 230 278 327 397
#     4  11  22  41  65  98 131 177 217 273 336 390
#     4  10  21  43  67  92 131 181 225 278 330 391
#     4  11  24  41  68  99 132 179 227 279 333 393
#     4  11  23  43  67  94 137 179 222 274 336 401
#
# _framework density 22.062495999999999
#
# number of rings (size 3 to 8) (size 9 to 14) (size 15 to 20)
#    0.000    1.500    1.250    3.000    0.000    9.500 
#    2.250    7.500    0.000    0.000    0.000    0.000 
#    0.000    0.000    0.000    0.000    0.000    0.000 
#
# Total GULP energy -89184.451355 kJ/mol
# GULP energy per Si atom -5574.028210 kJ/mol
# Density = 2.201228 g / cm^3
# Si number density = 22.062496 Si / 1000 Ang^3
#
#
#
# Elastic Constant Matrix: (Units=GPa)
#
#
# Indices 1 2 3 4 5 6 
#
# 1 33.0020 11.3461 40.7320 -17.2679 20.7469 -1.5068
# 2 11.3461 135.5029 59.0867 -30.5260 13.3506 5.7992
# 3 40.7320 59.0867 126.2615 -15.2467 33.3916 -9.6690
# 4 -17.2679 -30.5260 -15.2467 53.9363 6.4388 -0.8071
# 5 20.7469 13.3506 33.3916 6.4388 36.5586 -9.3926
# 6 -1.5068 5.7992 -9.6690 -0.8071 -9.3926 40.8986
#
#
#
# Elastic Compliance Matrix: (Units=1/GPa)
#
#
# Indices 1 2 3 4 5 6 
#
# 1 0.127511 0.020991 -0.027866 0.052759 -0.068917 -0.019653
# 2 0.020991 0.014038 -0.008700 0.013673 -0.013042 -0.005999
# 3 -0.027866 -0.008700 0.019144 -0.008888 0.004508 0.005593
# 4 0.052759 0.013673 -0.008888 0.044957 -0.037241 -0.009762
# 5 -0.068917 -0.013042 0.004508 -0.037241 0.078189 0.017598
# 6 -0.019653 -0.005999 0.005593 -0.009762 0.017598 0.029748
#
#
# Mechanical properties :
#
#
# Convention : Reuss Voigt Hill
#
# Bulk Modulus (GPa) = 7.71953 57.45511 32.58732
# Shear Modulus (GPa) = 12.88931 38.51880 25.70405
#
# Velocity S-wave (km/s) = 2.41968 4.18292 3.41700
# Velocity P-wave (km/s) = 3.36348 7.03048 5.51093
#
# Compressibility (1/GPa) = 0.12954149
#
# Stress axis : x y z
#
# Youngs Moduli (GPa) = 7.84249 71.23468 52.23563
#
# Poissons Ratio (x) = -1.49529 1.45561
# Poissons Ratio (y) = -0.16462 0.45447
# Poissons Ratio (z) = 0.21854 0.61977
#
# Static dielectric constant tensor:
#      x y z
#    x 1.926750 0.025400 0.015520 
#    y 0.025400 1.800980 -0.010070 
#    z 0.015520 -0.010070 1.848190 
# 
# From -- ./inp_files/139037.got.cif
#   From: 2010.05.17/outbox.ucp.g08.bks.cvg/sg2_70_cif.got.tgz:139037.got - 2010.06.11 11:32:03.
