data_PCOD9073502
_publ_section_title
;
Structure prediction by ZEFSAII (Michael W. Deem and Ramdas Pophale) SiO2 
 PCOD9073502
Probable space group: P -1
;
_chemical_formula_sum "Si O2"
_cell_formula_units_Z 14
_cell_length_a 24.000000
_cell_length_b 12.000000
_cell_length_c 15.000000
_cell_angle_alpha 30.000000
_cell_angle_beta 160.000000
_cell_angle_gamma 150.000000
_cell_volume 703.466731
_symmetry_space_group_name_H-M "P -1"
_symmetry_group_IT_number 2
_symmetry_cell_setting 'triclinic'
loop_
_space_group_symop_operation_xyz
x,y,z
-x,-y,-z
loop_
_atom_site_type_symbol
_atom_site_label
_atom_site_fract_x
_atom_site_fract_y
_atom_site_fract_z
Si Si1 0.899151 0.958849 0.614408
Si Si2 0.150222 0.681116 0.226767
Si Si3 0.405016 0.059684 0.455688
Si Si4 0.425607 0.614096 0.892431
Si Si5 0.343224 0.457020 0.551398
Si Si6 0.940519 0.818733 0.116406
Si Si7 0.969391 0.561736 0.596961
O O1 0.938220 0.086935 0.680982
O O2 0.926879 0.165695 0.440880
O O3 0.725272 0.750388 0.479078
O O4 0.043489 0.828200 0.917117
O O5 0.187443 0.485369 0.357589
O O6 0.053184 0.564319 0.252780
O O7 0.330734 0.870248 0.396153
O O8 0.568858 0.283417 0.535000
O O9 0.431624 0.881134 0.694516
O O10 0.249426 0.169769 0.157895
O O11 0.226418 0.469166 0.703704
O O12 0.500000 0.500000 0.000000
O O13 0.527290 0.598093 0.145245
O O14 0.953510 0.577977 0.262222
O O15 0.000000 0.000000 0.000000
#
# Coordination Sequence:
#
# PCOD9073502 Si02
#       7
#     2   2   2   2   2   2   2
#     4  11  25  38  63  96 124 166 200 263 308 361
#     4  10  21  40  64  91 124 170 204 249 299 378
#     4  10  22  39  68  90 120 171 204 254 296 369
#     4  11  21  38  63  94 121 163 204 249 303 368
#     4  12  24  39  58 100 135 154 201 253 328 360
#     4  11  20  47  69  84 117 167 226 245 293 372
#     4  11  22  42  70  89 119 166 219 247 297 371
#
# _framework density 19.901439
#
# number of rings (size 3 to 8) (size 9 to 14) (size 15 to 20)
#    0.000    1.143    7.143    3.000    2.000    1.714 
#    0.000    3.571    0.000    0.000    0.000    0.000 
#    0.000    0.000    0.000    0.000    0.000    0.000 
#
# Total GULP energy -78119.627809 kJ/mol
# GULP energy per Si atom -5579.973415 kJ/mol
# Density = 1.985614 g / cm^3
# Si number density = 19.901439 Si / 1000 Ang^3
#
#
#
# Elastic Constant Matrix: (Units=GPa)
#
#
# Indices 1 2 3 4 5 6 
#
# 1 57.5806 26.4158 1.7958 -7.0583 9.4605 -5.8363
# 2 26.4158 122.1055 15.5656 -12.9957 -15.3958 10.8779
# 3 1.7958 15.5656 49.5724 -15.5615 3.2239 -6.3651
# 4 -7.0583 -12.9957 -15.5615 16.7287 0.4986 1.3161
# 5 9.4605 -15.3958 3.2239 0.4986 23.2086 -9.5453
# 6 -5.8363 10.8779 -6.3651 1.3161 -9.5453 21.9786
#
#
#
# Elastic Compliance Matrix: (Units=1/GPa)
#
#
# Indices 1 2 3 4 5 6 
#
# 1 0.024551 -0.007180 0.006264 0.010598 -0.013685 0.005309
# 2 -0.007180 0.012198 -0.003928 0.002921 0.009368 -0.005188
# 3 0.006264 -0.003928 0.031637 0.028588 -0.006842 0.008086
# 4 0.010598 0.002921 0.028588 0.093313 -0.008143 0.000523
# 5 -0.013685 0.009368 -0.006842 -0.008143 0.063296 0.017725
# 6 0.005309 -0.005188 0.008086 0.000523 0.017725 0.059485
#
#
# Mechanical properties :
#
#
# Convention : Reuss Voigt Hill
#
# Bulk Modulus (GPa) = 17.03704 35.20143 26.11924
# Shear Modulus (GPa) = 15.93702 24.74859 20.34281
#
# Velocity S-wave (km/s) = 2.83291 3.53024 3.20062
# Velocity P-wave (km/s) = 4.39087 5.86029 5.17797
#
# Compressibility (1/GPa) = 0.05869563
#
# Stress axis : x y z
#
# Youngs Moduli (GPa) = 40.73086 81.98039 31.60903
#
# Poissons Ratio (x) = 0.58865 -0.19799
# Poissons Ratio (y) = 0.29246 0.12418
# Poissons Ratio (z) = -0.25513 0.32206
#
# Static dielectric constant tensor:
#      x y z
#    x 1.755320 0.011230 0.024500 
#    y 0.011230 1.688990 0.009060 
#    z 0.024500 0.009060 1.737440 
# 
# From -- ./inp_files/255660.got.cif
#   From: 2010.05.17/outbox.ucp.g08.bks.cvg/sg2_128_cif.got.tgz:255660.got - 2010.06.11 11:32:03.
