data_PCOD9073288
_publ_section_title
;
Structure prediction by ZEFSAII (Michael W. Deem and Ramdas Pophale) SiO2 
 PCOD9073288
Probable space group: P -1
;
_chemical_formula_sum "Si O2"
_cell_formula_units_Z 14
_cell_length_a 9.000000
_cell_length_b 15.000000
_cell_length_c 12.000000
_cell_angle_alpha 150.000000
_cell_angle_beta 50.000000
_cell_angle_gamma 120.000000
_cell_volume 613.666794
_symmetry_space_group_name_H-M "P -1"
_symmetry_group_IT_number 2
_symmetry_cell_setting 'triclinic'
loop_
_space_group_symop_operation_xyz
x,y,z
-x,-y,-z
loop_
_atom_site_type_symbol
_atom_site_label
_atom_site_fract_x
_atom_site_fract_y
_atom_site_fract_z
Si Si1 0.734915 0.505806 0.917862
Si Si2 0.716529 0.465570 0.544962
Si Si3 0.679131 0.674632 0.368990
Si Si4 0.685489 0.032329 0.863460
Si Si5 0.845906 0.412866 0.194503
Si Si6 0.870280 0.788255 0.892390
Si Si7 0.039558 0.879959 0.680376
O O1 0.830835 0.305214 0.617644
O O2 0.922019 0.614998 0.910030
O O3 0.500000 0.500000 0.000000
O O4 0.725408 0.579636 0.127117
O O5 0.538561 0.360948 0.536415
O O6 0.728707 0.516051 0.465241
O O7 0.719585 0.643944 0.810203
O O8 0.914430 0.326943 0.318738
O O9 0.677731 0.889765 0.611747
O O10 0.818608 0.554110 0.259563
O O11 0.888805 0.953173 0.738012
O O12 0.500000 0.000000 0.000000
O O13 0.733024 0.237197 0.037615
O O14 0.897541 0.856469 0.827828
O O15 0.834956 0.963983 0.175640
#
# Coordination Sequence:
#
# PCOD9073288 Si02
#       7
#     2   2   2   2   2   2   2
#     4  12  28  50  71 100 146 195 238 293 359 427
#     4  11  21  41  72 105 135 183 239 292 358 419
#     4  12  26  46  73 103 147 187 233 294 365 421
#     4  12  25  43  74 111 139 181 244 292 354 430
#     4  12  25  46  74 102 145 188 234 295 353 421
#     4  10  21  37  70 102 138 178 235 291 358 399
#     4  11  22  42  67  99 147 181 233 299 346 419
#
# _framework density 22.813683000000001
#
# number of rings (size 3 to 8) (size 9 to 14) (size 15 to 20)
#    0.000    0.571    5.714    1.714    4.000    1.714 
#    0.000    1.429    0.000    0.000    0.000    0.000 
#    0.000    0.000    0.000    0.000    0.000    0.000 
#
# Total GULP energy -78044.749157 kJ/mol
# GULP energy per Si atom -5574.624940 kJ/mol
# Density = 2.276176 g / cm^3
# Si number density = 22.813683 Si / 1000 Ang^3
#
#
#
# Elastic Constant Matrix: (Units=GPa)
#
#
# Indices 1 2 3 4 5 6 
#
# 1 82.4026 26.4964 39.8756 10.0621 26.6261 33.5678
# 2 26.4964 66.4598 33.2548 12.2459 15.1232 33.7537
# 3 39.8756 33.2548 133.7265 23.3445 44.4310 18.3499
# 4 10.0621 12.2459 23.3445 44.3104 11.5298 11.4476
# 5 26.6261 15.1232 44.4310 11.5298 48.0444 3.3395
# 6 33.5678 33.7537 18.3499 11.4476 3.3395 38.0325
#
#
#
# Elastic Compliance Matrix: (Units=1/GPa)
#
#
# Indices 1 2 3 4 5 6 
#
# 1 0.026791 0.007862 -0.001712 0.004150 -0.014667 -0.029759
# 2 0.007862 0.032661 -0.002724 0.002169 -0.010251 -0.034365
# 3 -0.001712 -0.002724 0.012085 -0.002904 -0.008654 -0.000269
# 4 0.004150 0.002169 -0.002904 0.027175 -0.005995 -0.011839
# 5 -0.014667 -0.010251 -0.008654 -0.005995 0.039907 0.024519
# 6 -0.029759 -0.034365 -0.000269 -0.011839 0.024519 0.084598
#
#
# Mechanical properties :
#
#
# Convention : Reuss Voigt Hill
#
# Bulk Modulus (GPa) = 12.75659 53.53805 33.14732
# Shear Modulus (GPa) = 20.61912 38.27496 29.44704
#
# Velocity S-wave (km/s) = 3.00960 4.10044 3.59662
# Velocity P-wave (km/s) = 4.20484 6.77766 5.63992
#
# Compressibility (1/GPa) = 0.07839088
#
# Stress axis : x y z
#
# Youngs Moduli (GPa) = 37.32615 30.61731 82.74742
#
# Poissons Ratio (x) = -0.24072 0.14165
# Poissons Ratio (y) = -0.29347 0.22537
# Poissons Ratio (z) = 0.06390 0.08339
#
# Static dielectric constant tensor:
#      x y z
#    x 1.974010 -0.080590 0.037550 
#    y -0.080590 2.004900 -0.021160 
#    z 0.037550 -0.021160 1.829160 
# 
# From -- ./inp_files/382804.got.cif
#   From: 2010.05.17/outbox.ucp.g08.bks.cvg/sg2_192_cif.got.tgz:382804.got - 2010.06.11 11:32:03.
