data_PCOD9073301
_publ_section_title
;
Structure prediction by ZEFSAII (Michael W. Deem and Ramdas Pophale) SiO2 
 PCOD9073301
Probable space group: P -1
;
_chemical_formula_sum "Si O2"
_cell_formula_units_Z 14
_cell_length_a 15.000000
_cell_length_b 27.000000
_cell_length_c 27.000000
_cell_angle_alpha 10.000000
_cell_angle_beta 20.000000
_cell_angle_gamma 20.000000
_cell_volume 630.401208
_symmetry_space_group_name_H-M "P -1"
_symmetry_group_IT_number 2
_symmetry_cell_setting 'triclinic'
loop_
_space_group_symop_operation_xyz
x,y,z
-x,-y,-z
loop_
_atom_site_type_symbol
_atom_site_label
_atom_site_fract_x
_atom_site_fract_y
_atom_site_fract_z
Si Si1 0.350264 0.356859 0.178425
Si Si2 0.699813 0.321924 0.796521
Si Si3 0.384961 0.832066 0.617234
Si Si4 0.476130 0.528129 0.369914
Si Si5 0.217124 0.703504 0.429067
Si Si6 0.297884 0.107767 0.705210
Si Si7 0.209694 0.049986 0.183319
O O1 0.050098 0.385864 0.326435
O O2 0.468483 0.019758 0.433628
O O3 0.500000 0.500000 0.000000
O O4 0.373359 0.524068 0.950417
O O5 0.578556 0.394943 0.734056
O O6 0.724692 0.624419 0.509313
O O7 0.995068 0.104204 0.851181
O O8 0.562142 0.171907 0.059348
O O9 0.558919 0.831588 0.478839
O O10 0.076443 0.978901 0.620231
O O11 0.245055 0.699344 0.359462
O O12 0.551681 0.186142 0.681788
O O13 0.737222 0.638379 0.140442
O O14 0.500000 0.500000 0.500000
O O15 0.208288 0.992494 0.181787
#
# Coordination Sequence:
#
# PCOD9073301 Si02
#       7
#     2   2   2   2   2   2   2
#     4  11  24  39  59  95 125 153 210 250 288 373
#     4  10  22  40  61  89 116 149 212 255 289 358
#     4  11  22  42  63  82 125 165 191 239 324 353
#     4  11  21  37  62  89 119 155 205 251 290 344
#     4   9  20  38  59  86 123 165 192 239 302 361
#     4  10  22  42  62  83 118 162 195 250 315 349
#     4  10  21  38  59  89 121 160 197 239 297 374
#
# _framework density 22.208079000000001
#
# number of rings (size 3 to 8) (size 9 to 14) (size 15 to 20)
#    0.000    1.714    0.000    5.143    2.000    3.429 
#    5.143    4.286    0.000    0.000    0.000    0.000 
#    0.000    0.000    0.000    0.000    0.000    0.000 
#
# Total GULP energy -78081.909978 kJ/mol
# GULP energy per Si atom -5577.279284 kJ/mol
# Density = 2.215753 g / cm^3
# Si number density = 22.208079 Si / 1000 Ang^3
#
#
#
# Elastic Constant Matrix: (Units=GPa)
#
#
# Indices 1 2 3 4 5 6 
#
# 1 91.9378 18.9027 27.8162 16.8606 3.7455 6.2942
# 2 18.9027 47.7197 14.8354 24.3916 -6.2335 7.2543
# 3 27.8162 14.8354 102.5434 7.9772 6.7742 -0.6560
# 4 16.8606 24.3916 7.9772 34.6289 3.3360 10.9613
# 5 3.7455 -6.2335 6.7742 3.3360 32.1461 -2.6228
# 6 6.2942 7.2543 -0.6560 10.9613 -2.6228 15.3928
#
#
#
# Elastic Compliance Matrix: (Units=1/GPa)
#
#
# Indices 1 2 3 4 5 6 
#
# 1 0.013032 -0.002529 -0.002862 -0.003053 -0.001277 -0.002303
# 2 -0.002529 0.037636 -0.003391 -0.026964 0.011457 0.004306
# 3 -0.002862 -0.003391 0.011145 0.000740 -0.002563 0.002280
# 4 -0.003053 -0.026964 0.000740 0.060474 -0.013870 -0.031440
# 5 -0.001277 0.011457 -0.002563 -0.013870 0.036362 0.011086
# 6 -0.002303 0.004306 0.002280 -0.031440 0.011086 0.088253
#
#
# Mechanical properties :
#
#
# Convention : Reuss Voigt Hill
#
# Bulk Modulus (GPa) = 22.59874 40.58998 31.59436
# Shear Modulus (GPa) = 17.90722 28.47667 23.19194
#
# Velocity S-wave (km/s) = 2.84269 3.58476 3.23507
# Velocity P-wave (km/s) = 4.57958 5.95406 5.31146
#
# Compressibility (1/GPa) = 0.04425025
#
# Stress axis : x y z
#
# Youngs Moduli (GPa) = 76.73204 26.57029 89.72387
#
# Poissons Ratio (x) = 0.06719 0.25681
# Poissons Ratio (y) = 0.19404 0.30423
# Poissons Ratio (z) = 0.21963 0.09009
#
# Static dielectric constant tensor:
#      x y z
#    x 1.829950 -0.025070 0.027040 
#    y -0.025070 1.850470 -0.030130 
#    z 0.027040 -0.030130 1.868320 
# 
# From -- ./inp_files/51508.got.cif
#   From: 2010.05.17/outbox.ucp.g08.bks.cvg/sg2_26_cif.got.tgz:51508.got - 2010.06.11 11:32:03.
