data_PCOD9073925
_publ_section_title
;
Structure prediction by ZEFSAII (Michael W. Deem and Ramdas Pophale) SiO2 
 PCOD9073925
Probable space group: P -1
;
_chemical_formula_sum "Si O2"
_cell_formula_units_Z 13
_cell_length_a 18.000000
_cell_length_b 6.000000
_cell_length_c 6.000000
_cell_angle_alpha 100.000000
_cell_angle_beta 100.000000
_cell_angle_gamma 120.000000
_cell_volume 526.253775
_symmetry_space_group_name_H-M "P -1"
_symmetry_group_IT_number 2
_symmetry_cell_setting 'triclinic'
loop_
_space_group_symop_operation_xyz
x,y,z
-x,-y,-z
loop_
_atom_site_type_symbol
_atom_site_label
_atom_site_fract_x
_atom_site_fract_y
_atom_site_fract_z
Si Si1 0.915911 0.513518 0.027194
Si Si2 0.000000 0.000000 0.500000
Si Si3 0.785019 0.352701 0.581616
Si Si4 0.152410 0.933868 0.762813
Si Si5 0.455151 0.591750 0.171391
Si Si6 0.690219 0.532483 0.219461
Si Si7 0.626348 0.832582 0.566928
O O1 0.849322 0.216086 0.041743
O O2 0.947146 0.725817 0.276168
O O3 0.869020 0.573991 0.811427
O O4 0.000000 0.500000 0.000000
O O5 0.941002 0.103649 0.357155
O O6 0.823391 0.198236 0.446946
O O7 0.739460 0.437442 0.389685
O O8 0.704082 0.143659 0.661441
O O9 0.231661 0.246159 0.860498
O O10 0.535410 0.796067 0.413074
O O11 0.392959 0.326387 0.242269
O O12 0.500000 0.500000 0.000000
O O13 0.395209 0.670966 0.014560
O O14 0.656058 0.681813 0.385073
#
# Coordination Sequence:
#
# PCOD9073925 Si02
#       7
#     2   1   2   2   2   2   2
#     4  12  27  46  70 101 140 184 235 301 358 424
#     4  12  26  46  74  98 134 184 240 294 362 420
#     4  11  24  44  67 101 139 183 239 293 354 422
#     4  11  25  45  67 100 137 179 238 293 352 429
#     4   9  18  39  65  98 137 183 228 284 350 415
#     4  10  22  39  67  98 137 184 231 288 354 415
#     4   9  20  39  66  97 140 181 231 286 349 422
#
# _framework density 24.702911
#
# number of rings (size 3 to 8) (size 9 to 14) (size 15 to 20)
#    0.000    1.538    1.538    2.308    2.154    6.154 
#    0.000    6.923    0.000    0.000    0.000    0.000 
#    0.000    0.000    0.000    0.000    0.000    0.000 
#
# Total GULP energy -72460.234015 kJ/mol
# GULP energy per Si atom -5573.864155 kJ/mol
# Density = 2.464669 g / cm^3
# Si number density = 24.702911 Si / 1000 Ang^3
#
#
#
# Elastic Constant Matrix: (Units=GPa)
#
#
# Indices 1 2 3 4 5 6 
#
# 1 99.0145 53.1284 61.5879 -12.9920 39.4074 -10.7210
# 2 53.1284 69.7559 29.8484 -8.0896 12.2071 9.6322
# 3 61.5879 29.8484 88.2025 -22.6568 63.8534 3.1473
# 4 -12.9920 -8.0896 -22.6568 20.1918 1.9410 -0.6449
# 5 39.4074 12.2071 63.8534 1.9410 68.8296 -14.7945
# 6 -10.7210 9.6322 3.1473 -0.6449 -14.7945 37.7079
#
#
#
# Elastic Compliance Matrix: (Units=1/GPa)
#
#
# Indices 1 2 3 4 5 6 
#
# 1 0.022543 -0.016262 0.018885 0.031894 -0.028823 -0.001776
# 2 -0.016262 0.028273 -0.009002 -0.010559 0.011491 -0.006766
# 3 0.018885 -0.009002 -0.097612 -0.108518 0.095450 0.051410
# 4 0.031894 -0.010559 -0.108518 -0.063565 0.098637 0.058436
# 5 -0.028823 0.011491 0.095450 0.098637 -0.072166 -0.045724
# 6 -0.001776 -0.006766 0.051410 0.058436 -0.045724 0.006512
#
#
# Mechanical properties :
#
#
# Convention : Reuss Voigt Hill
#
# Bulk Modulus (GPa) = -16.79089 60.67803 21.94357
# Shear Modulus (GPa) = -27.30644 32.83973 2.76665
#
# Velocity S-wave (km/s) = -3.32835 3.65003 1.05943
# Velocity P-wave (km/s) = 4.64569 6.51000 3.22472
#
# Compressibility (1/GPa) = -0.05955610
#
# Stress axis : x y z
#
# Youngs Moduli (GPa) = 44.35934 35.36988 -10.24464
#
# Poissons Ratio (x) = 0.57520 0.19347
# Poissons Ratio (y) = 0.72139 -0.09222
# Poissons Ratio (z) = -0.83771 0.31841
#
# Static dielectric constant tensor:
#      x y z
#    x 1.997110 0.056010 -0.003270 
#    y 0.056010 1.966980 -0.029410 
#    z -0.003270 -0.029410 1.956340 
# 
# From -- ./inp_files/4686.got.cif
#   From: 2010.05.17/outbox.ucp.g08.bks.cvg/sg2_3_cif.got.tgz:4686.got - 2010.06.11 11:32:03.
