data_PCOD9073752
_publ_section_title
;
Structure prediction by ZEFSAII (Michael W. Deem and Ramdas Pophale) SiO2 
 PCOD9073752
Probable space group: P -1
;
_chemical_formula_sum "Si O2"
_cell_formula_units_Z 16
_cell_length_a 9.000000
_cell_length_b 12.000000
_cell_length_c 12.000000
_cell_angle_alpha 90.000000
_cell_angle_beta 50.000000
_cell_angle_gamma 60.000000
_cell_volume 752.153660
_symmetry_space_group_name_H-M "P -1"
_symmetry_group_IT_number 2
_symmetry_cell_setting 'triclinic'
loop_
_space_group_symop_operation_xyz
x,y,z
-x,-y,-z
loop_
_atom_site_type_symbol
_atom_site_label
_atom_site_fract_x
_atom_site_fract_y
_atom_site_fract_z
Si Si1 0.876528 0.133192 0.647769
Si Si2 0.635712 0.392194 0.332057
Si Si3 0.934578 0.685112 0.128059
Si Si4 0.296795 0.349238 0.355362
Si Si5 0.642011 0.586635 0.172912
Si Si6 0.165408 0.149547 0.042346
Si Si7 0.713692 0.847866 0.462671
Si Si8 0.484726 0.826149 0.978458
O O1 0.657683 0.287303 0.692242
O O2 0.100513 0.130142 0.575693
O O3 0.724370 0.144194 0.831636
O O4 0.000000 0.000000 0.500000
O O5 0.500000 0.500000 0.500000
O O6 0.456657 0.386584 0.339284
O O7 0.730013 0.465357 0.221387
O O8 0.892701 0.227896 0.232467
O O9 0.757115 0.659879 0.154435
O O10 0.848247 0.736737 0.294369
O O11 0.893120 0.804098 0.061108
O O12 0.215562 0.522911 0.999784
O O13 0.340436 0.222761 0.413458
O O14 0.395387 0.292725 0.180130
O O15 0.000000 0.500000 0.500000
O O16 0.298217 0.201846 0.045444
O O17 0.349300 0.977086 0.975870
O O18 0.500000 0.000000 0.500000
#
# Coordination Sequence:
#
# PCOD9073752 Si02
#       8
#     2   2   2   2   2   2   2   2
#     4  12  28  44  70 101 138 186 234 282 347 415
#     4  11  24  41  71  99 138 181 232 284 343 415
#     4  10  21  43  69 100 136 177 223 288 343 411
#     4  12  28  47  71 106 144 184 233 286 353 410
#     4  10  22  41  68  96 133 176 233 271 345 410
#     4  10  23  43  71  99 136 183 232 280 352 409
#     4  12  28  45  72 101 146 178 236 290 347 409
#     4  11  26  44  73  99 143 181 230 288 346 416
#
# _framework density 21.272248999999999
#
# number of rings (size 3 to 8) (size 9 to 14) (size 15 to 20)
#    0.000    1.000    1.250    3.750   12.250    1.000 
#    0.000    0.000    0.000    0.000    0.000    0.000 
#    0.000    0.000    0.000    0.000    0.000    0.000 
#
# Total GULP energy -89236.547090 kJ/mol
# GULP energy per Si atom -5577.284193 kJ/mol
# Density = 2.122383 g / cm^3
# Si number density = 21.272249 Si / 1000 Ang^3
#
#
#
# Elastic Constant Matrix: (Units=GPa)
#
#
# Indices 1 2 3 4 5 6 
#
# 1 54.9556 13.2661 29.4102 19.7757 1.4490 -4.2846
# 2 13.2661 59.8545 18.8884 10.3200 3.4753 -8.2625
# 3 29.4102 18.8884 119.9333 14.9479 31.0927 7.7859
# 4 19.7757 10.3200 14.9479 42.7142 -6.8863 -6.1140
# 5 1.4490 3.4753 31.0927 -6.8863 46.7594 6.9633
# 6 -4.2846 -8.2625 7.7859 -6.1140 6.9633 28.2072
#
#
#
# Elastic Compliance Matrix: (Units=1/GPa)
#
#
# Indices 1 2 3 4 5 6 
#
# 1 0.024691 -0.002116 -0.005106 -0.008604 0.001165 0.002388
# 2 -0.002116 0.019132 -0.002345 -0.002162 -0.000964 0.005699
# 3 -0.005106 -0.002345 0.012706 -0.003345 -0.008057 -0.003706
# 4 -0.008604 -0.002162 -0.003345 0.030723 0.006578 0.004019
# 5 0.001165 -0.000964 -0.008057 0.006578 0.028259 -0.003432
# 6 0.002388 0.005699 -0.003706 0.004019 -0.003432 0.040225
#
#
# Mechanical properties :
#
#
# Convention : Reuss Voigt Hill
#
# Bulk Modulus (GPa) = 26.74150 39.76362 33.25256
# Shear Modulus (GPa) = 26.69014 35.08140 30.88577
#
# Velocity S-wave (km/s) = 3.54601 4.06539 3.81455
# Velocity P-wave (km/s) = 5.41885 6.38513 5.92173
#
# Compressibility (1/GPa) = 0.03739505
#
# Stress axis : x y z
#
# Youngs Moduli (GPa) = 40.49978 52.26965 78.70501
#
# Poissons Ratio (x) = 0.11059 0.40189
# Poissons Ratio (y) = 0.08569 0.18455
# Poissons Ratio (z) = 0.20681 0.12256
#
# Static dielectric constant tensor:
#      x y z
#    x 1.727000 0.034050 0.043780 
#    y 0.034050 1.821530 0.152990 
#    z 0.043780 0.152990 2.298480 
# 
# From -- ./inp_files/185114.got.cif
#   From: 2010.05.17/outbox.ucp.g08.bks.cvg/sg2_93_cif.got.tgz:185114.got - 2010.06.11 11:32:03.
