data_PCOD9073820
_publ_section_title
;
Structure prediction by ZEFSAII (Michael W. Deem and Ramdas Pophale) SiO2 
 PCOD9073820
Probable space group: P -1
;
_chemical_formula_sum "Si O2"
_cell_formula_units_Z 16
_cell_length_a 15.256581
_cell_length_b 10.944392
_cell_length_c 15.189073
_cell_angle_alpha 150.727448
_cell_angle_beta 28.468793
_cell_angle_gamma 137.873389
_cell_volume 587.678626
_symmetry_space_group_name_H-M "P -1"
_symmetry_group_IT_number 2
_symmetry_cell_setting 'triclinic'
loop_
_space_group_symop_operation_xyz
x,y,z
-x,-y,-z
loop_
_atom_site_type_symbol
_atom_site_label
_atom_site_fract_x
_atom_site_fract_y
_atom_site_fract_z
Si Si1 0.270365 0.884572 0.911913
Si Si2 0.612352 0.529461 0.009107
Si Si3 0.729775 0.672652 0.514523
Si Si4 0.590011 0.397571 0.137655
Si Si5 0.009611 0.569542 0.719382
Si Si6 0.450179 0.034063 0.413221
Si Si7 0.910889 0.040055 0.228510
Si Si8 0.044713 0.740129 0.171427
O O1 0.286658 0.585359 0.687675
O O2 0.463258 0.971947 0.765055
O O3 0.161278 0.912857 0.117368
O O4 0.120041 0.026110 0.068468
O O5 0.557926 0.388598 0.056553
O O6 0.561710 0.831484 0.250798
O O7 0.500000 0.500000 0.000000
O O8 0.833277 0.464635 0.765657
O O9 0.530125 0.750522 0.781143
O O10 0.858762 0.602015 0.440701
O O11 0.850841 0.836318 0.449024
O O12 0.529685 0.687754 0.396919
O O13 0.805740 0.348802 0.941385
O O14 0.919964 0.802025 0.005633
O O15 0.130054 0.699470 0.622645
O O16 0.235899 0.996000 0.588867
O O17 0.000000 0.500000 0.000000
#
# Coordination Sequence:
#
# PCOD9073820 Si02
#       8
#     2   2   2   2   2   2   2   2
#     4   9  19  30  51  87 120 144 178 236 290 328
#     4  12  24  38  57  85 121 154 187 236 293 346
#     4   9  18  31  53  82 114 148 183 232 289 334
#     4  11  21  36  59  86 117 152 195 233 282 346
#     4  10  18  34  54  81 114 148 185 234 292 332
#     4  11  20  35  58  84 113 151 191 232 283 342
#     4  10  18  31  57  84 113 144 188 236 278 339
#     4  10  19  33  53  89 124 145 181 247 294 323
#
# _framework density 27.225764000000002
#
# number of rings (size 3 to 8) (size 9 to 14) (size 15 to 20)
#    0.000    1.750    3.750    2.625    1.750    5.500 
#    0.000    2.500    0.000    0.750    0.000    4.375 
#    0.000    0.000    0.000    0.000    0.000    0.000 
#
# Total GULP energy -89529.682842 kJ/mol
# GULP energy per Si atom -5595.605178 kJ/mol
# Density = 2.716380 g / cm^3
# Si number density = 27.225764 Si / 1000 Ang^3
#
#
#
# Elastic Constant Matrix: (Units=GPa)
#
#
# Indices 1 2 3 4 5 6 
#
# 1 111.8814 24.6324 29.4724 -14.7923 3.8010 9.1285
# 2 24.6324 78.4696 83.1090 -60.1582 41.8203 -18.8584
# 3 29.4724 83.1090 87.5981 -43.1650 -3.9552 11.7766
# 4 -14.7923 -60.1582 -43.1650 75.1046 -2.8515 12.0157
# 5 3.8010 41.8203 -3.9552 -2.8515 36.2474 -13.8382
# 6 9.1285 -18.8584 11.7766 12.0157 -13.8382 35.7286
#
#
#
# Elastic Compliance Matrix: (Units=1/GPa)
#
#
# Indices 1 2 3 4 5 6 
#
# 1 0.009996 -0.001094 -0.001627 0.000635 -0.001157 -0.003257
# 2 -0.001094 -0.015332 0.015388 -0.002118 0.017214 -0.005506
# 3 -0.001627 0.015388 0.004391 0.014606 -0.017748 -0.004695
# 4 0.000635 -0.002118 0.014606 0.022298 0.000628 -0.013350
# 5 -0.001157 0.017214 -0.017748 0.000628 0.013725 0.020336
# 6 -0.003257 -0.005506 -0.004695 -0.013350 0.020336 0.039829
#
#
# Mechanical properties :
#
#
# Convention : Reuss Voigt Hill
#
# Bulk Modulus (GPa) = 41.00102 61.37519 51.18810
# Shear Modulus (GPa) = 86.65033 38.79847 62.72440
#
# Velocity S-wave (km/s) = 5.64763 3.77910 4.80506
# Velocity P-wave (km/s) = 7.59078 6.45245 7.04464
#
# Compressibility (1/GPa) = 0.02438964
#
# Stress axis : x y z
#
# Youngs Moduli (GPa) = 100.03543 -65.22327 227.72926
#
# Poissons Ratio (x) = -0.07133 0.37062
# Poissons Ratio (y) = 0.10941 -3.50432
# Poissons Ratio (z) = 0.16280 1.00366
#
# Static dielectric constant tensor:
#      x y z
#    x 2.107140 0.024420 0.049620 
#    y 0.024420 2.186620 0.011990 
#    z 0.049620 0.011990 2.104920 
# 
# From -- ./inp_files/532007.got.cif
#   From: 2010.05.17/outbox.cif.g08.bks.cpg/sg2_267_cif.got.tgz:532007.got - 2010.06.03 11:33:40.
