data_PCOD9073075
_publ_section_title
;
Structure prediction by ZEFSAII (Michael W. Deem and Ramdas Pophale) SiO2 
 PCOD9073075
Probable space group: P -1
;
_chemical_formula_sum "Si O2"
_cell_formula_units_Z 16
_cell_length_a 9.000000
_cell_length_b 12.000000
_cell_length_c 18.000000
_cell_angle_alpha 140.000000
_cell_angle_beta 70.000000
_cell_angle_gamma 80.000000
_cell_volume 813.354092
_symmetry_space_group_name_H-M "P -1"
_symmetry_group_IT_number 2
_symmetry_cell_setting 'triclinic'
loop_
_space_group_symop_operation_xyz
x,y,z
-x,-y,-z
loop_
_atom_site_type_symbol
_atom_site_label
_atom_site_fract_x
_atom_site_fract_y
_atom_site_fract_z
Si Si1 0.386319 0.558058 0.970164
Si Si2 0.305671 0.385000 0.100203
Si Si3 0.652016 0.044143 0.087431
Si Si4 0.981390 0.315387 0.282979
Si Si5 0.443070 0.798193 0.644433
Si Si6 0.183379 0.527471 0.348409
Si Si7 0.240825 0.330250 0.913785
Si Si8 0.941845 0.108682 0.319618
O O1 0.500000 0.500000 0.000000
O O2 0.513922 0.600615 0.921694
O O3 0.391631 0.348609 0.850453
O O4 0.120890 0.814715 0.150588
O O5 0.136090 0.573632 0.291988
O O6 0.216205 0.423889 0.051066
O O7 0.396144 0.123205 0.975863
O O8 0.629544 0.145389 0.226071
O O9 0.452919 0.288673 0.197686
O O10 0.888810 0.854806 0.901585
O O11 0.706218 0.550160 0.453792
O O12 0.041582 0.148536 0.257279
O O13 0.071889 0.435704 0.345351
O O14 0.291447 0.782764 0.617002
O O15 0.371196 0.046221 0.755915
O O16 0.092387 0.754338 0.530175
O O17 0.000000 0.500000 0.000000
#
# Coordination Sequence:
#
# PCOD9073075 Si02
#       8
#     2   2   2   2   2   2   2   2
#     4  10  21  38  66  90 114 164 220 254 308 368
#     4   9  20  38  62  92 115 157 215 250 312 365
#     4  10  21  40  64  91 134 164 202 258 314 376
#     4  11  23  39  66  94 127 166 207 253 321 375
#     4  11  24  41  62  94 129 167 210 256 314 383
#     4  11  22  38  62  92 133 161 200 266 312 372
#     4  10  20  41  66  84 122 169 211 261 311 363
#     4  12  23  38  62  95 129 162 212 255 315 376
#
# _framework density 19.671628999999999
#
# number of rings (size 3 to 8) (size 9 to 14) (size 15 to 20)
#    0.000    1.500    2.500    3.750    5.250    0.500 
#    2.250    2.500    2.750    7.500    0.000    0.000 
#    0.000    0.000    0.000    0.000    0.000    0.000 
#
# Total GULP energy -89173.281429 kJ/mol
# GULP energy per Si atom -5573.330089 kJ/mol
# Density = 1.962686 g / cm^3
# Si number density = 19.671629 Si / 1000 Ang^3
#
#
#
# Elastic Constant Matrix: (Units=GPa)
#
#
# Indices 1 2 3 4 5 6 
#
# 1 71.9448 14.9541 17.7811 -10.4486 6.0609 5.6972
# 2 14.9541 77.3026 31.8509 -2.8754 3.6474 7.4003
# 3 17.7811 31.8509 75.6701 -13.8218 -4.1421 4.0953
# 4 -10.4486 -2.8754 -13.8218 22.7646 0.9894 -0.1804
# 5 6.0609 3.6474 -4.1421 0.9894 22.2862 5.5014
# 6 5.6972 7.4003 4.0953 -0.1804 5.5014 29.7976
#
#
#
# Elastic Compliance Matrix: (Units=1/GPa)
#
#
# Indices 1 2 3 4 5 6 
#
# 1 0.016150 -0.001660 -0.002144 0.006081 -0.004411 -0.001530
# 2 -0.001660 0.016421 -0.007081 -0.002881 -0.002862 -0.002277
# 3 -0.002144 -0.007081 0.018744 0.009269 0.005135 -0.001299
# 4 0.006081 -0.002881 0.009269 0.052038 -0.001491 -0.001131
# 5 -0.004411 -0.002862 0.005135 -0.001491 0.049614 -0.008320
# 6 -0.001530 -0.002277 -0.001299 -0.001131 -0.008320 0.036126
#
#
# Mechanical properties :
#
#
# Convention : Reuss Voigt Hill
#
# Bulk Modulus (GPa) = 33.84781 39.34330 36.59555
# Shear Modulus (GPa) = 22.65389 25.65844 24.15616
#
# Velocity S-wave (km/s) = 3.39721 3.61548 3.50804
# Velocity P-wave (km/s) = 5.71242 6.12147 5.92048
#
# Compressibility (1/GPa) = 0.02954401
#
# Stress axis : x y z
#
# Youngs Moduli (GPa) = 61.91779 60.89801 53.34960
#
# Poissons Ratio (x) = 0.10109 0.11440
# Poissons Ratio (y) = 0.10278 0.37779
# Poissons Ratio (z) = 0.13277 0.43125
#
# Static dielectric constant tensor:
#      x y z
#    x 1.718210 0.043400 -0.008850 
#    y 0.043400 1.711320 -0.023740 
#    z -0.008850 -0.023740 1.679060 
# 
# From -- ./inp_files/206882.got.cif
#   From: 2010.05.17/outbox.ucp.g08.bks.cvg/sg2_104_cif.got.tgz:206882.got - 2010.06.11 11:32:03.
