data_PCOD9073446
_publ_section_title
;
Structure prediction by ZEFSAII (Michael W. Deem and Ramdas Pophale) SiO2 
 PCOD9073446
Probable space group: P -1
;
_chemical_formula_sum "Si O2"
_cell_formula_units_Z 16
_cell_length_a 18.832612
_cell_length_b 7.724013
_cell_length_c 14.892359
_cell_angle_alpha 92.992829
_cell_angle_beta 20.283964
_cell_angle_gamma 93.603043
_cell_volume 749.368891
_symmetry_space_group_name_H-M "P -1"
_symmetry_group_IT_number 2
_symmetry_cell_setting 'triclinic'
loop_
_space_group_symop_operation_xyz
x,y,z
-x,-y,-z
loop_
_atom_site_type_symbol
_atom_site_label
_atom_site_fract_x
_atom_site_fract_y
_atom_site_fract_z
Si Si1 0.084002 0.572311 0.761026
Si Si2 0.993258 0.921071 0.196718
Si Si3 0.137290 0.246994 0.814750
Si Si4 0.598383 0.925268 0.764957
Si Si5 0.496260 0.786999 0.253387
Si Si6 0.948838 0.715749 0.751555
Si Si7 0.816256 0.100663 0.673607
Si Si8 0.454829 0.913072 0.648039
O O1 0.079448 0.396146 0.817268
O O2 0.314711 0.649639 0.484247
O O3 0.999883 0.569623 0.759103
O O4 0.955597 0.701016 0.978922
O O5 0.949387 0.920244 0.142459
O O6 0.780504 0.842679 0.489810
O O7 0.018747 0.106414 0.222601
O O8 0.219246 0.847598 0.936396
O O9 0.379297 0.230413 0.538523
O O10 0.552867 0.108868 0.776102
O O11 0.701528 0.961320 0.739839
O O12 0.370502 0.838029 0.041010
O O13 0.503773 0.936194 0.324203
O O14 0.716884 0.705827 0.992191
O O15 0.091078 0.748562 0.496874
O O16 0.000000 0.000000 0.500000
O O17 0.500000 0.000000 0.500000
#
# Coordination Sequence:
#
# PCOD9073446 Si02
#       8
#     2   2   2   2   2   2   2   2
#     4  11  23  37  54  80 116 150 188 222 278 338
#     4  10  20  36  56  80 111 143 190 228 272 323
#     4  11  23  38  55  78 114 157 184 226 274 330
#     4  10  19  31  55  86 110 142 180 230 285 325
#     4  11  19  34  57  83 114 142 186 234 271 328
#     4  10  20  35  57  87 111 142 182 234 281 325
#     4  10  18  31  54  88 116 135 177 234 288 331
#     4  11  22  34  57  84 109 147 191 234 275 319
#
# _framework density 21.351299999999998
#
# number of rings (size 3 to 8) (size 9 to 14) (size 15 to 20)
#    0.000    1.500    5.000    2.250    0.000    2.500 
#    0.000    3.125    0.000    0.750    0.000    5.250 
#    0.000    0.000    0.000    0.000    0.000    0.000 
#
# Total GULP energy -89237.350996 kJ/mol
# GULP energy per Si atom -5577.334437 kJ/mol
# Density = 2.130270 g / cm^3
# Si number density = 21.351300 Si / 1000 Ang^3
#
#
#
# Elastic Constant Matrix: (Units=GPa)
#
#
# Indices 1 2 3 4 5 6 
#
# 1 81.9716 12.9964 -34.4318 -3.1495 -37.7114 -7.1379
# 2 12.9964 32.1296 34.8455 -0.2977 5.3186 -21.2204
# 3 -34.4318 34.8455 -158.3382 -2.9978 -129.7052 56.9361
# 4 -3.1495 -0.2977 -2.9978 20.0439 -8.4844 2.8250
# 5 -37.7114 5.3186 -129.7052 -8.4844 3.6571 25.2544
# 6 -7.1379 -21.2204 56.9361 2.8250 25.2544 14.1900
#
#
#
# Elastic Compliance Matrix: (Units=1/GPa)
#
#
# Indices 1 2 3 4 5 6 
#
# 1 0.013883 0.002926 -0.001809 0.002132 0.004067 0.010953
# 2 0.002926 0.035135 0.003998 0.003913 0.011238 0.017192
# 3 -0.001809 0.003998 0.002126 -0.003261 -0.005564 0.007089
# 4 0.002132 0.003913 -0.003261 0.051285 0.004257 0.002224
# 5 0.004067 0.011238 -0.005564 0.004257 0.014786 0.014015
# 6 0.010953 0.017192 0.007089 0.002224 0.014015 0.047861
#
#
# Mechanical properties :
#
#
# Convention : Reuss Voigt Hill
#
# Bulk Modulus (GPa) = 16.29301 -1.93519 7.17891
# Shear Modulus (GPa) = 28.52215 3.73506 16.12861
#
# Velocity S-wave (km/s) = 3.65889 1.32406 2.75142
# Velocity P-wave (km/s) = 5.04950 1.19549 3.66924
#
# Compressibility (1/GPa) = 0.06137601
#
# Stress axis : x y z
#
# Youngs Moduli (GPa) = 72.03285 28.46169 470.25644
#
# Poissons Ratio (x) = -0.08329 0.85048
# Poissons Ratio (y) = -0.21079 -1.88019
# Poissons Ratio (z) = 0.13027 -0.11380
#
# Static dielectric constant tensor:
#      x y z
#    x 1.802770 0.006090 0.020530 
#    y 0.006090 1.845480 -0.001840 
#    z 0.020530 -0.001840 1.831970 
# 
# From -- ./inp_files/407234.got.cif
#   From: 2010.05.17/outbox.cif.g08.bks.cpg/sg2_204_cif.got.tgz:407234.got - 2010.06.03 11:33:40.
