data_PCOD9073519
_publ_section_title
;
Structure prediction by ZEFSAII (Michael W. Deem and Ramdas Pophale) SiO2 
 PCOD9073519
Probable space group: P -1
;
_chemical_formula_sum "Si O2"
_cell_formula_units_Z 14
_cell_length_a 7.424576
_cell_length_b 7.343256
_cell_length_c 18.442083
_cell_angle_alpha 54.977700
_cell_angle_beta 98.464917
_cell_angle_gamma 56.784140
_cell_volume 509.072374
_symmetry_space_group_name_H-M "P -1"
_symmetry_group_IT_number 2
_symmetry_cell_setting 'triclinic'
loop_
_space_group_symop_operation_xyz
x,y,z
-x,-y,-z
loop_
_atom_site_type_symbol
_atom_site_label
_atom_site_fract_x
_atom_site_fract_y
_atom_site_fract_z
Si Si1 0.128864 0.763900 0.335741
Si Si2 0.926773 0.648069 0.638372
Si Si3 0.218885 0.104264 0.198046
Si Si4 0.919199 0.833747 0.061741
Si Si5 0.401660 0.362599 0.311985
Si Si6 0.556950 0.631631 0.184363
Si Si7 0.829675 0.460427 0.460659
O O1 0.977437 0.680123 0.318670
O O2 0.407380 0.483188 0.361815
O O3 0.194818 0.691722 0.440784
O O4 0.014961 0.107824 0.221609
O O5 0.152296 0.523928 0.738255
O O6 0.962255 0.779231 0.541904
O O7 0.620103 0.874153 0.607490
O O8 0.071811 0.483207 0.110001
O O9 0.319252 0.941873 0.160214
O O10 0.517347 0.824535 0.326827
O O11 0.075242 0.683293 0.183399
O O12 0.578433 0.163965 0.946524
O O13 0.000000 0.000000 0.000000
O O14 0.576793 0.344469 0.268109
O O15 0.000000 0.500000 0.500000
#
# Coordination Sequence:
#
# PCOD9073519 Si02
#       7
#     2   2   2   2   2   2   2
#     4   8  16  31  52  78 102 126 172 217 252 302
#     4   8  16  30  54  78 101 129 177 208 256 303
#     4  10  18  31  55  81  99 137 177 211 254 310
#     4  10  20  34  52  73 108 144 173 205 259 308
#     4   8  17  31  51  74 105 136 171 207 256 310
#     4   9  17  32  54  73 100 137 176 219 251 290
#     4   9  16  30  56  79 102 130 167 222 263 293
#
# _framework density 27.501000999999999
#
# number of rings (size 3 to 8) (size 9 to 14) (size 15 to 20)
#    0.857    2.286    0.000    0.857    0.000    0.571 
#    0.000    1.429   31.429    0.857    0.000    0.000 
#    0.000    0.000    0.000    0.000    0.000    0.000 
#
# Total GULP energy -78037.718038 kJ/mol
# GULP energy per Si atom -5574.122717 kJ/mol
# Density = 2.743841 g / cm^3
# Si number density = 27.501001 Si / 1000 Ang^3
#
#
#
# Elastic Constant Matrix: (Units=GPa)
#
#
# Indices 1 2 3 4 5 6 
#
# 1 148.1516 13.1047 41.1522 -14.8675 -11.3079 27.6207
# 2 13.1047 100.1943 41.4094 -12.5719 11.7402 8.8534
# 3 41.1522 41.4094 137.0175 -5.8786 1.0310 -2.1521
# 4 -14.8675 -12.5719 -5.8786 47.6027 7.3757 -1.3838
# 5 -11.3079 11.7402 1.0310 7.3757 54.2292 -3.7608
# 6 27.6207 8.8534 -2.1521 -1.3838 -3.7608 37.0499
#
#
#
# Elastic Compliance Matrix: (Units=1/GPa)
#
#
# Indices 1 2 3 4 5 6 
#
# 1 0.009126 0.000851 -0.003015 0.002349 0.000971 -0.006996
# 2 0.000851 0.012701 -0.003983 0.003514 -0.003259 -0.004101
# 3 -0.003015 -0.003983 0.009430 -0.000785 0.000422 0.003761
# 4 0.002349 0.003514 -0.000785 0.023058 -0.003540 -0.002135
# 5 0.000971 -0.003259 0.000422 -0.003540 0.019959 0.001973
# 6 -0.006996 -0.004101 0.003761 -0.002135 0.001973 0.033525
#
#
# Mechanical properties :
#
#
# Convention : Reuss Voigt Hill
#
# Bulk Modulus (GPa) = 52.73309 64.07735 58.40522
# Shear Modulus (GPa) = 39.55318 47.08947 43.32133
#
# Velocity S-wave (km/s) = 3.79653 4.14246 3.97326
# Velocity P-wave (km/s) = 6.19958 6.79931 6.50636
#
# Compressibility (1/GPa) = 0.01896343
#
# Stress axis : x y z
#
# Youngs Moduli (GPa) = 109.57677 78.73683 106.04711
#
# Poissons Ratio (x) = -0.06704 0.31969
# Poissons Ratio (y) = -0.09329 0.42241
# Poissons Ratio (z) = 0.33034 0.31362
#
# Static dielectric constant tensor:
#      x y z
#    x 2.228840 -0.022370 -0.054430 
#    y -0.022370 2.218150 -0.028400 
#    z -0.054430 -0.028400 2.333830 
# 
# From -- ./inp_files/213293.got.cif
#   From: 2010.05.17/outbox.cif.g08.bks.cpg/sg2_107_cif.got.tgz:213293.got - 2010.06.03 11:33:40.
