data_PCOD9073236
_publ_section_title
;
Structure prediction by ZEFSAII (Michael W. Deem and Ramdas Pophale) SiO2 
 PCOD9073236
Probable space group: P -1
;
_chemical_formula_sum "Si O2"
_cell_formula_units_Z 16
_cell_length_a 11.975597
_cell_length_b 8.036612
_cell_length_c 9.073057
_cell_angle_alpha 65.142553
_cell_angle_beta 92.052078
_cell_angle_gamma 66.332442
_cell_volume 703.353470
_symmetry_space_group_name_H-M "P -1"
_symmetry_group_IT_number 2
_symmetry_cell_setting 'triclinic'
loop_
_space_group_symop_operation_xyz
x,y,z
-x,-y,-z
loop_
_atom_site_type_symbol
_atom_site_label
_atom_site_fract_x
_atom_site_fract_y
_atom_site_fract_z
Si Si1 0.717161 0.839749 0.742968
Si Si2 0.485595 0.512164 0.817943
Si Si3 0.820214 0.883219 0.151686
Si Si4 0.945615 0.213263 0.621580
Si Si5 0.266929 0.792170 0.219171
Si Si6 0.693363 0.029067 0.398199
Si Si7 0.378030 0.217385 0.956441
Si Si8 0.946120 0.822409 0.654446
O O1 0.643618 0.760869 0.876024
O O2 0.871023 0.721040 0.777822
O O3 0.695483 0.059352 0.733641
O O4 0.667439 0.875848 0.559856
O O5 0.615046 0.384019 0.788786
O O6 0.413162 0.743480 0.675514
O O7 0.500000 0.500000 0.000000
O O8 0.401928 0.396191 0.824741
O O9 0.956222 0.761411 0.275901
O O10 0.724113 0.981164 0.247291
O O11 0.754037 0.768001 0.106405
O O12 0.816137 0.055178 0.973197
O O13 0.810146 0.296362 0.656996
O O14 0.956408 0.290747 0.429431
O O15 0.985698 0.965662 0.700999
O O16 0.826551 0.990140 0.490829
O O17 0.500000 0.000000 0.000000
#
# Coordination Sequence:
#
# PCOD9073236 Si02
#       8
#     2   2   2   2   2   2   2   2
#     4   8  17  34  56  81 111 144 182 226 276 322
#     4  12  22  37  58  81 119 149 184 228 281 341
#     4  10  18  33  57  85 111 143 187 234 281 318
#     4   9  15  29  54  87 108 139 186 241 266 317
#     4  10  18  31  53  86 113 142 188 231 276 318
#     4   9  18  35  58  82 116 144 187 221 282 338
#     4  11  20  37  56  81 118 146 184 236 275 326
#     4   7  15  30  54  85 114 135 184 239 269 318
#
# _framework density 22.748163999999999
#
# number of rings (size 3 to 8) (size 9 to 14) (size 15 to 20)
#    0.750    1.750    3.750    0.375    0.000    0.500 
#    0.000    2.500    0.000    1.500    0.000    0.000 
#    0.000    0.000    0.000    0.000    0.000    0.000 
#
# Total GULP energy -89149.767254 kJ/mol
# GULP energy per Si atom -5571.860453 kJ/mol
# Density = 2.269639 g / cm^3
# Si number density = 22.748164 Si / 1000 Ang^3
#
#
#
# Elastic Constant Matrix: (Units=GPa)
#
#
# Indices 1 2 3 4 5 6 
#
# 1 107.3820 18.3940 18.7882 6.2343 -29.6394 -11.7128
# 2 18.3940 23.1213 14.6476 11.9341 -11.3958 -9.4479
# 3 18.7882 14.6476 69.7866 22.9380 -25.1359 -13.5333
# 4 6.2343 11.9341 22.9380 19.1287 -11.0599 -10.9518
# 5 -29.6394 -11.3958 -25.1359 -11.0599 45.7612 21.3652
# 6 -11.7128 -9.4479 -13.5333 -10.9518 21.3652 23.9081
#
#
#
# Elastic Compliance Matrix: (Units=1/GPa)
#
#
# Indices 1 2 3 4 5 6 
#
# 1 0.012733 -0.009896 -0.001156 0.006626 0.007809 -0.002270
# 2 -0.009896 0.073999 0.002157 -0.041821 0.000138 0.006335
# 3 -0.001156 0.002157 0.026965 -0.032078 0.011063 -0.009031
# 4 0.006626 -0.041821 -0.032078 0.130201 -0.009340 0.036551
# 5 0.007809 0.000138 0.011063 -0.009340 0.048092 -0.037112
# 6 -0.002270 0.006335 -0.009031 0.036551 -0.037112 0.088013
#
#
# Mechanical properties :
#
#
# Convention : Reuss Voigt Hill
#
# Bulk Modulus (GPa) = 10.42695 33.77217 22.09956
# Shear Modulus (GPa) = 11.63432 27.65696 19.64564
#
# Velocity S-wave (km/s) = 2.26396 3.49060 2.94192
# Velocity P-wave (km/s) = 3.38047 5.57889 4.61257
#
# Compressibility (1/GPa) = 0.09590528
#
# Stress axis : x y z
#
# Youngs Moduli (GPa) = 78.53536 13.51377 37.08506
#
# Poissons Ratio (x) = 0.13373 0.04289
# Poissons Ratio (y) = 0.77718 -0.07998
# Poissons Ratio (z) = 0.09082 -0.02914
#
# Static dielectric constant tensor:
#      x y z
#    x 1.890780 0.011340 -0.024760 
#    y 0.011340 1.859950 0.044980 
#    z -0.024760 0.044980 1.910560 
# 
# From -- ./inp_files/237719.got.cif
#   From: 2010.05.17/outbox.cif.g08.bks.cpg/sg2_119_cif.got.tgz:237719.got - 2010.06.03 11:33:40.
