data_PCOD9073137
_publ_section_title
;
Structure prediction by ZEFSAII (Michael W. Deem and Ramdas Pophale) SiO2 
 PCOD9073137
Probable space group: P -1
;
_chemical_formula_sum "Si O2"
_cell_formula_units_Z 16
_cell_length_a 15.000000
_cell_length_b 12.000000
_cell_length_c 9.000000
_cell_angle_alpha 70.000000
_cell_angle_beta 80.000000
_cell_angle_gamma 30.000000
_cell_volume 734.803614
_symmetry_space_group_name_H-M "P -1"
_symmetry_group_IT_number 2
_symmetry_cell_setting 'triclinic'
loop_
_space_group_symop_operation_xyz
x,y,z
-x,-y,-z
loop_
_atom_site_type_symbol
_atom_site_label
_atom_site_fract_x
_atom_site_fract_y
_atom_site_fract_z
Si Si1 0.142828 0.651355 0.705637
Si Si2 0.201450 0.341031 0.377209
Si Si3 0.535347 0.099284 0.932165
Si Si4 0.396107 0.492206 0.209335
Si Si5 0.099187 0.291965 0.172013
Si Si6 0.944318 0.242764 0.665611
Si Si7 0.713257 0.297491 0.180676
Si Si8 0.441726 0.933615 0.718529
O O1 0.347255 0.367208 0.802234
O O2 0.086194 0.720388 0.519088
O O3 0.166052 0.752971 0.728618
O O4 0.004813 0.714561 0.792287
O O5 0.105513 0.349158 0.303929
O O6 0.091000 0.586139 0.335772
O O7 0.377601 0.188706 0.300087
O O8 0.277681 0.194013 0.572267
O O9 0.697266 0.951776 0.842821
O O10 0.583042 0.075385 0.099880
O O11 0.500000 0.000000 0.000000
O O12 0.206614 0.678141 0.262927
O O13 0.526720 0.453722 0.233080
O O14 0.514236 0.236505 0.306393
O O15 0.343955 0.572861 0.014601
O O16 0.000000 0.500000 0.000000
O O17 0.148033 0.967828 0.774268
#
# Coordination Sequence:
#
# PCOD9073137 Si02
#       8
#     2   2   2   2   2   2   2   2
#     4  12  27  46  66 106 138 183 233 284 342 412
#     4  10  23  41  69 107 137 174 226 282 345 419
#     4  12  22  43  68  96 140 183 218 276 346 407
#     4  10  24  46  72 101 131 187 230 286 345 400
#     4  12  27  43  69 105 144 182 225 281 352 415
#     4  11  26  45  73 100 142 181 229 287 345 402
#     4  11  25  49  70  98 140 179 243 283 332 412
#     4  10  20  42  71  99 140 174 226 286 339 414
#
# _framework density 21.774525000000001
#
# number of rings (size 3 to 8) (size 9 to 14) (size 15 to 20)
#    0.000    1.000    3.750    1.500    7.000    3.000 
#    0.000    0.000    0.000    0.000    0.000    0.000 
#    0.000    0.000    0.000    0.000    0.000    0.000 
#
# Total GULP energy -89500.768195 kJ/mol
# GULP energy per Si atom -5593.798012 kJ/mol
# Density = 2.172497 g / cm^3
# Si number density = 21.774525 Si / 1000 Ang^3
#
#
#
# Elastic Constant Matrix: (Units=GPa)
#
#
# Indices 1 2 3 4 5 6 
#
# 1 89.8208 10.7514 14.4701 13.1595 12.3175 -24.7095
# 2 10.7514 90.3265 22.5143 -13.7037 -4.2860 -13.3591
# 3 14.4701 22.5143 61.8929 -4.9452 -12.4880 1.9599
# 4 13.1595 -13.7037 -4.9452 34.3965 0.3100 -11.3146
# 5 12.3175 -4.2860 -12.4880 0.3100 27.1610 13.9058
# 6 -24.7095 -13.3591 1.9599 -11.3146 13.9058 32.9302
#
#
#
# Elastic Compliance Matrix: (Units=1/GPa)
#
#
# Indices 1 2 3 4 5 6 
#
# 1 0.037596 0.008669 -0.025028 0.005565 -0.057716 0.059501
# 2 0.008669 0.017954 -0.012781 0.011163 -0.021070 0.027282
# 3 -0.025028 -0.012781 0.038465 -0.007349 0.053377 -0.051319
# 4 0.005565 0.011163 -0.007349 0.041106 -0.021079 0.032167
# 5 -0.057716 -0.021070 0.053377 -0.021079 0.148420 -0.124950
# 6 0.059501 0.027282 -0.051319 0.032167 -0.124950 0.152953
#
#
# Mechanical properties :
#
#
# Convention : Reuss Voigt Hill
#
# Bulk Modulus (GPa) = 27.98357 37.50132 32.74245
# Shear Modulus (GPa) = 9.86808 31.85114 20.85961
#
# Velocity S-wave (km/s) = 2.13114 3.82877 3.09849
# Velocity P-wave (km/s) = 4.35145 6.06679 5.27925
#
# Compressibility (1/GPa) = 0.03573526
#
# Stress axis : x y z
#
# Youngs Moduli (GPa) = 26.59886 55.69930 25.99755
#
# Poissons Ratio (x) = -0.48287 0.65066
# Poissons Ratio (y) = -0.23059 0.33227
# Poissons Ratio (z) = 0.66571 0.71189
#
# Static dielectric constant tensor:
#      x y z
#    x 1.845950 0.077440 -0.015620 
#    y 0.077440 1.884490 -0.008660 
#    z -0.015620 -0.008660 1.768020 
# 
# From -- ./inp_files/307017.got.cif
#   From: 2010.05.17/outbox.ucp.g08.bks.cvg/sg2_154_cif.got.tgz:307017.got - 2010.06.11 11:32:03.
