data_PCOD9073302
_publ_section_title
;
Structure prediction by ZEFSAII (Michael W. Deem and Ramdas Pophale) SiO2 
 PCOD9073302
Probable space group: P -1
;
_chemical_formula_sum "Si O2"
_cell_formula_units_Z 14
_cell_length_a 9.000000
_cell_length_b 18.000000
_cell_length_c 12.000000
_cell_angle_alpha 140.000000
_cell_angle_beta 30.000000
_cell_angle_gamma 130.000000
_cell_volume 623.501542
_symmetry_space_group_name_H-M "P -1"
_symmetry_group_IT_number 2
_symmetry_cell_setting 'triclinic'
loop_
_space_group_symop_operation_xyz
x,y,z
-x,-y,-z
loop_
_atom_site_type_symbol
_atom_site_label
_atom_site_fract_x
_atom_site_fract_y
_atom_site_fract_z
Si Si1 0.310776 0.662982 0.118555
Si Si2 0.733389 0.196331 0.140404
Si Si3 0.433674 0.058906 0.336143
Si Si4 0.310620 0.581619 0.460180
Si Si5 0.432207 0.135017 0.660600
Si Si6 0.156033 0.547102 0.283912
Si Si7 0.212857 0.824143 0.167854
O O1 0.453371 0.764937 0.217444
O O2 0.076273 0.620038 0.310956
O O3 0.197829 0.721112 0.145828
O O4 0.499601 0.541457 0.821969
O O5 0.619863 0.078855 0.128280
O O6 0.567315 0.301975 0.439044
O O7 0.663608 0.212998 0.075593
O O8 0.085482 0.177197 0.915644
O O9 0.556091 0.122678 0.438539
O O10 0.107651 0.115653 0.584805
O O11 0.400964 0.922763 0.215553
O O12 0.148860 0.610230 0.480090
O O13 0.056637 0.555764 0.684129
O O14 0.500000 0.000000 0.500000
O O15 0.500000 0.500000 0.000000
#
# Coordination Sequence:
#
# PCOD9073302 Si02
#       7
#     2   2   2   2   2   2   2
#     4  11  22  39  63  93 122 156 198 253 302 352
#     4  11  23  40  63  88 122 166 201 241 306 363
#     4  10  22  44  63  84 123 167 199 248 305 353
#     4  10  21  38  59  90 123 156 200 246 295 367
#     4  11  22  39  62  92 121 150 205 257 293 356
#     4   9  18  35  59  84 120 160 193 241 303 347
#     4  10  23  41  61  88 125 160 204 247 296 365
#
# _framework density 22.453834000000001
#
# number of rings (size 3 to 8) (size 9 to 14) (size 15 to 20)
#    0.000    1.714    1.429    3.857    0.000    5.714 
#    2.571    1.429    0.000    0.000    0.000    0.000 
#    0.000    0.000    0.000    0.000    0.000    0.000 
#
# Total GULP energy -77973.595817 kJ/mol
# GULP energy per Si atom -5569.542558 kJ/mol
# Density = 2.240273 g / cm^3
# Si number density = 22.453834 Si / 1000 Ang^3
#
#
#
# Elastic Constant Matrix: (Units=GPa)
#
#
# Indices 1 2 3 4 5 6 
#
# 1 82.9433 30.5228 23.4570 4.8169 21.0366 -35.2096
# 2 30.5228 96.3785 29.0289 4.7225 7.5688 -34.7651
# 3 23.4570 29.0289 44.0028 28.2609 14.6290 -5.2077
# 4 4.8169 4.7225 28.2609 35.7589 -6.7912 5.0108
# 5 21.0366 7.5688 14.6290 -6.7912 14.0729 -3.2942
# 6 -35.2096 -34.7651 -5.2077 5.0108 -3.2942 48.3943
#
#
#
# Elastic Compliance Matrix: (Units=1/GPa)
#
#
# Indices 1 2 3 4 5 6 
#
# 1 0.020237 0.006171 -0.031434 0.021747 0.012973 0.014405
# 2 0.006171 0.015716 0.001358 -0.010014 -0.020273 0.015582
# 3 -0.031434 0.001358 -0.040054 0.060312 0.111176 -0.024882
# 4 0.021747 -0.010014 0.060312 -0.043529 -0.107950 0.012278
# 5 0.012973 -0.020273 0.111176 -0.107950 -0.102510 0.011038
# 6 0.014405 0.015582 -0.024882 0.012278 0.011038 0.039141
#
#
# Mechanical properties :
#
#
# Convention : Reuss Voigt Hill
#
# Bulk Modulus (GPa) = -19.26326 43.26022 11.99848
# Shear Modulus (GPa) = -62.11762 28.99963 -16.55899
#
# Velocity S-wave (km/s) = -5.26542 3.59767 -2.71858
# Velocity P-wave (km/s) = 6.75010 6.04697 2.12109
#
# Compressibility (1/GPa) = -0.05191230
#
# Stress axis : x y z
#
# Youngs Moduli (GPa) = 49.41369 63.62915 -24.96602
#
# Poissons Ratio (x) = -0.39262 -0.78479
# Poissons Ratio (y) = -0.30491 0.03390
# Poissons Ratio (z) = 1.55328 -0.08641
#
# Static dielectric constant tensor:
#      x y z
#    x 1.835020 -0.003230 0.035920 
#    y -0.003230 1.888930 -0.037750 
#    z 0.035920 -0.037750 1.891680 
# 
# From -- ./inp_files/53460.got.cif
#   From: 2010.05.17/outbox.ucp.g08.bks.cvg/sg2_27_cif.got.tgz:53460.got - 2010.06.11 11:32:03.
