data_PCOD9073115
_publ_section_title
;
Structure prediction by ZEFSAII (Michael W. Deem and Ramdas Pophale) SiO2 
 PCOD9073115
Probable space group: P -1
;
_chemical_formula_sum "Si O2"
_cell_formula_units_Z 12
_cell_length_a 7.685176
_cell_length_b 15.266158
_cell_length_c 9.386066
_cell_angle_alpha 46.255246
_cell_angle_beta 113.359368
_cell_angle_gamma 145.291508
_cell_volume 411.524834
_symmetry_space_group_name_H-M "P -1"
_symmetry_group_IT_number 2
_symmetry_cell_setting 'triclinic'
loop_
_space_group_symop_operation_xyz
x,y,z
-x,-y,-z
loop_
_atom_site_type_symbol
_atom_site_label
_atom_site_fract_x
_atom_site_fract_y
_atom_site_fract_z
Si Si1 0.756222 0.815152 0.802497
Si Si2 0.703072 0.926211 0.928104
Si Si3 0.930223 0.608101 0.820022
Si Si4 0.853347 0.530222 0.585022
Si Si5 0.656649 0.418440 0.349873
Si Si6 0.739720 0.109860 0.129140
O O1 0.728565 0.920253 0.772381
O O2 0.640261 0.750028 0.673319
O O3 0.123990 0.951859 0.789481
O O4 0.454384 0.575866 0.045868
O O5 0.625208 0.019224 0.862005
O O6 0.385796 0.687033 0.159403
O O7 0.000000 0.000000 0.000000
O O8 0.965125 0.666980 0.602468
O O9 0.176135 0.816454 0.762221
O O10 0.000000 0.500000 0.000000
O O11 0.637957 0.457581 0.461333
O O12 0.184306 0.632715 0.528192
O O13 0.965640 0.656630 0.114430
#
# Coordination Sequence:
#
# PCOD9073115 Si02
#       6
#     2   2   2   2   2   2
#     4  10  18  31  50  71  96 128 160 193 238 287
#     4  10  20  35  50  66  93 130 169 199 225 278
#     4  10  13  28  47  70  98 123 147 188 237 287
#     4   9  16  27  50  74  98 124 154 194 241 282
#     4   9  15  28  48  78 100 116 150 201 246 286
#     4  10  18  31  51  73  96 127 157 191 243 288
#
# _framework density 29.159842999999999
#
# number of rings (size 3 to 8) (size 9 to 14) (size 15 to 20)
#    0.000    2.333    6.667    2.000    0.000    0.667 
#    0.000    8.333    0.000    1.000    0.000    0.000 
#    0.000    0.000    0.000    0.000    0.000    0.000 
#
# Total GULP energy -67046.360062 kJ/mol
# GULP energy per Si atom -5587.196672 kJ/mol
# Density = 2.909347 g / cm^3
# Si number density = 29.159843 Si / 1000 Ang^3
#
#
#
# Elastic Constant Matrix: (Units=GPa)
#
#
# Indices 1 2 3 4 5 6 
#
# 1 232.9158 46.3766 30.6860 8.1505 0.6664 32.1785
# 2 46.3766 113.6952 50.1430 39.2122 -5.6088 13.0424
# 3 30.6860 50.1430 141.5209 46.3428 -9.2988 -10.9111
# 4 8.1505 39.2122 46.3428 68.4223 -7.3999 -2.9929
# 5 0.6664 -5.6088 -9.2988 -7.3999 24.1342 5.3345
# 6 32.1785 13.0424 -10.9111 -2.9929 5.3345 51.9467
#
#
#
# Elastic Compliance Matrix: (Units=1/GPa)
#
#
# Indices 1 2 3 4 5 6 
#
# 1 0.005127 -0.001590 -0.001069 0.000896 0.000004 -0.002950
# 2 -0.001590 0.012905 -0.002619 -0.005458 0.001075 -0.003230
# 3 -0.001069 -0.002619 0.010175 -0.005008 0.001131 0.003052
# 4 0.000896 -0.005458 -0.005008 0.021402 0.003192 0.000669
# 5 0.000004 0.001075 0.001131 0.003192 0.044066 -0.004376
# 6 -0.002950 -0.003230 0.003052 0.000669 -0.004376 0.023018
#
#
# Mechanical properties :
#
#
# Convention : Reuss Voigt Hill
#
# Bulk Modulus (GPa) = 56.65342 82.50480 69.57911
# Shear Modulus (GPa) = 37.55632 52.96239 45.25935
#
# Velocity S-wave (km/s) = 3.59269 4.26641 3.94396
# Velocity P-wave (km/s) = 6.05646 7.25431 6.68228
#
# Compressibility (1/GPa) = 0.01765119
#
# Stress axis : x y z
#
# Youngs Moduli (GPa) = 195.04364 77.48994 98.27795
#
# Poissons Ratio (x) = 0.12324 0.10504
# Poissons Ratio (y) = 0.31020 0.25737
# Poissons Ratio (z) = 0.20846 0.20293
#
# Static dielectric constant tensor:
#      x y z
#    x 2.374450 -0.032500 0.099450 
#    y -0.032500 2.437100 0.021060 
#    z 0.099450 0.021060 2.297010 
# 
# From -- ./inp_files/200906.got.cif
#   From: 2010.05.17/outbox.cif.g08.bks.cpg/sg2_101_cif.got.tgz:200906.got - 2010.06.03 11:33:40.
