data_PCOD9073724
_publ_section_title
;
Structure prediction by ZEFSAII (Michael W. Deem and Ramdas Pophale) SiO2 
 PCOD9073724
Probable space group: P -1
;
_chemical_formula_sum "Si O2"
_cell_formula_units_Z 16
_cell_length_a 9.000000
_cell_length_b 9.000000
_cell_length_c 12.000000
_cell_angle_alpha 90.000000
_cell_angle_beta 100.000000
_cell_angle_gamma 130.000000
_cell_volume 725.212580
_symmetry_space_group_name_H-M "P -1"
_symmetry_group_IT_number 2
_symmetry_cell_setting 'triclinic'
loop_
_space_group_symop_operation_xyz
x,y,z
-x,-y,-z
loop_
_atom_site_type_symbol
_atom_site_label
_atom_site_fract_x
_atom_site_fract_y
_atom_site_fract_z
Si Si1 0.719252 0.722656 0.527079
Si Si2 0.263411 0.731219 0.660312
Si Si3 0.023193 0.336711 0.768648
Si Si4 0.653996 0.988443 0.148975
Si Si5 0.413754 0.402952 0.868413
Si Si6 0.124101 0.861014 0.473967
Si Si7 0.234431 0.889099 0.074027
Si Si8 0.650849 0.779569 0.751031
O O1 0.500000 0.500000 0.500000
O O2 0.769146 0.785749 0.663231
O O3 0.896984 0.746882 0.488490
O O4 0.741165 0.906200 0.481669
O O5 0.117330 0.532808 0.712404
O O6 0.198744 0.752524 0.533111
O O7 0.469796 0.771028 0.684139
O O8 0.265126 0.886227 0.729373
O O9 0.198794 0.338475 0.824981
O O10 0.883106 0.166245 0.660239
O O11 0.912166 0.302338 0.869072
O O12 0.602564 0.782972 0.148460
O O13 0.450011 0.950580 0.106976
O O14 0.797348 0.107190 0.061072
O O15 0.550393 0.573940 0.797123
O O16 0.500000 0.500000 0.000000
O O17 0.243288 0.052905 0.140225
#
# Coordination Sequence:
#
# PCOD9073724 Si02
#       8
#     2   2   2   2   2   2   2   2
#     4  11  24  41  67 100 134 177 222 280 332 391
#     4  10  24  42  66  96 131 174 220 274 327 393
#     4  11  24  44  66  94 131 174 221 274 334 393
#     4  10  23  41  65  95 132 168 220 268 332 393
#     4  11  23  42  67  94 128 173 217 273 336 394
#     4  11  25  45  67  97 140 175 224 279 329 399
#     4  10  21  43  64  92 132 171 214 275 323 394
#     4  10  21  43  64  94 130 173 219 265 337 394
#
# _framework density 22.062495999999999
#
# number of rings (size 3 to 8) (size 9 to 14) (size 15 to 20)
#    0.000    1.500    2.500    1.875    7.000    2.500 
#    4.500    0.000    0.000    0.000    0.000    0.000 
#    0.000    0.000    0.000    0.000    0.000    0.000 
#
# Total GULP energy -89351.899839 kJ/mol
# GULP energy per Si atom -5584.493740 kJ/mol
# Density = 2.201228 g / cm^3
# Si number density = 22.062496 Si / 1000 Ang^3
#
#
#
# Elastic Constant Matrix: (Units=GPa)
#
#
# Indices 1 2 3 4 5 6 
#
# 1 4.6046 8.6294 17.9738 -8.9024 -23.3992 -9.8096
# 2 8.6294 97.3163 5.8292 -2.5342 -1.5082 -6.4447
# 3 17.9738 5.8292 92.0785 -15.0212 -8.3868 -11.0268
# 4 -8.9024 -2.5342 -15.0212 35.6683 6.0718 -12.1821
# 5 -23.3992 -1.5082 -8.3868 6.0718 28.8237 -3.7777
# 6 -9.8096 -6.4447 -11.0268 -12.1821 -3.7777 33.1802
#
#
#
# Elastic Compliance Matrix: (Units=1/GPa)
#
#
# Indices 1 2 3 4 5 6 
#
# 1 -0.045502 0.001683 0.000919 -0.011873 -0.036884 -0.021379
# 2 0.001683 0.010441 -0.000079 0.001977 0.001925 0.003444
# 3 0.000919 -0.000079 0.013298 0.007884 0.004002 0.008026
# 4 -0.011873 0.001977 0.007884 0.034393 -0.013093 0.010630
# 5 -0.036884 0.001925 0.004002 -0.013093 0.007043 -0.013206
# 6 -0.021379 0.003444 0.008026 0.010630 -0.013206 0.029553
#
#
# Mechanical properties :
#
#
# Convention : Reuss Voigt Hill
#
# Bulk Modulus (GPa) = -59.81496 28.76270 -15.52613
# Shear Modulus (GPa) = 129.50963 30.30557 79.90760
#
# Velocity S-wave (km/s) = 7.66999 3.71026 6.02473
# Velocity P-wave (km/s) = 7.16015 5.60535 6.42992
#
# Compressibility (1/GPa) = -0.01671823
#
# Stress axis : x y z
#
# Youngs Moduli (GPa) = -21.97694 95.77926 75.20121
#
# Poissons Ratio (x) = -0.16122 -0.06910
# Poissons Ratio (y) = 0.03699 0.00596
# Poissons Ratio (z) = 0.02019 0.00759
#
# Static dielectric constant tensor:
#      x y z
#    x 1.755940 0.019160 0.018820 
#    y 0.019160 1.870510 0.003770 
#    z 0.018820 0.003770 1.862910 
# 
# From -- ./inp_files/382388.got.cif
#   From: 2010.05.17/outbox.ucp.g08.bks.cvg/sg2_192_cif.got.tgz:382388.got - 2010.06.11 11:32:03.
