data_PCOD9073809
_publ_section_title
;
Structure prediction by ZEFSAII (Michael W. Deem and Ramdas Pophale) SiO2 
 PCOD9073809
Probable space group: P -1
;
_chemical_formula_sum "Si O2"
_cell_formula_units_Z 16
_cell_length_a 8.008489
_cell_length_b 13.831377
_cell_length_c 12.815500
_cell_angle_alpha 146.493810
_cell_angle_beta 95.230688
_cell_angle_gamma 64.461372
_cell_volume 595.710192
_symmetry_space_group_name_H-M "P -1"
_symmetry_group_IT_number 2
_symmetry_cell_setting 'triclinic'
loop_
_space_group_symop_operation_xyz
x,y,z
-x,-y,-z
loop_
_atom_site_type_symbol
_atom_site_label
_atom_site_fract_x
_atom_site_fract_y
_atom_site_fract_z
Si Si1 0.095746 0.018632 0.195555
Si Si2 0.338423 0.723191 0.289030
Si Si3 0.599512 0.084980 0.725013
Si Si4 0.197987 0.566739 0.826567
Si Si5 0.793571 0.877722 0.218300
Si Si6 0.952250 0.316348 0.644416
Si Si7 0.469350 0.286677 0.417009
Si Si8 0.712533 0.493046 0.596488
O O1 0.116140 0.803211 0.981297
O O2 0.333977 0.926994 0.160740
O O3 0.986855 0.116432 0.393223
O O4 0.927053 0.255828 0.338933
O O5 0.380411 0.757601 0.204966
O O6 0.566443 0.566674 0.224368
O O7 0.196306 0.646331 0.235897
O O8 0.204140 0.974541 0.560411
O O9 0.361933 0.164270 0.779276
O O10 0.788368 0.822357 0.455569
O O11 0.258868 0.404495 0.585998
O O12 0.019927 0.651510 0.982575
O O13 0.659436 0.045194 0.262224
O O14 0.808457 0.513438 0.726087
O O15 0.553101 0.434569 0.559061
O O16 0.406605 0.301984 0.307399
#
# Coordination Sequence:
#
# PCOD9073809 Si02
#       8
#     2   2   2   2   2   2   2   2
#     4   8  17  35  48  77 101 135 165 213 255 293
#     4  11  19  35  56  78  96 141 182 211 253 297
#     4   9  21  33  57  70 107 147 164 209 267 303
#     4  11  19  32  55  74 110 130 170 224 246 301
#     4  11  19  37  49  78 112 132 170 216 254 307
#     4   8  16  36  51  74 103 128 170 214 247 296
#     4  10  18  31  57  82  97 134 174 210 263 297
#     4   8  15  34  53  79 104 121 178 217 246 310
#
# _framework density 26.858698
#
# number of rings (size 3 to 8) (size 9 to 14) (size 15 to 20)
#    1.500    0.750    5.000    0.750    0.000    1.500 
#    0.000    5.000    0.000    3.000    0.000    0.000 
#    0.000    0.000    0.000    0.000    0.000    0.000 
#
# Total GULP energy -89243.532523 kJ/mol
# GULP energy per Si atom -5577.720783 kJ/mol
# Density = 2.679757 g / cm^3
# Si number density = 26.858698 Si / 1000 Ang^3
#
#
#
# Elastic Constant Matrix: (Units=GPa)
#
#
# Indices 1 2 3 4 5 6 
#
# 1 67.4737 6.3179 25.5439 -16.6315 -19.2199 5.9965
# 2 6.3179 136.5203 18.4912 10.8284 -5.5174 1.2831
# 3 25.5439 18.4912 117.2787 1.3943 -25.5993 2.3956
# 4 -16.6315 10.8284 1.3943 24.1147 3.7154 -3.2681
# 5 -19.2199 -5.5174 -25.5993 3.7154 42.3889 1.9806
# 6 5.9965 1.2831 2.3956 -3.2681 1.9806 22.0974
#
#
#
# Elastic Compliance Matrix: (Units=1/GPa)
#
#
# Indices 1 2 3 4 5 6 
#
# 1 0.021998 -0.001418 -0.003173 0.014399 0.006800 -0.004023
# 2 -0.001418 0.007885 -0.000790 -0.004621 0.000344 -0.000702
# 3 -0.003173 -0.000790 0.010537 -0.003403 0.005177 -0.001203
# 4 0.014399 -0.004621 -0.003403 0.054509 -0.001134 0.004893
# 5 0.006800 0.000344 0.005177 -0.001134 0.030192 -0.005300
# 6 -0.004023 -0.000702 -0.001203 0.004893 -0.005300 0.047716
#
#
# Mechanical properties :
#
#
# Convention : Reuss Voigt Hill
#
# Bulk Modulus (GPa) = 33.71626 46.88652 40.30139
# Shear Modulus (GPa) = 25.84197 35.78151 30.81174
#
# Velocity S-wave (km/s) = 3.10521 3.65391 3.39068
# Velocity P-wave (km/s) = 5.04350 5.94105 5.51058
#
# Compressibility (1/GPa) = 0.02965928
#
# Stress axis : x y z
#
# Youngs Moduli (GPa) = 45.45872 126.83058 94.90143
#
# Poissons Ratio (x) = 0.17982 0.30108
# Poissons Ratio (y) = 0.06445 0.07497
# Poissons Ratio (z) = 0.14422 0.10019
#
# Static dielectric constant tensor:
#      x y z
#    x 2.272430 -0.016350 -0.024460 
#    y -0.016350 2.146170 0.063640 
#    z -0.024460 0.063640 2.179680 
# 
# From -- ./inp_files/505570.got.cif
#   From: 2010.05.17/outbox.cif.g08.bks.cpg/sg2_253_cif.got.tgz:505570.got - 2010.06.03 11:33:40.
