data_PCOD9073778
_publ_section_title
;
Structure prediction by ZEFSAII (Michael W. Deem and Ramdas Pophale) SiO2 
 PCOD9073778
Probable space group: P -1
;
_chemical_formula_sum "Si O2"
_cell_formula_units_Z 14
_cell_length_a 6.000000
_cell_length_b 24.000000
_cell_length_c 15.000000
_cell_angle_alpha 20.000000
_cell_angle_beta 120.000000
_cell_angle_gamma 120.000000
_cell_volume 636.464036
_symmetry_space_group_name_H-M "P -1"
_symmetry_group_IT_number 2
_symmetry_cell_setting 'triclinic'
loop_
_space_group_symop_operation_xyz
x,y,z
-x,-y,-z
loop_
_atom_site_type_symbol
_atom_site_label
_atom_site_fract_x
_atom_site_fract_y
_atom_site_fract_z
Si Si1 0.047894 0.356046 0.656211
Si Si2 0.596950 0.460523 0.175033
Si Si3 0.835801 0.940704 0.750021
Si Si4 0.623337 0.917091 0.284335
Si Si5 0.806854 0.487581 0.734167
Si Si6 0.527982 0.239549 0.179175
Si Si7 0.532955 0.801831 0.252427
O O1 0.188874 0.462817 0.443996
O O2 0.000000 0.500000 0.500000
O O3 0.772825 0.266766 0.698863
O O4 0.177246 0.205952 0.956762
O O5 0.511716 0.265527 0.456719
O O6 0.901585 0.491489 0.203877
O O7 0.500000 0.500000 0.000000
O O8 0.485618 0.597093 0.010902
O O9 0.749220 0.840768 0.792672
O O10 0.657958 0.094663 0.475761
O O11 0.125135 0.031359 0.683882
O O12 0.679166 0.903108 0.210306
O O13 0.452483 0.071243 0.018531
O O14 0.663386 0.636288 0.519977
O O15 0.679722 0.313415 0.009249
#
# Coordination Sequence:
#
# PCOD9073778 Si02
#       7
#     2   2   2   2   2   2   2
#     4  11  23  44  70 103 137 173 224 283 337 403
#     4  12  26  42  68 100 136 182 227 280 339 403
#     4  10  24  44  73  93 140 183 217 281 342 393
#     4  10  21  44  64  99 134 175 219 288 331 392
#     4  12  23  42  73  99 132 181 224 280 341 398
#     4  11  25  48  66 100 139 179 234 275 331 416
#     4  10  22  40  66  96 138 168 225 279 333 401
#
# _framework density 21.99653
#
# number of rings (size 3 to 8) (size 9 to 14) (size 15 to 20)
#    0.000    1.143    2.857    2.571    2.000    5.143 
#    0.000   14.286    0.000    0.000    0.000    0.000 
#    0.000    0.000    0.000    0.000    0.000    0.000 
#
# Total GULP energy -78002.690835 kJ/mol
# GULP energy per Si atom -5571.620774 kJ/mol
# Density = 2.194646 g / cm^3
# Si number density = 21.996530 Si / 1000 Ang^3
#
#
#
# Elastic Constant Matrix: (Units=GPa)
#
#
# Indices 1 2 3 4 5 6 
#
# 1 34.7242 27.9216 39.4683 8.2267 -2.0909 1.3033
# 2 27.9216 114.5580 47.3156 -5.1418 -9.7855 11.5445
# 3 39.4683 47.3156 172.6543 11.6770 7.7360 6.7710
# 4 8.2267 -5.1418 11.6770 46.5644 14.9873 -0.7634
# 5 -2.0909 -9.7855 7.7360 14.9873 23.5879 -3.4921
# 6 1.3033 11.5445 6.7710 -0.7634 -3.4921 25.1877
#
#
#
# Elastic Compliance Matrix: (Units=1/GPa)
#
#
# Indices 1 2 3 4 5 6 
#
# 1 0.048452 -0.008176 -0.008803 -0.010845 0.011400 0.004859
# 2 -0.008176 0.012135 -0.001564 0.002210 0.002787 -0.004265
# 3 -0.008803 -0.001564 0.008470 0.000840 -0.005003 -0.001773
# 4 -0.010845 0.002210 0.000840 0.029674 -0.019543 -0.002487
# 5 0.011400 0.002787 -0.005003 -0.019543 0.059679 0.007159
# 6 0.004859 -0.004265 -0.001773 -0.002487 0.007159 0.042799
#
#
# Mechanical properties :
#
#
# Convention : Reuss Voigt Hill
#
# Bulk Modulus (GPa) = 31.27832 61.26082 46.26957
# Shear Modulus (GPa) = 20.08418 32.88339 26.48379
#
# Velocity S-wave (km/s) = 3.02497 3.87063 3.47363
# Velocity P-wave (km/s) = 5.14306 6.92000 6.09662
#
# Compressibility (1/GPa) = 0.03197103
#
# Stress axis : x y z
#
# Youngs Moduli (GPa) = 20.63888 82.40757 118.06786
#
# Poissons Ratio (x) = 0.67376 1.03939
# Poissons Ratio (y) = 0.16874 0.18461
# Poissons Ratio (z) = 0.18169 0.12885
#
# Static dielectric constant tensor:
#      x y z
#    x 1.883000 -0.070850 0.030720 
#    y -0.070850 1.794680 0.027880 
#    z 0.030720 0.027880 1.820340 
# 
# From -- ./inp_files/485952.got.cif
#   From: 2010.05.17/outbox.ucp.g08.bks.cvg/sg2_243_cif.got.tgz:485952.got - 2010.06.11 11:32:03.
