data_PCOD9073514
_publ_section_title
;
Structure prediction by ZEFSAII (Michael W. Deem and Ramdas Pophale) SiO2 
 PCOD9073514
Probable space group: P -1
;
_chemical_formula_sum "Si O2"
_cell_formula_units_Z 16
_cell_length_a 6.000000
_cell_length_b 18.000000
_cell_length_c 24.000000
_cell_angle_alpha 160.000000
_cell_angle_beta 110.000000
_cell_angle_gamma 80.000000
_cell_volume 739.811505
_symmetry_space_group_name_H-M "P -1"
_symmetry_group_IT_number 2
_symmetry_cell_setting 'triclinic'
loop_
_space_group_symop_operation_xyz
x,y,z
-x,-y,-z
loop_
_atom_site_type_symbol
_atom_site_label
_atom_site_fract_x
_atom_site_fract_y
_atom_site_fract_z
Si Si1 0.426577 0.582235 0.802226
Si Si2 0.063396 0.985888 0.907305
Si Si3 0.915311 0.593483 0.711387
Si Si4 0.513120 0.915801 0.532299
Si Si5 0.224187 0.233547 0.930320
Si Si6 0.560379 0.243685 0.875604
Si Si7 0.304511 0.127982 0.312615
Si Si8 0.904987 0.306353 0.752894
O O1 0.463583 0.332309 0.623338
O O2 0.133690 0.520632 0.707726
O O3 0.522154 0.668247 0.935403
O O4 0.646844 0.834697 0.969009
O O5 0.022536 0.742585 0.766754
O O6 0.823890 0.894637 0.776111
O O7 0.056199 0.186804 0.090519
O O8 0.597552 0.375505 0.523531
O O9 0.229992 0.819605 0.406649
O O10 0.533822 0.089677 0.708863
O O11 0.746602 0.093941 0.635019
O O12 0.287430 0.213373 0.857204
O O13 0.160921 0.463918 0.087317
O O14 0.974772 0.974373 0.746129
O O15 0.633984 0.095254 0.824631
O O16 0.774361 0.533166 0.098217
#
# Coordination Sequence:
#
# PCOD9073514 Si02
#       8
#     2   2   2   2   2   2   2   2
#     4  10  21  41  64  92 126 164 205 256 313 369
#     4  10  22  41  61  90 126 158 202 260 310 364
#     4  11  22  38  65  91 119 162 208 253 310 369
#     4  10  21  40  65  91 126 161 204 254 305 365
#     4   9  21  40  63  90 128 165 206 255 306 363
#     4  11  21  37  63  91 121 163 205 251 303 362
#     4  10  22  39  60  90 125 161 202 252 307 366
#     4   9  21  42  60  89 128 163 200 254 307 358
#
# _framework density 21.627130999999999
#
# number of rings (size 3 to 8) (size 9 to 14) (size 15 to 20)
#    0.000    2.000    0.000    3.375    0.000    4.500 
#    0.000   11.875    0.000   12.750    0.000    0.000 
#    0.000    0.000    0.000    0.000    0.000    0.000 
#
# Total GULP energy -89105.800092 kJ/mol
# GULP energy per Si atom -5569.112506 kJ/mol
# Density = 2.157791 g / cm^3
# Si number density = 21.627131 Si / 1000 Ang^3
#
#
#
# Elastic Constant Matrix: (Units=GPa)
#
#
# Indices 1 2 3 4 5 6 
#
# 1 52.1290 34.6199 50.3563 -17.9945 22.7151 9.2833
# 2 34.6199 98.5076 39.3135 -1.5405 12.1174 2.6541
# 3 50.3563 39.3135 159.5517 -2.7912 43.5321 8.2648
# 4 -17.9945 -1.5405 -2.7912 47.1514 1.8244 8.9710
# 5 22.7151 12.1174 43.5321 1.8244 40.8255 -2.3717
# 6 9.2833 2.6541 8.2648 8.9710 -2.3717 31.0415
#
#
#
# Elastic Compliance Matrix: (Units=1/GPa)
#
#
# Indices 1 2 3 4 5 6 
#
# 1 0.059867 -0.014154 -0.007020 0.027600 -0.024289 -0.024657
# 2 -0.014154 0.014621 -0.000917 -0.006205 0.005105 0.005411
# 3 -0.007020 -0.000917 0.010675 -0.001660 -0.007173 -0.000733
# 4 0.027600 -0.006205 -0.001660 0.035548 -0.014417 -0.018656
# 5 -0.024289 0.005105 -0.007173 -0.014417 0.045739 0.016398
# 6 -0.024657 0.005411 -0.000733 -0.018656 0.016398 0.045966
#
#
# Mechanical properties :
#
#
# Convention : Reuss Voigt Hill
#
# Bulk Modulus (GPa) = 24.40211 62.08528 43.24370
# Shear Modulus (GPa) = 18.50080 36.19693 27.34887
#
# Velocity S-wave (km/s) = 2.92797 4.09550 3.55993
# Velocity P-wave (km/s) = 4.76847 7.15078 6.07750
#
# Compressibility (1/GPa) = 0.04098006
#
# Stress axis : x y z
#
# Youngs Moduli (GPa) = 16.70379 68.39392 93.67550
#
# Poissons Ratio (x) = 0.96808 0.65759
# Poissons Ratio (y) = 0.23643 0.08591
# Poissons Ratio (z) = 0.11726 0.06272
#
# Static dielectric constant tensor:
#      x y z
#    x 1.944720 0.009820 0.010010 
#    y 0.009820 1.834610 -0.023750 
#    z 0.010010 -0.023750 1.760140 
# 
# From -- ./inp_files/605036.got.cif
#   From: 2010.05.17/outbox.ucp.g08.bks.cvg/sg2_303_cif.got.tgz:605036.got - 2010.06.11 11:32:03.
