data_PCOD9073807
_publ_section_title
;
Structure prediction by ZEFSAII (Michael W. Deem and Ramdas Pophale) SiO2 
 PCOD9073807
Probable space group: P -1
;
_chemical_formula_sum "Si O2"
_cell_formula_units_Z 16
_cell_length_a 19.001815
_cell_length_b 9.428094
_cell_length_c 12.237767
_cell_angle_alpha 127.294075
_cell_angle_beta 131.422486
_cell_angle_gamma 31.125774
_cell_volume 845.368491
_symmetry_space_group_name_H-M "P -1"
_symmetry_group_IT_number 2
_symmetry_cell_setting 'triclinic'
loop_
_space_group_symop_operation_xyz
x,y,z
-x,-y,-z
loop_
_atom_site_type_symbol
_atom_site_label
_atom_site_fract_x
_atom_site_fract_y
_atom_site_fract_z
Si Si1 0.143197 0.417270 0.389680
Si Si2 0.616779 0.366854 0.464156
Si Si3 0.089957 0.020117 0.666064
Si Si4 0.163597 0.652144 0.731339
Si Si5 0.584743 0.358737 0.193612
Si Si6 0.911557 0.788954 0.603031
Si Si7 0.501205 0.775638 0.132846
Si Si8 0.383522 0.211529 0.384155
O O1 0.174255 0.507183 0.566119
O O2 0.152456 0.207441 0.351425
O O3 0.242032 0.329187 0.348339
O O4 0.982803 0.691486 0.308946
O O5 0.500000 0.500000 0.500000
O O6 0.545082 0.385830 0.290267
O O7 0.631027 0.557637 0.544509
O O8 0.775329 0.058485 0.517798
O O9 0.096939 0.937872 0.757648
O O10 0.256223 0.788305 0.697469
O O11 0.000000 0.000000 0.500000
O O12 0.331813 0.435841 0.832967
O O13 0.041872 0.742700 0.726054
O O14 0.500243 0.628275 0.160623
O O15 0.584206 0.184161 0.037457
O O16 0.000000 0.500000 0.500000
O O17 0.434722 0.044215 0.247169
O O18 0.500000 0.000000 0.500000
#
# Coordination Sequence:
#
# PCOD9073807 Si02
#       8
#     2   2   2   2   2   2   2   2
#     4  10  18  31  57  82 114 149 201 251 296 347
#     4  12  24  37  62  94 126 154 205 262 307 355
#     4   9  16  31  57  86 109 152 199 252 288 353
#     4   9  16  31  54  83 115 149 202 238 301 357
#     4  10  20  38  58  92 121 154 209 245 303 367
#     4  10  21  34  57  90 120 155 202 257 301 355
#     4  10  21  35  62  89 120 165 194 253 303 369
#     4  12  20  37  59  90 123 156 205 251 310 358
#
# _framework density 18.926656000000001
#
# number of rings (size 3 to 8) (size 9 to 14) (size 15 to 20)
#    0.000    1.750    2.500    5.250    1.750    0.000 
#    0.000    1.250    0.000    0.750    0.000    0.000 
#    0.000    0.000    0.000    0.000    0.000    0.000 
#
# Total GULP energy -89075.030067 kJ/mol
# GULP energy per Si atom -5567.189379 kJ/mol
# Density = 1.888358 g / cm^3
# Si number density = 18.926656 Si / 1000 Ang^3
#
#
#
# Elastic Constant Matrix: (Units=GPa)
#
#
# Indices 1 2 3 4 5 6 
#
# 1 108.7331 30.4503 32.6286 -9.0946 -8.0374 10.3447
# 2 30.4503 91.4575 33.0521 5.7467 -6.4364 17.2719
# 3 32.6286 33.0521 93.5515 1.6089 -8.7561 -2.3191
# 4 -9.0946 5.7467 1.6089 13.5134 1.6920 4.0697
# 5 -8.0374 -6.4364 -8.7561 1.6920 16.8779 -0.6176
# 6 10.3447 17.2719 -2.3191 4.0697 -0.6176 26.7571
#
#
#
# Elastic Compliance Matrix: (Units=1/GPa)
#
#
# Indices 1 2 3 4 5 6 
#
# 1 0.012564 -0.002440 -0.003674 0.011292 0.001821 -0.005276
# 2 -0.002440 0.015523 -0.004504 -0.005457 0.002655 -0.008576
# 3 -0.003674 -0.004504 0.014236 -0.004757 0.004629 0.006392
# 4 0.011292 -0.005457 -0.004757 0.090153 -0.008765 -0.015170
# 5 0.001821 0.002655 0.004629 -0.008765 0.064438 0.000804
# 6 -0.005276 -0.008576 0.006392 -0.015170 0.000804 0.047829
#
#
# Mechanical properties :
#
#
# Convention : Reuss Voigt Hill
#
# Bulk Modulus (GPa) = 47.42407 54.00044 50.71226
# Shear Modulus (GPa) = 18.31448 24.60375 21.45911
#
# Velocity S-wave (km/s) = 3.11409 3.60940 3.37085
# Velocity P-wave (km/s) = 6.16776 6.77965 6.48093
#
# Compressibility (1/GPa) = 0.02108634
#
# Stress axis : x y z
#
# Youngs Moduli (GPa) = 79.59357 64.41889 70.24678
#
# Poissons Ratio (x) = 0.15719 0.25812
# Poissons Ratio (y) = 0.19422 0.31637
# Poissons Ratio (z) = 0.29246 0.29012
#
# Static dielectric constant tensor:
#      x y z
#    x 1.814750 -0.008960 0.005860 
#    y -0.008960 1.750880 0.024490 
#    z 0.005860 0.024490 1.697280 
# 
# From -- ./inp_files/470142.got.cif
#   From: 2010.05.17/outbox.cif.g08.bks.cpg/sg2_236_cif.got.tgz:470142.got - 2010.06.03 11:33:40.
