data_PCOD9073849
_publ_section_title
;
Structure prediction by ZEFSAII (Michael W. Deem and Ramdas Pophale) SiO2 
 PCOD9073849
Probable space group: P -1
;
_chemical_formula_sum "Si O2"
_cell_formula_units_Z 15
_cell_length_a 15.000000
_cell_length_b 15.000000
_cell_length_c 15.000000
_cell_angle_alpha 40.000000
_cell_angle_beta 160.000000
_cell_angle_gamma 140.000000
_cell_volume 725.414092
_symmetry_space_group_name_H-M "P -1"
_symmetry_group_IT_number 2
_symmetry_cell_setting 'triclinic'
loop_
_space_group_symop_operation_xyz
x,y,z
-x,-y,-z
loop_
_atom_site_type_symbol
_atom_site_label
_atom_site_fract_x
_atom_site_fract_y
_atom_site_fract_z
Si Si1 0.170605 0.836314 0.856653
Si Si2 0.000000 0.500000 0.500000
Si Si3 0.003347 0.831586 0.899238
Si Si4 0.498427 0.047984 0.606745
Si Si5 0.526223 0.234859 0.311126
Si Si6 0.781387 0.588084 0.012089
Si Si7 0.793152 0.601112 0.391751
Si Si8 0.716346 0.824017 0.294847
O O1 0.056693 0.786016 0.884528
O O2 0.937823 0.805149 0.589123
O O3 0.250842 0.007084 0.816860
O O4 0.422676 0.780360 0.096968
O O5 0.239345 0.635352 0.595336
O O6 0.160146 0.391750 0.675414
O O7 0.774562 0.923057 0.628589
O O8 0.913554 0.689352 0.980977
O O9 0.273846 0.916764 0.132427
O O10 0.565721 0.159029 0.501550
O O11 0.493458 0.892378 0.680766
O O12 0.273547 0.308391 0.038298
O O13 0.489985 0.503078 0.776170
O O14 0.963818 0.477840 0.294603
O O15 0.776153 0.740023 0.326913
#
# Coordination Sequence:
#
# PCOD9073849 Si02
#       8
#     2   1   2   2   2   2   2   2
#     4  10  22  41  65  89 119 155 209 259 307 356
#     4  10  22  38  62  90 126 160 212 238 302 370
#     4  11  21  39  64  91 117 161 206 262 296 370
#     4  10  22  37  62  89 128 161 212 251 317 350
#     4   9  21  39  58  91 126 170 203 260 299 373
#     4  10  22  40  59  86 128 160 197 250 314 353
#     4  11  23  41  62  88 125 167 196 250 306 376
#     4  10  22  42  62  88 123 159 197 260 314 356
#
# _framework density 20.677845000000001
#
# number of rings (size 3 to 8) (size 9 to 14) (size 15 to 20)
#    0.000    1.867    0.000    4.000    1.867    9.067 
#    2.400    4.000    0.000    0.000    0.000    0.000 
#    0.000    0.000    0.000    0.000    0.000    0.000 
#
# Total GULP energy -83528.750742 kJ/mol
# GULP energy per Si atom -5568.583383 kJ/mol
# Density = 2.063078 g / cm^3
# Si number density = 20.677845 Si / 1000 Ang^3
#
#
#
# Elastic Constant Matrix: (Units=GPa)
#
#
# Indices 1 2 3 4 5 6 
#
# 1 86.2920 22.2840 12.5254 -6.2194 7.8783 0.9288
# 2 22.2840 56.3704 35.3874 -0.7697 -1.4859 -9.5102
# 3 12.5254 35.3874 90.0455 -2.2782 35.2243 -1.3934
# 4 -6.2194 -0.7697 -2.2782 19.4091 -7.5869 10.3554
# 5 7.8783 -1.4859 35.2243 -7.5869 28.8780 -0.9268
# 6 0.9288 -9.5102 -1.3934 10.3554 -0.9268 39.2668
#
#
#
# Elastic Compliance Matrix: (Units=1/GPa)
#
#
# Indices 1 2 3 4 5 6 
#
# 1 0.015044 -0.012339 0.008569 0.001535 -0.014910 -0.003797
# 2 -0.012339 0.052933 -0.042780 0.011978 0.061735 0.009892
# 3 0.008569 -0.042780 0.057604 -0.021056 -0.080490 -0.004866
# 4 0.001535 0.011978 -0.021056 0.076945 0.045547 -0.017099
# 5 -0.014910 0.061735 -0.080490 0.045547 0.152147 0.004028
# 6 -0.003797 0.009892 -0.004866 -0.017099 0.004028 0.032384
#
#
# Mechanical properties :
#
#
# Convention : Reuss Voigt Hill
#
# Bulk Modulus (GPa) = 30.78629 41.45571 36.12100
# Shear Modulus (GPa) = 10.18365 28.34486 19.26425
#
# Velocity S-wave (km/s) = 2.22162 3.70643 3.05558
# Velocity P-wave (km/s) = 4.63699 6.19747 5.47313
#
# Compressibility (1/GPa) = 0.03248199
#
# Stress axis : x y z
#
# Youngs Moduli (GPa) = 66.47191 18.89179 17.35989
#
# Poissons Ratio (x) = 0.23311 -0.14876
# Poissons Ratio (y) = 0.82022 0.74265
# Poissons Ratio (z) = -0.56963 0.80818
#
# Static dielectric constant tensor:
#      x y z
#    x 1.902940 0.249870 -0.282030 
#    y 0.249870 2.280520 -0.468100 
#    z -0.282030 -0.468100 2.207920 
# 
# From -- ./inp_files/533572.got.cif
#   From: 2010.05.17/outbox.ucp.g08.bks.cvg/sg2_267_cif.got.tgz:533572.got - 2010.06.11 11:32:03.
