data_PCOD9073535
_publ_section_title
;
Structure prediction by ZEFSAII (Michael W. Deem and Ramdas Pophale) SiO2 
 PCOD9073535
Probable space group: P -1
;
_chemical_formula_sum "Si O2"
_cell_formula_units_Z 16
_cell_length_a 9.000000
_cell_length_b 18.000000
_cell_length_c 12.000000
_cell_angle_alpha 140.000000
_cell_angle_beta 80.000000
_cell_angle_gamma 130.000000
_cell_volume 729.599496
_symmetry_space_group_name_H-M "P -1"
_symmetry_group_IT_number 2
_symmetry_cell_setting 'triclinic'
loop_
_space_group_symop_operation_xyz
x,y,z
-x,-y,-z
loop_
_atom_site_type_symbol
_atom_site_label
_atom_site_fract_x
_atom_site_fract_y
_atom_site_fract_z
Si Si1 0.260383 0.072671 0.003425
Si Si2 0.580998 0.543037 0.219932
Si Si3 0.447442 0.099659 0.587404
Si Si4 0.904323 0.717795 0.165066
Si Si5 0.586484 0.363420 0.503540
Si Si6 0.789631 0.694157 0.730013
Si Si7 0.419632 0.694810 0.969020
Si Si8 0.134223 0.559548 0.246261
O O1 0.423365 0.202232 0.242730
O O2 0.167642 0.144093 0.057278
O O3 0.452660 0.157776 0.978767
O O4 0.030653 0.840799 0.783023
O O5 0.808404 0.660801 0.239805
O O6 0.590750 0.670924 0.428714
O O7 0.325882 0.376605 0.987416
O O8 0.554492 0.426942 0.180297
O O9 0.466973 0.190542 0.798333
O O10 0.664257 0.267404 0.666825
O O11 0.500000 0.000000 0.500000
O O12 0.173558 0.945778 0.389513
O O13 0.938117 0.610658 0.989132
O O14 0.789113 0.585238 0.687912
O O15 0.739314 0.371146 0.569953
O O16 0.500000 0.500000 0.500000
O O17 0.121672 0.529060 0.818369
#
# Coordination Sequence:
#
# PCOD9073535 Si02
#       8
#     2   2   2   2   2   2   2   2
#     4  10  22  40  65  99 126 170 220 258 319 391
#     4  10  21  40  66  96 130 167 209 276 321 378
#     4  12  24  42  66  94 129 177 212 262 327 390
#     4  10  22  42  62  95 133 165 215 264 330 384
#     4  10  22  42  66  93 132 171 210 269 326 376
#     4   9  19  40  62  90 131 166 207 265 316 366
#     4  12  23  42  67  94 130 170 217 266 318 392
#     4  11  24  44  65  93 132 173 212 268 327 379
#
# _framework density 21.929839999999999
#
# number of rings (size 3 to 8) (size 9 to 14) (size 15 to 20)
#    0.000    1.500    3.750    1.125    0.000    6.000 
#    6.750    0.625    0.000    0.000    0.000    0.000 
#    0.000    0.000    0.000    0.000    0.000    0.000 
#
# Total GULP energy -89291.662278 kJ/mol
# GULP energy per Si atom -5580.728892 kJ/mol
# Density = 2.187993 g / cm^3
# Si number density = 21.929840 Si / 1000 Ang^3
#
#
#
# Elastic Constant Matrix: (Units=GPa)
#
#
# Indices 1 2 3 4 5 6 
#
# 1 17.3721 -25.8623 48.5087 -42.3976 2.0265 16.2047
# 2 -25.8623 64.3928 102.0158 -70.1848 14.3801 45.5622
# 3 48.5087 102.0158 43.8318 74.6423 27.3623 -43.2125
# 4 -42.3976 -70.1848 74.6423 -74.5360 -10.1762 59.4291
# 5 2.0265 14.3801 27.3623 -10.1762 15.0415 14.4738
# 6 16.2047 45.5622 -43.2125 59.4291 14.4738 -20.7122
#
#
#
# Elastic Compliance Matrix: (Units=1/GPa)
#
#
# Indices 1 2 3 4 5 6 
#
# 1 0.059165 0.011482 -0.005458 0.008052 -0.063145 0.061910
# 2 0.011482 0.015154 -0.003000 -0.000668 -0.033441 0.023292
# 3 -0.005458 -0.003000 0.011127 0.007910 -0.000196 -0.011525
# 4 0.008052 -0.000668 0.007910 0.025751 -0.034249 0.038279
# 5 -0.063145 -0.033441 -0.000196 -0.034249 0.177370 -0.096879
# 6 0.061910 0.023292 -0.011525 0.038279 -0.096879 0.117570
#
#
# Mechanical properties :
#
#
# Convention : Reuss Voigt Hill
#
# Bulk Modulus (GPa) = 10.92984 41.65788 26.29386
# Shear Modulus (GPa) = 11.61204 -15.97903 -2.18350
#
# Velocity S-wave (km/s) = 2.30360 -2.70227 -0.99892
# Velocity P-wave (km/s) = 3.47423 3.04973 3.26888
#
# Compressibility (1/GPa) = 0.09149267
#
# Stress axis : x y z
#
# Youngs Moduli (GPa) = 16.90196 65.99015 89.86996
#
# Poissons Ratio (x) = -0.75768 0.49052
# Poissons Ratio (y) = -0.19406 0.26962
# Poissons Ratio (z) = 0.09225 0.19798
#
# Static dielectric constant tensor:
#      x y z
#    x 1.862590 0.028210 -0.000690 
#    y 0.028210 1.910540 -0.019490 
#    z -0.000690 -0.019490 1.749250 
# 
# From -- ./inp_files/403379.got.cif
#   From: 2010.05.17/outbox.ucp.g08.bks.cvg/sg2_202_cif.got.tgz:403379.got - 2010.06.11 11:32:03.
