data_PCOD9073867
_publ_section_title
;
Structure prediction by ZEFSAII (Michael W. Deem and Ramdas Pophale) SiO2 
 PCOD9073867
Probable space group: P -1
;
_chemical_formula_sum "Si O2"
_cell_formula_units_Z 12
_cell_length_a 8.510759
_cell_length_b 17.627401
_cell_length_c 13.483305
_cell_angle_alpha 23.836470
_cell_angle_beta 30.248031
_cell_angle_gamma 38.647534
_cell_volume 411.377898
_symmetry_space_group_name_H-M "P -1"
_symmetry_group_IT_number 2
_symmetry_cell_setting 'triclinic'
loop_
_space_group_symop_operation_xyz
x,y,z
-x,-y,-z
loop_
_atom_site_type_symbol
_atom_site_label
_atom_site_fract_x
_atom_site_fract_y
_atom_site_fract_z
Si Si1 0.276568 0.097838 0.630662
Si Si2 0.402621 0.403507 0.344494
Si Si3 0.778417 0.853864 0.735781
Si Si4 0.340672 0.798363 0.356983
Si Si5 0.859490 0.234818 0.014938
Si Si6 0.096326 0.443746 0.824479
O O1 0.465390 0.955685 0.765578
O O2 0.203881 0.267975 0.538907
O O3 0.051931 0.953534 0.865485
O O4 0.539522 0.178303 0.315194
O O5 0.485542 0.300070 0.525684
O O6 0.238231 0.600624 0.202058
O O7 0.736830 0.443807 0.058927
O O8 0.989795 0.821340 0.563944
O O9 0.000000 0.000000 0.500000
O O10 0.741658 0.668957 0.041494
O O11 0.263049 0.649250 0.489188
O O12 0.500000 0.000000 0.000000
O O13 0.076753 0.324844 0.875875
#
# Coordination Sequence:
#
# PCOD9073867 Si02
#       6
#     2   2   2   2   2   2
#     4  10  18  31  58  90 116 140 192 245 282 334
#     4  10  19  36  59  85 114 150 193 236 289 340
#     4  11  18  36  61  88 110 144 196 240 279 335
#     4  11  23  38  58  83 115 155 193 237 291 341
#     4  10  19  31  55  91 117 143 188 243 289 335
#     4  10  19  34  57  85 114 146 192 236 283 340
#
# _framework density 29.170258
#
# number of rings (size 3 to 8) (size 9 to 14) (size 15 to 20)
#    0.000    1.667    5.000    6.000    0.000    1.333 
#    0.000    1.667    0.000    2.000    0.000    0.000 
#    0.000    0.000    0.000    0.000    0.000    0.000 
#
# Total GULP energy -67361.917936 kJ/mol
# GULP energy per Si atom -5613.493161 kJ/mol
# Density = 2.910387 g / cm^3
# Si number density = 29.170258 Si / 1000 Ang^3
#
#
#
# Elastic Constant Matrix: (Units=GPa)
#
#
# Indices 1 2 3 4 5 6 
#
# 1 172.3794 35.6098 78.1815 -31.7772 -35.4768 10.9785
# 2 35.6098 75.5853 76.4696 -26.1474 -10.0658 36.0788
# 3 78.1815 76.4696 208.1335 -27.6023 -30.4298 29.1633
# 4 -31.7772 -26.1474 -27.6023 74.5520 7.9659 -3.4181
# 5 -35.4768 -10.0658 -30.4298 7.9659 57.3714 -23.6652
# 6 10.9785 36.0788 29.1633 -3.4181 -23.6652 52.4077
#
#
#
# Elastic Compliance Matrix: (Units=1/GPa)
#
#
# Indices 1 2 3 4 5 6 
#
# 1 0.008163 -0.002463 -0.001692 0.001622 0.004816 0.003208
# 2 -0.002463 0.037620 -0.010021 0.008543 -0.011507 -0.024445
# 3 -0.001692 -0.010021 0.008972 -0.001132 0.003704 0.003859
# 4 0.001622 0.008543 -0.001132 0.016716 -0.002797 -0.005764
# 5 0.004816 -0.011507 0.003704 -0.002797 0.027858 0.017249
# 6 0.003208 -0.024445 0.003859 -0.005764 0.017249 0.040504
#
#
# Mechanical properties :
#
#
# Convention : Reuss Voigt Hill
#
# Bulk Modulus (GPa) = 37.87271 92.95777 65.41524
# Shear Modulus (GPa) = 28.25104 54.58871 41.41987
#
# Velocity S-wave (km/s) = 3.11543 4.33064 3.77229
# Velocity P-wave (km/s) = 5.09438 7.54602 6.43798
#
# Compressibility (1/GPa) = 0.02640424
#
# Stress axis : x y z
#
# Youngs Moduli (GPa) = 122.50256 26.58192 111.45379
#
# Poissons Ratio (x) = 0.06547 0.18853
# Poissons Ratio (y) = 0.30174 1.11684
# Poissons Ratio (z) = 0.20722 0.26637
#
# Static dielectric constant tensor:
#      x y z
#    x 2.285920 -0.058430 -0.017350 
#    y -0.058430 2.406810 0.064040 
#    z -0.017350 0.064040 2.256020 
# 
# From -- ./inp_files/507790.got.cif
#   From: 2010.05.17/outbox.cif.g08.bks.cpg/sg2_254_cif.got.tgz:507790.got - 2010.06.03 11:33:40.
