data_PCOD9073580
_publ_section_title
;
Structure prediction by ZEFSAII (Michael W. Deem and Ramdas Pophale) SiO2 
 PCOD9073580
Probable space group: P -1
;
_chemical_formula_sum "Si O2"
_cell_formula_units_Z 13
_cell_length_a 12.000000
_cell_length_b 15.000000
_cell_length_c 15.000000
_cell_angle_alpha 160.000000
_cell_angle_beta 60.000000
_cell_angle_gamma 130.000000
_cell_volume 649.262375
_symmetry_space_group_name_H-M "P -1"
_symmetry_group_IT_number 2
_symmetry_cell_setting 'triclinic'
loop_
_space_group_symop_operation_xyz
x,y,z
-x,-y,-z
loop_
_atom_site_type_symbol
_atom_site_label
_atom_site_fract_x
_atom_site_fract_y
_atom_site_fract_z
Si Si1 0.957247 0.774183 0.097431
Si Si2 0.381203 0.661798 0.613385
Si Si3 0.351640 0.227007 0.624283
Si Si4 0.000000 0.000000 0.500000
Si Si5 0.292377 0.002383 0.098934
Si Si6 0.228916 0.933262 0.580187
Si Si7 0.442105 0.021421 0.747781
O O1 0.966696 0.827936 0.251132
O O2 0.901295 0.988792 0.280679
O O3 0.843618 0.408041 0.761606
O O4 0.129593 0.882470 0.098735
O O5 0.331113 0.300573 0.301976
O O6 0.565776 0.872565 0.769041
O O7 0.362090 0.783913 0.641520
O O8 0.291077 0.736481 0.791860
O O9 0.338843 0.198172 0.709972
O O10 0.429838 0.044781 0.395282
O O11 0.465227 0.605260 0.910433
O O12 0.178003 0.067847 0.501152
O O13 0.322395 0.955207 0.652398
#
# Coordination Sequence:
#
# PCOD9073580 Si02
#       7
#     2   2   2   1   2   2   2
#     4  11  23  41  64  88 126 161 198 258 307 359
#     4  10  22  38  63  90 119 156 209 253 296 369
#     4  11  23  38  63  90 126 160 199 256 304 358
#     4  10  24  40  62  96 118 152 206 244 308 372
#     4  10  21  41  62  90 121 156 199 258 316 343
#     4  11  24  41  60  91 126 165 206 243 301 371
#     4  12  23  41  63  90 123 168 207 246 297 363
#
# _framework density 20.022722000000002
#
# number of rings (size 3 to 8) (size 9 to 14) (size 15 to 20)
#    0.000    1.231    0.000    6.462    0.000   10.462 
#    0.000    4.615    0.000    0.000    0.000    0.000 
#    0.000    0.000    0.000    0.000    0.000    0.000 
#
# Total GULP energy -72373.565766 kJ/mol
# GULP energy per Si atom -5567.197367 kJ/mol
# Density = 1.997715 g / cm^3
# Si number density = 20.022722 Si / 1000 Ang^3
#
#
#
# Elastic Constant Matrix: (Units=GPa)
#
#
# Indices 1 2 3 4 5 6 
#
# 1 154.9703 26.6727 55.1395 -15.4854 -4.9856 -3.3175
# 2 26.6727 53.5144 -1.1627 -7.8744 -0.8158 6.6933
# 3 55.1395 -1.1627 93.5604 -3.6514 -12.7537 -1.2254
# 4 -15.4854 -7.8744 -3.6514 26.4922 2.6950 -14.8464
# 5 -4.9856 -0.8158 -12.7537 2.6950 37.4047 -10.9380
# 6 -3.3175 6.6933 -1.2254 -14.8464 -10.9380 50.0577
#
#
#
# Elastic Compliance Matrix: (Units=1/GPa)
#
#
# Indices 1 2 3 4 5 6 
#
# 1 0.009801 -0.004589 -0.005649 0.005049 -0.000338 0.002548
# 2 -0.004589 0.021755 0.003064 0.002937 0.000036 -0.002259
# 3 -0.005649 0.003064 0.014644 -0.000622 0.004458 0.000364
# 4 0.005049 0.002937 -0.000622 0.049739 0.001318 0.014966
# 5 -0.000338 0.000036 0.004458 0.001318 0.030182 0.007068
# 6 0.002548 -0.002259 0.000364 0.014966 0.007068 0.026440
#
#
# Mechanical properties :
#
#
# Convention : Reuss Voigt Hill
#
# Bulk Modulus (GPa) = 31.39305 51.48269 41.43787
# Shear Modulus (GPa) = 28.16522 37.55063 32.85793
#
# Velocity S-wave (km/s) = 3.75462 4.33529 4.05536
# Velocity P-wave (km/s) = 5.87443 7.12935 6.53210
#
# Compressibility (1/GPa) = 0.03185418
#
# Stress axis : x y z
#
# Youngs Moduli (GPa) = 102.03447 45.96552 68.28914
#
# Poissons Ratio (x) = 0.21091 0.38574
# Poissons Ratio (y) = 0.46819 -0.20927
# Poissons Ratio (z) = 0.57636 -0.14086
#
# Static dielectric constant tensor:
#      x y z
#    x 1.671280 0.013610 -0.003130 
#    y 0.013610 1.763400 0.015750 
#    z -0.003130 0.015750 1.713240 
# 
# From -- ./inp_files/127060.got.cif
#   From: 2010.05.17/outbox.ucp.g08.bks.cvg/sg2_64_cif.got.tgz:127060.got - 2010.06.11 11:32:03.
