data_PCOD9073901
_publ_section_title
;
Structure prediction by ZEFSAII (Michael W. Deem and Ramdas Pophale) SiO2 
 PCOD9073901
Probable space group: P -1
;
_chemical_formula_sum "Si O2"
_cell_formula_units_Z 16
_cell_length_a 6.913115
_cell_length_b 16.491690
_cell_length_c 7.787984
_cell_angle_alpha 43.569236
_cell_angle_beta 88.038839
_cell_angle_gamma 83.736784
_cell_volume 607.011800
_symmetry_space_group_name_H-M "P -1"
_symmetry_group_IT_number 2
_symmetry_cell_setting 'triclinic'
loop_
_space_group_symop_operation_xyz
x,y,z
-x,-y,-z
loop_
_atom_site_type_symbol
_atom_site_label
_atom_site_fract_x
_atom_site_fract_y
_atom_site_fract_z
Si Si1 0.681497 0.265262 0.741266
Si Si2 0.020723 0.977494 0.335549
Si Si3 0.166854 0.114361 0.739811
Si Si4 0.605356 0.135093 0.608742
Si Si5 0.257359 0.462214 0.740360
Si Si6 0.229349 0.312645 0.656839
Si Si7 0.269998 0.493769 0.068218
Si Si8 0.338175 0.699553 0.953421
O O1 0.700802 0.209271 0.637653
O O2 0.726829 0.401408 0.514703
O O3 0.448147 0.257855 0.781593
O O4 0.759351 0.233268 0.980772
O O5 0.951931 0.847699 0.491995
O O6 0.240614 0.978874 0.264639
O O7 0.883180 0.018246 0.113190
O O8 0.000000 0.000000 0.500000
O O9 0.396235 0.107635 0.716318
O O10 0.115408 0.207213 0.751544
O O11 0.585266 0.208855 0.320915
O O12 0.157815 0.393129 0.698481
O O13 0.477235 0.393352 0.849508
O O14 0.177327 0.467376 0.928999
O O15 0.252502 0.393061 0.364523
O O16 0.211123 0.617242 0.976425
O O17 0.500000 0.500000 0.000000
#
# Coordination Sequence:
#
# PCOD9073901 Si02
#       8
#     2   2   2   2   2   2   2   2
#     4  10  16  28  52  90 134 171 210 250 303 372
#     4  11  27  49  71  91 127 166 212 283 346 383
#     4  10  24  45  70  98 124 167 218 273 326 389
#     4  11  23  40  68 103 128 166 218 268 318 389
#     4  10  15  25  47  86 135 174 203 245 302 369
#     4  10  17  29  53  89 126 166 212 253 305 377
#     4  10  14  22  43  80 129 167 203 247 293 362
#     4  10  17  26  51  94 135 169 211 252 302 376
#
# _framework density 26.358630999999999
#
# number of rings (size 3 to 8) (size 9 to 14) (size 15 to 20)
#    0.000    1.750    5.000    3.375    0.000    6.500 
#    0.000    0.000    0.000    1.500    0.000    0.000 
#    0.000    0.000    0.000    0.000    0.000    0.125 
#
# Total GULP energy -89081.152317 kJ/mol
# GULP energy per Si atom -5567.572020 kJ/mol
# Density = 2.629864 g / cm^3
# Si number density = 26.358631 Si / 1000 Ang^3
#
#
#
# Elastic Constant Matrix: (Units=GPa)
#
#
# Indices 1 2 3 4 5 6 
#
# 1 84.1181 37.9471 6.3142 11.9515 -2.6730 20.6961
# 2 37.9471 202.9196 57.6009 72.6255 -2.8954 34.3258
# 3 6.3142 57.6009 112.7137 29.2928 5.1653 7.6945
# 4 11.9515 72.6255 29.2928 66.3099 0.3537 0.8873
# 5 -2.6730 -2.8954 5.1653 0.3537 13.7837 8.1038
# 6 20.6961 34.3258 7.6945 0.8873 8.1038 33.3585
#
#
#
# Elastic Compliance Matrix: (Units=1/GPa)
#
#
# Indices 1 2 3 4 5 6 
#
# 1 0.015591 0.000593 0.000086 -0.003384 0.010742 -0.012823
# 2 0.000593 0.013469 -0.002945 -0.013411 0.014172 -0.016634
# 3 0.000086 -0.002945 0.010926 -0.001611 -0.005773 0.001902
# 4 -0.003384 -0.013411 -0.001611 0.030915 -0.014869 0.019060
# 5 0.010742 0.014172 -0.005773 -0.014869 0.106899 -0.045489
# 6 -0.012823 -0.016634 0.001902 0.019060 -0.045489 0.065154
#
#
# Mechanical properties :
#
#
# Convention : Reuss Voigt Hill
#
# Bulk Modulus (GPa) = 28.20569 67.05285 47.62927
# Shear Modulus (GPa) = 19.28255 42.54970 30.91612
#
# Velocity S-wave (km/s) = 2.70764 4.02214 3.42848
# Velocity P-wave (km/s) = 4.52759 6.86033 5.81219
#
# Compressibility (1/GPa) = 0.03545383
#
# Stress axis : x y z
#
# Youngs Moduli (GPa) = 64.14037 74.24545 91.52790
#
# Poissons Ratio (x) = -0.04406 -0.00785
# Poissons Ratio (y) = -0.03806 0.26954
# Poissons Ratio (z) = -0.00550 0.21865
#
# Static dielectric constant tensor:
#      x y z
#    x 2.179080 -0.125080 0.021640 
#    y -0.125080 2.134140 -0.043040 
#    z 0.021640 -0.043040 2.134500 
# 
# From -- ./inp_files/196161.got.cif
#   From: 2010.05.17/outbox.cif.g08.bks.cpg/sg2_99_cif.got.tgz:196161.got - 2010.06.03 11:33:40.
