data_PCOD9073228
_publ_section_title
;
Structure prediction by ZEFSAII (Michael W. Deem and Ramdas Pophale) SiO2 
 PCOD9073228
Probable space group: P -1
;
_chemical_formula_sum "Si O2"
_cell_formula_units_Z 16
_cell_length_a 12.000000
_cell_length_b 9.000000
_cell_length_c 9.000000
_cell_angle_alpha 110.000000
_cell_angle_beta 110.000000
_cell_angle_gamma 110.000000
_cell_volume 733.231569
_symmetry_space_group_name_H-M "P -1"
_symmetry_group_IT_number 2
_symmetry_cell_setting 'triclinic'
loop_
_space_group_symop_operation_xyz
x,y,z
-x,-y,-z
loop_
_atom_site_type_symbol
_atom_site_label
_atom_site_fract_x
_atom_site_fract_y
_atom_site_fract_z
Si Si1 0.377399 0.187316 0.070328
Si Si2 0.909533 0.357733 0.221829
Si Si3 0.798859 0.401695 0.498902
Si Si4 0.614264 0.982362 0.286642
Si Si5 0.939801 0.999590 0.136708
Si Si6 0.676020 0.117231 0.813345
Si Si7 0.202575 0.029192 0.416475
Si Si8 0.605205 0.549060 0.431422
O O1 0.505779 0.396426 0.213421
O O2 0.365573 0.062926 0.164544
O O3 0.409589 0.095258 0.915927
O O4 0.223613 0.160133 0.978997
O O5 0.851195 0.405144 0.356370
O O6 0.932771 0.186537 0.210857
O O7 0.063710 0.527438 0.315724
O O8 0.794308 0.289817 0.019277
O O9 0.733379 0.527271 0.527580
O O10 0.671048 0.197991 0.395770
O O11 0.465935 0.880757 0.269870
O O12 0.752308 0.982436 0.401032
O O13 0.050708 0.991679 0.294788
O O14 0.000000 0.000000 0.000000
O O15 0.752725 0.094324 0.699717
O O16 0.319877 0.239188 0.504496
O O17 0.500000 0.500000 0.500000
#
# Coordination Sequence:
#
# PCOD9073228 Si02
#       8
#     2   2   2   2   2   2   2   2
#     4  11  22  38  66  88 119 164 210 245 302 364
#     4  10  21  36  67  89 113 159 219 245 284 359
#     4  11  21  38  61  95 119 158 210 251 293 367
#     4  12  24  41  60  94 129 157 197 258 325 359
#     4  11  19  40  65  90 118 160 210 250 296 367
#     4  11  20  41  64  88 119 167 208 243 303 375
#     4  12  25  39  63  94 127 158 196 265 314 355
#     4  12  22  38  64  94 118 161 216 251 290 365
#
# _framework density 21.821210000000001
#
# number of rings (size 3 to 8) (size 9 to 14) (size 15 to 20)
#    0.000    0.750    8.750    1.500    0.000    1.000 
#    0.000    1.875    0.000    0.000    0.000    0.000 
#    0.000    0.000    0.000    0.000    0.000    0.000 
#
# Total GULP energy -89306.303804 kJ/mol
# GULP energy per Si atom -5581.643988 kJ/mol
# Density = 2.177154 g / cm^3
# Si number density = 21.821210 Si / 1000 Ang^3
#
#
#
# Elastic Constant Matrix: (Units=GPa)
#
#
# Indices 1 2 3 4 5 6 
#
# 1 104.4534 -1.3966 3.6937 -2.7890 33.8629 -6.2317
# 2 -1.3966 5.4343 13.8431 5.8906 -1.3542 1.7553
# 3 3.6937 13.8431 70.8988 10.7745 35.7612 0.5343
# 4 -2.7890 5.8906 10.7745 27.3090 7.5330 13.5433
# 5 33.8629 -1.3542 35.7612 7.5330 51.4350 8.0797
# 6 -6.2317 1.7553 0.5343 13.5433 8.0797 22.9150
#
#
#
# Elastic Compliance Matrix: (Units=1/GPa)
#
#
# Indices 1 2 3 4 5 6 
#
# 1 0.002847 0.104172 -0.031553 -0.012934 0.025953 -0.007976
# 2 0.104172 -0.850847 0.326061 0.083187 -0.355319 0.162019
# 3 -0.031553 0.326061 -0.096147 -0.044071 0.109556 -0.043897
# 4 -0.012934 0.083187 -0.044071 0.049300 0.042447 -0.052966
# 5 0.025953 -0.355319 0.109556 0.042447 -0.095732 0.040389
# 6 -0.007976 0.162019 -0.043897 -0.052966 0.040389 0.047146
#
#
# Mechanical properties :
#
#
# Convention : Reuss Voigt Hill
#
# Bulk Modulus (GPa) = -6.81255 23.67409 8.43077
# Shear Modulus (GPa) = -2.79373 31.30823 14.25725
#
# Velocity S-wave (km/s) = -1.13272 3.79193 2.55888
# Velocity P-wave (km/s) = 2.19989 5.48127 3.54999
#
# Compressibility (1/GPa) = -0.14678790
#
# Stress axis : x y z
#
# Youngs Moduli (GPa) = 351.22238 -1.17530 -10.40075
#
# Poissons Ratio (x) = 0.12243 -0.32818
# Poissons Ratio (y) = -36.58747 3.39128
# Poissons Ratio (z) = 11.08219 0.38322
#
# Static dielectric constant tensor:
#      x y z
#    x 1.784880 -0.087620 -0.013360 
#    y -0.087620 1.955040 -0.024910 
#    z -0.013360 -0.024910 1.743830 
# 
# From -- ./inp_files/245149.got.cif
#   From: 2010.05.17/outbox.ucp.g08.bks.cvg/sg2_123_cif.got.tgz:245149.got - 2010.06.11 11:32:03.
