data_PCOD9073596
_publ_section_title
;
Structure prediction by ZEFSAII (Michael W. Deem and Ramdas Pophale) SiO2 
 PCOD9073596
Probable space group: P -1
;
_chemical_formula_sum "Si O2"
_cell_formula_units_Z 14
_cell_length_a 6.000000
_cell_length_b 15.000000
_cell_length_c 12.000000
_cell_angle_alpha 50.000000
_cell_angle_beta 60.000000
_cell_angle_gamma 90.000000
_cell_volume 626.794717
_symmetry_space_group_name_H-M "P -1"
_symmetry_group_IT_number 2
_symmetry_cell_setting 'triclinic'
loop_
_space_group_symop_operation_xyz
x,y,z
-x,-y,-z
loop_
_atom_site_type_symbol
_atom_site_label
_atom_site_fract_x
_atom_site_fract_y
_atom_site_fract_z
Si Si1 0.649123 0.459847 0.676332
Si Si2 0.314689 0.030044 0.846831
Si Si3 0.756716 0.337919 0.537781
Si Si4 0.741696 0.430947 0.213500
Si Si5 0.136106 0.946713 0.711419
Si Si6 0.526276 0.203454 0.022368
Si Si7 0.523202 0.811077 0.688444
O O1 0.609960 0.406645 0.600242
O O2 0.382848 0.471141 0.792810
O O3 0.929556 0.602247 0.524377
O O4 0.710947 0.351072 0.810915
O O5 0.559555 0.176447 0.711693
O O6 0.297805 0.025984 0.719213
O O7 0.372699 0.904067 0.952154
O O8 0.000000 0.000000 0.000000
O O9 0.801572 0.384229 0.358264
O O10 0.522946 0.303274 0.295453
O O11 0.000000 0.500000 0.000000
O O12 0.279058 0.860491 0.695666
O O13 0.799938 0.852069 0.899962
O O14 0.174313 0.058359 0.523667
O O15 0.501080 0.217464 0.150911
#
# Coordination Sequence:
#
# PCOD9073596 Si02
#       7
#     2   2   2   2   2   2   2
#     4  11  27  46  69 102 142 184 234 281 350 415
#     4  11  25  43  72 101 135 179 234 286 346 410
#     4  11  26  48  70  99 138 187 233 290 342 415
#     4  12  25  44  72 101 141 186 232 286 343 416
#     4  10  21  41  64  99 136 174 222 280 342 400
#     4  11  24  43  68 102 137 177 222 285 343 413
#     4  10  22  39  65 100 133 176 223 276 342 402
#
# _framework density 22.335861999999999
#
# number of rings (size 3 to 8) (size 9 to 14) (size 15 to 20)
#    0.000    1.143    1.429    3.429    2.000   11.429 
#    0.000    0.000    0.000    0.000    0.000    0.000 
#    0.000    0.000    0.000    0.000    0.000    0.000 
#
# Total GULP energy -78150.654852 kJ/mol
# GULP energy per Si atom -5582.189632 kJ/mol
# Density = 2.228502 g / cm^3
# Si number density = 22.335862 Si / 1000 Ang^3
#
#
#
# Elastic Constant Matrix: (Units=GPa)
#
#
# Indices 1 2 3 4 5 6 
#
# 1 28.7162 31.2287 9.5137 -4.5095 1.0609 4.7095
# 2 31.2287 194.0534 33.9752 12.8733 -2.0272 6.3793
# 3 9.5137 33.9752 95.5842 6.2056 4.8917 2.3765
# 4 -4.5095 12.8733 6.2056 51.5639 6.0345 -5.3607
# 5 1.0609 -2.0272 4.8917 6.0345 34.6076 5.8548
# 6 4.7095 6.3793 2.3765 -5.3607 5.8548 47.1585
#
#
#
# Elastic Compliance Matrix: (Units=1/GPa)
#
#
# Indices 1 2 3 4 5 6 
#
# 1 0.044731 -0.007163 -0.002123 0.005948 -0.002113 -0.002453
# 2 -0.007163 0.006773 -0.001598 -0.002340 0.001344 -0.000553
# 3 -0.002123 -0.001598 0.011382 -0.000995 -0.001451 -0.000078
# 4 0.005948 -0.002340 -0.000995 0.021416 -0.004378 0.002751
# 5 -0.002113 0.001344 -0.001451 -0.004378 0.030720 -0.004209
# 6 -0.002453 -0.000553 -0.000078 0.002751 -0.004209 0.022364
#
#
# Mechanical properties :
#
#
# Convention : Reuss Voigt Hill
#
# Bulk Modulus (GPa) = 24.31993 51.97656 38.14825
# Shear Modulus (GPa) = 28.92538 42.90840 35.91689
#
# Velocity S-wave (km/s) = 3.60254 4.38774 4.01438
# Velocity P-wave (km/s) = 5.31191 6.99933 6.21317
#
# Compressibility (1/GPa) = 0.04111853
#
# Stress axis : x y z
#
# Youngs Moduli (GPa) = 22.35601 147.64349 87.85815
#
# Poissons Ratio (x) = 1.05753 0.18654
# Poissons Ratio (y) = 0.16013 0.14037
# Poissons Ratio (z) = 0.04747 0.23588
#
# Static dielectric constant tensor:
#      x y z
#    x 1.872370 -0.011540 0.002190 
#    y -0.011540 1.766050 -0.011500 
#    z 0.002190 -0.011500 1.905690 
# 
# From -- ./inp_files/68264.got.cif
#   From: 2010.05.17/outbox.ucp.g08.bks.cvg/sg2_35_cif.got.tgz:68264.got - 2010.06.11 11:32:03.
