data_PCOD9073471
_publ_section_title
;
Structure prediction by ZEFSAII (Michael W. Deem and Ramdas Pophale) SiO2 
 PCOD9073471
Probable space group: P -1
;
_chemical_formula_sum "Si O2"
_cell_formula_units_Z 14
_cell_length_a 15.000000
_cell_length_b 12.000000
_cell_length_c 21.000000
_cell_angle_alpha 150.000000
_cell_angle_beta 160.000000
_cell_angle_gamma 30.000000
_cell_volume 615.533390
_symmetry_space_group_name_H-M "P -1"
_symmetry_group_IT_number 2
_symmetry_cell_setting 'triclinic'
loop_
_space_group_symop_operation_xyz
x,y,z
-x,-y,-z
loop_
_atom_site_type_symbol
_atom_site_label
_atom_site_fract_x
_atom_site_fract_y
_atom_site_fract_z
Si Si1 0.234962 0.683558 0.528297
Si Si2 0.880379 0.089000 0.566978
Si Si3 0.411101 0.486706 0.830486
Si Si4 0.945370 0.326268 0.191559
Si Si5 0.571473 0.997532 0.436774
Si Si6 0.752890 0.396668 0.799644
Si Si7 0.625735 0.747351 0.996187
O O1 0.252820 0.828921 0.549987
O O2 0.528555 0.508462 0.651229
O O3 0.026797 0.534246 0.313482
O O4 0.120251 0.852316 0.594126
O O5 0.673130 0.048456 0.459457
O O6 0.056296 0.262267 0.787171
O O7 0.179607 0.600548 0.785147
O O8 0.345731 0.284451 0.643771
O O9 0.482885 0.689140 0.936161
O O10 0.680545 0.326512 0.971795
O O11 0.241894 0.120330 0.288503
O O12 0.750265 0.127319 0.663990
O O13 0.631412 0.527905 0.847487
O O14 0.000000 0.500000 0.000000
O O15 0.500000 0.000000 0.000000
#
# Coordination Sequence:
#
# PCOD9073471 Si02
#       7
#     2   2   2   2   2   2   2
#     4  10  21  39  69 105 135 183 238 287 348 424
#     4  11  21  41  72 100 138 183 238 295 348 409
#     4  11  24  46  70 100 150 186 233 292 359 420
#     4  10  22  42  71 110 135 186 237 291 354 423
#     4  11  24  43  70 104 144 183 237 293 353 423
#     4  11  24  42  66 104 146 177 240 288 352 428
#     4  12  25  46  70 101 139 195 236 290 357 423
#
# _framework density 22.744501
#
# number of rings (size 3 to 8) (size 9 to 14) (size 15 to 20)
#    0.000    1.143    5.714    0.429    0.000    4.000 
#    2.571    6.429    0.000    0.000    0.000    0.000 
#    0.000    0.000    0.000    0.000    0.000    0.000 
#
# Total GULP energy -78031.049499 kJ/mol
# GULP energy per Si atom -5573.646393 kJ/mol
# Density = 2.269273 g / cm^3
# Si number density = 22.744501 Si / 1000 Ang^3
#
#
#
# Elastic Constant Matrix: (Units=GPa)
#
#
# Indices 1 2 3 4 5 6 
#
# 1 133.6275 43.0942 20.7837 -3.3616 37.4037 -11.5685
# 2 43.0942 71.1431 28.1298 17.3973 7.2741 -10.0869
# 3 20.7837 28.1298 96.7514 9.9122 15.5988 -9.1291
# 4 -3.3616 17.3973 9.9122 35.3394 -8.4121 2.7139
# 5 37.4037 7.2741 15.5988 -8.4121 37.6963 10.6041
# 6 -11.5685 -10.0869 -9.1291 2.7139 10.6041 22.5481
#
#
#
# Elastic Compliance Matrix: (Units=1/GPa)
#
#
# Indices 1 2 3 4 5 6 
#
# 1 0.016890 -0.005761 0.004060 -0.003795 -0.023601 0.019289
# 2 -0.005761 0.023440 -0.002898 -0.012723 -0.003073 0.009333
# 3 0.004060 -0.002898 0.014958 -0.007221 -0.015490 0.014997
# 4 -0.003795 -0.012723 -0.007221 0.044950 0.027352 -0.028836
# 5 -0.023601 -0.003073 -0.015490 0.027352 0.080136 -0.060734
# 6 0.019289 0.009333 0.014997 -0.028836 -0.060734 0.096526
#
#
# Mechanical properties :
#
#
# Convention : Reuss Voigt Hill
#
# Bulk Modulus (GPa) = 21.69562 53.94861 37.82212
# Shear Modulus (GPa) = 16.58588 33.08437 24.83512
#
# Velocity S-wave (km/s) = 2.70335 3.81807 3.30800
# Velocity P-wave (km/s) = 4.39359 6.57326 5.59068
#
# Compressibility (1/GPa) = 0.04609224
#
# Stress axis : x y z
#
# Youngs Moduli (GPa) = 59.20624 42.66189 66.85227
#
# Poissons Ratio (x) = 0.24575 -0.27145
# Poissons Ratio (y) = 0.34106 0.19374
# Poissons Ratio (z) = -0.24040 0.12364
#
# Static dielectric constant tensor:
#      x y z
#    x 1.866530 -0.013290 -0.076800 
#    y -0.013290 1.897040 0.043050 
#    z -0.076800 0.043050 1.968820 
# 
# From -- ./inp_files/598046.got.cif
#   From: 2010.05.17/outbox.ucp.g08.bks.cvg/sg2_300_cif.got.tgz:598046.got - 2010.06.11 11:32:03.
