data_PCOD9073042
_publ_section_title
;
Structure prediction by ZEFSAII (Michael W. Deem and Ramdas Pophale) SiO2 
 PCOD9073042
Probable space group: P -1
;
_chemical_formula_sum "Si O2"
_cell_formula_units_Z 14
_cell_length_a 24.000000
_cell_length_b 15.000000
_cell_length_c 15.000000
_cell_angle_alpha 150.000000
_cell_angle_beta 160.000000
_cell_angle_gamma 20.000000
_cell_volume 624.976433
_symmetry_space_group_name_H-M "P -1"
_symmetry_group_IT_number 2
_symmetry_cell_setting 'triclinic'
loop_
_space_group_symop_operation_xyz
x,y,z
-x,-y,-z
loop_
_atom_site_type_symbol
_atom_site_label
_atom_site_fract_x
_atom_site_fract_y
_atom_site_fract_z
Si Si1 0.358732 0.207207 0.047200
Si Si2 0.418619 0.812370 0.297039
Si Si3 0.047190 0.694528 0.522945
Si Si4 0.176352 0.055099 0.401574
Si Si5 0.227390 0.788632 0.720026
Si Si6 0.907367 0.273816 0.014454
Si Si7 0.481361 0.900538 0.268891
O O1 0.558812 0.074392 0.307525
O O2 0.242239 0.476621 0.059069
O O3 0.145337 0.243119 0.777624
O O4 0.500000 0.000000 0.000000
O O5 0.571204 0.511459 0.270669
O O6 0.401453 0.901923 0.248475
O O7 0.554647 0.863665 0.594918
O O8 0.154649 0.017104 0.116534
O O9 0.160605 0.763772 0.696503
O O10 0.241535 0.383795 0.564776
O O11 0.935578 0.838295 0.574752
O O12 0.995675 0.275718 0.245395
O O13 0.222294 0.809682 0.236842
O O14 0.343630 0.887126 0.984132
O O15 0.000000 0.000000 0.500000
#
# Coordination Sequence:
#
# PCOD9073042 Si02
#       7
#     2   2   2   2   2   2   2
#     4  10  22  40  61  91 124 165 211 254 306 371
#     4  10  21  40  66  91 121 164 210 250 320 379
#     4  10  20  43  62  86 123 165 205 256 313 371
#     4  10  23  39  65  91 125 167 210 257 311 372
#     4  11  24  41  62  96 126 159 209 262 314 379
#     4  11  21  42  62  94 127 163 209 257 313 373
#     4  10  20  40  68  87 121 168 204 254 317 375
#
# _framework density 22.400845
#
# number of rings (size 3 to 8) (size 9 to 14) (size 15 to 20)
#    0.000    1.714    1.429    3.857    0.000    4.000 
#   20.571    0.000    0.000    0.000    0.000    0.000 
#    0.000    0.000    0.000    0.000    0.000    0.000 
#
# Total GULP energy -78144.037429 kJ/mol
# GULP energy per Si atom -5581.716959 kJ/mol
# Density = 2.234986 g / cm^3
# Si number density = 22.400845 Si / 1000 Ang^3
#
#
#
# Elastic Constant Matrix: (Units=GPa)
#
#
# Indices 1 2 3 4 5 6 
#
# 1 45.6292 16.0284 -4.0613 -3.3311 -11.8396 -13.8358
# 2 16.0284 11.4213 10.2119 -2.6052 -13.7342 -21.4613
# 3 -4.0613 10.2119 128.5639 18.9327 -3.5521 -24.9839
# 4 -3.3311 -2.6052 18.9327 26.1902 1.6148 7.7376
# 5 -11.8396 -13.7342 -3.5521 1.6148 20.6660 -0.5158
# 6 -13.8358 -21.4613 -24.9839 7.7376 -0.5158 13.9298
#
#
#
# Elastic Compliance Matrix: (Units=1/GPa)
#
#
# Indices 1 2 3 4 5 6 
#
# 1 0.037123 -0.026152 0.007356 -0.007811 0.006120 0.014339
# 2 -0.026152 0.009196 -0.018962 0.031111 -0.016151 -0.063697
# 3 0.007356 -0.018962 0.012167 -0.011171 -0.005276 0.005924
# 4 -0.007811 0.031111 -0.011171 0.049850 0.010206 -0.007176
# 5 0.006120 -0.016151 -0.005276 0.010206 0.038646 -0.032505
# 6 0.014339 -0.063697 0.005924 -0.007176 -0.032505 0.001303
#
#
# Mechanical properties :
#
#
# Convention : Reuss Voigt Hill
#
# Bulk Modulus (GPa) = -58.71755 25.55250 -16.58253
# Shear Modulus (GPa) = 22.92273 23.05291 22.98782
#
# Velocity S-wave (km/s) = 3.20237 3.21145 3.20692
# Velocity P-wave (km/s) = 3.54902 5.01826 2.50873
#
# Compressibility (1/GPa) = -0.01703068
#
# Stress axis : x y z
#
# Youngs Moduli (GPa) = 26.93766 108.74440 82.18674
#
# Poissons Ratio (x) = 2.84386 -0.60455
# Poissons Ratio (y) = 0.70447 1.55846
# Poissons Ratio (z) = -0.19815 2.06206
#
# Static dielectric constant tensor:
#      x y z
#    x 1.850240 -0.038350 0.010170 
#    y -0.038350 1.761130 0.043320 
#    z 0.010170 0.043320 1.962110 
# 
# From -- ./inp_files/285325.got.cif
#   From: 2010.05.17/outbox.ucp.g08.bks.cvg/sg2_143_cif.got.tgz:285325.got - 2010.06.11 11:32:03.
