data_PCOD9073530
_publ_section_title
;
Structure prediction by ZEFSAII (Michael W. Deem and Ramdas Pophale) SiO2 
 PCOD9073530
Probable space group: P -1
;
_chemical_formula_sum "Si O2"
_cell_formula_units_Z 14
_cell_length_a 8.563270
_cell_length_b 11.644581
_cell_length_c 19.302825
_cell_angle_alpha 141.076437
_cell_angle_beta 34.011835
_cell_angle_gamma 139.578847
_cell_volume 638.260372
_symmetry_space_group_name_H-M "P -1"
_symmetry_group_IT_number 2
_symmetry_cell_setting 'triclinic'
loop_
_space_group_symop_operation_xyz
x,y,z
-x,-y,-z
loop_
_atom_site_type_symbol
_atom_site_label
_atom_site_fract_x
_atom_site_fract_y
_atom_site_fract_z
Si Si1 0.790173 0.125928 0.156453
Si Si2 0.696506 0.187211 0.971422
Si Si3 0.712602 0.219473 0.606172
Si Si4 0.944114 0.056435 0.319775
Si Si5 0.061855 0.380081 0.054725
Si Si6 0.811346 0.662608 0.768330
Si Si7 0.634156 0.238458 0.799028
O O1 0.810642 0.254432 0.141587
O O2 0.935846 0.262020 0.231427
O O3 0.488585 0.970033 0.218497
O O4 0.000000 0.000000 0.000000
O O5 0.466208 0.284429 0.073650
O O6 0.919334 0.336452 0.011710
O O7 0.500000 0.000000 0.000000
O O8 0.881494 0.095951 0.811543
O O9 0.921225 0.154268 0.446763
O O10 0.724283 0.435177 0.682544
O O11 0.782500 0.227725 0.665842
O O12 0.384913 0.066365 0.643370
O O13 0.087823 0.216432 0.282650
O O14 0.168157 0.596374 0.145862
O O15 0.344269 0.303673 0.918698
#
# Coordination Sequence:
#
# PCOD9073530 Si02
#       7
#     2   2   2   2   2   2   2
#     4  10  18  31  55  82 110 142 184 234 280 319
#     4  10  20  38  58  85 119 145 185 234 287 333
#     4  11  20  35  57  86 114 150 186 234 277 332
#     4  10  21  36  53  83 122 148 184 230 282 335
#     4  10  19  34  53  83 111 143 186 237 275 323
#     4  11  21  36  58  88 113 146 189 233 283 333
#     4  10  18  32  54  81 111 139 194 231 271 325
#
# _framework density 21.934622000000001
#
# number of rings (size 3 to 8) (size 9 to 14) (size 15 to 20)
#    0.000    1.714    4.286    3.000    0.000    0.571 
#    0.000    1.429    0.000    3.429    7.429   18.000 
#    0.000    0.000    0.000    0.000    0.000    0.000 
#
# Total GULP energy -78324.551687 kJ/mol
# GULP energy per Si atom -5594.610835 kJ/mol
# Density = 2.188470 g / cm^3
# Si number density = 21.934622 Si / 1000 Ang^3
#
#
#
# Elastic Constant Matrix: (Units=GPa)
#
#
# Indices 1 2 3 4 5 6 
#
# 1 66.3935 33.8458 30.2567 4.4559 17.7415 -0.8221
# 2 33.8458 123.5922 42.4802 5.2572 16.3996 -13.6012
# 3 30.2567 42.4802 153.8508 1.3234 24.9572 -15.0625
# 4 4.4559 5.2572 1.3234 28.8455 0.1276 9.7712
# 5 17.7415 16.3996 24.9572 0.1276 27.4354 -0.6582
# 6 -0.8221 -13.6012 -15.0625 9.7712 -0.6582 23.7414
#
#
#
# Elastic Compliance Matrix: (Units=1/GPa)
#
#
# Indices 1 2 3 4 5 6 
#
# 1 0.020404 -0.003964 -0.001590 -0.001574 -0.009424 -0.002187
# 2 -0.003964 0.010806 -0.001063 -0.003593 -0.002749 0.006782
# 3 -0.001590 -0.001063 0.008627 -0.001745 -0.006047 0.005360
# 4 -0.001574 -0.003593 -0.001745 0.042623 0.004060 -0.020650
# 5 -0.009424 -0.002749 -0.006047 0.004060 0.049524 -0.006036
# 6 -0.002187 0.006782 0.005360 -0.020650 -0.006036 0.057662
#
#
# Mechanical properties :
#
#
# Convention : Reuss Voigt Hill
#
# Bulk Modulus (GPa) = 37.59179 61.88910 49.74044
# Shear Modulus (GPa) = 23.61305 31.82136 27.71721
#
# Velocity S-wave (km/s) = 3.28460 3.81299 3.55861
# Velocity P-wave (km/s) = 5.61783 6.90374 6.29372
#
# Compressibility (1/GPa) = 0.02660156
#
# Stress axis : x y z
#
# Youngs Moduli (GPa) = 49.01016 92.53961 115.91871
#
# Poissons Ratio (x) = 0.36687 0.18431
# Poissons Ratio (y) = 0.19430 0.12325
# Poissons Ratio (z) = 0.07792 0.09839
#
# Static dielectric constant tensor:
#      x y z
#    x 1.806370 -0.013940 0.006640 
#    y -0.013940 1.825920 -0.032240 
#    z 0.006640 -0.032240 1.781960 
# 
# From -- ./inp_files/257839.got.cif
#   From: 2010.05.17/outbox.cif.g08.bks.cpg/sg2_129_cif.got.tgz:257839.got - 2010.06.03 11:33:40.
