data_PCOD9073143
_publ_section_title
;
Structure prediction by ZEFSAII (Michael W. Deem and Ramdas Pophale) SiO2 
 PCOD9073143
Probable space group: P -1
;
_chemical_formula_sum "Si O2"
_cell_formula_units_Z 16
_cell_length_a 18.000000
_cell_length_b 15.000000
_cell_length_c 27.000000
_cell_angle_alpha 160.000000
_cell_angle_beta 160.000000
_cell_angle_gamma 20.000000
_cell_volume 746.015535
_symmetry_space_group_name_H-M "P -1"
_symmetry_group_IT_number 2
_symmetry_cell_setting 'triclinic'
loop_
_space_group_symop_operation_xyz
x,y,z
-x,-y,-z
loop_
_atom_site_type_symbol
_atom_site_label
_atom_site_fract_x
_atom_site_fract_y
_atom_site_fract_z
Si Si1 0.637984 0.948953 0.761334
Si Si2 0.358009 0.665219 0.583548
Si Si3 0.480544 0.368258 0.655112
Si Si4 0.824508 0.826122 0.348996
Si Si5 0.923665 0.726733 0.616102
Si Si6 0.710275 0.666406 0.887328
Si Si7 0.413826 0.683043 0.879100
Si Si8 0.143837 0.688575 0.970230
O O1 0.622277 0.651276 0.583037
O O2 0.852585 0.876662 0.899620
O O3 0.359858 0.152170 0.711795
O O4 0.733662 0.107481 0.863792
O O5 0.603015 0.609678 0.738444
O O6 0.087783 0.813509 0.519856
O O7 0.312295 0.887563 0.624560
O O8 0.226440 0.353261 0.478345
O O9 0.545752 0.589302 0.781535
O O10 0.453996 0.458970 0.742944
O O11 0.719619 0.044516 0.632503
O O12 0.868221 0.526476 0.191933
O O13 0.000000 0.500000 0.500000
O O14 0.178746 0.729379 0.789450
O O15 0.000000 0.500000 0.000000
O O16 0.643898 0.006695 0.019151
O O17 0.671869 0.538899 0.993686
#
# Coordination Sequence:
#
# PCOD9073143 Si02
#       8
#     2   2   2   2   2   2   2   2
#     4  10  22  40  65  98 119 163 209 264 315 389
#     4  10  23  40  63  91 128 162 212 265 311 378
#     4  10  22  40  62  89 124 170 218 259 313 384
#     4  10  20  43  65  90 125 166 207 258 326 374
#     4   9  20  39  61  85 120 167 211 265 311 370
#     4  12  24  43  63  92 131 171 217 268 320 380
#     4  11  22  41  63  91 128 173 208 266 323 379
#     4  10  22  39  65  95 130 155 210 263 319 379
#
# _framework density 21.447275000000001
#
# number of rings (size 3 to 8) (size 9 to 14) (size 15 to 20)
#    0.000    1.750    2.500    1.125    0.000    6.000 
#    4.500    0.000    0.000    0.000    0.000    0.000 
#    0.000    0.000    0.000    0.000    0.000    0.000 
#
# Total GULP energy -89112.248865 kJ/mol
# GULP energy per Si atom -5569.515554 kJ/mol
# Density = 2.139846 g / cm^3
# Si number density = 21.447275 Si / 1000 Ang^3
#
#
#
# Elastic Constant Matrix: (Units=GPa)
#
#
# Indices 1 2 3 4 5 6 
#
# 1 29.9594 20.7533 16.3943 -9.3222 19.0029 -7.9788
# 2 20.7533 95.1437 32.1583 -1.0254 2.0991 18.4618
# 3 16.3943 32.1583 89.9609 6.9253 12.5140 -0.5368
# 4 -9.3222 -1.0254 6.9253 38.7833 -2.4978 -4.5804
# 5 19.0029 2.0991 12.5140 -2.4978 28.0127 -6.2802
# 6 -7.9788 18.4618 -0.5368 -4.5804 -6.2802 14.9537
#
#
#
# Elastic Compliance Matrix: (Units=1/GPa)
#
#
# Indices 1 2 3 4 5 6 
#
# 1 0.269201 -0.103487 -0.001764 0.084833 -0.110233 0.251027
# 2 -0.103487 0.056778 -0.004827 -0.034219 0.038163 -0.119942
# 3 -0.001764 -0.004827 0.014016 -0.003007 -0.004349 0.002774
# 4 0.084833 -0.034219 -0.003007 0.054923 -0.028015 0.092461
# 5 -0.110233 0.038163 -0.004349 -0.028015 0.089810 -0.076952
# 6 0.251027 -0.119942 0.002774 0.092461 -0.076952 0.344996
#
#
# Mechanical properties :
#
#
# Convention : Reuss Voigt Hill
#
# Bulk Modulus (GPa) = 8.34456 39.29731 23.82093
# Shear Modulus (GPa) = 4.58788 26.06715 15.32752
#
# Velocity S-wave (km/s) = 1.46417 3.49005 2.67621
# Velocity P-wave (km/s) = 2.59953 5.88244 4.54756
#
# Compressibility (1/GPa) = 0.11983860
#
# Stress axis : x y z
#
# Youngs Moduli (GPa) = 3.71470 17.61239 71.34675
#
# Poissons Ratio (x) = 1.82265 0.12586
# Poissons Ratio (y) = 0.38442 0.34442
# Poissons Ratio (z) = 0.00655 0.08502
#
# Static dielectric constant tensor:
#      x y z
#    x 1.819670 -0.029740 -0.005800 
#    y -0.029740 1.844210 -0.020990 
#    z -0.005800 -0.020990 1.812990 
# 
# From -- ./inp_files/620494.got.cif
#   From: 2010.05.17/outbox.ucp.g08.bks.cvg/sg2_311_cif.got.tgz:620494.got - 2010.06.11 11:32:03.
