data_PCOD9073662
_publ_section_title
;
Structure prediction by ZEFSAII (Michael W. Deem and Ramdas Pophale) SiO2 
 PCOD9073662
Probable space group: P -1
;
_chemical_formula_sum "Si O2"
_cell_formula_units_Z 16
_cell_length_a 9.000000
_cell_length_b 12.000000
_cell_length_c 21.000000
_cell_angle_alpha 30.000000
_cell_angle_beta 130.000000
_cell_angle_gamma 140.000000
_cell_volume 727.418465
_symmetry_space_group_name_H-M "P -1"
_symmetry_group_IT_number 2
_symmetry_cell_setting 'triclinic'
loop_
_space_group_symop_operation_xyz
x,y,z
-x,-y,-z
loop_
_atom_site_type_symbol
_atom_site_label
_atom_site_fract_x
_atom_site_fract_y
_atom_site_fract_z
Si Si1 0.267133 0.432780 0.835697
Si Si2 0.131892 0.059934 0.107020
Si Si3 0.821445 0.164915 0.191509
Si Si4 0.525570 0.454344 0.620291
Si Si5 0.084874 0.174774 0.372825
Si Si6 0.242629 0.639656 0.387048
Si Si7 0.238608 0.811042 0.547320
Si Si8 0.231875 0.399326 0.089533
O O1 0.226780 0.660493 0.685370
O O2 0.538607 0.567417 0.836760
O O3 0.217676 0.296040 0.960513
O O4 0.106800 0.183049 0.868458
O O5 0.120892 0.183385 0.109320
O O6 0.271636 0.915174 0.235106
O O7 0.895125 0.192100 0.272303
O O8 0.053866 0.315442 0.139267
O O9 0.672750 0.856795 0.283234
O O10 0.701844 0.320951 0.061932
O O11 0.685517 0.548562 0.679966
O O12 0.412078 0.628777 0.491080
O O13 0.693931 0.481637 0.595392
O O14 0.156875 0.012923 0.429762
O O15 0.000000 0.000000 0.500000
O O16 0.969518 0.436512 0.428129
O O17 0.500000 0.000000 0.500000
#
# Coordination Sequence:
#
# PCOD9073662 Si02
#       8
#     2   2   2   2   2   2   2   2
#     4  10  23  40  67  98 134 171 229 283 330 411
#     4  10  23  42  67  98 130 179 229 276 346 399
#     4  11  26  44  64  99 137 174 235 281 333 407
#     4  11  22  41  69  97 135 176 230 283 335 400
#     4  12  24  42  71  99 130 184 229 277 345 407
#     4  10  21  42  65 100 136 172 227 287 328 408
#     4  11  23  41  65 100 144 174 215 287 344 403
#     4  11  25  44  66  93 138 184 220 281 341 409
#
# _framework density 21.995591999999998
#
# number of rings (size 3 to 8) (size 9 to 14) (size 15 to 20)
#    0.000    1.250    2.500    2.625    3.500    5.000 
#    0.000    3.750    0.000    0.000    0.000    0.000 
#    0.000    0.000    0.000    0.000    0.000    0.000 
#
# Total GULP energy -89299.357645 kJ/mol
# GULP energy per Si atom -5581.209853 kJ/mol
# Density = 2.194553 g / cm^3
# Si number density = 21.995592 Si / 1000 Ang^3
#
#
#
# Elastic Constant Matrix: (Units=GPa)
#
#
# Indices 1 2 3 4 5 6 
#
# 1 16.6718 -13.5482 -9.2032 0.4640 -10.8146 4.7312
# 2 -13.5482 71.4439 30.7224 7.1208 -6.6533 9.6980
# 3 -9.2032 30.7224 108.6013 13.7820 -0.5021 -5.1732
# 4 0.4640 7.1208 13.7820 34.6030 14.8200 1.3118
# 5 -10.8146 -6.6533 -0.5021 14.8200 30.9483 -5.8943
# 6 4.7312 9.6980 -5.1732 1.3118 -5.8943 27.9545
#
#
#
# Elastic Compliance Matrix: (Units=1/GPa)
#
#
# Indices 1 2 3 4 5 6 
#
# 1 0.163007 0.043703 0.007257 -0.050393 0.086649 -0.020772
# 2 0.043703 0.029308 -0.002887 -0.016740 0.027342 -0.011548
# 3 0.007257 -0.002887 0.011714 -0.006912 0.006091 0.003550
# 4 -0.050393 -0.016740 -0.006912 0.056456 -0.048313 0.000221
# 5 0.086649 0.027342 0.006091 -0.048313 0.091421 -0.001480
# 6 -0.020772 -0.011548 0.003550 0.000221 -0.001480 0.043628
#
#
# Mechanical properties :
#
#
# Convention : Reuss Voigt Hill
#
# Bulk Modulus (GPa) = 3.33141 23.62880 13.48010
# Shear Modulus (GPa) = 12.51729 31.28423 21.90076
#
# Velocity S-wave (km/s) = 2.38813 3.77542 3.15888
# Velocity P-wave (km/s) = 3.02028 5.45628 4.40982
#
# Compressibility (1/GPa) = 0.30017364
#
# Stress axis : x y z
#
# Youngs Moduli (GPa) = 6.13472 34.12028 85.36744
#
# Poissons Ratio (x) = -1.49114 -0.61949
# Poissons Ratio (y) = -0.26810 0.24644
# Poissons Ratio (z) = -0.04452 0.09850
#
# Static dielectric constant tensor:
#      x y z
#    x 1.829370 0.019260 -0.023680 
#    y 0.019260 1.818270 -0.014420 
#    z -0.023680 -0.014420 1.809980 
# 
# From -- ./inp_files/577945.got.cif
#   From: 2010.05.17/outbox.ucp.g08.bks.cvg/sg2_289_cif.got.tgz:577945.got - 2010.06.11 11:32:03.
