data_PCOD9073177
_publ_section_title
;
Structure prediction by ZEFSAII (Michael W. Deem and Ramdas Pophale) SiO2 
 PCOD9073177
Probable space group: P -1
;
_chemical_formula_sum "Si O2"
_cell_formula_units_Z 16
_cell_length_a 8.350243
_cell_length_b 7.534707
_cell_length_c 10.795594
_cell_angle_alpha 76.489097
_cell_angle_beta 115.538848
_cell_angle_gamma 102.779891
_cell_volume 590.251305
_symmetry_space_group_name_H-M "P -1"
_symmetry_group_IT_number 2
_symmetry_cell_setting 'triclinic'
loop_
_space_group_symop_operation_xyz
x,y,z
-x,-y,-z
loop_
_atom_site_type_symbol
_atom_site_label
_atom_site_fract_x
_atom_site_fract_y
_atom_site_fract_z
Si Si1 0.465148 0.122799 0.333042
Si Si2 0.432649 0.246869 0.579558
Si Si3 0.039653 0.213933 0.428350
Si Si4 0.763095 0.370642 0.826152
Si Si5 0.704723 0.078916 0.053076
Si Si6 0.844812 0.643447 0.041885
Si Si7 0.707087 0.375359 0.220718
Si Si8 0.921908 0.929998 0.804624
O O1 0.484927 0.216239 0.458942
O O2 0.518672 0.293627 0.231876
O O3 0.267735 0.002482 0.291542
O O4 0.585304 0.970290 0.352820
O O5 0.235848 0.301351 0.528627
O O6 0.592874 0.373316 0.681302
O O7 0.076970 0.200783 0.294756
O O8 0.873374 0.330214 0.370515
O O9 0.000000 0.000000 0.500000
O O10 0.788832 0.506151 0.929856
O O11 0.732218 0.173141 0.914412
O O12 0.960970 0.387007 0.831985
O O13 0.725495 0.237035 0.136267
O O14 0.874469 0.966950 0.147794
O O15 0.500000 0.000000 0.000000
O O16 0.886055 0.825097 0.940318
O O17 0.715103 0.574241 0.124967
#
# Coordination Sequence:
#
# PCOD9073177 Si02
#       8
#     2   2   2   2   2   2   2   2
#     4  10  20  35  53  81 117 149 173 220 283 338
#     4  10  20  34  54  83 116 145 177 223 284 338
#     4  10  18  31  53  80 107 143 184 226 270 320
#     4   9  17  33  56  79 106 141 184 232 274 310
#     4   9  17  30  53  80 103 135 188 234 265 313
#     4   9  19  38  57  77 109 146 188 233 267 315
#     4  10  19  34  57  78 105 149 185 225 275 318
#     4   9  20  35  54  80 111 149 178 221 283 324
#
# _framework density 27.107099999999999
#
# number of rings (size 3 to 8) (size 9 to 14) (size 15 to 20)
#    0.000    2.500    1.250    3.000    1.750    0.500 
#    0.000   11.875    0.000    3.000    0.000    0.000 
#    0.000    0.000    0.000    0.000    0.000    0.000 
#
# Total GULP energy -89205.574188 kJ/mol
# GULP energy per Si atom -5575.348387 kJ/mol
# Density = 2.704540 g / cm^3
# Si number density = 27.107100 Si / 1000 Ang^3
#
#
#
# Elastic Constant Matrix: (Units=GPa)
#
#
# Indices 1 2 3 4 5 6 
#
# 1 96.8940 30.7785 33.4500 13.3916 38.7363 20.8950
# 2 30.7785 98.5486 35.4225 -1.4691 2.1864 19.6532
# 3 33.4500 35.4225 98.7850 24.7091 17.0511 13.8001
# 4 13.3916 -1.4691 24.7091 55.4284 18.7430 5.0909
# 5 38.7363 2.1864 17.0511 18.7430 52.9046 4.8811
# 6 20.8950 19.6532 13.8001 5.0909 4.8811 38.3077
#
#
#
# Elastic Compliance Matrix: (Units=1/GPa)
#
#
# Indices 1 2 3 4 5 6 
#
# 1 0.018258 -0.003385 -0.002313 0.001266 -0.012380 -0.005980
# 2 -0.003385 0.013551 -0.004225 0.002511 0.002785 -0.004272
# 3 -0.002313 -0.004225 0.014022 -0.005520 -0.000621 -0.000810
# 4 0.001266 0.002511 -0.005520 0.022879 -0.007162 -0.002118
# 5 -0.012380 0.002785 -0.000621 -0.007162 0.030346 0.002633
# 6 -0.005980 -0.004272 -0.000810 -0.002118 0.002633 0.031796
#
#
# Mechanical properties :
#
#
# Convention : Reuss Voigt Hill
#
# Bulk Modulus (GPa) = 38.48310 54.83661 46.65986
# Shear Modulus (GPa) = 31.37593 42.29992 36.83792
#
# Velocity S-wave (km/s) = 3.40587 3.95457 3.69043
# Velocity P-wave (km/s) = 5.44923 6.41288 5.95059
#
# Compressibility (1/GPa) = 0.02598543
#
# Stress axis : x y z
#
# Youngs Moduli (GPa) = 54.77037 73.79733 71.31632
#
# Poissons Ratio (x) = 0.24979 0.16496
# Poissons Ratio (y) = 0.18539 0.30129
# Poissons Ratio (z) = 0.12669 0.31178
#
# Static dielectric constant tensor:
#      x y z
#    x 2.158960 -0.011580 0.128920 
#    y -0.011580 2.337690 -0.022390 
#    z 0.128920 -0.022390 2.237870 
# 
# From -- ./inp_files/389812.got.cif
#   From: 2010.05.17/outbox.cif.g08.bks.cpg/sg2_195_cif.got.tgz:389812.got - 2010.06.03 11:33:40.
