data_PCOD9073207
_publ_section_title
;
Structure prediction by ZEFSAII (Michael W. Deem and Ramdas Pophale) SiO2 
 PCOD9073207
Probable space group: P -1
;
_chemical_formula_sum "Si O2"
_cell_formula_units_Z 16
_cell_length_a 9.000000
_cell_length_b 12.000000
_cell_length_c 18.000000
_cell_angle_alpha 70.000000
_cell_angle_beta 140.000000
_cell_angle_gamma 80.000000
_cell_volume 813.354092
_symmetry_space_group_name_H-M "P -1"
_symmetry_group_IT_number 2
_symmetry_cell_setting 'triclinic'
loop_
_space_group_symop_operation_xyz
x,y,z
-x,-y,-z
loop_
_atom_site_type_symbol
_atom_site_label
_atom_site_fract_x
_atom_site_fract_y
_atom_site_fract_z
Si Si1 0.277555 0.421562 0.376175
Si Si2 0.371776 0.511262 0.243791
Si Si3 0.624335 0.674386 0.337929
Si Si4 0.409594 0.975248 0.094982
Si Si5 0.724852 0.824005 0.853264
Si Si6 0.688099 0.827088 0.469180
Si Si7 0.758637 0.203982 0.354560
Si Si8 0.998445 0.756458 0.254766
O O1 0.220849 0.480886 0.255640
O O2 0.289166 0.276593 0.430957
O O3 0.027267 0.604615 0.282045
O O4 0.643214 0.330862 0.561960
O O5 0.468793 0.599908 0.300665
O O6 0.659563 0.323753 0.359598
O O7 0.117121 0.651231 0.050938
O O8 0.429189 0.832996 0.168046
O O9 0.654065 0.745946 0.405985
O O10 0.000000 0.500000 0.500000
O O11 0.747039 0.866815 0.201835
O O12 0.380373 0.072461 0.132986
O O13 0.131964 0.118297 0.894916
O O14 0.565713 0.750729 0.804186
O O15 0.592619 0.966427 0.706458
O O16 0.025682 0.780800 0.612793
O O17 0.000000 0.000000 0.500000
#
# Coordination Sequence:
#
# PCOD9073207 Si02
#       8
#     2   2   2   2   2   2   2   2
#     4  11  22  37  60  95 127 157 196 250 320 359
#     4  12  23  39  66  93 124 158 202 262 305 357
#     4  11  20  34  63  95 121 158 205 248 311 363
#     4  10  21  37  60  92 127 165 200 244 309 371
#     4  10  23  41  63  89 121 164 214 250 290 358
#     4  10  22  39  63  91 126 158 203 250 305 373
#     4  10  23  44  66  84 118 168 215 247 297 362
#     4  10  21  36  58  90 137 161 187 252 317 375
#
# _framework density 19.671628999999999
#
# number of rings (size 3 to 8) (size 9 to 14) (size 15 to 20)
#    0.000    1.500    2.500    3.375    5.250    1.000 
#    0.000    3.125    0.000    0.000    0.000    0.000 
#    0.000    0.000    0.000    0.000    0.000    0.000 
#
# Total GULP energy -89086.183708 kJ/mol
# GULP energy per Si atom -5567.886482 kJ/mol
# Density = 1.962686 g / cm^3
# Si number density = 19.671629 Si / 1000 Ang^3
#
#
#
# Elastic Constant Matrix: (Units=GPa)
#
#
# Indices 1 2 3 4 5 6 
#
# 1 72.8432 28.2655 4.4641 -17.2299 -17.4044 26.7394
# 2 28.2655 98.0172 6.8626 -16.5315 -0.1726 25.7239
# 3 4.4641 6.8626 57.0015 -20.2623 -9.5557 11.0095
# 4 -17.2299 -16.5315 -20.2623 33.2835 6.7493 3.4714
# 5 -17.4044 -0.1726 -9.5557 6.7493 35.7309 -9.8484
# 6 26.7394 25.7239 11.0095 3.4714 -9.8484 43.7459
#
#
#
# Elastic Compliance Matrix: (Units=1/GPa)
#
#
# Indices 1 2 3 4 5 6 
#
# 1 0.026342 0.000089 0.009869 0.020343 0.006446 -0.018801
# 2 0.000089 0.015037 0.004041 0.012094 -0.004355 -0.011854
# 3 0.009869 0.004041 0.029435 0.026224 0.002998 -0.017223
# 4 0.020343 0.012094 0.026224 0.066870 -0.004606 -0.032489
# 5 0.006446 -0.004355 0.002998 -0.004606 0.034426 0.005982
# 6 -0.018801 -0.011854 -0.017223 -0.032489 0.005982 0.049581
#
#
# Mechanical properties :
#
#
# Convention : Reuss Voigt Hill
#
# Bulk Modulus (GPa) = 10.12010 34.11624 22.11817
# Shear Modulus (GPa) = 22.06252 35.10340 28.58296
#
# Velocity S-wave (km/s) = 3.35257 4.22888 3.81596
# Velocity P-wave (km/s) = 4.48799 6.42068 5.53927
#
# Compressibility (1/GPa) = 0.09881324
#
# Stress axis : x y z
#
# Youngs Moduli (GPa) = 37.96208 66.50391 33.97330
#
# Poissons Ratio (x) = -0.00592 -0.33530
# Poissons Ratio (y) = -0.00338 -0.13730
# Poissons Ratio (z) = -0.37466 -0.26876
#
# Static dielectric constant tensor:
#      x y z
#    x 1.742320 -0.008820 0.026370 
#    y -0.008820 1.674400 0.007920 
#    z 0.026370 0.007920 1.769700 
# 
# From -- ./inp_files/181850.got.cif
#   From: 2010.05.17/outbox.ucp.g08.bks.cvg/sg2_91_cif.got.tgz:181850.got - 2010.06.11 11:32:03.
