data_PCOD9073729
_publ_section_title
;
Structure prediction by ZEFSAII (Michael W. Deem and Ramdas Pophale) SiO2 
 PCOD9073729
Probable space group: P -1
;
_chemical_formula_sum "Si O2"
_cell_formula_units_Z 16
_cell_length_a 8.258631
_cell_length_b 5.182213
_cell_length_c 14.971016
_cell_angle_alpha 81.655476
_cell_angle_beta 100.506657
_cell_angle_gamma 95.504010
_cell_volume 621.726707
_symmetry_space_group_name_H-M "P -1"
_symmetry_group_IT_number 2
_symmetry_cell_setting 'triclinic'
loop_
_space_group_symop_operation_xyz
x,y,z
-x,-y,-z
loop_
_atom_site_type_symbol
_atom_site_label
_atom_site_fract_x
_atom_site_fract_y
_atom_site_fract_z
Si Si1 0.536930 0.343738 0.235190
Si Si2 0.611651 0.893834 0.140192
Si Si3 0.445369 0.388149 0.596077
Si Si4 0.840488 0.646998 0.876056
Si Si5 0.233542 0.846928 0.379990
Si Si6 0.235134 0.902294 0.028846
Si Si7 0.961437 0.648970 0.698271
Si Si8 0.173453 0.933957 0.563895
O O1 0.607125 0.091133 0.211885
O O2 0.550478 0.390514 0.339500
O O3 0.344519 0.353415 0.186004
O O4 0.630853 0.600775 0.187821
O O5 0.426517 0.899836 0.080880
O O6 0.743819 0.991163 0.074438
O O7 0.500000 0.500000 0.500000
O O8 0.593064 0.201972 0.645231
O O9 0.279694 0.200296 0.584343
O O10 0.837797 0.391426 0.950193
O O11 0.965240 0.632554 0.806460
O O12 0.855421 0.905000 0.924836
O O13 0.104982 0.627423 0.336230
O O14 0.170642 0.131831 0.343671
O O15 0.250268 0.808560 0.490164
O O16 0.119514 0.755738 0.651875
O O17 0.000000 0.000000 0.500000
#
# Coordination Sequence:
#
# PCOD9073729 Si02
#       8
#     2   2   2   2   2   2   2   2
#     4  10  21  33  55  81 118 157 196 246 297 351
#     4   9  18  33  52  83 121 153 188 243 302 358
#     4  12  25  42  64  92 121 165 212 255 306 361
#     4  10  18  31  56  85 119 155 194 243 294 359
#     4  11  23  41  63  84 118 161 210 255 305 354
#     4   9  17  30  53  86 119 153 189 237 304 360
#     4  11  22  40  62  89 123 162 200 253 306 358
#     4  10  24  42  61  86 120 161 209 261 305 358
#
# _framework density 25.734781000000002
#
# number of rings (size 3 to 8) (size 9 to 14) (size 15 to 20)
#    0.000    1.750    1.250    3.750    3.500    5.000 
#    0.000    0.000    0.000    0.000    0.000    5.250 
#    0.000    0.000    0.000    0.000    0.000    0.000 
#
# Total GULP energy -89735.309434 kJ/mol
# GULP energy per Si atom -5608.456840 kJ/mol
# Density = 2.567621 g / cm^3
# Si number density = 25.734781 Si / 1000 Ang^3
#
#
#
# Elastic Constant Matrix: (Units=GPa)
#
#
# Indices 1 2 3 4 5 6 
#
# 1 76.1418 23.9511 20.0005 6.5754 -8.5523 11.1614
# 2 23.9511 89.2928 34.1484 6.0870 -13.6765 21.7898
# 3 20.0005 34.1484 132.7970 -4.8257 -30.7735 23.5536
# 4 6.5754 6.0870 -4.8257 52.2879 6.8860 -1.1411
# 5 -8.5523 -13.6765 -30.7735 6.8860 42.0297 4.9998
# 6 11.1614 21.7898 23.5536 -1.1411 4.9998 43.1688
#
#
#
# Elastic Compliance Matrix: (Units=1/GPa)
#
#
# Indices 1 2 3 4 5 6 
#
# 1 0.014939 -0.002659 -0.000664 -0.001988 0.002309 -0.002478
# 2 -0.002659 0.014887 -0.001263 -0.002261 0.004549 -0.006724
# 3 -0.000664 -0.001263 0.010935 0.000029 0.008181 -0.006104
# 4 -0.001988 -0.002261 0.000029 0.020329 -0.004775 0.002730
# 5 0.002309 0.004549 0.008181 -0.004775 0.033872 -0.011406
# 6 -0.002478 -0.006724 -0.006104 0.002730 -0.011406 0.031923
#
#
# Mechanical properties :
#
#
# Convention : Reuss Voigt Hill
#
# Bulk Modulus (GPa) = 31.65748 50.49239 41.07493
# Shear Modulus (GPa) = 34.10957 42.17272 38.14115
#
# Velocity S-wave (km/s) = 3.64459 4.05253 3.85396
# Velocity P-wave (km/s) = 5.48077 6.44672 5.98327
#
# Compressibility (1/GPa) = 0.03158812
#
# Stress axis : x y z
#
# Youngs Moduli (GPa) = 66.94098 67.17182 91.45269
#
# Poissons Ratio (x) = 0.17863 0.06070
# Poissons Ratio (y) = 0.17801 0.11551
# Poissons Ratio (z) = 0.04443 0.08485
#
# Static dielectric constant tensor:
#      x y z
#    x 2.138680 -0.062630 0.048510 
#    y -0.062630 1.971720 -0.046110 
#    z 0.048510 -0.046110 2.030000 
# 
# From -- ./inp_files/488436.got.cif
#   From: 2010.05.17/outbox.cif.g08.bks.cpg/sg2_245_cif.got.tgz:488436.got - 2010.06.03 11:33:40.
