data_PCOD9073172
_publ_section_title
;
Structure prediction by ZEFSAII (Michael W. Deem and Ramdas Pophale) SiO2 
 PCOD9073172
Probable space group: P -1
;
_chemical_formula_sum "Si O2"
_cell_formula_units_Z 16
_cell_length_a 11.072032
_cell_length_b 9.091288
_cell_length_c 16.647941
_cell_angle_alpha 105.713356
_cell_angle_beta 149.501804
_cell_angle_gamma 56.205688
_cell_volume 614.434154
_symmetry_space_group_name_H-M "P -1"
_symmetry_group_IT_number 2
_symmetry_cell_setting 'triclinic'
loop_
_space_group_symop_operation_xyz
x,y,z
-x,-y,-z
loop_
_atom_site_type_symbol
_atom_site_label
_atom_site_fract_x
_atom_site_fract_y
_atom_site_fract_z
Si Si1 0.651066 0.375054 0.905497
Si Si2 0.254101 0.295297 0.273346
Si Si3 0.877373 0.340362 0.698120
Si Si4 0.104012 0.767459 0.724997
Si Si5 0.333114 0.993908 0.825795
Si Si6 0.378052 0.332018 0.184089
Si Si7 0.727455 0.114326 0.665663
Si Si8 0.317715 0.281798 0.614893
O O1 0.539238 0.542303 0.793886
O O2 0.572384 0.232792 0.819393
O O3 0.410882 0.528958 0.861156
O O4 0.021795 0.257222 0.109908
O O5 0.018748 0.537768 0.194812
O O6 0.469377 0.263058 0.318279
O O7 0.469940 0.189481 0.459162
O O8 0.500000 0.500000 0.500000
O O9 0.916363 0.189540 0.763665
O O10 0.035374 0.234691 0.687595
O O11 0.837249 0.809843 0.519013
O O12 0.968383 0.871891 0.750077
O O13 0.202754 0.887112 0.763717
O O14 0.514942 0.864896 0.832124
O O15 0.500000 0.000000 0.000000
O O16 0.000000 0.500000 0.000000
O O17 0.523203 0.230267 0.644596
O O18 0.000000 0.500000 0.500000
#
# Coordination Sequence:
#
# PCOD9073172 Si02
#       8
#     2   2   2   2   2   2   2   2
#     4   9  18  34  55  77 103 140 180 211 251 315
#     4  10  19  34  54  81 109 139 173 219 266 307
#     4   9  18  32  50  76 109 138 165 208 269 317
#     4   9  19  34  53  75 101 137 177 214 257 313
#     4  10  18  31  53  80 104 134 176 214 252 310
#     4   9  17  30  51  80 110 138 170 214 261 311
#     4  10  20  35  54  77 106 137 174 220 267 311
#     4  10  20  36  55  74  99 141 181 214 260 318
#
# _framework density 26.040217999999999
#
# number of rings (size 3 to 8) (size 9 to 14) (size 15 to 20)
#    0.000    2.500    0.000    3.375    0.000    3.000 
#    0.000   18.125    0.000    0.000    0.000    0.000 
#    0.000    0.000    0.000    0.000    0.000    0.000 
#
# Total GULP energy -89141.969136 kJ/mol
# GULP energy per Si atom -5571.373071 kJ/mol
# Density = 2.598095 g / cm^3
# Si number density = 26.040218 Si / 1000 Ang^3
#
#
#
# Elastic Constant Matrix: (Units=GPa)
#
#
# Indices 1 2 3 4 5 6 
#
# 1 73.1837 36.2395 5.8900 -0.8050 2.4035 -26.8492
# 2 36.2395 168.6538 11.1906 20.6188 -2.8051 -51.0101
# 3 5.8900 11.1906 92.7815 21.9954 25.0251 -1.5494
# 4 -0.8050 20.6188 21.9954 45.3041 6.3767 7.7231
# 5 2.4035 -2.8051 25.0251 6.3767 38.8532 7.1492
# 6 -26.8492 -51.0101 -1.5494 7.7231 7.1492 45.0104
#
#
#
# Elastic Compliance Matrix: (Units=1/GPa)
#
#
# Indices 1 2 3 4 5 6 
#
# 1 0.017955 -0.000573 0.000146 -0.000884 -0.003071 0.010706
# 2 -0.000573 0.011068 0.001068 -0.007753 -0.001110 0.013745
# 3 0.000146 0.001068 0.014894 -0.007191 -0.009173 0.004502
# 4 -0.000884 -0.007753 -0.007191 0.031425 0.001772 -0.015235
# 5 -0.003071 -0.001110 -0.009173 0.001772 0.033116 -0.008970
# 6 0.010706 0.013745 0.004502 -0.015235 -0.008970 0.048375
#
#
# Mechanical properties :
#
#
# Convention : Reuss Voigt Hill
#
# Bulk Modulus (GPa) = 22.12379 49.02882 35.57630
# Shear Modulus (GPa) = 29.30552 44.58678 36.94615
#
# Velocity S-wave (km/s) = 3.35833 4.14240 3.77080
# Velocity P-wave (km/s) = 4.85307 6.46129 5.71404
#
# Compressibility (1/GPa) = 0.04520022
#
# Stress axis : x y z
#
# Youngs Moduli (GPa) = 55.69514 90.34814 67.14122
#
# Poissons Ratio (x) = 0.05175 -0.00979
# Poissons Ratio (y) = 0.03190 -0.07174
# Poissons Ratio (z) = -0.00812 -0.09654
#
# Static dielectric constant tensor:
#      x y z
#    x 2.132740 0.036970 -0.025900 
#    y 0.036970 2.325750 -0.160730 
#    z -0.025900 -0.160730 2.170600 
# 
# From -- ./inp_files/568832.got.cif
#   From: 2010.05.17/outbox.cif.g08.bks.cpg/sg2_285_cif.got.tgz:568832.got - 2010.06.03 11:33:40.
