data_PCOD9073035
_publ_section_title
;
Structure prediction by ZEFSAII (Michael W. Deem and Ramdas Pophale) SiO2 
 PCOD9073035
Probable space group: P -1
;
_chemical_formula_sum "Si O2"
_cell_formula_units_Z 16
_cell_length_a 9.312573
_cell_length_b 15.337886
_cell_length_c 7.216801
_cell_angle_alpha 115.127107
_cell_angle_beta 45.879291
_cell_angle_gamma 112.987513
_cell_volume 662.784705
_symmetry_space_group_name_H-M "P -1"
_symmetry_group_IT_number 2
_symmetry_cell_setting 'triclinic'
loop_
_space_group_symop_operation_xyz
x,y,z
-x,-y,-z
loop_
_atom_site_type_symbol
_atom_site_label
_atom_site_fract_x
_atom_site_fract_y
_atom_site_fract_z
Si Si1 0.444470 0.290291 0.772469
Si Si2 0.629614 0.626056 0.552121
Si Si3 0.751849 0.179205 0.242751
Si Si4 0.059996 0.366630 0.024219
Si Si5 0.358101 0.169816 0.113336
Si Si6 0.035528 0.995002 0.185965
Si Si7 0.702860 0.457025 0.528710
Si Si8 0.346328 0.941207 0.432339
O O1 0.532974 0.214780 0.483441
O O2 0.253872 0.340335 0.932935
O O3 0.624611 0.382406 0.696050
O O4 0.377793 0.223610 0.945673
O O5 0.837576 0.612218 0.248058
O O6 0.629523 0.739337 0.682840
O O7 0.642212 0.564666 0.674341
O O8 0.432370 0.586781 0.569712
O O9 0.770461 0.147324 0.415444
O O10 0.897427 0.270592 0.111713
O O11 0.825043 0.088478 0.989259
O O12 0.937967 0.450463 0.280790
O O13 0.154510 0.095451 0.242260
O O14 0.536753 0.104504 0.877049
O O15 0.804757 0.989785 0.452165
O O16 0.000000 0.000000 0.000000
O O17 0.500000 0.000000 0.500000
#
# Coordination Sequence:
#
# PCOD9073035 Si02
#       8
#     2   2   2   2   2   2   2   2
#     4   9  19  33  57  86 110 142 183 236 276 332
#     4  10  22  38  59  80 113 146 186 235 277 331
#     4   9  18  29  53  80 105 145 190 216 261 331
#     4  10  19  36  59  79 108 149 192 222 274 340
#     4  11  21  34  55  90 115 141 186 235 277 319
#     4  10  18  31  52  80 112 149 182 216 272 334
#     4   9  20  41  59  79 105 154 191 220 285 337
#     4  10  18  31  53  79 114 150 180 221 274 325
#
# _framework density 24.140568999999999
#
# number of rings (size 3 to 8) (size 9 to 14) (size 15 to 20)
#    0.000    2.250    2.500    1.875    1.750    1.500 
#    0.000    1.250    0.000    7.500    0.000    0.000 
#    0.000    0.000    0.000    0.000    0.000    0.000 
#
# Total GULP energy -89138.793530 kJ/mol
# GULP energy per Si atom -5571.174596 kJ/mol
# Density = 2.408562 g / cm^3
# Si number density = 24.140569 Si / 1000 Ang^3
#
#
#
# Elastic Constant Matrix: (Units=GPa)
#
#
# Indices 1 2 3 4 5 6 
#
# 1 65.6245 24.5205 47.4571 9.8349 -26.2513 -11.2154
# 2 24.5205 30.8419 -5.1262 -22.8910 27.6409 7.7387
# 3 47.4571 -5.1262 96.5351 -1.0873 -29.2506 11.7727
# 4 9.8349 -22.8910 -1.0873 13.6456 22.7427 6.9792
# 5 -26.2513 27.6409 -29.2506 22.7427 6.2397 -7.3415
# 6 -11.2154 7.7387 11.7727 6.9792 -7.3415 26.9754
#
#
#
# Elastic Compliance Matrix: (Units=1/GPa)
#
#
# Indices 1 2 3 4 5 6 
#
# 1 0.019603 0.000855 -0.015334 0.008840 -0.016087 0.007931
# 2 0.000855 0.010638 0.004546 -0.009729 0.015742 0.002121
# 3 -0.015334 0.004546 0.024931 -0.000267 0.016827 -0.013911
# 4 0.008840 -0.009729 -0.000267 0.019052 0.016985 0.006276
# 5 -0.016087 0.015742 0.016827 0.016985 0.018878 -0.017805
# 6 0.007931 0.002121 -0.013911 0.006276 -0.017805 0.039361
#
#
# Mechanical properties :
#
#
# Convention : Reuss Voigt Hill
#
# Bulk Modulus (GPa) = 28.32336 36.30048 32.31192
# Shear Modulus (GPa) = 30.46995 17.78214 24.12604
#
# Velocity S-wave (km/s) = 3.55658 2.71700 3.16476
# Velocity P-wave (km/s) = 5.35013 4.99125 5.17380
#
# Compressibility (1/GPa) = 0.03530655
#
# Stress axis : x y z
#
# Youngs Moduli (GPa) = 51.01346 94.00272 40.11135
#
# Poissons Ratio (x) = -0.08039 0.61505
# Poissons Ratio (y) = -0.04363 -0.18234
# Poissons Ratio (z) = 0.78222 -0.42733
#
# Static dielectric constant tensor:
#      x y z
#    x 1.983630 -0.019470 0.020600 
#    y -0.019470 1.961090 0.003040 
#    z 0.020600 0.003040 2.022070 
# 
# From -- ./inp_files/276909.got.cif
#   From: 2010.05.17/outbox.cif.g08.bks.cpg/sg2_139_cif.got.tgz:276909.got - 2010.06.03 11:33:40.
