data_PCOD9073624
_publ_section_title
;
Structure prediction by ZEFSAII (Michael W. Deem and Ramdas Pophale) SiO2 
 PCOD9073624
Probable space group: P -1
;
_chemical_formula_sum "Si O2"
_cell_formula_units_Z 16
_cell_length_a 8.659916
_cell_length_b 7.415178
_cell_length_c 16.401693
_cell_angle_alpha 127.114116
_cell_angle_beta 84.752297
_cell_angle_gamma 76.944165
_cell_volume 782.213458
_symmetry_space_group_name_H-M "P -1"
_symmetry_group_IT_number 2
_symmetry_cell_setting 'triclinic'
loop_
_space_group_symop_operation_xyz
x,y,z
-x,-y,-z
loop_
_atom_site_type_symbol
_atom_site_label
_atom_site_fract_x
_atom_site_fract_y
_atom_site_fract_z
Si Si1 0.934982 0.509821 0.294650
Si Si2 0.388173 0.262947 0.712491
Si Si3 0.301207 0.750229 0.396510
Si Si4 0.901652 0.190265 0.732261
Si Si5 0.245046 0.840666 0.611254
Si Si6 0.815852 0.623261 0.503139
Si Si7 0.427032 0.702080 0.125756
Si Si8 0.721959 0.766606 0.724221
O O1 0.769894 0.521998 0.258270
O O2 0.858107 0.678206 0.424062
O O3 0.024132 0.615077 0.250758
O O4 0.091853 0.295696 0.266096
O O5 0.532250 0.204819 0.622055
O O6 0.456442 0.341911 0.812522
O O7 0.344411 0.022289 0.669004
O O8 0.172450 0.874570 0.365332
O O9 0.235229 0.828304 0.510587
O O10 0.328613 0.463166 0.313379
O O11 0.753722 0.281688 0.827986
O O12 0.062719 0.972297 0.692659
O O13 0.285312 0.561980 0.557973
O O14 0.724969 0.779726 0.628434
O O15 0.000000 0.500000 0.500000
O O16 0.396300 0.973322 0.169439
O O17 0.500000 0.500000 0.000000
#
# Coordination Sequence:
#
# PCOD9073624 Si02
#       8
#     2   2   2   2   2   2   2   2
#     4   9  18  35  57  86 117 145 179 225 274 340
#     4  10  22  36  54  86 120 148 185 237 285 324
#     4   9  18  32  53  86 123 152 176 217 279 345
#     4   9  18  33  55  80 110 151 190 221 271 342
#     4  10  18  31  55  89 123 153 181 219 271 340
#     4   9  17  30  54  87 119 152 180 208 261 340
#     4  11  24  43  60  77 105 148 198 249 293 331
#     4   9  19  36  58  81 111 155 195 220 266 346
#
# _framework density 20.454774
#
# number of rings (size 3 to 8) (size 9 to 14) (size 15 to 20)
#    0.000    2.500    0.000    3.000    0.000    8.000 
#    0.000   11.250    0.000    0.000    0.000    0.000 
#    0.000    0.000    0.000    0.000    0.000    0.000 
#
# Total GULP energy -89136.921867 kJ/mol
# GULP energy per Si atom -5571.057617 kJ/mol
# Density = 2.040822 g / cm^3
# Si number density = 20.454774 Si / 1000 Ang^3
#
#
#
# Elastic Constant Matrix: (Units=GPa)
#
#
# Indices 1 2 3 4 5 6 
#
# 1 115.1331 17.8113 30.1658 1.0945 -9.3671 1.8872
# 2 17.8113 65.0093 11.7855 6.9273 7.0000 8.6687
# 3 30.1658 11.7855 98.2517 18.5853 -5.1362 -2.9514
# 4 1.0945 6.9273 18.5853 21.4187 2.2446 -1.9093
# 5 -9.3671 7.0000 -5.1362 2.2446 13.4543 -3.9914
# 6 1.8872 8.6687 -2.9514 -1.9093 -3.9914 44.5333
#
#
#
# Elastic Compliance Matrix: (Units=1/GPa)
#
#
# Indices 1 2 3 4 5 6 
#
# 1 0.010603 -0.003631 -0.002806 0.002300 0.008082 0.000895
# 2 -0.003631 0.019205 -0.001337 -0.003863 -0.013895 -0.005084
# 3 -0.002806 -0.001337 0.013845 -0.011990 0.006431 0.001359
# 4 0.002300 -0.003863 -0.011990 0.059450 -0.010448 0.001472
# 5 0.008082 -0.013895 0.006431 -0.010448 0.094589 0.010818
# 6 0.000895 -0.005084 0.001359 0.001472 0.010818 0.024530
#
#
# Mechanical properties :
#
#
# Convention : Reuss Voigt Hill
#
# Bulk Modulus (GPa) = 35.58007 44.21324 39.89665
# Shear Modulus (GPa) = 20.23147 30.45670 25.34408
#
# Velocity S-wave (km/s) = 3.14838 3.86291 3.52380
# Velocity P-wave (km/s) = 5.53612 6.44656 6.00861
#
# Compressibility (1/GPa) = 0.02810562
#
# Stress axis : x y z
#
# Youngs Moduli (GPa) = 94.30878 52.06867 72.22884
#
# Poissons Ratio (x) = 0.18907 0.20265
# Poissons Ratio (y) = 0.34245 0.09659
# Poissons Ratio (z) = 0.26460 0.06963
#
# Static dielectric constant tensor:
#      x y z
#    x 1.810190 0.013190 0.015420 
#    y 0.013190 1.867060 0.049930 
#    z 0.015420 0.049930 1.677390 
# 
# From -- ./inp_files/185857.got.cif
#   From: 2010.05.17/outbox.cif.g08.bks.cpg/sg2_93_cif.got.tgz:185857.got - 2010.06.03 11:33:40.
