data_PCOD9073047
_publ_section_title
;
Structure prediction by ZEFSAII (Michael W. Deem and Ramdas Pophale) SiO2 
 PCOD9073047
Probable space group: P -1
;
_chemical_formula_sum "Si O2"
_cell_formula_units_Z 14
_cell_length_a 6.773891
_cell_length_b 6.303924
_cell_length_c 20.649906
_cell_angle_alpha 127.464651
_cell_angle_beta 119.508645
_cell_angle_gamma 77.674392
_cell_volume 604.360065
_symmetry_space_group_name_H-M "P -1"
_symmetry_group_IT_number 2
_symmetry_cell_setting 'triclinic'
loop_
_space_group_symop_operation_xyz
x,y,z
-x,-y,-z
loop_
_atom_site_type_symbol
_atom_site_label
_atom_site_fract_x
_atom_site_fract_y
_atom_site_fract_z
Si Si1 0.744036 0.914758 0.212077
Si Si2 0.304286 0.655325 0.427327
Si Si3 0.824779 0.085687 0.111500
Si Si4 0.960658 0.405852 0.403991
Si Si5 0.851151 0.405843 0.748936
Si Si6 0.551177 0.576003 0.947597
Si Si7 0.375093 0.225224 0.607517
O O1 0.511651 0.715173 0.149098
O O2 0.959645 0.742580 0.212721
O O3 0.754397 0.061415 0.171333
O O4 0.797304 0.132460 0.316936
O O5 0.152689 0.687797 0.344417
O O6 0.539472 0.646153 0.425149
O O7 0.198002 0.397410 0.402305
O O8 0.331928 0.910274 0.526868
O O9 0.640274 0.248391 0.076987
O O10 0.064716 0.274053 0.176529
O O11 0.785815 0.779584 0.020756
O O12 0.848230 0.638508 0.390669
O O13 0.000000 0.500000 0.500000
O O14 0.585544 0.318849 0.706734
O O15 0.500000 0.500000 0.000000
#
# Coordination Sequence:
#
# PCOD9073047 Si02
#       7
#     2   2   2   2   2   2   2
#     4  10  18  31  52  81 113 142 186 233 275 328
#     4   9  19  38  54  71 113 149 191 237 273 322
#     4   9  15  30  53  81 109 142 183 227 278 329
#     4  12  23  34  55  84 113 151 195 230 278 333
#     4   9  17  34  54  74 110 146 180 229 278 326
#     4   8  16  28  52  83 109 141 181 225 278 338
#     4   9  20  37  54  75 107 154 191 232 284 323
#
# _framework density 23.164999000000002
#
# number of rings (size 3 to 8) (size 9 to 14) (size 15 to 20)
#    0.857    1.714    1.429    1.286    0.000    0.571 
#    2.571    0.000    0.000    0.857    0.000   34.000 
#    0.000    0.000    0.000    0.000    0.000    0.000 
#
# Total GULP energy -77957.559244 kJ/mol
# GULP energy per Si atom -5568.397089 kJ/mol
# Density = 2.311227 g / cm^3
# Si number density = 23.164999 Si / 1000 Ang^3
#
#
#
# Elastic Constant Matrix: (Units=GPa)
#
#
# Indices 1 2 3 4 5 6 
#
# 1 26.3077 8.5554 12.3039 -0.4587 5.7955 4.2539
# 2 8.5554 77.0023 45.5564 -11.2236 4.2693 5.8249
# 3 12.3039 45.5564 160.5646 34.7938 24.8106 13.0552
# 4 -0.4587 -11.2236 34.7938 50.0343 5.5075 6.2740
# 5 5.7955 4.2693 24.8106 5.5075 22.3249 -0.8097
# 6 4.2539 5.8249 13.0552 6.2740 -0.8097 19.0760
#
#
#
# Elastic Compliance Matrix: (Units=1/GPa)
#
#
# Indices 1 2 3 4 5 6 
#
# 1 0.043229 -0.002694 -0.000633 0.002664 -0.011014 -0.009728
# 2 -0.002694 0.019203 -0.007509 0.009582 0.002894 -0.003152
# 3 -0.000633 -0.007509 0.012057 -0.008566 -0.009810 -0.003416
# 4 0.002664 0.009582 -0.008566 0.029073 -0.000438 -0.007238
# 5 -0.011014 0.002894 -0.009810 -0.000438 0.058505 0.010913
# 6 -0.009728 -0.003152 -0.003416 -0.007238 0.010913 0.060736
#
#
# Mechanical properties :
#
#
# Convention : Reuss Voigt Hill
#
# Bulk Modulus (GPa) = 18.93293 44.07844 31.50568
# Shear Modulus (GPa) = 19.07813 31.45097 25.26455
#
# Velocity S-wave (km/s) = 2.87291 3.68869 3.30606
# Velocity P-wave (km/s) = 4.38129 6.10010 5.31069
#
# Compressibility (1/GPa) = 0.05281804
#
# Stress axis : x y z
#
# Youngs Moduli (GPa) = 23.13237 52.07489 82.93952
#
# Poissons Ratio (x) = 0.14027 0.05249
# Poissons Ratio (y) = 0.06231 0.62281
# Poissons Ratio (z) = 0.01464 0.39104
#
# Static dielectric constant tensor:
#      x y z
#    x 1.828190 0.003180 0.031850 
#    y 0.003180 1.871040 0.032100 
#    z 0.031850 0.032100 1.945020 
# 
# From -- ./inp_files/605533.got.cif
#   From: 2010.05.17/outbox.cif.g08.bks.cpg/sg2_303_cif.got.tgz:605533.got - 2010.06.03 11:33:40.
