data_PCOD9073717
_publ_section_title
;
Structure prediction by ZEFSAII (Michael W. Deem and Ramdas Pophale) SiO2 
 PCOD9073717
Probable space group: P -1
;
_chemical_formula_sum "Si O2"
_cell_formula_units_Z 16
_cell_length_a 9.000000
_cell_length_b 12.000000
_cell_length_c 9.000000
_cell_angle_alpha 120.000000
_cell_angle_beta 70.000000
_cell_angle_gamma 120.000000
_cell_volume 723.492119
_symmetry_space_group_name_H-M "P -1"
_symmetry_group_IT_number 2
_symmetry_cell_setting 'triclinic'
loop_
_space_group_symop_operation_xyz
x,y,z
-x,-y,-z
loop_
_atom_site_type_symbol
_atom_site_label
_atom_site_fract_x
_atom_site_fract_y
_atom_site_fract_z
Si Si1 0.023872 0.246975 0.932518
Si Si2 0.431002 0.341968 0.850654
Si Si3 0.553481 0.172210 0.209890
Si Si4 0.436710 0.874110 0.171392
Si Si5 0.141569 0.086889 0.278483
Si Si6 0.602543 0.438388 0.539840
Si Si7 0.074228 0.781480 0.383952
Si Si8 0.952581 0.696523 0.695345
O O1 0.226071 0.283041 0.891612
O O2 0.992973 0.298534 0.808115
O O3 0.988842 0.299014 0.146243
O O4 0.925661 0.078205 0.838628
O O5 0.493195 0.233619 0.846228
O O6 0.489692 0.361911 0.671392
O O7 0.500000 0.500000 0.000000
O O8 0.348494 0.143436 0.261834
O O9 0.644109 0.321714 0.358028
O O10 0.562205 0.039352 0.208962
O O11 0.610094 0.174039 0.018698
O O12 0.275114 0.866582 0.325003
O O13 0.095132 0.167555 0.212995
O O14 0.044119 0.131400 0.477272
O O15 0.500000 0.500000 0.500000
O O16 0.775339 0.561572 0.628801
O O17 0.061140 0.709451 0.507546
#
# Coordination Sequence:
#
# PCOD9073717 Si02
#       8
#     2   2   2   2   2   2   2   2
#     4  12  21  43  74 106 139 197 249 296 360 440
#     4  12  26  45  73 106 145 189 247 301 364 447
#     4  11  23  45  77 103 148 196 241 301 368 440
#     4  11  26  48  69 112 147 185 248 308 372 425
#     4  10  21  42  74 104 141 195 248 290 358 445
#     4  12  22  44  71 103 145 196 244 296 357 438
#     4  10  24  44  72 105 145 192 245 299 366 434
#     4  10  23  39  69 106 142 191 252 292 353 436
#
# _framework density 22.114961000000001
#
# number of rings (size 3 to 8) (size 9 to 14) (size 15 to 20)
#    0.750    0.250    3.750    3.750    1.750    0.500 
#    2.250    3.125    0.000    0.000    0.000    0.000 
#    0.000    0.000    0.000    0.000    0.000    0.000 
#
# Total GULP energy -89273.712274 kJ/mol
# GULP energy per Si atom -5579.607017 kJ/mol
# Density = 2.206463 g / cm^3
# Si number density = 22.114961 Si / 1000 Ang^3
#
#
#
# Elastic Constant Matrix: (Units=GPa)
#
#
# Indices 1 2 3 4 5 6 
#
# 1 56.4275 23.3775 25.5287 -9.4810 1.0918 -6.7639
# 2 23.3775 97.6791 50.6908 -19.5964 2.3609 -9.6284
# 3 25.5287 50.6908 181.5376 -24.3805 10.7237 0.2993
# 4 -9.4810 -19.5964 -24.3805 59.3885 3.0482 3.4179
# 5 1.0918 2.3609 10.7237 3.0482 47.3946 -8.4324
# 6 -6.7639 -9.6284 0.2993 3.4179 -8.4324 46.6545
#
#
#
# Elastic Compliance Matrix: (Units=1/GPa)
#
#
# Indices 1 2 3 4 5 6 
#
# 1 0.020442 -0.003526 -0.001753 0.001230 0.000420 0.002233
# 2 -0.003526 0.013289 -0.002901 0.002494 0.000292 0.002120
# 3 -0.001753 -0.002901 0.006906 0.001764 -0.001729 -0.001339
# 4 0.001230 0.002494 0.001764 0.018742 -0.001943 -0.001042
# 5 0.000420 0.000292 -0.001729 -0.001943 0.022359 0.004316
# 6 0.002233 0.002120 -0.001339 -0.001042 0.004316 0.023060
#
#
# Mechanical properties :
#
#
# Convention : Reuss Voigt Hill
#
# Bulk Modulus (GPa) = 41.18986 59.42646 50.30816
# Shear Modulus (GPa) = 38.68443 46.42399 42.55421
#
# Velocity S-wave (km/s) = 4.18693 4.58669 4.39136
# Velocity P-wave (km/s) = 6.48380 7.41486 6.96491
#
# Compressibility (1/GPa) = 0.02427782
#
# Stress axis : x y z
#
# Youngs Moduli (GPa) = 48.91876 75.24988 144.79513
#
# Poissons Ratio (x) = 0.26531 0.25389
# Poissons Ratio (y) = 0.17247 0.42001
# Poissons Ratio (z) = 0.08578 0.21828
#
# Static dielectric constant tensor:
#      x y z
#    x 1.856400 0.005660 0.016380 
#    y 0.005660 1.839880 -0.016230 
#    z 0.016380 -0.016230 1.838700 
# 
# From -- ./inp_files/189907.got.cif
#   From: 2010.05.17/outbox.ucp.g08.bks.cvg/sg2_95_cif.got.tgz:189907.got - 2010.06.11 11:32:03.
