data_PCOD9073159
_publ_section_title
;
Structure prediction by ZEFSAII (Michael W. Deem and Ramdas Pophale) SiO2 
 PCOD9073159
Probable space group: P -1
;
_chemical_formula_sum "Si O2"
_cell_formula_units_Z 15
_cell_length_a 12.000000
_cell_length_b 9.000000
_cell_length_c 15.000000
_cell_angle_alpha 60.000000
_cell_angle_beta 30.000000
_cell_angle_gamma 60.000000
_cell_volume 693.035739
_symmetry_space_group_name_H-M "P -1"
_symmetry_group_IT_number 2
_symmetry_cell_setting 'triclinic'
loop_
_space_group_symop_operation_xyz
x,y,z
-x,-y,-z
loop_
_atom_site_type_symbol
_atom_site_label
_atom_site_fract_x
_atom_site_fract_y
_atom_site_fract_z
Si Si1 0.348600 0.619347 0.801089
Si Si2 0.249437 0.996393 0.703546
Si Si3 0.906649 0.861172 0.854593
Si Si4 0.600377 0.208944 0.990731
Si Si5 0.000000 0.500000 0.000000
Si Si6 0.063898 0.660510 0.142915
Si Si7 0.934156 0.710878 0.681555
Si Si8 0.199504 0.598692 0.370907
O O1 0.264255 0.549631 0.788476
O O2 0.590131 0.533844 0.693466
O O3 0.288029 0.826123 0.789014
O O4 0.136833 0.577193 0.021015
O O5 0.128912 0.174043 0.777231
O O6 0.500000 0.000000 0.500000
O O7 0.100012 0.960498 0.732678
O O8 0.952084 0.803252 0.737367
O O9 0.897071 0.699127 0.975305
O O10 0.683434 0.005042 0.976990
O O11 0.724384 0.277214 0.970911
O O12 0.691109 0.308190 0.814075
O O13 0.331125 0.253259 0.170317
O O14 0.998976 0.497644 0.289223
O O15 0.089489 0.736910 0.480900
O O16 0.000000 0.500000 0.500000
#
# Coordination Sequence:
#
# PCOD9073159 Si02
#       8
#     2   2   2   2   1   2   2   2
#     4  11  22  40  66  95 127 174 220 266 331 387
#     4  10  23  41  61  94 130 167 217 279 319 386
#     4  10  23  41  67  92 132 168 218 270 328 385
#     4  11  23  42  64  97 132 171 218 273 321 389
#     4  10  20  44  66  92 128 172 214 268 326 384
#     4  11  20  39  66  91 124 172 219 263 325 383
#     4  12  22  41  67  95 130 177 215 267 330 388
#     4  12  24  39  68  97 134 171 217 271 325 387
#
# _framework density 21.643905
#
# number of rings (size 3 to 8) (size 9 to 14) (size 15 to 20)
#    0.000    1.067    4.000    2.800    1.867    0.533 
#    2.400    2.000    2.933    0.000    0.000    0.000 
#    0.000    0.000    0.000    0.000    0.000    0.000 
#
# Total GULP energy -83516.275260 kJ/mol
# GULP energy per Si atom -5567.751684 kJ/mol
# Density = 2.159464 g / cm^3
# Si number density = 21.643905 Si / 1000 Ang^3
#
#
#
# Elastic Constant Matrix: (Units=GPa)
#
#
# Indices 1 2 3 4 5 6 
#
# 1 -47.0785 15.9705 -13.1291 -9.8184 -10.8783 -25.5930
# 2 15.9705 127.5133 26.8080 18.8048 -19.7118 -18.6588
# 3 -13.1291 26.8080 74.5400 23.6939 -11.4236 -18.2037
# 4 -9.8184 18.8048 23.6939 22.0487 -2.5895 -4.0000
# 5 -10.8783 -19.7118 -11.4236 -2.5895 33.2267 12.7835
# 6 -25.5930 -18.6588 -18.2037 -4.0000 12.7835 42.5127
#
#
#
# Elastic Compliance Matrix: (Units=1/GPa)
#
#
# Indices 1 2 3 4 5 6 
#
# 1 -0.013346 0.001660 -0.003734 -0.005153 -0.001648 -0.008894
# 2 0.001660 0.009781 0.000577 -0.007045 0.004658 0.003476
# 3 -0.003734 0.000577 0.021815 -0.024486 0.003134 0.004100
# 4 -0.005153 -0.007045 -0.024486 0.073264 -0.005440 -0.008150
# 5 -0.001648 0.004658 0.003134 -0.005440 0.036468 -0.009084
# 6 -0.008894 0.003476 0.004100 -0.008150 -0.009084 0.023414
#
#
# Mechanical properties :
#
#
# Convention : Reuss Voigt Hill
#
# Bulk Modulus (GPa) = 65.54954 23.80818 44.67886
# Shear Modulus (GPa) = 31.35273 27.91264 29.63268
#
# Velocity S-wave (km/s) = 3.81014 3.59504 3.70415
# Velocity P-wave (km/s) = 7.05035 5.31566 6.24354
#
# Compressibility (1/GPa) = 0.01525564
#
# Stress axis : x y z
#
# Youngs Moduli (GPa) = -74.92930 102.24268 45.83919
#
# Poissons Ratio (x) = -0.16976 0.17118
# Poissons Ratio (y) = 0.12441 -0.02644
# Poissons Ratio (z) = -0.27982 -0.05897
#
# Static dielectric constant tensor:
#      x y z
#    x 1.534010 -0.048010 -0.094310 
#    y -0.048010 2.019660 -0.316370 
#    z -0.094310 -0.316370 2.057830 
# 
# From -- ./inp_files/256599.got.cif
#   From: 2010.05.17/outbox.ucp.g08.bks.cvg/sg2_129_cif.got.tgz:256599.got - 2010.06.11 11:32:03.
