data_PCOD9073397
_publ_section_title
;
Structure prediction by ZEFSAII (Michael W. Deem and Ramdas Pophale) SiO2 
 PCOD9073397
Probable space group: P -1
;
_chemical_formula_sum "Si O2"
_cell_formula_units_Z 16
_cell_length_a 18.000000
_cell_length_b 12.000000
_cell_length_c 21.000000
_cell_angle_alpha 140.000000
_cell_angle_beta 160.000000
_cell_angle_gamma 30.000000
_cell_volume 744.844803
_symmetry_space_group_name_H-M "P -1"
_symmetry_group_IT_number 2
_symmetry_cell_setting 'triclinic'
loop_
_space_group_symop_operation_xyz
x,y,z
-x,-y,-z
loop_
_atom_site_type_symbol
_atom_site_label
_atom_site_fract_x
_atom_site_fract_y
_atom_site_fract_z
Si Si1 0.407066 0.269438 0.868417
Si Si2 0.216663 0.370782 0.277698
Si Si3 0.747465 0.228996 0.320465
Si Si4 0.186510 0.741017 0.072729
Si Si5 0.631467 0.089312 0.606528
Si Si6 0.110331 0.211405 0.715838
Si Si7 0.097758 0.712401 0.729005
Si Si8 0.314401 0.001006 0.594073
O O1 0.255973 0.279143 0.815882
O O2 0.214616 0.472423 0.748481
O O3 0.478481 0.055461 0.793854
O O4 0.655459 0.279173 0.087535
O O5 0.425311 0.241158 0.449301
O O6 0.009738 0.636761 0.249734
O O7 0.437526 0.259521 0.347238
O O8 0.037570 0.285933 0.096480
O O9 0.481789 0.468544 0.173978
O O10 0.854223 0.269550 0.489250
O O11 0.044582 0.070366 0.448103
O O12 0.692624 0.058795 0.223404
O O13 0.329151 0.770472 0.256503
O O14 0.000000 0.000000 0.000000
O O15 0.500000 0.000000 0.500000
O O16 0.943527 0.876321 0.737703
O O17 0.855530 0.825869 0.528305
#
# Coordination Sequence:
#
# PCOD9073397 Si02
#       8
#     2   2   2   2   2   2   2   2
#     4  10  21  39  62  91 131 166 217 273 321 390
#     4  11  23  40  65  95 132 174 216 274 334 388
#     4  10  24  44  70  97 130 180 224 273 324 397
#     4  12  25  38  67 101 132 168 227 273 329 392
#     4  11  21  39  59  93 134 172 211 271 326 393
#     4  10  22  45  71  92 133 180 227 264 329 394
#     4  10  22  35  62  92 129 171 211 264 340 384
#     4  10  23  40  61  95 134 168 215 275 330 382
#
# _framework density 21.480985
#
# number of rings (size 3 to 8) (size 9 to 14) (size 15 to 20)
#    0.000    1.500    2.500    1.875    3.500    3.000 
#    0.000    0.000    0.000    3.000    0.000    0.000 
#    0.000    0.000    0.000    0.000    0.000    0.000 
#
# Total GULP energy -89118.493055 kJ/mol
# GULP energy per Si atom -5569.905816 kJ/mol
# Density = 2.143209 g / cm^3
# Si number density = 21.480985 Si / 1000 Ang^3
#
#
#
# Elastic Constant Matrix: (Units=GPa)
#
#
# Indices 1 2 3 4 5 6 
#
# 1 78.6266 43.9041 19.0150 3.5636 14.7947 -14.7993
# 2 43.9041 104.6955 46.6431 5.0221 9.1422 -10.8373
# 3 19.0150 46.6431 70.9844 4.7633 9.0628 -7.6592
# 4 3.5636 5.0221 4.7633 32.6143 -1.1701 -0.5641
# 5 14.7947 9.1422 9.0628 -1.1701 32.7239 1.3202
# 6 -14.7993 -10.8373 -7.6592 -0.5641 1.3202 31.3354
#
#
#
# Elastic Compliance Matrix: (Units=1/GPa)
#
#
# Indices 1 2 3 4 5 6 
#
# 1 0.019228 -0.007238 0.001418 -0.001334 -0.007402 0.007212
# 2 -0.007238 0.016539 -0.009044 -0.000393 0.001141 0.000036
# 3 0.001418 -0.009044 0.020577 -0.001864 -0.003989 0.002706
# 4 -0.001334 -0.000393 -0.001864 0.031212 0.002376 -0.000760
# 5 -0.007402 0.001141 -0.003989 0.002376 0.034999 -0.005508
# 6 0.007212 0.000036 0.002706 -0.000760 -0.005508 0.036211
#
#
# Mechanical properties :
#
#
# Convention : Reuss Voigt Hill
#
# Bulk Modulus (GPa) = 37.57180 52.60343 45.08761
# Shear Modulus (GPa) = 25.33372 28.98433 27.15902
#
# Velocity S-wave (km/s) = 3.43790 3.67727 3.55960
# Velocity P-wave (km/s) = 5.76954 6.52467 6.15869
#
# Compressibility (1/GPa) = 0.02661571
#
# Stress axis : x y z
#
# Youngs Moduli (GPa) = 52.00782 60.46315 48.59844
#
# Poissons Ratio (x) = 0.43764 -0.06892
# Poissons Ratio (y) = 0.37644 0.43953
# Poissons Ratio (z) = -0.07376 0.54684
#
# Static dielectric constant tensor:
#      x y z
#    x 1.816930 -0.030270 0.027850 
#    y -0.030270 1.866770 -0.017270 
#    z 0.027850 -0.017270 1.762810 
# 
# From -- ./inp_files/600095.got.cif
#   From: 2010.05.17/outbox.ucp.g08.bks.cvg/sg2_301_cif.got.tgz:600095.got - 2010.06.11 11:32:03.
