data_PCOD9073553
_publ_section_title
;
Structure prediction by ZEFSAII (Michael W. Deem and Ramdas Pophale) SiO2 
 PCOD9073553
Probable space group: P -1
;
_chemical_formula_sum "Si O2"
_cell_formula_units_Z 14
_cell_length_a 15.000000
_cell_length_b 15.000000
_cell_length_c 9.000000
_cell_angle_alpha 140.000000
_cell_angle_beta 30.000000
_cell_angle_gamma 140.000000
_cell_volume 616.747849
_symmetry_space_group_name_H-M "P -1"
_symmetry_group_IT_number 2
_symmetry_cell_setting 'triclinic'
loop_
_space_group_symop_operation_xyz
x,y,z
-x,-y,-z
loop_
_atom_site_type_symbol
_atom_site_label
_atom_site_fract_x
_atom_site_fract_y
_atom_site_fract_z
Si Si1 0.293474 0.597665 0.118768
Si Si2 0.648431 0.111240 0.766547
Si Si3 0.209769 0.068823 0.861269
Si Si4 0.355151 0.399483 0.200790
Si Si5 0.894879 0.125865 0.961233
Si Si6 0.237933 0.040137 0.357149
Si Si7 0.082721 0.551654 0.678610
O O1 0.303534 0.760105 0.258096
O O2 0.180511 0.545795 0.369456
O O3 0.144144 0.506426 0.092997
O O4 0.507109 0.597798 0.851176
O O5 0.796399 0.102166 0.668775
O O6 0.637192 0.958098 0.506735
O O7 0.460253 0.116115 0.124303
O O8 0.267505 0.234243 0.049753
O O9 0.212637 0.962021 0.855953
O O10 0.000000 0.000000 0.000000
O O11 0.182013 0.467915 0.541740
O O12 0.500000 0.500000 0.000000
O O13 0.824320 0.017103 0.788903
O O14 0.866246 0.276162 0.150237
O O15 0.112504 0.141776 0.706235
#
# Coordination Sequence:
#
# PCOD9073553 Si02
#       7
#     2   2   2   2   2   2   2
#     4  10  21  40  67  98 136 169 223 285 336 393
#     4  11  22  42  66  99 129 175 222 282 330 397
#     4  12  23  39  76 102 127 176 240 276 328 397
#     4  10  24  38  61 109 139 161 216 295 339 388
#     4  11  23  44  66  96 130 180 223 275 333 402
#     4  10  25  40  63  93 143 168 221 274 342 396
#     4  10  22  40  67  99 134 174 218 288 340 386
#
# _framework density 22.699714
#
# number of rings (size 3 to 8) (size 9 to 14) (size 15 to 20)
#    0.000    1.429    2.857    1.714    8.000    1.143 
#    2.571    1.429    0.000    0.000    0.000    0.000 
#    0.000    0.000    0.000    0.000    0.000    0.000 
#
# Total GULP energy -77978.027332 kJ/mol
# GULP energy per Si atom -5569.859095 kJ/mol
# Density = 2.264805 g / cm^3
# Si number density = 22.699714 Si / 1000 Ang^3
#
#
#
# Elastic Constant Matrix: (Units=GPa)
#
#
# Indices 1 2 3 4 5 6 
#
# 1 87.2115 3.3429 -0.4541 -24.8638 -2.1582 -27.1958
# 2 3.3429 90.0645 9.5893 3.7515 1.9718 -6.3529
# 3 -0.4541 9.5893 50.8251 -11.5976 1.2843 -11.7772
# 4 -24.8638 3.7515 -11.5976 5.3920 12.2721 -20.3315
# 5 -2.1582 1.9718 1.2843 12.2721 14.5467 9.4262
# 6 -27.1958 -6.3529 -11.7772 -20.3315 9.4262 28.6094
#
#
#
# Elastic Compliance Matrix: (Units=1/GPa)
#
#
# Indices 1 2 3 4 5 6 
#
# 1 0.008068 -0.000110 -0.003063 -0.008869 0.011331 -0.003652
# 2 -0.000110 0.011510 -0.001840 -0.000686 -0.002056 0.001884
# 3 -0.003063 -0.001840 0.017160 -0.007550 0.007247 -0.004010
# 4 -0.008869 -0.000686 -0.007550 -0.007097 0.020692 -0.023552
# 5 0.011331 -0.002056 0.007247 0.020692 0.043817 0.013566
# 6 -0.003652 0.001884 -0.004010 -0.023552 0.013566 0.009043
#
#
# Mechanical properties :
#
#
# Convention : Reuss Voigt Hill
#
# Bulk Modulus (GPa) = 37.43784 28.11749 32.77767
# Shear Modulus (GPa) = 49.29447 24.08448 36.68947
#
# Velocity S-wave (km/s) = 4.66509 3.26084 4.02468
# Velocity P-wave (km/s) = 6.74877 5.15665 6.00570
#
# Compressibility (1/GPa) = 0.02671094
#
# Stress axis : x y z
#
# Youngs Moduli (GPa) = 123.94943 86.88350 58.27420
#
# Poissons Ratio (x) = 0.00952 0.17852
# Poissons Ratio (y) = 0.01358 0.10725
# Poissons Ratio (z) = 0.37971 0.15990
#
# Static dielectric constant tensor:
#      x y z
#    x 2.198640 -0.321350 0.349940 
#    y -0.321350 2.190330 -0.421380 
#    z 0.349940 -0.421380 2.351710 
# 
# From -- ./inp_files/184047.got.cif
#   From: 2010.05.17/outbox.ucp.g08.bks.cvg/sg2_93_cif.got.tgz:184047.got - 2010.06.11 11:32:03.
