data_PCOD9073797
_publ_section_title
;
Structure prediction by ZEFSAII (Michael W. Deem and Ramdas Pophale) SiO2 
 PCOD9073797
Probable space group: P -1
;
_chemical_formula_sum "Si O2"
_cell_formula_units_Z 16
_cell_length_a 9.000000
_cell_length_b 12.000000
_cell_length_c 27.000000
_cell_angle_alpha 30.000000
_cell_angle_beta 40.000000
_cell_angle_gamma 30.000000
_cell_volume 727.497153
_symmetry_space_group_name_H-M "P -1"
_symmetry_group_IT_number 2
_symmetry_cell_setting 'triclinic'
loop_
_space_group_symop_operation_xyz
x,y,z
-x,-y,-z
loop_
_atom_site_type_symbol
_atom_site_label
_atom_site_fract_x
_atom_site_fract_y
_atom_site_fract_z
Si Si1 0.214614 0.742226 0.274053
Si Si2 0.697645 0.061113 0.039795
Si Si3 0.806390 0.752115 0.543709
Si Si4 0.320884 0.625436 0.854400
Si Si5 0.180716 0.302900 0.320127
Si Si6 0.666565 0.712535 0.101980
Si Si7 0.521989 0.822094 0.252166
Si Si8 0.720682 0.173160 0.588148
O O1 0.118415 0.543515 0.380885
O O2 0.482341 0.637155 0.208629
O O3 0.333377 0.769693 0.285293
O O4 0.951261 0.039548 0.200032
O O5 0.788235 0.802197 0.079087
O O6 0.544649 0.039645 0.134095
O O7 0.457849 0.374922 0.956298
O O8 0.000000 0.000000 0.000000
O O9 0.812295 0.718406 0.614353
O O10 0.011058 0.845357 0.450439
O O11 0.500000 0.000000 0.500000
O O12 0.596362 0.627185 0.773832
O O13 0.192305 0.534626 0.879938
O O14 0.861059 0.542943 0.284287
O O15 0.253001 0.014505 0.391380
O O16 0.500000 0.000000 0.000000
O O17 0.384339 0.914419 0.305884
O O18 0.500000 0.500000 0.500000
#
# Coordination Sequence:
#
# PCOD9073797 Si02
#       8
#     2   2   2   2   2   2   2   2
#     4  11  25  45  70 107 137 180 243 288 344 421
#     4  10  21  44  72 105 140 188 230 279 353 420
#     4  12  27  47  75 101 141 186 235 294 357 410
#     4  11  23  43  74 103 139 185 229 290 347 413
#     4  12  25  47  71  99 141 184 231 286 357 413
#     4   9  21  41  70  97 142 180 223 282 351 406
#     4  11  26  45  71 101 145 178 236 283 349 415
#     4  12  27  46  70 102 138 186 234 290 349 412
#
# _framework density 21.993213000000001
#
# number of rings (size 3 to 8) (size 9 to 14) (size 15 to 20)
#    0.000    1.000    3.750    1.875    3.500    7.000 
#    0.000    1.875    0.000    0.000    0.000    0.000 
#    0.000    0.000    0.000    0.000    0.000    0.000 
#
# Total GULP energy -89210.266514 kJ/mol
# GULP energy per Si atom -5575.641657 kJ/mol
# Density = 2.194316 g / cm^3
# Si number density = 21.993213 Si / 1000 Ang^3
#
#
#
# Elastic Constant Matrix: (Units=GPa)
#
#
# Indices 1 2 3 4 5 6 
#
# 1 121.3244 32.3105 26.7674 -1.8563 -10.3630 -25.9570
# 2 32.3105 24.6155 26.1809 -16.4344 1.4727 -16.2855
# 3 26.7674 26.1809 107.1373 -7.3322 -6.5927 -5.8921
# 4 -1.8563 -16.4344 -7.3322 37.5676 -0.4246 0.7199
# 5 -10.3630 1.4727 -6.5927 -0.4246 53.8393 -4.6852
# 6 -25.9570 -16.2855 -5.8921 0.7199 -4.6852 19.9110
#
#
#
# Elastic Compliance Matrix: (Units=1/GPa)
#
#
# Indices 1 2 3 4 5 6 
#
# 1 0.023378 -0.122382 0.017672 -0.047703 0.004269 -0.061663
# 2 -0.122382 1.382905 -0.222315 0.538497 -0.007382 0.884560
# 3 0.017672 -0.222315 0.045784 -0.084706 0.002090 -0.141693
# 4 -0.047703 0.538497 -0.084706 0.236680 -0.002477 0.344049
# 5 0.004269 -0.007382 0.002090 -0.002477 0.020269 0.005005
# 6 -0.061663 0.884560 -0.141693 0.344049 0.005005 0.640139
#
#
# Mechanical properties :
#
#
# Convention : Reuss Voigt Hill
#
# Bulk Modulus (GPa) = 1.25311 47.06608 24.15960
# Shear Modulus (GPa) = 1.52942 33.45146 17.49044
#
# Velocity S-wave (km/s) = 0.83481 3.90422 2.82310
# Velocity P-wave (km/s) = 1.22484 6.46302 4.65139
#
# Compressibility (1/GPa) = 0.79801646
#
# Stress axis : x y z
#
# Youngs Moduli (GPa) = 42.77560 0.72312 21.84158
#
# Poissons Ratio (x) = 0.08850 -0.38599
# Poissons Ratio (y) = 5.23498 4.85572
# Poissons Ratio (z) = -0.75595 0.16076
#
# Static dielectric constant tensor:
#      x y z
#    x 1.663220 0.006810 0.010540 
#    y 0.006810 1.927350 0.045260 
#    z 0.010540 0.045260 1.815080 
# 
# From -- ./inp_files/85107.got.cif
#   From: 2010.05.17/outbox.ucp.g08.bks.cvg/sg2_43_cif.got.tgz:85107.got - 2010.06.11 11:32:03.
