data_PCOD9073199
_publ_section_title
;
Structure prediction by ZEFSAII (Michael W. Deem and Ramdas Pophale) SiO2 
 PCOD9073199
Probable space group: P -1
;
_chemical_formula_sum "Si O2"
_cell_formula_units_Z 14
_cell_length_a 12.000000
_cell_length_b 15.000000
_cell_length_c 9.000000
_cell_angle_alpha 120.000000
_cell_angle_beta 130.000000
_cell_angle_gamma 30.000000
_cell_volume 613.666794
_symmetry_space_group_name_H-M "P -1"
_symmetry_group_IT_number 2
_symmetry_cell_setting 'triclinic'
loop_
_space_group_symop_operation_xyz
x,y,z
-x,-y,-z
loop_
_atom_site_type_symbol
_atom_site_label
_atom_site_fract_x
_atom_site_fract_y
_atom_site_fract_z
Si Si1 0.676642 0.968629 0.984831
Si Si2 0.001721 0.106140 0.008279
Si Si3 0.603301 0.403001 0.684218
Si Si4 0.875931 0.667742 0.229951
Si Si5 0.928852 0.287089 0.368237
Si Si6 0.102907 0.568864 0.028743
Si Si7 0.983131 0.127156 0.555774
O O1 0.381150 0.135092 0.890608
O O2 0.731344 0.016728 0.937990
O O3 0.835684 0.774413 0.921946
O O4 0.814804 0.934617 0.218103
O O5 0.922987 0.244077 0.166002
O O6 0.806659 0.217792 0.798439
O O7 0.000000 0.000000 0.000000
O O8 0.341145 0.528565 0.638602
O O9 0.703254 0.324846 0.537407
O O10 0.679560 0.475244 0.848773
O O11 0.915962 0.701619 0.447453
O O12 0.849305 0.562276 0.125748
O O13 0.081362 0.564435 0.185902
O O14 0.026338 0.138846 0.436367
O O15 0.000000 0.000000 0.500000
#
# Coordination Sequence:
#
# PCOD9073199 Si02
#       7
#     2   2   2   2   2   2   2
#     4  10  22  43  59  87 132 162 199 252 315 362
#     4  10  23  43  62  87 119 166 205 250 318 358
#     4  10  22  41  61  89 124 159 197 265 304 359
#     4  11  22  37  65  93 122 168 196 253 310 368
#     4  12  22  38  62  95 120 153 219 248 297 373
#     4   9  21  39  60  91 123 161 198 244 321 357
#     4  10  21  35  62  94 118 158 208 257 300 354
#
# _framework density 22.813683000000001
#
# number of rings (size 3 to 8) (size 9 to 14) (size 15 to 20)
#    0.000    2.000    2.857    3.000    4.000    1.714 
#    2.571    2.857    0.000    0.000    0.000    0.000 
#    0.000    0.000    0.000    0.000    0.000    0.000 
#
# Total GULP energy -78008.656933 kJ/mol
# GULP energy per Si atom -5572.046924 kJ/mol
# Density = 2.276176 g / cm^3
# Si number density = 22.813683 Si / 1000 Ang^3
#
#
#
# Elastic Constant Matrix: (Units=GPa)
#
#
# Indices 1 2 3 4 5 6 
#
# 1 68.5912 14.6316 13.1272 9.4417 3.2326 10.6938
# 2 14.6316 33.1002 66.2393 27.7237 48.1854 6.1265
# 3 13.1272 66.2393 17.6070 -1.0631 -1.4633 -6.0564
# 4 9.4417 27.7237 -1.0631 12.1590 -6.7180 14.4474
# 5 3.2326 48.1854 -1.4633 -6.7180 24.8568 13.8183
# 6 10.6938 6.1265 -6.0564 14.4474 13.8183 34.3803
#
#
#
# Elastic Compliance Matrix: (Units=1/GPa)
#
#
# Indices 1 2 3 4 5 6 
#
# 1 0.018595 -0.000084 -0.018841 0.017059 0.013241 -0.021578
# 2 -0.000084 0.001658 -0.010723 0.033293 0.018210 -0.023468
# 3 -0.018841 -0.010723 0.143105 -0.179422 -0.099256 0.148271
# 4 0.017059 0.033293 -0.179422 0.254406 0.096178 -0.188409
# 5 0.013241 0.018210 -0.099256 0.096178 0.076801 -0.096132
# 6 -0.021578 -0.023468 0.148271 -0.188409 -0.096132 0.183910
#
#
# Mechanical properties :
#
#
# Convention : Reuss Voigt Hill
#
# Bulk Modulus (GPa) = 9.60977 34.14385 21.87681
# Shear Modulus (GPa) = 6.47284 15.96592 11.21938
#
# Velocity S-wave (km/s) = 1.68624 2.64832 2.22002
# Velocity P-wave (km/s) = 2.83066 4.93461 4.02262
#
# Compressibility (1/GPa) = 0.10406073
#
# Stress axis : x y z
#
# Youngs Moduli (GPa) = 53.77815 603.18266 6.98789
#
# Poissons Ratio (x) = 0.05039 0.13166
# Poissons Ratio (y) = 0.00449 0.07493
# Poissons Ratio (z) = 1.01326 6.46821
#
# Static dielectric constant tensor:
#      x y z
#    x 1.875300 0.034690 -0.008460 
#    y 0.034690 1.912470 -0.046370 
#    z -0.008460 -0.046370 1.841590 
# 
# From -- ./inp_files/154009.got.cif
#   From: 2010.05.17/outbox.ucp.g08.bks.cvg/sg2_78_cif.got.tgz:154009.got - 2010.06.11 11:32:03.
