data_PCOD9073014
_publ_section_title
;
Structure prediction by ZEFSAII (Michael W. Deem and Ramdas Pophale) SiO2 
 PCOD9073014
Probable space group: P -1
;
_chemical_formula_sum "Si O2"
_cell_formula_units_Z 16
_cell_length_a 15.000000
_cell_length_b 15.000000
_cell_length_c 12.000000
_cell_angle_alpha 130.000000
_cell_angle_beta 150.000000
_cell_angle_gamma 40.000000
_cell_volume 865.974363
_symmetry_space_group_name_H-M "P -1"
_symmetry_group_IT_number 2
_symmetry_cell_setting 'triclinic'
loop_
_space_group_symop_operation_xyz
x,y,z
-x,-y,-z
loop_
_atom_site_type_symbol
_atom_site_label
_atom_site_fract_x
_atom_site_fract_y
_atom_site_fract_z
Si Si1 0.764244 0.172550 0.152958
Si Si2 0.397035 0.470484 0.016347
Si Si3 0.532387 0.674067 0.239381
Si Si4 0.780102 0.972269 0.358883
Si Si5 0.663051 0.960788 0.978413
Si Si6 0.718590 0.708730 0.694140
Si Si7 0.208164 0.544334 0.109538
Si Si8 0.585254 0.292269 0.453131
O O1 0.617122 0.326329 0.169745
O O2 0.677295 0.200946 0.952831
O O3 0.007501 0.110716 0.402386
O O4 0.701753 0.071276 0.054662
O O5 0.453933 0.581335 0.133729
O O6 0.246669 0.528538 0.005963
O O7 0.325408 0.421585 0.789926
O O8 0.649186 0.709390 0.489714
O O9 0.582341 0.972642 0.198301
O O10 0.706941 0.134906 0.411282
O O11 0.795394 0.917967 0.204710
O O12 0.709293 0.843095 0.843419
O O13 0.543788 0.700329 0.569788
O O14 0.964167 0.588122 0.892156
O O15 0.395137 0.400396 0.251878
O O16 0.258476 0.655628 0.304726
#
# Coordination Sequence:
#
# PCOD9073014 Si02
#       8
#     2   2   2   2   2   2   2   2
#     4  10  20  40  63  83 115 164 193 241 296 343
#     4   9  20  41  60  87 117 155 207 243 284 355
#     4   9  21  42  59  88 124 152 203 253 276 359
#     4  10  21  40  60  87 122 157 193 247 302 341
#     4  10  22  38  59  92 120 150 204 245 284 371
#     4  11  22  40  59  89 130 152 192 252 299 340
#     4  11  21  37  64  89 117 165 191 242 315 342
#     4  10  22  38  58  93 124 148 205 246 285 374
#
# _framework density 18.476298
#
# number of rings (size 3 to 8) (size 9 to 14) (size 15 to 20)
#    0.750    1.250    1.250    2.250    0.000    3.000 
#   11.250    2.500    0.000    0.000    0.000    0.000 
#    0.000    0.000    0.000    0.000    0.000    0.000 
#
# Total GULP energy -89077.216525 kJ/mol
# GULP energy per Si atom -5567.326033 kJ/mol
# Density = 1.843424 g / cm^3
# Si number density = 18.476298 Si / 1000 Ang^3
#
#
#
# Elastic Constant Matrix: (Units=GPa)
#
#
# Indices 1 2 3 4 5 6 
#
# 1 40.9646 12.0556 20.8684 11.1708 -21.2330 -3.9459
# 2 12.0556 43.6605 32.9849 -0.5367 -8.4455 -3.6053
# 3 20.8684 32.9849 148.3294 0.5895 -23.3946 -4.6520
# 4 11.1708 -0.5367 0.5895 23.1834 -7.6081 -6.0458
# 5 -21.2330 -8.4455 -23.3946 -7.6081 35.7077 6.4043
# 6 -3.9459 -3.6053 -4.6520 -6.0458 6.4043 21.9913
#
#
#
# Elastic Compliance Matrix: (Units=1/GPa)
#
#
# Indices 1 2 3 4 5 6 
#
# 1 0.040678 -0.007100 -0.001149 -0.014344 0.019362 -0.003690
# 2 -0.007100 0.029304 -0.005495 0.005094 -0.000508 0.003916
# 3 -0.001149 -0.005495 0.008764 0.001541 0.004091 -0.000021
# 4 -0.014344 0.005094 0.001541 0.054416 0.003006 0.012672
# 5 0.019362 -0.000508 0.004091 0.003006 0.044111 -0.007763
# 6 -0.003690 0.003916 -0.000021 0.012672 -0.007763 0.051193
#
#
# Mechanical properties :
#
#
# Convention : Reuss Voigt Hill
#
# Bulk Modulus (GPa) = 19.50935 40.53027 30.01981
# Shear Modulus (GPa) = 18.31244 27.31285 22.81265
#
# Velocity S-wave (km/s) = 3.15164 3.84899 3.51764
# Velocity P-wave (km/s) = 4.88117 6.46042 5.72550
#
# Compressibility (1/GPa) = 0.05125747
#
# Stress axis : x y z
#
# Youngs Moduli (GPa) = 24.58339 34.12558 114.10534
#
# Poissons Ratio (x) = 0.24228 0.13112
# Poissons Ratio (y) = 0.17453 0.62702
# Poissons Ratio (z) = 0.02825 0.18752
#
# Static dielectric constant tensor:
#      x y z
#    x 1.674520 -0.009570 -0.017080 
#    y -0.009570 1.657430 -0.005820 
#    z -0.017080 -0.005820 1.617430 
# 
# From -- ./inp_files/455013.got.cif
#   From: 2010.05.17/outbox.ucp.g08.bks.cvg/sg2_228_cif.got.tgz:455013.got - 2010.06.11 11:32:03.
