data_PCOD9073616
_publ_section_title
;
Structure prediction by ZEFSAII (Michael W. Deem and Ramdas Pophale) SiO2 
 PCOD9073616
Probable space group: P -1
;
_chemical_formula_sum "Si O2"
_cell_formula_units_Z 16
_cell_length_a 9.959258
_cell_length_b 16.819260
_cell_length_c 12.026995
_cell_angle_alpha 150.879933
_cell_angle_beta 108.977493
_cell_angle_gamma 52.519905
_cell_volume 657.591719
_symmetry_space_group_name_H-M "P -1"
_symmetry_group_IT_number 2
_symmetry_cell_setting 'triclinic'
loop_
_space_group_symop_operation_xyz
x,y,z
-x,-y,-z
loop_
_atom_site_type_symbol
_atom_site_label
_atom_site_fract_x
_atom_site_fract_y
_atom_site_fract_z
Si Si1 0.906820 0.349568 0.191686
Si Si2 0.030444 0.892050 0.637968
Si Si3 0.710923 0.112505 0.657022
Si Si4 0.263138 0.218503 0.202380
Si Si5 0.565661 0.599861 0.859609
Si Si6 0.599959 0.699102 0.353394
Si Si7 0.727111 0.949458 0.775525
Si Si8 0.233823 0.312215 0.838902
O O1 0.793906 0.550106 0.499301
O O2 0.751456 0.484393 0.212786
O O3 0.118073 0.272882 0.132352
O O4 0.964017 0.118043 0.947355
O O5 0.908567 0.850113 0.620855
O O6 0.267967 0.673033 0.442617
O O7 0.938660 0.964014 0.575064
O O8 0.612855 0.211311 0.628699
O O9 0.688933 0.934355 0.449097
O O10 0.579593 0.299902 0.949766
O O11 0.195972 0.158903 0.215249
O O12 0.500000 0.000000 0.000000
O O13 0.695420 0.654060 0.991457
O O14 0.423984 0.774257 0.934600
O O15 0.610178 0.878271 0.619713
O O16 0.700414 0.632128 0.178758
O O17 0.000000 0.500000 0.000000
#
# Coordination Sequence:
#
# PCOD9073616 Si02
#       8
#     2   2   2   2   2   2   2   2
#     4  10  25  44  61  88 126 152 199 255 310 371
#     4  11  22  37  59  94 129 159 189 250 309 354
#     4  10  19  33  56  90 128 159 212 241 275 347
#     4  10  24  47  69  85 110 156 206 258 309 366
#     4  10  18  31  55  88 121 157 198 246 285 339
#     4  10  18  37  57  85 123 165 203 244 281 349
#     4  10  20  37  64  91 114 153 211 254 293 355
#     4  11  16  29  57  88 117 162 208 249 272 333
#
# _framework density 24.331206000000002
#
# number of rings (size 3 to 8) (size 9 to 14) (size 15 to 20)
#    0.000    1.750    5.000    0.750    0.000    7.000 
#    0.000    3.750    0.000    0.000    0.000    0.000 
#    0.000    0.000    0.000    0.000    0.000    0.000 
#
# Total GULP energy -89254.317207 kJ/mol
# GULP energy per Si atom -5578.394825 kJ/mol
# Density = 2.427583 g / cm^3
# Si number density = 24.331206 Si / 1000 Ang^3
#
#
#
# Elastic Constant Matrix: (Units=GPa)
#
#
# Indices 1 2 3 4 5 6 
#
# 1 44.5152 13.3140 36.6320 10.0442 4.3326 -12.5437
# 2 13.3140 95.9144 34.7745 22.5776 -3.6456 -9.2636
# 3 36.6320 34.7745 126.7252 42.7732 9.2374 -3.0483
# 4 10.0442 22.5776 42.7732 36.4527 -10.4437 -3.8730
# 5 4.3326 -3.6456 9.2374 -10.4437 32.4948 9.4010
# 6 -12.5437 -9.2636 -3.0483 -3.8730 9.4010 25.9511
#
#
#
# Elastic Compliance Matrix: (Units=1/GPa)
#
#
# Indices 1 2 3 4 5 6 
#
# 1 0.036582 -0.000284 -0.010314 0.002291 -0.006787 0.019170
# 2 -0.000284 0.012699 -0.000920 -0.006744 -0.001556 0.003844
# 3 -0.010314 -0.000920 0.019656 -0.023071 -0.011020 -0.002456
# 4 0.002291 -0.006744 -0.023071 0.065561 0.027812 -0.004301
# 5 -0.006787 -0.001556 -0.011020 0.027812 0.048994 -0.018728
# 6 0.019170 0.003844 -0.002456 -0.004301 -0.018728 0.055026
#
#
# Mechanical properties :
#
#
# Convention : Reuss Voigt Hill
#
# Bulk Modulus (GPa) = 21.78635 48.51063 35.14849
# Shear Modulus (GPa) = 18.05992 31.14203 24.60098
#
# Velocity S-wave (km/s) = 2.72739 3.58148 3.18321
# Velocity P-wave (km/s) = 4.34646 6.08963 5.29033
#
# Compressibility (1/GPa) = 0.04590031
#
# Stress axis : x y z
#
# Youngs Moduli (GPa) = 27.33559 78.74757 50.87437
#
# Poissons Ratio (x) = 0.02239 0.52472
# Poissons Ratio (y) = 0.00777 0.04681
# Poissons Ratio (z) = 0.28194 0.07246
#
# Static dielectric constant tensor:
#      x y z
#    x 1.987320 -0.048270 -0.008920 
#    y -0.048270 2.042230 0.023250 
#    z -0.008920 0.023250 1.968520 
# 
# From -- ./inp_files/437124.got.cif
#   From: 2010.05.17/outbox.cif.g08.bks.cpg/sg2_219_cif.got.tgz:437124.got - 2010.06.03 11:33:40.
