data_PCOD9073858
_publ_section_title
;
Structure prediction by ZEFSAII (Michael W. Deem and Ramdas Pophale) SiO2 
 PCOD9073858
Probable space group: P -1
;
_chemical_formula_sum "Si O2"
_cell_formula_units_Z 14
_cell_length_a 12.000000
_cell_length_b 30.000000
_cell_length_c 30.000000
_cell_angle_alpha 170.000000
_cell_angle_beta 160.000000
_cell_angle_gamma 20.000000
_cell_volume 622.618477
_symmetry_space_group_name_H-M "P -1"
_symmetry_group_IT_number 2
_symmetry_cell_setting 'triclinic'
loop_
_space_group_symop_operation_xyz
x,y,z
-x,-y,-z
loop_
_atom_site_type_symbol
_atom_site_label
_atom_site_fract_x
_atom_site_fract_y
_atom_site_fract_z
Si Si1 0.916764 0.121926 0.539805
Si Si2 0.335163 0.114176 0.433303
Si Si3 0.896313 0.649376 0.278167
Si Si4 0.917263 0.014334 0.035514
Si Si5 0.228569 0.432741 0.613649
Si Si6 0.772828 0.370794 0.038750
Si Si7 0.208369 0.118667 0.834416
O O1 0.616488 0.375830 0.687197
O O2 0.756910 0.968119 0.290008
O O3 0.000000 0.000000 0.500000
O O4 0.298140 0.090087 0.635075
O O5 0.229492 0.278519 0.509496
O O6 0.357790 0.361489 0.717323
O O7 0.121589 0.905217 0.165117
O O8 0.997731 0.489614 0.205109
O O9 0.982582 0.930080 0.583250
O O10 0.508226 0.692726 0.162388
O O11 0.077973 0.433886 0.097970
O O12 0.522494 0.049603 0.917485
O O13 0.076987 0.746725 0.859865
O O14 0.000000 0.000000 0.000000
O O15 0.025434 0.270600 0.346932
#
# Coordination Sequence:
#
# PCOD9073858 Si02
#       7
#     2   2   2   2   2   2   2
#     4  10  22  38  61  94 129 162 197 246 312 373
#     4  11  22  40  65  92 128 161 196 254 316 366
#     4  11  23  38  63  95 125 156 203 257 309 368
#     4  12  25  41  64  87 124 172 211 247 292 352
#     4  11  25  42  61  92 127 165 209 246 298 372
#     4  11  21  39  64  94 124 158 200 252 319 369
#     4  12  23  41  63  90 129 161 203 255 302 358
#
# _framework density 22.485679999999999
#
# number of rings (size 3 to 8) (size 9 to 14) (size 15 to 20)
#    0.000    0.857    4.286    3.000    2.000    3.429 
#    0.000    5.000    0.000   17.143    0.000    0.000 
#    0.000    0.000    0.000    0.000    0.000    0.000 
#
# Total GULP energy -78002.952090 kJ/mol
# GULP energy per Si atom -5571.639435 kJ/mol
# Density = 2.243450 g / cm^3
# Si number density = 22.485680 Si / 1000 Ang^3
#
#
#
# Elastic Constant Matrix: (Units=GPa)
#
#
# Indices 1 2 3 4 5 6 
#
# 1 101.9260 5.3963 20.7102 3.3986 14.1266 14.1813
# 2 5.3963 69.6026 6.7887 13.2831 -3.8225 12.1123
# 3 20.7102 6.7887 92.0926 12.2257 12.8439 3.2393
# 4 3.3986 13.2831 12.2257 40.2993 7.8035 3.2690
# 5 14.1266 -3.8225 12.8439 7.8035 32.0389 15.9683
# 6 14.1813 12.1123 3.2393 3.2690 15.9683 17.1677
#
#
#
# Elastic Compliance Matrix: (Units=1/GPa)
#
#
# Indices 1 2 3 4 5 6 
#
# 1 0.011672 0.001708 -0.002619 -0.000202 0.002418 -0.012564
# 2 0.001708 0.024811 -0.003204 -0.009083 0.026040 -0.040802
# 3 -0.002619 -0.003204 0.012845 -0.001679 -0.009552 0.011205
# 4 -0.000202 -0.009083 -0.001679 0.030052 -0.015331 0.015429
# 5 0.002418 0.026040 -0.009552 -0.015331 0.090629 -0.099945
# 6 -0.012564 -0.040802 0.011205 0.015429 -0.099945 0.185324
#
#
# Mechanical properties :
#
#
# Convention : Reuss Voigt Hill
#
# Bulk Modulus (GPa) = 24.33183 36.60127 30.46655
# Shear Modulus (GPa) = 13.25336 33.28291 23.26813
#
# Velocity S-wave (km/s) = 2.43042 3.85149 3.22032
# Velocity P-wave (km/s) = 4.32671 6.00762 5.23507
#
# Compressibility (1/GPa) = 0.04109842
#
# Stress axis : x y z
#
# Youngs Moduli (GPa) = 85.67179 40.30437 77.85186
#
# Poissons Ratio (x) = -0.06885 0.20393
# Poissons Ratio (y) = -0.14635 0.24943
# Poissons Ratio (z) = 0.22441 0.12913
#
# Static dielectric constant tensor:
#      x y z
#    x 2.010730 -0.092580 0.031090 
#    y -0.092580 1.945440 -0.042070 
#    z 0.031090 -0.042070 1.808510 
# 
# From -- ./inp_files/100393.got.cif
#   From: 2010.05.17/outbox.ucp.g08.bks.cvg/sg2_51_cif.got.tgz:100393.got - 2010.06.11 11:32:03.
