data_PCOD9073472
_publ_section_title
;
Structure prediction by ZEFSAII (Michael W. Deem and Ramdas Pophale) SiO2 
 PCOD9073472
Probable space group: P -1
;
_chemical_formula_sum "Si O2"
_cell_formula_units_Z 14
_cell_length_a 12.000000
_cell_length_b 9.000000
_cell_length_c 21.000000
_cell_angle_alpha 140.000000
_cell_angle_beta 150.000000
_cell_angle_gamma 60.000000
_cell_volume 627.666119
_symmetry_space_group_name_H-M "P -1"
_symmetry_group_IT_number 2
_symmetry_cell_setting 'triclinic'
loop_
_space_group_symop_operation_xyz
x,y,z
-x,-y,-z
loop_
_atom_site_type_symbol
_atom_site_label
_atom_site_fract_x
_atom_site_fract_y
_atom_site_fract_z
Si Si1 0.104320 0.382121 0.284986
Si Si2 0.426558 0.698532 0.843165
Si Si3 0.566071 0.898903 0.836605
Si Si4 0.061659 0.784319 0.491105
Si Si5 0.452887 0.165811 0.428839
Si Si6 0.248746 0.494080 0.210663
Si Si7 0.729493 0.415562 0.899395
O O1 0.099201 0.595127 0.398750
O O2 0.201311 0.188547 0.298242
O O3 0.307579 0.566591 0.393727
O O4 0.813824 0.187650 0.058462
O O5 0.456029 0.739538 0.795742
O O6 0.613212 0.592343 0.926975
O O7 0.151907 0.440278 0.641145
O O8 0.500000 0.000000 0.000000
O O9 0.341190 0.938143 0.711342
O O10 0.675012 0.722803 0.799662
O O11 0.000000 0.000000 0.500000
O O12 0.521875 0.225930 0.556878
O O13 0.433396 0.906148 0.300582
O O14 0.219675 0.482451 0.115580
O O15 0.969097 0.457485 0.074598
#
# Coordination Sequence:
#
# PCOD9073472 Si02
#       7
#     2   2   2   2   2   2   2
#     4  11  24  40  67  96 134 179 221 273 340 401
#     4  11  24  47  72  97 138 184 225 272 332 407
#     4  11  23  46  71  96 134 181 225 276 341 397
#     4  12  26  46  70  99 138 181 229 277 327 406
#     4  11  22  40  65 101 135 170 220 278 344 394
#     4  10  21  39  69  97 129 172 217 285 338 392
#     4  10  22  41  66 101 129 168 229 277 330 402
#
# _framework density 22.304852
#
# number of rings (size 3 to 8) (size 9 to 14) (size 15 to 20)
#    0.000    1.143    4.286    1.714    0.000    3.429 
#   10.286    0.000    0.000    0.000    0.000    0.000 
#    0.000    0.000    0.000    0.000    0.000    0.000 
#
# Total GULP energy -77955.114127 kJ/mol
# GULP energy per Si atom -5568.222438 kJ/mol
# Density = 2.225409 g / cm^3
# Si number density = 22.304852 Si / 1000 Ang^3
#
#
#
# Elastic Constant Matrix: (Units=GPa)
#
#
# Indices 1 2 3 4 5 6 
#
# 1 34.5933 13.4426 6.5374 -5.8153 11.0847 -23.5943
# 2 13.4426 193.8421 87.3427 0.5999 11.0321 -40.1969
# 3 6.5374 87.3427 118.2393 -12.8063 28.6655 -21.4706
# 4 -5.8153 0.5999 -12.8063 49.2361 -5.8710 -3.3149
# 5 11.0847 11.0321 28.6655 -5.8710 21.5858 3.9331
# 6 -23.5943 -40.1969 -21.4706 -3.3149 3.9331 24.0081
#
#
#
# Elastic Compliance Matrix: (Units=1/GPa)
#
#
# Indices 1 2 3 4 5 6 
#
# 1 -0.029317 -0.005728 -0.020393 -0.006575 0.055415 -0.066626
# 2 -0.005728 0.008925 -0.009019 -0.001991 0.009935 -0.000654
# 3 -0.020393 -0.009019 0.009013 -0.000914 0.008062 -0.028529
# 4 -0.006575 -0.001991 -0.000914 0.020190 0.012910 -0.009939
# 5 0.055415 0.009935 0.008062 0.012910 -0.009271 0.081605
# 6 -0.066626 -0.000654 -0.028529 -0.009939 0.081605 -0.065174
#
#
# Mechanical properties :
#
#
# Convention : Reuss Voigt Hill
#
# Bulk Modulus (GPa) = -12.24611 62.36889 25.06139
# Shear Modulus (GPa) = -221.50471 34.92281 -93.29095
#
# Velocity S-wave (km/s) = -9.97614 3.96119 -6.47427
# Velocity P-wave (km/s) = 11.75586 6.99601 6.68042
#
# Compressibility (1/GPa) = -0.08165860
#
# Stress axis : x y z
#
# Youngs Moduli (GPa) = -34.10969 112.04380 110.94476
#
# Poissons Ratio (x) = 0.64175 2.26253
# Poissons Ratio (y) = -0.19537 1.00062
# Poissons Ratio (z) = -0.69561 1.01053
#
# Static dielectric constant tensor:
#      x y z
#    x 2.041080 0.043980 0.071890 
#    y 0.043980 1.794630 -0.071400 
#    z 0.071890 -0.071400 1.811710 
# 
# From -- ./inp_files/124142.got.cif
#   From: 2010.05.17/outbox.ucp.g08.bks.cvg/sg2_63_cif.got.tgz:124142.got - 2010.06.11 11:32:03.
