data_PCOD9073488
_publ_section_title
;
Structure prediction by ZEFSAII (Michael W. Deem and Ramdas Pophale) SiO2 
 PCOD9073488
Probable space group: P -1
;
_chemical_formula_sum "Si O2"
_cell_formula_units_Z 16
_cell_length_a 15.000000
_cell_length_b 15.000000
_cell_length_c 15.000000
_cell_angle_alpha 30.000000
_cell_angle_beta 30.000000
_cell_angle_gamma 50.000000
_cell_volume 762.223433
_symmetry_space_group_name_H-M "P -1"
_symmetry_group_IT_number 2
_symmetry_cell_setting 'triclinic'
loop_
_space_group_symop_operation_xyz
x,y,z
-x,-y,-z
loop_
_atom_site_type_symbol
_atom_site_label
_atom_site_fract_x
_atom_site_fract_y
_atom_site_fract_z
Si Si1 0.659416 0.680913 0.763210
Si Si2 0.629185 0.972639 0.830235
Si Si3 0.054319 0.702611 0.330736
Si Si4 0.212916 0.349565 0.000164
Si Si5 0.530379 0.013800 0.355359
Si Si6 0.529882 0.420044 0.270758
Si Si7 0.291542 0.628629 0.339890
Si Si8 0.157418 0.603061 0.679281
O O1 0.586757 0.854902 0.685857
O O2 0.866716 0.747581 0.474070
O O3 0.500000 0.500000 0.000000
O O4 0.661499 0.579026 0.944714
O O5 0.744188 0.203111 0.509321
O O6 0.760348 0.854669 0.847504
O O7 0.490565 0.835258 0.992311
O O8 0.500000 0.000000 0.000000
O O9 0.132638 0.669003 0.387574
O O10 0.000000 0.500000 0.500000
O O11 0.241606 0.866059 0.975775
O O12 0.404233 0.506148 0.749447
O O13 0.172944 0.425948 0.873827
O O14 0.043672 0.374154 0.183557
O O15 0.500000 0.000000 0.500000
O O16 0.470883 0.790802 0.564527
O O17 0.328486 0.452658 0.414185
O O18 0.242296 0.597551 0.513780
#
# Coordination Sequence:
#
# PCOD9073488 Si02
#       8
#     2   2   2   2   2   2   2   2
#     4  12  23  47  67  95 138 174 221 288 339 394
#     4   9  20  37  62  88 125 171 215 266 328 387
#     4  12  24  44  73  96 136 180 223 277 344 403
#     4  10  22  38  63  94 133 172 216 279 329 393
#     4  12  26  45  70 101 131 178 230 275 338 405
#     4  11  23  43  67  95 139 177 223 283 336 399
#     4  10  22  42  65  94 131 176 222 273 336 399
#     4  10  21  40  62  95 131 171 225 271 331 396
#
# _framework density 20.991219999999998
#
# number of rings (size 3 to 8) (size 9 to 14) (size 15 to 20)
#    0.000    1.250    3.750    1.125    1.750    5.000 
#    6.750    2.500    0.000    0.000    0.000    0.000 
#    0.000    0.000    0.000    0.000    0.000    0.000 
#
# Total GULP energy -89127.057937 kJ/mol
# GULP energy per Si atom -5570.441121 kJ/mol
# Density = 2.094344 g / cm^3
# Si number density = 20.991220 Si / 1000 Ang^3
#
#
#
# Elastic Constant Matrix: (Units=GPa)
#
#
# Indices 1 2 3 4 5 6 
#
# 1 67.0403 30.3382 16.2125 6.8771 4.0413 0.2369
# 2 30.3382 167.8971 53.9860 5.6961 7.2654 -12.6836
# 3 16.2125 53.9860 70.6004 15.4291 10.1738 -3.6884
# 4 6.8771 5.6961 15.4291 45.3880 -0.3166 -0.1626
# 5 4.0413 7.2654 10.1738 -0.3166 25.5508 7.7607
# 6 0.2369 -12.6836 -3.6884 -0.1626 7.7607 39.4614
#
#
#
# Elastic Compliance Matrix: (Units=1/GPa)
#
#
# Indices 1 2 3 4 5 6 
#
# 1 0.016641 -0.002511 -0.001401 -0.001741 -0.001132 -0.000822
# 2 -0.002511 0.008493 -0.006065 0.001382 -0.000265 0.002236
# 3 -0.001401 -0.006065 0.021643 -0.006429 -0.007198 0.001471
# 4 -0.001741 0.001382 -0.006429 0.024326 0.002933 -0.000623
# 5 -0.001132 -0.000265 -0.007198 0.002933 0.045220 -0.009632
# 6 -0.000822 0.002236 0.001471 -0.000623 -0.009632 0.028094
#
#
# Mechanical properties :
#
#
# Convention : Reuss Voigt Hill
#
# Bulk Modulus (GPa) = 37.28047 56.29015 46.78531
# Shear Modulus (GPa) = 28.84963 35.74680 32.29821
#
# Velocity S-wave (km/s) = 3.71127 4.13115 3.92682
# Velocity P-wave (km/s) = 6.01359 7.04482 6.54953
#
# Compressibility (1/GPa) = 0.02682370
#
# Stress axis : x y z
#
# Youngs Moduli (GPa) = 60.09230 117.73885 46.20456
#
# Poissons Ratio (x) = 0.29559 0.06473
# Poissons Ratio (y) = 0.15086 0.28024
# Poissons Ratio (z) = 0.08419 0.71411
#
# Static dielectric constant tensor:
#      x y z
#    x 1.838530 -0.066150 -0.081080 
#    y -0.066150 1.746820 0.068930 
#    z -0.081080 0.068930 1.937780 
# 
# From -- ./inp_files/534095.got.cif
#   From: 2010.05.17/outbox.ucp.g08.bks.cvg/sg2_268_cif.got.tgz:534095.got - 2010.06.11 11:32:03.
