data_PCOD9073094
_publ_section_title
;
Structure prediction by ZEFSAII (Michael W. Deem and Ramdas Pophale) SiO2 
 PCOD9073094
Probable space group: P -1
;
_chemical_formula_sum "Si O2"
_cell_formula_units_Z 16
_cell_length_a 12.000000
_cell_length_b 15.000000
_cell_length_c 15.000000
_cell_angle_alpha 150.000000
_cell_angle_beta 140.000000
_cell_angle_gamma 60.000000
_cell_volume 747.221570
_symmetry_space_group_name_H-M "P -1"
_symmetry_group_IT_number 2
_symmetry_cell_setting 'triclinic'
loop_
_space_group_symop_operation_xyz
x,y,z
-x,-y,-z
loop_
_atom_site_type_symbol
_atom_site_label
_atom_site_fract_x
_atom_site_fract_y
_atom_site_fract_z
Si Si1 0.435067 0.680530 0.237933
Si Si2 0.830357 0.483118 0.491005
Si Si3 0.848131 0.503193 0.836944
Si Si4 0.996929 0.651707 0.362633
Si Si5 0.771029 0.171369 0.048478
Si Si6 0.598171 0.702360 0.546980
Si Si7 0.594785 0.939743 0.395070
Si Si8 0.988571 0.028006 0.622711
O O1 0.551005 0.661354 0.376498
O O2 0.579844 0.799243 0.347328
O O3 0.346707 0.830249 0.339243
O O4 0.241478 0.469030 0.907768
O O5 0.952214 0.419504 0.576866
O O6 0.710156 0.281326 0.181652
O O7 0.693248 0.567066 0.520596
O O8 0.998199 0.673541 0.700587
O O9 0.897010 0.418230 0.705640
O O10 0.616613 0.361426 0.598501
O O11 0.891434 0.736308 0.066539
O O12 0.000000 0.500000 0.000000
O O13 0.063030 0.890032 0.599039
O O14 0.625624 0.143704 0.853078
O O15 0.736911 0.947909 0.857977
O O16 0.757203 0.952749 0.437865
O O17 0.000000 0.000000 0.500000
#
# Coordination Sequence:
#
# PCOD9073094 Si02
#       8
#     2   2   2   2   2   2   2   2
#     4  10  20  41  68 104 128 171 222 284 331 384
#     4  11  26  44  63  98 138 173 220 268 336 397
#     4  12  23  44  68  99 133 169 225 278 330 386
#     4  12  25  43  66  99 138 172 220 283 326 391
#     4  10  23  43  67  96 136 174 215 277 330 397
#     4  11  24  42  73  93 131 183 219 269 333 400
#     4  10  21  39  72 102 133 170 223 279 335 387
#     4  12  25  39  70 104 129 175 220 273 335 394
#
# _framework density 21.412658
#
# number of rings (size 3 to 8) (size 9 to 14) (size 15 to 20)
#    0.000    1.000    5.000    1.125    3.500    4.000 
#    0.000    1.250    0.000    0.000    0.000    0.000 
#    0.000    0.000    0.000    0.000    0.000    0.000 
#
# Total GULP energy -89423.484009 kJ/mol
# GULP energy per Si atom -5588.967751 kJ/mol
# Density = 2.136392 g / cm^3
# Si number density = 21.412658 Si / 1000 Ang^3
#
#
#
# Elastic Constant Matrix: (Units=GPa)
#
#
# Indices 1 2 3 4 5 6 
#
# 1 68.1696 14.2978 -0.6224 8.1548 6.4824 -10.4351
# 2 14.2978 70.8627 46.7055 36.8255 -7.5463 -12.2807
# 3 -0.6224 46.7055 64.5504 18.7809 -12.8344 -2.8607
# 4 8.1548 36.8255 18.7809 24.3971 -10.2567 -1.0160
# 5 6.4824 -7.5463 -12.8344 -10.2567 19.9562 3.3930
# 6 -10.4351 -12.2807 -2.8607 -1.0160 3.3930 17.4268
#
#
#
# Elastic Compliance Matrix: (Units=1/GPa)
#
#
# Indices 1 2 3 4 5 6 
#
# 1 0.015024 -0.024905 0.011716 0.026668 0.008074 -0.006648
# 2 -0.024905 -0.126763 0.050044 0.205506 0.116095 -0.106651
# 3 0.011716 0.050044 0.001059 -0.095628 -0.040977 0.044859
# 4 0.026668 0.205506 -0.095628 -0.262912 -0.154766 0.159896
# 5 0.008074 0.116095 -0.040977 -0.154766 -0.027474 0.076247
# 6 -0.006648 -0.106651 0.044859 0.159896 0.076247 -0.019914
#
#
# Mechanical properties :
#
#
# Convention : Reuss Voigt Hill
#
# Bulk Modulus (GPa) = -27.04987 36.03829 4.49421
# Shear Modulus (GPa) = -9.86165 21.90279 6.02057
#
# Velocity S-wave (km/s) = -2.14838 3.20173 1.67863
# Velocity P-wave (km/s) = 4.33752 5.52585 2.42084
#
# Compressibility (1/GPa) = -0.03696875
#
# Stress axis : x y z
#
# Youngs Moduli (GPa) = 66.55956 -7.88873 944.47725
#
# Poissons Ratio (x) = -0.19647 -11.06586
# Poissons Ratio (y) = 1.65766 -47.26557
# Poissons Ratio (z) = -0.77984 0.39479
#
# Static dielectric constant tensor:
#      x y z
#    x 1.735740 0.117710 -0.029130 
#    y 0.117710 1.705960 0.001630 
#    z -0.029130 0.001630 1.848560 
# 
# From -- ./inp_files/452473.got.cif
#   From: 2010.05.17/outbox.ucp.g08.bks.cvg/sg2_227_cif.got.tgz:452473.got - 2010.06.11 11:32:03.
