data_PCOD9073728
_publ_section_title
;
Structure prediction by ZEFSAII (Michael W. Deem and Ramdas Pophale) SiO2 
 PCOD9073728
Probable space group: P -1
;
_chemical_formula_sum "Si O2"
_cell_formula_units_Z 16
_cell_length_a 21.000000
_cell_length_b 18.000000
_cell_length_c 9.000000
_cell_angle_alpha 60.000000
_cell_angle_beta 130.000000
_cell_angle_gamma 160.000000
_cell_volume 818.070593
_symmetry_space_group_name_H-M "P -1"
_symmetry_group_IT_number 2
_symmetry_cell_setting 'triclinic'
loop_
_space_group_symop_operation_xyz
x,y,z
-x,-y,-z
loop_
_atom_site_type_symbol
_atom_site_label
_atom_site_fract_x
_atom_site_fract_y
_atom_site_fract_z
Si Si1 0.450046 0.108602 0.462143
Si Si2 0.039150 0.437690 0.093629
Si Si3 0.547928 0.869154 0.912139
Si Si4 0.074944 0.218477 0.179142
Si Si5 0.740580 0.731975 0.823111
Si Si6 0.554658 0.682270 0.008007
Si Si7 0.556168 0.398062 0.411522
Si Si8 0.931985 0.599666 0.160211
O O1 0.709204 0.333453 0.680111
O O2 0.465456 0.118506 0.295342
O O3 0.440776 0.194554 0.431909
O O4 0.187487 0.821397 0.388302
O O5 0.078480 0.455151 0.961535
O O6 0.000000 0.500000 0.000000
O O7 0.796537 0.150750 0.056267
O O8 0.553056 0.770315 0.008315
O O9 0.303516 0.650194 0.851682
O O10 0.223931 0.289181 0.250623
O O11 0.204699 0.371465 0.371463
O O12 0.059298 0.289061 0.980835
O O13 0.825086 0.937052 0.117594
O O14 0.612548 0.699325 0.660187
O O15 0.575168 0.515532 0.896949
O O16 0.000000 0.000000 0.000000
O O17 0.424658 0.560467 0.775807
#
# Coordination Sequence:
#
# PCOD9073728 Si02
#       8
#     2   2   2   2   2   2   2   2
#     4  10  21  43  65  91 127 171 207 251 324 374
#     4  11  24  44  68  95 129 162 204 263 317 381
#     4  10  22  40  65  96 125 168 211 253 312 378
#     4  12  22  42  61  89 127 167 211 257 309 366
#     4  12  24  40  61  90 130 164 213 262 304 354
#     4  11  22  42  62  86 127 169 206 257 309 364
#     4  11  22  40  61  90 123 168 210 256 306 365
#     4  11  21  41  67  94 129 165 209 260 309 378
#
# _framework density 19.558214
#
# number of rings (size 3 to 8) (size 9 to 14) (size 15 to 20)
#    0.000    1.000    7.500    0.750    0.000    4.000 
#    2.250    1.250    0.000    0.000    0.000    0.000 
#    0.000    0.000    0.000    0.000    0.000    0.000 
#
# Total GULP energy -89079.378052 kJ/mol
# GULP energy per Si atom -5567.461128 kJ/mol
# Density = 1.951370 g / cm^3
# Si number density = 19.558214 Si / 1000 Ang^3
#
#
#
# Elastic Constant Matrix: (Units=GPa)
#
#
# Indices 1 2 3 4 5 6 
#
# 1 88.1598 42.5376 17.2983 -2.0040 24.3923 12.1945
# 2 42.5376 123.3033 34.3700 32.2847 -1.9061 6.1658
# 3 17.2983 34.3700 90.2135 40.4412 0.6194 -8.8516
# 4 -2.0040 32.2847 40.4412 29.1265 -0.6387 3.4665
# 5 24.3923 -1.9061 0.6194 -0.6387 21.8306 -5.6368
# 6 12.1945 6.1658 -8.8516 3.4665 -5.6368 5.7235
#
#
#
# Elastic Compliance Matrix: (Units=1/GPa)
#
#
# Indices 1 2 3 4 5 6 
#
# 1 0.001777 -0.000228 0.012915 -0.021666 0.006202 0.035663
# 2 -0.000228 0.011460 -0.005172 -0.002958 -0.004492 -0.022493
# 3 0.012915 -0.005172 0.006770 0.000979 -0.024355 -0.036053
# 4 -0.021666 -0.002958 0.000979 0.026298 0.045208 0.079457
# 5 0.006202 -0.004492 -0.024355 0.045208 0.028886 -0.044972
# 6 0.035663 -0.022493 -0.036053 0.079457 -0.044972 -0.025206
#
#
# Mechanical properties :
#
#
# Convention : Reuss Voigt Hill
#
# Bulk Modulus (GPa) = 28.54104 54.45427 41.49766
# Shear Modulus (GPa) = 107.21420 25.16749 66.19085
#
# Velocity S-wave (km/s) = 7.41195 3.59109 5.82378
# Velocity P-wave (km/s) = 9.37411 6.71544 8.15387
#
# Compressibility (1/GPa) = 0.03503726
#
# Stress axis : x y z
#
# Youngs Moduli (GPa) = 562.66302 87.25712 147.70703
#
# Poissons Ratio (x) = 0.01988 -1.90763
# Poissons Ratio (y) = 0.12816 0.76401
# Poissons Ratio (z) = -7.26677 0.45133
#
# Static dielectric constant tensor:
#      x y z
#    x 1.710490 -0.000470 0.034250 
#    y -0.000470 1.686960 -0.000520 
#    z 0.034250 -0.000520 1.758120 
# 
# From -- ./inp_files/348455.got.cif
#   From: 2010.05.17/outbox.ucp.g08.bks.cvg/sg2_175_cif.got.tgz:348455.got - 2010.06.11 11:32:03.
