data_PCOD9073474
_publ_section_title
;
Structure prediction by ZEFSAII (Michael W. Deem and Ramdas Pophale) SiO2 
 PCOD9073474
Probable space group: P -1
;
_chemical_formula_sum "Si O2"
_cell_formula_units_Z 16
_cell_length_a 9.000000
_cell_length_b 24.000000
_cell_length_c 9.000000
_cell_angle_alpha 40.000000
_cell_angle_beta 100.000000
_cell_angle_gamma 130.000000
_cell_volume 729.599496
_symmetry_space_group_name_H-M "P -1"
_symmetry_group_IT_number 2
_symmetry_cell_setting 'triclinic'
loop_
_space_group_symop_operation_xyz
x,y,z
-x,-y,-z
loop_
_atom_site_type_symbol
_atom_site_label
_atom_site_fract_x
_atom_site_fract_y
_atom_site_fract_z
Si Si1 0.735759 0.384999 0.279770
Si Si2 0.513842 0.385495 0.990845
Si Si3 0.436409 0.874887 0.073591
Si Si4 0.528933 0.584574 0.642905
Si Si5 0.126536 0.900655 0.070960
Si Si6 0.229691 0.499426 0.504773
Si Si7 0.659590 0.247309 0.995369
Si Si8 0.233923 0.103750 0.440057
O O1 0.684546 0.269820 0.583857
O O2 0.661815 0.433041 0.276040
O O3 0.556728 0.325254 0.233729
O O4 0.000000 0.500000 0.000000
O O5 0.492569 0.465166 0.913498
O O6 0.730616 0.493364 0.680438
O O7 0.274625 0.228601 0.197784
O O8 0.478547 0.870107 0.918635
O O9 0.697657 0.010075 0.933422
O O10 0.250554 0.872182 0.070628
O O11 0.443601 0.546554 0.533327
O O12 0.827278 0.748180 0.369886
O O13 0.160296 0.003993 0.766727
O O14 0.290378 0.628194 0.286641
O O15 0.951744 0.347710 0.832318
O O16 0.483545 0.174262 0.259870
O O17 0.000000 0.000000 0.500000
#
# Coordination Sequence:
#
# PCOD9073474 Si02
#       8
#     2   2   2   2   2   2   2   2
#     4  12  25  43  70 100 137 180 231 288 342 407
#     4  11  24  44  67 103 137 175 230 289 335 410
#     4  11  24  45  70  97 141 189 230 282 344 422
#     4  12  25  43  73 103 136 182 232 286 351 409
#     4  11  25  46  70 103 139 184 234 282 351 415
#     4  10  21  39  69  99 138 175 230 281 349 406
#     4  10  21  40  66 100 132 183 226 281 346 407
#     4  11  25  44  69 103 143 179 227 287 350 411
#
# _framework density 21.929839999999999
#
# number of rings (size 3 to 8) (size 9 to 14) (size 15 to 20)
#    0.000    1.000    2.500    4.500    3.500    3.000 
#    0.000    2.500    0.000    0.000    0.000    0.000 
#    0.000    0.000    0.000    0.000    0.000    0.000 
#
# Total GULP energy -89160.127467 kJ/mol
# GULP energy per Si atom -5572.507967 kJ/mol
# Density = 2.187993 g / cm^3
# Si number density = 21.929840 Si / 1000 Ang^3
#
#
#
# Elastic Constant Matrix: (Units=GPa)
#
#
# Indices 1 2 3 4 5 6 
#
# 1 116.1579 21.9134 39.0872 -15.6862 3.3970 -23.3314
# 2 21.9134 76.3320 16.8321 -14.9254 -9.8868 -15.9961
# 3 39.0872 16.8321 96.0815 -24.6660 3.8151 -7.5471
# 4 -15.6862 -14.9254 -24.6660 33.6176 1.4390 1.9300
# 5 3.3970 -9.8868 3.8151 1.4390 31.1156 3.9793
# 6 -23.3314 -15.9961 -7.5471 1.9300 3.9793 48.6888
#
#
#
# Elastic Compliance Matrix: (Units=1/GPa)
#
#
# Indices 1 2 3 4 5 6 
#
# 1 0.011235 -0.001406 -0.003396 0.001952 -0.001920 0.004475
# 2 -0.001406 0.016173 -0.000702 0.005586 0.004617 0.003932
# 3 -0.003396 -0.000702 0.014216 0.008611 -0.002015 0.000169
# 4 0.001952 0.005586 0.008611 0.039373 -0.001658 0.002680
# 5 -0.001920 0.004617 -0.002015 -0.001658 0.034454 -0.002465
# 6 0.004475 0.003932 0.000169 0.002680 -0.002465 0.024097
#
#
# Mechanical properties :
#
#
# Convention : Reuss Voigt Hill
#
# Bulk Modulus (GPa) = 32.65969 49.35963 41.00966
# Shear Modulus (GPa) = 31.10210 36.73364 33.91787
#
# Velocity S-wave (km/s) = 3.77006 4.09718 3.93702
# Velocity P-wave (km/s) = 5.82033 6.70368 6.27756
#
# Compressibility (1/GPa) = 0.03061879
#
# Stress axis : x y z
#
# Youngs Moduli (GPa) = 89.00409 61.82981 70.34270
#
# Poissons Ratio (x) = 0.08692 0.23885
# Poissons Ratio (y) = 0.12512 0.04937
# Poissons Ratio (z) = 0.30221 0.04339
#
# Static dielectric constant tensor:
#      x y z
#    x 1.302390 5.910330 -1.238470 
#    y 5.910330 -64.764400 14.089760 
#    z -1.238470 14.089760 -1.174180 
# 
# From -- ./inp_files/225987.got.cif
#   From: 2010.05.17/outbox.ucp.g08.bks.cvg/sg2_113_cif.got.tgz:225987.got - 2010.06.11 11:32:03.
