data_PCOD9073898
_publ_section_title
;
Structure prediction by ZEFSAII (Michael W. Deem and Ramdas Pophale) SiO2 
 PCOD9073898
Probable space group: P -1
;
_chemical_formula_sum "Si O2"
_cell_formula_units_Z 16
_cell_length_a 15.000000
_cell_length_b 9.000000
_cell_length_c 12.000000
_cell_angle_alpha 90.000000
_cell_angle_beta 30.000000
_cell_angle_gamma 80.000000
_cell_volume 759.581896
_symmetry_space_group_name_H-M "P -1"
_symmetry_group_IT_number 2
_symmetry_cell_setting 'triclinic'
loop_
_space_group_symop_operation_xyz
x,y,z
-x,-y,-z
loop_
_atom_site_type_symbol
_atom_site_label
_atom_site_fract_x
_atom_site_fract_y
_atom_site_fract_z
Si Si1 0.193627 0.534112 0.766823
Si Si2 0.984585 0.581185 0.396455
Si Si3 0.365164 0.878128 0.849057
Si Si4 0.635755 0.550710 0.647510
Si Si5 0.386291 0.355774 0.895095
Si Si6 0.565479 0.259049 0.455475
Si Si7 0.019674 0.061427 0.603022
Si Si8 0.455321 0.953684 0.171450
O O1 0.220265 0.537687 0.606195
O O2 0.372486 0.387029 0.616172
O O3 0.252057 0.681313 0.748201
O O4 0.000000 0.500000 0.000000
O O5 0.997730 0.755172 0.386750
O O6 0.000000 0.500000 0.500000
O O7 0.775048 0.597340 0.578487
O O8 0.167743 0.474164 0.123399
O O9 0.464694 0.695456 0.778402
O O10 0.382659 0.881064 0.694702
O O11 0.496467 0.951778 0.777921
O O12 0.150912 0.945245 0.130969
O O13 0.520859 0.439435 0.807887
O O14 0.495374 0.271595 0.661903
O O15 0.393206 0.218565 0.971508
O O16 0.234371 0.968576 0.413669
O O17 0.000000 0.000000 0.500000
O O18 0.500000 0.000000 0.000000
#
# Coordination Sequence:
#
# PCOD9073898 Si02
#       8
#     2   2   2   2   2   2   2   2
#     4   9  17  32  62  92 134 165 210 265 325 391
#     4  12  26  40  68  99 128 174 229 271 331 391
#     4  11  23  42  69  95 135 176 223 266 332 409
#     4  10  22  39  63 101 129 170 215 273 330 384
#     4  11  25  44  67  99 139 165 221 288 324 390
#     4   9  21  38  61  99 130 173 213 270 336 384
#     4  12  26  44  66  93 131 176 220 272 328 395
#     4  12  26  45  67  95 133 181 222 268 341 395
#
# _framework density 21.064219999999999
#
# number of rings (size 3 to 8) (size 9 to 14) (size 15 to 20)
#    0.000    1.250    3.750    2.250    3.500    1.000 
#    0.000    0.625    0.000    0.000    0.000    0.000 
#    0.000    0.000    0.000    0.000    0.000    0.000 
#
# Total GULP energy -89151.897809 kJ/mol
# GULP energy per Si atom -5571.993613 kJ/mol
# Density = 2.101628 g / cm^3
# Si number density = 21.064220 Si / 1000 Ang^3
#
#
#
# Elastic Constant Matrix: (Units=GPa)
#
#
# Indices 1 2 3 4 5 6 
#
# 1 101.6591 17.2934 36.0583 -3.7838 -7.4240 25.7751
# 2 17.2934 35.9615 -17.5841 10.4020 11.7354 0.5831
# 3 36.0583 -17.5841 108.4386 5.2574 -3.2851 10.0492
# 4 -3.7838 10.4020 5.2574 26.6256 2.2990 -1.1600
# 5 -7.4240 11.7354 -3.2851 2.2990 36.6837 2.1242
# 6 25.7751 0.5831 10.0492 -1.1600 2.1242 27.4429
#
#
#
# Elastic Compliance Matrix: (Units=1/GPa)
#
#
# Indices 1 2 3 4 5 6 
#
# 1 0.023216 -0.023175 -0.010074 0.012569 0.011464 -0.017980
# 2 -0.023175 0.062680 0.017227 -0.028623 -0.022253 0.014639
# 3 -0.010074 0.017227 0.015383 -0.010556 -0.005711 0.003458
# 4 0.012569 -0.028623 -0.010556 0.051682 0.007850 -0.005755
# 5 0.011464 -0.022253 -0.005711 0.007850 0.036314 -0.010682
# 6 -0.017980 0.014639 0.003458 -0.005755 -0.010682 0.052333
#
#
# Mechanical properties :
#
#
# Convention : Reuss Voigt Hill
#
# Bulk Modulus (GPa) = 14.44342 35.28827 24.86584
# Shear Modulus (GPa) = 16.85032 32.16990 24.51011
#
# Velocity S-wave (km/s) = 2.83141 3.91222 3.41484
# Velocity P-wave (km/s) = 4.19057 6.09888 5.23246
#
# Compressibility (1/GPa) = 0.06923570
#
# Stress axis : x y z
#
# Youngs Moduli (GPa) = 43.07373 15.95411 65.00525
#
# Poissons Ratio (x) = 0.36974 0.65485
# Poissons Ratio (y) = 0.99824 -1.11986
# Poissons Ratio (z) = 0.43391 -0.27485
#
# Static dielectric constant tensor:
#      x y z
#    x 1.783690 0.047470 0.047850 
#    y 0.047470 1.879270 0.005090 
#    z 0.047850 0.005090 1.755820 
# 
# From -- ./inp_files/447446.got.cif
#   From: 2010.05.17/outbox.ucp.g08.bks.cvg/sg2_224_cif.got.tgz:447446.got - 2010.06.11 11:32:03.
