data_PCOD9073262
_publ_section_title
;
Structure prediction by ZEFSAII (Michael W. Deem and Ramdas Pophale) SiO2 
 PCOD9073262
Probable space group: P -1
;
_chemical_formula_sum "Si O2"
_cell_formula_units_Z 14
_cell_length_a 9.379307
_cell_length_b 8.200016
_cell_length_c 14.821136
_cell_angle_alpha 57.528804
_cell_angle_beta 82.667622
_cell_angle_gamma 129.027662
_cell_volume 525.675924
_symmetry_space_group_name_H-M "P -1"
_symmetry_group_IT_number 2
_symmetry_cell_setting 'triclinic'
loop_
_space_group_symop_operation_xyz
x,y,z
-x,-y,-z
loop_
_atom_site_type_symbol
_atom_site_label
_atom_site_fract_x
_atom_site_fract_y
_atom_site_fract_z
Si Si1 0.625052 0.064998 0.063378
Si Si2 0.342227 0.617125 0.899252
Si Si3 0.357196 0.314791 0.865778
Si Si4 0.949556 0.911211 0.676543
Si Si5 0.935555 0.205064 0.727614
Si Si6 0.938224 0.626856 0.611072
Si Si7 0.645994 0.291196 0.325736
O O1 0.767700 0.020641 0.059993
O O2 0.371560 0.741372 0.241739
O O3 0.781697 0.408145 0.000330
O O4 0.500000 0.000000 0.000000
O O5 0.223937 0.288789 0.963913
O O6 0.381192 0.789580 0.753727
O O7 0.625645 0.865092 0.840397
O O8 0.634797 0.550463 0.811657
O O9 0.430053 0.565210 0.713808
O O10 0.037934 0.812719 0.647609
O O11 0.036694 0.121442 0.697854
O O12 0.009611 0.146062 0.529802
O O13 0.027190 0.522736 0.592358
O O14 0.053345 0.364569 0.769767
O O15 0.500000 0.000000 0.500000
#
# Coordination Sequence:
#
# PCOD9073262 Si02
#       7
#     2   2   2   2   2   2   2
#     4  10  19  34  58  77 102 148 187 220 268 306
#     4   8  20  36  52  78 109 139 181 224 260 318
#     4   8  18  35  50  82 112 129 181 225 254 333
#     4   9  16  30  52  74 105 137 163 221 264 318
#     4  10  18  31  54  72 108 144 163 209 276 319
#     4   9  18  29  50  78 100 132 182 213 261 316
#     4  10  20  32  52  83 113 141 172 212 276 334
#
# _framework density 26.632376000000001
#
# number of rings (size 3 to 8) (size 9 to 14) (size 15 to 20)
#    0.857    2.000    0.000    1.286    4.000    0.571 
#    2.571    0.714    0.000    6.857    0.000    0.000 
#    0.000    0.000    0.000    0.000    0.000    0.000 
#
# Total GULP energy -77978.786872 kJ/mol
# GULP energy per Si atom -5569.913348 kJ/mol
# Density = 2.657176 g / cm^3
# Si number density = 26.632376 Si / 1000 Ang^3
#
#
#
# Elastic Constant Matrix: (Units=GPa)
#
#
# Indices 1 2 3 4 5 6 
#
# 1 85.3458 62.9658 21.4596 5.7183 18.4609 -23.0219
# 2 62.9658 164.9541 30.7929 27.0964 11.2983 -35.5706
# 3 21.4596 30.7929 104.5218 9.5565 19.8937 -6.0047
# 4 5.7183 27.0964 9.5565 38.2271 -7.7857 8.2576
# 5 18.4609 11.2983 19.8937 -7.7857 31.8324 -3.7058
# 6 -23.0219 -35.5706 -6.0047 8.2576 -3.7058 74.2454
#
#
#
# Elastic Compliance Matrix: (Units=1/GPa)
#
#
# Indices 1 2 3 4 5 6 
#
# 1 0.018665 -0.005750 -0.000270 -0.000970 -0.008539 0.002693
# 2 -0.005750 0.010608 -0.000761 -0.007611 -0.001349 0.004017
# 3 -0.000270 -0.000761 0.011745 -0.004076 -0.007845 0.000563
# 4 -0.000970 -0.007611 -0.004076 0.037242 0.014021 -0.007719
# 5 -0.008539 -0.001349 -0.007845 0.014021 0.044799 -0.003252
# 6 0.002693 0.004017 0.000563 -0.007719 -0.003252 0.016970
#
#
# Mechanical properties :
#
#
# Convention : Reuss Voigt Hill
#
# Bulk Modulus (GPa) = 36.42000 65.02871 50.72435
# Shear Modulus (GPa) = 30.72329 44.83455 37.77892
#
# Velocity S-wave (km/s) = 3.40016 4.10745 3.77043
# Velocity P-wave (km/s) = 5.39626 6.85310 6.16784
#
# Compressibility (1/GPa) = 0.02745744
#
# Stress axis : x y z
#
# Youngs Moduli (GPa) = 53.57551 94.26819 85.14155
#
# Poissons Ratio (x) = 0.54200 0.02296
# Poissons Ratio (y) = 0.30803 0.06482
# Poissons Ratio (z) = 0.01445 0.07177
#
# Static dielectric constant tensor:
#      x y z
#    x 2.222240 -0.066170 0.056190 
#    y -0.066170 2.228820 0.036780 
#    z 0.056190 0.036780 2.170600 
# 
# From -- ./inp_files/324812.got.cif
#   From: 2010.05.17/outbox.cif.g08.bks.cpg/sg2_163_cif.got.tgz:324812.got - 2010.06.03 11:33:40.
