data_PCOD9073352
_publ_section_title
;
Structure prediction by ZEFSAII (Michael W. Deem and Ramdas Pophale) SiO2 
 PCOD9073352
Probable space group: P -1
;
_chemical_formula_sum "Si O2"
_cell_formula_units_Z 14
_cell_length_a 12.314344
_cell_length_b 16.890224
_cell_length_c 15.425340
_cell_angle_alpha 157.279384
_cell_angle_beta 152.998520
_cell_angle_gamma 34.725384
_cell_volume 562.607042
_symmetry_space_group_name_H-M "P -1"
_symmetry_group_IT_number 2
_symmetry_cell_setting 'triclinic'
loop_
_space_group_symop_operation_xyz
x,y,z
-x,-y,-z
loop_
_atom_site_type_symbol
_atom_site_label
_atom_site_fract_x
_atom_site_fract_y
_atom_site_fract_z
Si Si1 0.152420 0.337054 0.181824
Si Si2 0.915515 0.651893 0.198903
Si Si3 0.251315 0.153468 0.416374
Si Si4 0.964450 0.269700 0.163998
Si Si5 0.322894 0.724720 0.450451
Si Si6 0.310991 0.846753 0.376498
Si Si7 0.424092 0.366138 0.921996
O O1 0.432876 0.290051 0.337205
O O2 0.086022 0.517767 0.249533
O O3 0.080208 0.378991 0.273747
O O4 0.973967 0.152622 0.840307
O O5 0.715897 0.752566 0.220155
O O6 0.095028 0.790391 0.411525
O O7 0.767027 0.498396 0.875008
O O8 0.500781 0.058960 0.462052
O O9 0.303520 0.302930 0.682694
O O10 0.131559 0.260490 0.356819
O O11 0.078523 0.968389 0.132854
O O12 0.704610 0.338321 0.081079
O O13 0.368198 0.854801 0.527068
O O14 0.366150 0.603216 0.142916
#
# Coordination Sequence:
#
# PCOD9073352 Si02
#       7
#     2   2   2   2   2   2   2
#     4  10  18  31  54  81 100 143 173 216 260 312
#     4   9  21  33  54  82 107 140 173 220 269 305
#     4  11  22  37  50  81 111 142 180 214 257 336
#     4  11  23  34  55  78 108 150 175 208 274 314
#     4   9  17  36  52  79 112 134 178 219 257 320
#     4  10  21  33  56  85 107 138 175 221 268 307
#     4  10  21  35  53  82 112 134 173 225 270 309
#
# _framework density 24.884153000000001
#
# number of rings (size 3 to 8) (size 9 to 14) (size 15 to 20)
#    0.000    2.286    2.857    1.286    2.000    5.143 
#    0.000    0.000    0.000    1.714    3.714    0.000 
#    0.000    0.000    0.000    0.000    0.000    0.000 
#
# Total GULP energy -78272.536973 kJ/mol
# GULP energy per Si atom -5590.895498 kJ/mol
# Density = 2.482752 g / cm^3
# Si number density = 24.884153 Si / 1000 Ang^3
#
#
#
# Elastic Constant Matrix: (Units=GPa)
#
#
# Indices 1 2 3 4 5 6 
#
# 1 119.3351 7.3724 16.8236 7.1446 7.3310 -6.5508
# 2 7.3724 56.8499 33.2755 -21.1439 -2.5947 8.3103
# 3 16.8236 33.2755 92.6319 -32.9808 6.3294 -1.1299
# 4 7.1446 -21.1439 -32.9808 31.0938 4.5345 6.0904
# 5 7.3310 -2.5947 6.3294 4.5345 40.5929 -2.2232
# 6 -6.5508 8.3103 -1.1299 6.0904 -2.2232 45.2925
#
#
#
# Elastic Compliance Matrix: (Units=1/GPa)
#
#
# Indices 1 2 3 4 5 6 
#
# 1 0.009793 -0.002703 -0.003874 -0.008753 -0.000196 0.002983
# 2 -0.002703 0.027472 -0.003386 0.017177 0.000426 -0.007805
# 3 -0.003874 -0.003386 0.020909 0.022071 -0.005388 -0.002650
# 4 -0.008753 0.017177 0.022071 0.073470 -0.009749 -0.014225
# 5 -0.000196 0.000426 -0.005388 -0.009749 0.026757 0.002383
# 6 0.002983 -0.007805 -0.002650 -0.014225 0.002383 0.025906
#
#
# Mechanical properties :
#
#
# Convention : Reuss Voigt Hill
#
# Bulk Modulus (GPa) = 26.14593 42.63999 34.39296
# Shear Modulus (GPa) = 23.04332 37.48552 30.26442
#
# Velocity S-wave (km/s) = 3.04637 3.88545 3.49121
# Velocity P-wave (km/s) = 4.78578 6.10750 5.48658
#
# Compressibility (1/GPa) = 0.03824687
#
# Stress axis : x y z
#
# Youngs Moduli (GPa) = 102.11585 36.40134 47.82556
#
# Poissons Ratio (x) = 0.09838 0.18530
# Poissons Ratio (y) = 0.27599 0.16195
# Poissons Ratio (z) = 0.39564 0.12326
#
# Static dielectric constant tensor:
#      x y z
#    x 2.013710 0.005630 0.039570 
#    y 0.005630 2.128780 0.120530 
#    z 0.039570 0.120530 2.030930 
# 
# From -- ./inp_files/523084.got.cif
#   From: 2010.05.17/outbox.cif.g08.bks.cpg/sg2_262_cif.got.tgz:523084.got - 2010.06.03 11:33:40.
