data_PCOD9073887
_publ_section_title
;
Structure prediction by ZEFSAII (Michael W. Deem and Ramdas Pophale) SiO2 
 PCOD9073887
Probable space group: P -1
;
_chemical_formula_sum "Si O2"
_cell_formula_units_Z 16
_cell_length_a 8.216257
_cell_length_b 15.214866
_cell_length_c 16.930663
_cell_angle_alpha 37.178704
_cell_angle_beta 141.687511
_cell_angle_gamma 141.569151
_cell_volume 718.761117
_symmetry_space_group_name_H-M "P -1"
_symmetry_group_IT_number 2
_symmetry_cell_setting 'triclinic'
loop_
_space_group_symop_operation_xyz
x,y,z
-x,-y,-z
loop_
_atom_site_type_symbol
_atom_site_label
_atom_site_fract_x
_atom_site_fract_y
_atom_site_fract_z
Si Si1 0.188523 0.095022 0.618922
Si Si2 0.187571 0.571921 0.763958
Si Si3 0.660701 0.377515 0.823342
Si Si4 0.382967 0.059251 0.334374
Si Si5 0.146814 0.857913 0.885750
Si Si6 0.379316 0.435189 0.177221
Si Si7 0.764880 0.618869 0.464877
Si Si8 0.579388 0.831408 0.507572
O O1 0.316938 0.987984 0.791100
O O2 0.887499 0.967308 0.558974
O O3 0.138391 0.209474 0.580076
O O4 0.377574 0.199525 0.544557
O O5 0.377024 0.760115 0.722438
O O6 0.416439 0.505883 0.865203
O O7 0.949868 0.487106 0.802839
O O8 0.009909 0.563654 0.621609
O O9 0.652535 0.440159 0.863834
O O10 0.373896 0.377920 0.673681
O O11 0.655885 0.200461 0.945137
O O12 0.085873 0.081355 0.211308
O O13 0.500000 0.000000 0.500000
O O14 0.366396 0.918853 0.369897
O O15 0.931002 0.690644 0.882519
O O16 0.477044 0.319871 0.351203
O O17 0.500000 0.500000 0.500000
#
# Coordination Sequence:
#
# PCOD9073887 Si02
#       8
#     2   2   2   2   2   2   2   2
#     4  10  19  33  57  83 111 141 184 234 280 322
#     4  10  20  36  59  83 113 145 186 239 273 325
#     4  11  24  39  54  80 120 159 182 218 286 333
#     4  11  17  33  57  86 111 135 189 237 286 327
#     4  10  22  37  56  83 113 148 186 233 274 342
#     4  10  21  36  59  88 111 139 193 235 277 335
#     4  10  20  36  59  82 111 149 189 227 271 341
#     4  10  18  31  59  90 105 136 182 244 289 313
#
# _framework density 22.260524
#
# number of rings (size 3 to 8) (size 9 to 14) (size 15 to 20)
#    0.000    1.750    5.000    1.875    3.500    3.000 
#    2.250    0.000    0.000    0.750    0.000    0.000 
#    0.000    0.000    0.000    0.000    0.000    0.000 
#
# Total GULP energy -89140.049260 kJ/mol
# GULP energy per Si atom -5571.253079 kJ/mol
# Density = 2.220986 g / cm^3
# Si number density = 22.260524 Si / 1000 Ang^3
#
#
#
# Elastic Constant Matrix: (Units=GPa)
#
#
# Indices 1 2 3 4 5 6 
#
# 1 85.6366 8.3272 2.5714 -9.5227 6.9043 -6.4493
# 2 8.3272 20.1018 -4.7325 -7.5477 4.0411 0.7658
# 3 2.5714 -4.7325 66.2411 -11.3908 11.2392 3.7969
# 4 -9.5227 -7.5477 -11.3908 21.4393 -2.2498 -1.3118
# 5 6.9043 4.0411 11.2392 -2.2498 28.8148 -9.4161
# 6 -6.4493 0.7658 3.7969 -1.3118 -9.4161 27.4575
#
#
#
# Elastic Compliance Matrix: (Units=1/GPa)
#
#
# Indices 1 2 3 4 5 6 
#
# 1 0.012840 -0.003401 0.000116 0.004600 -0.001354 0.002850
# 2 -0.003401 0.067211 0.012349 0.026770 -0.013910 -0.007872
# 3 0.000116 0.012349 0.020515 0.013799 -0.010698 -0.006164
# 4 0.004600 0.026770 0.013799 0.064873 -0.005265 -0.000281
# 5 -0.001354 -0.013910 -0.010698 -0.005265 0.046361 0.017196
# 6 0.002850 -0.007872 -0.006164 -0.000281 0.017196 0.044045
#
#
# Mechanical properties :
#
#
# Convention : Reuss Voigt Hill
#
# Bulk Modulus (GPa) = 8.42507 20.47905 14.45206
# Shear Modulus (GPa) = 18.03221 26.59653 22.31437
#
# Velocity S-wave (km/s) = 2.84923 3.46032 3.16953
# Velocity P-wave (km/s) = 3.82324 5.01844 4.46105
#
# Compressibility (1/GPa) = 0.11869340
#
# Stress axis : x y z
#
# Youngs Moduli (GPa) = 77.88309 14.87861 48.74368
#
# Poissons Ratio (x) = 0.05060 -0.00566
# Poissons Ratio (y) = 0.26486 -0.60191
# Poissons Ratio (z) = -0.00904 -0.18373
#
# Static dielectric constant tensor:
#      x y z
#    x 1.911570 0.019700 0.002750 
#    y 0.019700 1.869050 0.040920 
#    z 0.002750 0.040920 1.920080 
# 
# From -- ./inp_files/561353.got.cif
#   From: 2010.05.17/outbox.cif.g08.bks.cpg/sg2_281_cif.got.tgz:561353.got - 2010.06.03 11:33:40.
