data_PCOD9073204
_publ_section_title
;
Structure prediction by ZEFSAII (Michael W. Deem and Ramdas Pophale) SiO2 
 PCOD9073204
Probable space group: P -1
;
_chemical_formula_sum "Si O2"
_cell_formula_units_Z 16
_cell_length_a 8.384738
_cell_length_b 18.755827
_cell_length_c 9.531615
_cell_angle_alpha 142.162169
_cell_angle_beta 49.726774
_cell_angle_gamma 142.544017
_cell_volume 558.435874
_symmetry_space_group_name_H-M "P -1"
_symmetry_group_IT_number 2
_symmetry_cell_setting 'triclinic'
loop_
_space_group_symop_operation_xyz
x,y,z
-x,-y,-z
loop_
_atom_site_type_symbol
_atom_site_label
_atom_site_fract_x
_atom_site_fract_y
_atom_site_fract_z
Si Si1 0.745430 0.555428 0.342671
Si Si2 0.363498 0.662235 0.491952
Si Si3 0.071126 0.854683 0.216421
Si Si4 0.042030 0.579769 0.820858
Si Si5 0.330482 0.053631 0.643451
Si Si6 0.794344 0.954875 0.835475
Si Si7 0.600193 0.670513 0.014722
Si Si8 0.094576 0.796487 0.714204
O O1 0.500000 0.500000 0.500000
O O2 0.875331 0.476315 0.188995
O O3 0.622782 0.496331 0.165742
O O4 0.967779 0.722213 0.520690
O O5 0.200049 0.581580 0.601129
O O6 0.630482 0.791514 0.617763
O O7 0.257414 0.743580 0.601765
O O8 0.258703 0.531775 0.236499
O O9 0.174875 0.969481 0.458584
O O10 0.191958 0.953540 0.163398
O O11 0.135450 0.742550 0.035714
O O12 0.759706 0.741268 0.179542
O O13 0.500000 0.000000 0.500000
O O14 0.490616 0.227708 0.807429
O O15 0.078071 0.006191 0.802886
O O16 0.724154 0.027782 0.105967
O O17 0.841017 0.723614 0.850048
#
# Coordination Sequence:
#
# PCOD9073204 Si02
#       8
#     2   2   2   2   2   2   2   2
#     4   9  17  28  48  75 112 142 176 212 264 321
#     4  10  18  31  53  82 118 141 177 223 270 330
#     4  10  19  34  57  82 101 141 192 221 267 323
#     4  10  19  31  53  83 108 147 184 216 270 324
#     4  10  20  35  57  77 108 140 187 230 267 321
#     4  10  19  33  56  81 112 146 179 224 276 316
#     4   9  16  30  50  79 102 137 183 218 265 312
#     4   8  15  28  48  76 107 142 167 209 267 322
#
# _framework density 28.651454000000001
#
# number of rings (size 3 to 8) (size 9 to 14) (size 15 to 20)
#    0.000    2.750    2.500    2.625    1.750    0.000 
#    0.000    0.625    8.250    9.750    0.000   11.375 
#    0.000    0.000    0.000    0.000    0.000    0.125 
#
# Total GULP energy -89439.236366 kJ/mol
# GULP energy per Si atom -5589.952273 kJ/mol
# Density = 2.858624 g / cm^3
# Si number density = 28.651454 Si / 1000 Ang^3
#
#
#
# Elastic Constant Matrix: (Units=GPa)
#
#
# Indices 1 2 3 4 5 6 
#
# 1 120.8802 17.5022 29.9032 6.9593 12.1091 10.8538
# 2 17.5022 88.7346 19.2142 20.8105 8.5444 20.0843
# 3 29.9032 19.2142 148.5563 40.1448 21.3524 0.9976
# 4 6.9593 20.8105 40.1448 45.3582 9.6028 5.7541
# 5 12.1091 8.5444 21.3524 9.6028 73.0499 9.2906
# 6 10.8538 20.0843 0.9976 5.7541 9.2906 33.7403
#
#
#
# Elastic Compliance Matrix: (Units=1/GPa)
#
#
# Indices 1 2 3 4 5 6 
#
# 1 0.009103 -0.001097 -0.001906 0.001225 -0.000700 -0.002235
# 2 -0.001097 0.014441 -0.000160 -0.005422 0.000189 -0.007366
# 3 -0.001906 -0.000160 0.009522 -0.007991 -0.001685 0.002253
# 4 0.001225 -0.005422 -0.007991 0.031927 -0.001169 -0.002054
# 5 -0.000700 0.000189 -0.001685 -0.001169 0.014905 -0.003742
# 6 -0.002235 -0.007366 0.002253 -0.002054 -0.003742 0.036056
#
#
# Mechanical properties :
#
#
# Convention : Reuss Voigt Hill
#
# Bulk Modulus (GPa) = 37.39466 54.60115 45.99790
# Shear Modulus (GPa) = 38.11155 49.86643 43.98899
#
# Velocity S-wave (km/s) = 3.65112 4.17640 3.92256
# Velocity P-wave (km/s) = 5.55465 6.50805 6.05016
#
# Compressibility (1/GPa) = 0.02674179
#
# Stress axis : x y z
#
# Youngs Moduli (GPa) = 109.85049 69.24716 105.01647
#
# Poissons Ratio (x) = 0.07595 0.20016
# Poissons Ratio (y) = 0.12049 0.01676
# Poissons Ratio (z) = 0.20937 0.01105
#
# Static dielectric constant tensor:
#      x y z
#    x 2.235530 -0.010890 0.014930 
#    y -0.010890 2.460020 -0.114840 
#    z 0.014930 -0.114840 2.283730 
# 
# From -- ./inp_files/406749.got.cif
#   From: 2010.05.17/outbox.cif.g08.bks.cpg/sg2_204_cif.got.tgz:406749.got - 2010.06.03 11:33:40.
