data_PCOD9073026
_publ_section_title
;
Structure prediction by ZEFSAII (Michael W. Deem and Ramdas Pophale) SiO2 
 PCOD9073026
Probable space group: P -1
;
_chemical_formula_sum "Si O2"
_cell_formula_units_Z 14
_cell_length_a 18.938569
_cell_length_b 9.174918
_cell_length_c 8.244064
_cell_angle_alpha 134.239877
_cell_angle_beta 41.539496
_cell_angle_gamma 145.696514
_cell_volume 523.152279
_symmetry_space_group_name_H-M "P -1"
_symmetry_group_IT_number 2
_symmetry_cell_setting 'triclinic'
loop_
_space_group_symop_operation_xyz
x,y,z
-x,-y,-z
loop_
_atom_site_type_symbol
_atom_site_label
_atom_site_fract_x
_atom_site_fract_y
_atom_site_fract_z
Si Si1 0.101558 0.102920 0.554743
Si Si2 0.908806 0.458064 0.923554
Si Si3 0.081636 0.273895 0.175427
Si Si4 0.553561 0.841014 0.582708
Si Si5 0.618848 0.438879 0.666542
Si Si6 0.603492 0.374358 0.992232
Si Si7 0.779573 0.209416 0.261248
O O1 0.099289 0.321462 0.814459
O O2 0.258184 0.261820 0.360068
O O3 0.000000 0.000000 0.500000
O O4 0.033936 0.846413 0.581023
O O5 0.806874 0.205010 0.018575
O O6 0.882325 0.484009 0.803820
O O7 0.065794 0.583674 0.779108
O O8 0.231290 0.392866 0.081942
O O9 0.000000 0.000000 0.000000
O O10 0.459940 0.705986 0.477186
O O11 0.573037 0.098151 0.805853
O O12 0.700685 0.969929 0.341457
O O13 0.481740 0.661436 0.729052
O O14 0.557553 0.418511 0.934090
O O15 0.695097 0.316704 0.485098
#
# Coordination Sequence:
#
# PCOD9073026 Si02
#       7
#     2   2   2   2   2   2   2
#     4  10  18  33  57  77 103 136 180 225 259 310
#     4   9  19  32  54  76 107 141 171 220 275 314
#     4  10  19  32  53  80 102 136 182 222 262 312
#     4  10  20  32  54  80 107 144 178 218 270 319
#     4  10  19  34  57  82 106 140 180 221 272 312
#     4  10  18  31  52  80 106 132 183 223 259 313
#     4   9  17  33  52  76 110 140 168 216 278 321
#
# _framework density 26.760850000000001
#
# number of rings (size 3 to 8) (size 9 to 14) (size 15 to 20)
#    0.000    2.286    1.429    4.286    0.000    1.143 
#    0.000    2.857   12.571    8.571    0.000    0.000 
#    0.000    0.000    0.000    0.000    0.000    0.000 
#
# Total GULP energy -78130.561793 kJ/mol
# GULP energy per Si atom -5580.754414 kJ/mol
# Density = 2.669994 g / cm^3
# Si number density = 26.760850 Si / 1000 Ang^3
#
#
#
# Elastic Constant Matrix: (Units=GPa)
#
#
# Indices 1 2 3 4 5 6 
#
# 1 95.3744 31.0907 73.4053 2.6055 36.4056 -8.1265
# 2 31.0907 135.8685 95.8142 -8.0587 11.0340 15.4285
# 3 73.4053 95.8142 36.1555 -89.3155 -11.3684 81.1052
# 4 2.6055 -8.0587 -89.3155 63.0928 -45.7499 33.8280
# 5 36.4056 11.0340 -11.3684 -45.7499 15.6728 35.6855
# 6 -8.1265 15.4285 81.1052 33.8280 35.6855 -32.2010
#
#
#
# Elastic Compliance Matrix: (Units=1/GPa)
#
#
# Indices 1 2 3 4 5 6 
#
# 1 0.012185 -0.000652 -0.000866 0.000380 -0.004426 -0.010074
# 2 -0.000652 0.017022 -0.012369 -0.001203 0.009059 -0.014059
# 3 -0.000866 -0.012369 0.016936 0.000226 -0.017315 0.017998
# 4 0.000380 -0.001203 0.000226 0.010410 0.001661 0.012672
# 5 -0.004426 0.009059 -0.017315 0.001661 0.040558 0.008537
# 6 -0.010074 -0.014059 0.017998 0.012672 0.008537 0.032855
#
#
# Mechanical properties :
#
#
# Convention : Reuss Voigt Hill
#
# Bulk Modulus (GPa) = 54.44132 74.22432 64.33282
# Shear Modulus (GPa) = 30.51343 13.78547 22.14945
#
# Velocity S-wave (km/s) = 3.38039 2.27212 2.88007
# Velocity P-wave (km/s) = 5.96857 5.88895 5.92889
#
# Compressibility (1/GPa) = 0.01836840
#
# Stress axis : x y z
#
# Youngs Moduli (GPa) = 82.07118 58.74922 59.04493
#
# Poissons Ratio (x) = 0.03828 0.05113
# Poissons Ratio (y) = 0.05348 0.73035
# Poissons Ratio (z) = 0.07107 0.72669
#
# Static dielectric constant tensor:
#      x y z
#    x 2.045650 -0.102530 -0.000480 
#    y -0.102530 2.148700 -0.000270 
#    z -0.000480 -0.000270 2.244830 
# 
# From -- ./inp_files/292733.got.cif
#   From: 2010.05.17/outbox.cif.g08.bks.cpg/sg2_147_cif.got.tgz:292733.got - 2010.06.03 11:33:40.
