data_PCOD9073508
_publ_section_title
;
Structure prediction by ZEFSAII (Michael W. Deem and Ramdas Pophale) SiO2 
 PCOD9073508
Probable space group: P -1
;
_chemical_formula_sum "Si O2"
_cell_formula_units_Z 16
_cell_length_a 9.000000
_cell_length_b 9.000000
_cell_length_c 21.000000
_cell_angle_alpha 60.000000
_cell_angle_beta 40.000000
_cell_angle_gamma 50.000000
_cell_volume 837.479324
_symmetry_space_group_name_H-M "P -1"
_symmetry_group_IT_number 2
_symmetry_cell_setting 'triclinic'
loop_
_space_group_symop_operation_xyz
x,y,z
-x,-y,-z
loop_
_atom_site_type_symbol
_atom_site_label
_atom_site_fract_x
_atom_site_fract_y
_atom_site_fract_z
Si Si1 0.618428 0.644675 0.412508
Si Si2 0.158856 0.306135 0.799026
Si Si3 0.631651 0.927192 0.786292
Si Si4 0.634342 0.899700 0.557570
Si Si5 0.202587 0.378921 0.315704
Si Si6 0.928788 0.961273 0.337970
Si Si7 0.753230 0.293728 0.831420
Si Si8 0.363771 0.370374 0.047708
O O1 0.500000 0.500000 0.500000
O O2 0.680520 0.637054 0.317933
O O3 0.900256 0.542259 0.376671
O O4 0.458636 0.874756 0.435643
O O5 0.969149 0.262299 0.822576
O O6 0.948457 0.482600 0.873808
O O7 0.371443 0.123648 0.808573
O O8 0.729264 0.783359 0.725380
O O9 0.579033 0.810077 0.885852
O O10 0.880811 0.959355 0.714146
O O11 0.727075 0.740048 0.616738
O O12 0.864136 0.850518 0.440734
O O13 0.372651 0.903664 0.613102
O O14 0.346486 0.499891 0.216446
O O15 0.086498 0.855132 0.245080
O O16 0.506608 0.294415 0.948824
O O17 0.500000 0.500000 0.000000
#
# Coordination Sequence:
#
# PCOD9073508 Si02
#       8
#     2   2   2   2   2   2   2   2
#     4  11  21  36  65  94 125 158 211 261 303 365
#     4  10  21  40  64  97 122 159 217 257 304 372
#     4  12  22  39  67  98 123 162 210 264 310 364
#     4  11  24  44  63  91 130 174 204 249 321 377
#     4  11  21  41  67  91 119 171 214 250 306 379
#     4  11  25  43  60  94 135 160 208 260 313 380
#     4  10  21  46  63  88 130 165 209 260 310 375
#     4  10  21  41  67  92 125 161 214 265 304 364
#
# _framework density 19.104949000000001
#
# number of rings (size 3 to 8) (size 9 to 14) (size 15 to 20)
#    0.000    1.250    7.500    0.750    1.750    4.000 
#    4.500    0.625    0.000    0.000    0.000    0.000 
#    0.000    0.000    0.000    0.000    0.000    0.000 
#
# Total GULP energy -89140.982053 kJ/mol
# GULP energy per Si atom -5571.311378 kJ/mol
# Density = 1.906147 g / cm^3
# Si number density = 19.104949 Si / 1000 Ang^3
#
#
#
# Elastic Constant Matrix: (Units=GPa)
#
#
# Indices 1 2 3 4 5 6 
#
# 1 42.9585 26.2409 47.5478 -19.0529 13.0631 -18.9764
# 2 26.2409 84.9883 45.7314 -13.2993 6.7867 -39.3885
# 3 47.5478 45.7314 171.8240 -9.7788 20.7430 -12.4286
# 4 -19.0529 -13.2993 -9.7788 42.7778 -1.1254 13.9811
# 5 13.0631 6.7867 20.7430 -1.1254 30.2814 -3.9924
# 6 -18.9764 -39.3885 -12.4286 13.9811 -3.9924 22.4027
#
#
#
# Elastic Compliance Matrix: (Units=1/GPa)
#
#
# Indices 1 2 3 4 5 6 
#
# 1 0.213031 0.254666 -0.083736 -0.043712 -0.013255 0.606669
# 2 0.254666 0.430954 -0.120749 -0.096039 0.000110 0.966390
# 3 -0.083736 -0.120749 0.042816 0.024881 -0.001513 -0.275274
# 4 -0.043712 -0.096039 0.024881 0.053590 -0.004510 -0.226329
# 5 -0.013255 0.000110 -0.001513 -0.004510 0.039315 -0.002052
# 6 0.606669 0.966390 -0.275274 -0.226329 -0.002052 2.245802
#
#
# Mechanical properties :
#
#
# Convention : Reuss Voigt Hill
#
# Bulk Modulus (GPa) = 1.27038 59.86788 30.56913
# Shear Modulus (GPa) = 1.56861 31.10909 16.33885
#
# Velocity S-wave (km/s) = 0.90710 4.03963 2.92758
# Velocity P-wave (km/s) = 1.32797 7.29126 5.24052
#
# Compressibility (1/GPa) = 0.78716402
#
# Stress axis : x y z
#
# Youngs Moduli (GPa) = 4.69415 2.32043 23.35551
#
# Poissons Ratio (x) = -0.59094 1.95570
# Poissons Ratio (y) = -1.19544 2.82015
# Poissons Ratio (z) = 0.39307 0.28019
#
# Static dielectric constant tensor:
#      x y z
#    x 1.695550 0.035920 0.009030 
#    y 0.035920 1.702310 -0.000120 
#    z 0.009030 -0.000120 1.698310 
# 
# From -- ./inp_files/587295.got.cif
#   From: 2010.05.17/outbox.ucp.g08.bks.cvg/sg2_294_cif.got.tgz:587295.got - 2010.06.11 11:32:03.
