data_PCOD9073113
_publ_section_title
;
Structure prediction by ZEFSAII (Michael W. Deem and Ramdas Pophale) SiO2 
 PCOD9073113
Probable space group: P -1
;
_chemical_formula_sum "Si O2"
_cell_formula_units_Z 15
_cell_length_a 12.000000
_cell_length_b 18.000000
_cell_length_c 12.000000
_cell_angle_alpha 150.000000
_cell_angle_beta 150.000000
_cell_angle_gamma 40.000000
_cell_volume 646.664136
_symmetry_space_group_name_H-M "P -1"
_symmetry_group_IT_number 2
_symmetry_cell_setting 'triclinic'
loop_
_space_group_symop_operation_xyz
x,y,z
-x,-y,-z
loop_
_atom_site_type_symbol
_atom_site_label
_atom_site_fract_x
_atom_site_fract_y
_atom_site_fract_z
Si Si1 0.295786 0.402706 0.832044
Si Si2 0.731467 0.708438 0.816860
Si Si3 0.006465 0.571527 0.220077
Si Si4 0.270700 0.707391 0.075267
Si Si5 0.549884 0.888191 0.686689
Si Si6 0.694860 0.186360 0.297698
Si Si7 0.921159 0.852015 0.792184
Si Si8 0.000000 0.000000 0.500000
O O1 0.530822 0.338891 0.901824
O O2 0.250070 0.418289 0.943414
O O3 0.114213 0.283224 0.495114
O O4 0.237122 0.554224 0.910635
O O5 0.863276 0.550292 0.745116
O O6 0.662578 0.762119 0.701826
O O7 0.497425 0.705475 0.675237
O O8 0.869772 0.844107 0.157262
O O9 0.138817 0.721951 0.514289
O O10 0.000000 0.500000 0.000000
O O11 0.317491 0.827550 0.369049
O O12 0.076925 0.786145 0.938800
O O13 0.683820 0.890973 0.692265
O O14 0.560135 0.053801 0.954204
O O15 0.834854 0.095724 0.395465
O O16 0.000000 0.000000 0.000000
#
# Coordination Sequence:
#
# PCOD9073113 Si02
#       8
#     2   2   2   2   2   2   2   1
#     4  10  24  44  69  98 129 176 224 274 333 398
#     4  11  24  42  66  97 137 178 231 269 330 404
#     4  12  25  45  66  99 138 179 219 281 339 391
#     4  10  23  46  72  97 129 174 225 274 337 403
#     4  10  23  40  68  99 128 176 220 274 331 399
#     4  11  24  43  63  99 135 182 221 273 333 395
#     4  11  23  44  66 101 133 166 219 278 340 395
#     4  10  20  42  64  86 132 176 228 268 318 390
#
# _framework density 23.195967
#
# number of rings (size 3 to 8) (size 9 to 14) (size 15 to 20)
#    0.000    1.333    1.333    4.000    1.867    9.600 
#    7.200    0.000    0.000    0.000    0.000    0.000 
#    0.000    0.000    0.000    0.000    0.000    0.000 
#
# Total GULP energy -83517.078237 kJ/mol
# GULP energy per Si atom -5567.805216 kJ/mol
# Density = 2.314317 g / cm^3
# Si number density = 23.195967 Si / 1000 Ang^3
#
#
#
# Elastic Constant Matrix: (Units=GPa)
#
#
# Indices 1 2 3 4 5 6 
#
# 1 131.4115 -3.0154 23.2870 2.6965 23.5549 -6.4580
# 2 -3.0154 23.5396 3.4726 12.0016 17.7917 -22.2139
# 3 23.2870 3.4726 53.2307 14.8424 3.9453 -16.8828
# 4 2.6965 12.0016 14.8424 23.1166 10.7466 5.2302
# 5 23.5549 17.7917 3.9453 10.7466 31.7329 1.8812
# 6 -6.4580 -22.2139 -16.8828 5.2302 1.8812 -2.4492
#
#
#
# Elastic Compliance Matrix: (Units=1/GPa)
#
#
# Indices 1 2 3 4 5 6 
#
# 1 0.010750 0.003780 -0.007431 0.007779 -0.011590 -0.003695
# 2 0.003780 0.017185 -0.016252 0.014731 -0.013471 -0.032691
# 3 -0.007431 -0.016252 0.023260 -0.011731 0.016068 -0.006046
# 4 0.007779 0.014731 -0.011731 0.053245 -0.031567 0.016204
# 5 -0.011590 -0.013471 0.016068 -0.031567 0.055349 0.017085
# 6 -0.003695 -0.032691 -0.006046 0.016204 0.017085 -0.012647
#
#
# Mechanical properties :
#
#
# Convention : Reuss Voigt Hill
#
# Bulk Modulus (GPa) = 87.81477 28.40779 58.11128
# Shear Modulus (GPa) = 26.21320 22.77592 24.49456
#
# Velocity S-wave (km/s) = 3.36531 3.13691 3.25312
# Velocity P-wave (km/s) = 7.28288 5.03922 6.26235
#
# Compressibility (1/GPa) = 0.01138761
#
# Stress axis : x y z
#
# Youngs Moduli (GPa) = 93.02728 58.19157 42.99264
#
# Poissons Ratio (x) = -0.21997 0.31949
# Poissons Ratio (y) = -0.35165 0.69872
# Poissons Ratio (z) = 0.69130 0.94573
#
# Static dielectric constant tensor:
#      x y z
#    x 2.019410 -0.084320 -0.024120 
#    y -0.084320 1.814770 -0.026890 
#    z -0.024120 -0.026890 2.064700 
# 
# From -- ./inp_files/109796.got.cif
#   From: 2010.05.17/outbox.ucp.g08.bks.cvg/sg2_55_cif.got.tgz:109796.got - 2010.06.11 11:32:03.
