data_PCOD9073582
_publ_section_title
;
Structure prediction by ZEFSAII (Michael W. Deem and Ramdas Pophale) SiO2 
 PCOD9073582
Probable space group: P -1
;
_chemical_formula_sum "Si O2"
_cell_formula_units_Z 16
_cell_length_a 12.000000
_cell_length_b 12.000000
_cell_length_c 12.000000
_cell_angle_alpha 140.000000
_cell_angle_beta 70.000000
_cell_angle_gamma 80.000000
_cell_volume 722.981415
_symmetry_space_group_name_H-M "P -1"
_symmetry_group_IT_number 2
_symmetry_cell_setting 'triclinic'
loop_
_space_group_symop_operation_xyz
x,y,z
-x,-y,-z
loop_
_atom_site_type_symbol
_atom_site_label
_atom_site_fract_x
_atom_site_fract_y
_atom_site_fract_z
Si Si1 0.800355 0.285864 0.902414
Si Si2 0.353048 0.891432 0.834226
Si Si3 0.733188 0.665278 0.926710
Si Si4 0.818112 0.051961 0.482822
Si Si5 0.464813 0.431354 0.144173
Si Si6 0.005738 0.292896 0.370712
Si Si7 0.706798 0.780531 0.269933
Si Si8 0.299151 0.567530 0.529565
O O1 0.810623 0.176830 0.694181
O O2 0.644031 0.333219 0.036590
O O3 0.748705 0.543834 0.121208
O O4 0.992953 0.095418 0.740267
O O5 0.299425 0.775201 0.696267
O O6 0.558311 0.652477 0.600758
O O7 0.324760 0.106031 0.949266
O O8 0.208165 0.035419 0.093664
O O9 0.781243 0.688226 0.048375
O O10 0.577924 0.687819 0.013584
O O11 0.898203 0.401360 0.607138
O O12 0.662610 0.285524 0.639676
O O13 0.785245 0.876991 0.370354
O O14 0.395618 0.418626 0.269452
O O15 0.889749 0.312089 0.332986
O O16 0.000000 0.500000 0.500000
O O17 0.500000 0.000000 0.500000
#
# Coordination Sequence:
#
# PCOD9073582 Si02
#       8
#     2   2   2   2   2   2   2   2
#     4  11  24  42  64  94 129 168 215 252 323 372
#     4  10  21  41  62  92 125 160 212 262 315 376
#     4  10  22  38  65  92 123 167 214 257 316 380
#     4  11  23  41  65  89 130 169 210 268 302 379
#     4  11  21  40  61  91 126 168 204 260 318 368
#     4   9  20  38  62  84 122 160 202 257 316 363
#     4  12  22  40  71  92 132 171 208 263 317 372
#     4  10  22  38  65  91 126 161 208 263 313 382
#
# _framework density 22.130583000000001
#
# number of rings (size 3 to 8) (size 9 to 14) (size 15 to 20)
#    0.000    1.500    2.500    2.625    0.000    6.500 
#    0.000    6.250    8.250    0.000    0.000    0.000 
#    0.000    0.000    0.000    0.000    0.000    0.000 
#
# Total GULP energy -89102.173007 kJ/mol
# GULP energy per Si atom -5568.885813 kJ/mol
# Density = 2.208021 g / cm^3
# Si number density = 22.130583 Si / 1000 Ang^3
#
#
#
# Elastic Constant Matrix: (Units=GPa)
#
#
# Indices 1 2 3 4 5 6 
#
# 1 137.2804 18.5278 23.4448 20.4503 -0.8044 27.2273
# 2 18.5278 37.8094 2.8995 18.8972 -1.9542 13.2297
# 3 23.4448 2.8995 65.5727 15.8674 -4.2876 3.3482
# 4 20.4503 18.8972 15.8674 28.9409 9.1770 9.7239
# 5 -0.8044 -1.9542 -4.2876 9.1770 53.0830 -0.0937
# 6 27.2273 13.2297 3.3482 9.7239 -0.0937 30.8584
#
#
#
# Elastic Compliance Matrix: (Units=1/GPa)
#
#
# Indices 1 2 3 4 5 6 
#
# 1 0.009590 -0.000592 -0.002317 -0.002887 0.000423 -0.007045
# 2 -0.000592 0.046633 0.007220 -0.033258 0.008023 -0.009749
# 3 -0.002317 0.007220 0.019849 -0.016050 0.004612 0.001866
# 4 -0.002887 -0.033258 -0.016050 0.073523 -0.015283 -0.004668
# 5 0.000423 0.008023 0.004612 -0.015283 0.022156 0.000570
# 6 -0.007045 -0.009749 0.001866 -0.004668 0.000570 0.044072
#
#
# Mechanical properties :
#
#
# Convention : Reuss Voigt Hill
#
# Bulk Modulus (GPa) = 11.80700 36.71184 24.25942
# Shear Modulus (GPa) = 21.23752 35.62917 28.43335
#
# Velocity S-wave (km/s) = 3.10118 4.01677 3.58830
# Velocity P-wave (km/s) = 4.26260 6.17555 5.30599
#
# Compressibility (1/GPa) = 0.08469553
#
# Stress axis : x y z
#
# Youngs Moduli (GPa) = 104.27881 21.44384 50.37977
#
# Poissons Ratio (x) = 0.01269 0.11671
# Poissons Ratio (y) = 0.06171 -0.36374
# Poissons Ratio (z) = 0.24157 -0.15482
#
# Static dielectric constant tensor:
#      x y z
#    x 1.858180 -0.042680 -0.003490 
#    y -0.042680 1.881850 -0.048060 
#    z -0.003490 -0.048060 1.898560 
# 
# From -- ./inp_files/429054.got.cif
#   From: 2010.05.17/outbox.ucp.g08.bks.cvg/sg2_215_cif.got.tgz:429054.got - 2010.06.11 11:32:03.
