data_PCOD9073254
_publ_section_title
;
Structure prediction by ZEFSAII (Michael W. Deem and Ramdas Pophale) SiO2 
 PCOD9073254
Probable space group: P -1
;
_chemical_formula_sum "Si O2"
_cell_formula_units_Z 12
_cell_length_a 9.093300
_cell_length_b 16.213775
_cell_length_c 4.994371
_cell_angle_alpha 93.677660
_cell_angle_beta 60.877882
_cell_angle_gamma 130.930563
_cell_volume 448.344924
_symmetry_space_group_name_H-M "P -1"
_symmetry_group_IT_number 2
_symmetry_cell_setting 'triclinic'
loop_
_space_group_symop_operation_xyz
x,y,z
-x,-y,-z
loop_
_atom_site_type_symbol
_atom_site_label
_atom_site_fract_x
_atom_site_fract_y
_atom_site_fract_z
Si Si1 0.705523 0.420623 0.598863
Si Si2 0.134441 0.010413 0.631301
Si Si3 0.038447 0.338017 0.356589
Si Si4 0.659430 0.080201 0.626527
Si Si5 0.508481 0.266940 0.280233
Si Si6 0.277539 0.341229 0.648060
O O1 0.724184 0.364015 0.318858
O O2 0.536355 0.430433 0.593468
O O3 0.911219 0.549772 0.579420
O O4 0.574418 0.326599 0.942121
O O5 0.122978 0.907950 0.599092
O O6 0.409005 0.140391 0.382627
O O7 0.000000 0.000000 0.500000
O O8 0.000000 0.000000 0.000000
O O9 0.768718 0.209013 0.597530
O O10 0.206754 0.346437 0.416792
O O11 0.112667 0.335613 0.993633
O O12 0.500000 0.000000 0.500000
O O13 0.500000 0.000000 0.000000
O O14 0.282483 0.243432 0.583712
#
# Coordination Sequence:
#
# PCOD9073254 Si02
#       6
#     2   2   2   2   2   2
#     4  10  20  31  55  93 134 154 205 275 348 373
#     4  12  24  44  72 100 129 177 234 278 326 392
#     4  12  20  35  60  84 126 174 218 257 329 400
#     4  12  28  48  66  95 138 185 225 273 332 400
#     4  10  20  33  54  91 130 152 203 273 337 371
#     4  10  18  31  53  96 126 158 204 273 337 381
#
# _framework density 26.765107
#
# number of rings (size 3 to 8) (size 9 to 14) (size 15 to 20)
#    1.000    0.000    1.667    7.000    0.000    0.000 
#    0.000    0.000    0.000    6.000    0.000    0.000 
#    0.000    0.000    0.000    0.000    0.000    0.000 
#
# Total GULP energy -67004.829284 kJ/mol
# GULP energy per Si atom -5583.735774 kJ/mol
# Density = 2.670419 g / cm^3
# Si number density = 26.765107 Si / 1000 Ang^3
#
#
#
# Elastic Constant Matrix: (Units=GPa)
#
#
# Indices 1 2 3 4 5 6 
#
# 1 82.8114 36.5645 12.9239 13.4262 18.1229 -1.7305
# 2 36.5645 172.2386 34.9410 -20.8749 18.3890 -1.8877
# 3 12.9239 34.9410 134.4996 16.7982 22.3389 -1.2816
# 4 13.4262 -20.8749 16.7982 56.2305 4.3564 3.9049
# 5 18.1229 18.3890 22.3389 4.3564 42.1378 16.5646
# 6 -1.7305 -1.8877 -1.2816 3.9049 16.5646 52.3932
#
#
#
# Elastic Compliance Matrix: (Units=1/GPa)
#
#
# Indices 1 2 3 4 5 6 
#
# 1 0.015718 -0.003460 0.001117 -0.005070 -0.006432 0.002833
# 2 -0.003460 0.007606 -0.001962 0.004324 -0.001319 0.000206
# 3 0.001117 -0.001962 0.009099 -0.003474 -0.004870 0.001987
# 4 -0.005070 0.004324 -0.003474 0.021721 0.000644 -0.001919
# 5 -0.006432 -0.001319 -0.004870 0.000644 0.033980 -0.011170
# 6 0.002833 0.000206 0.001987 -0.001919 -0.011170 0.022911
#
#
# Mechanical properties :
#
#
# Convention : Reuss Voigt Hill
#
# Bulk Modulus (GPa) = 41.99620 62.04535 52.02078
# Shear Modulus (GPa) = 39.19071 50.49366 44.84218
#
# Velocity S-wave (km/s) = 3.83070 4.34815 4.09760
# Velocity P-wave (km/s) = 5.94057 6.95991 6.47034
#
# Compressibility (1/GPa) = 0.02381168
#
# Stress axis : x y z
#
# Youngs Moduli (GPa) = 63.62246 131.48207 109.90101
#
# Poissons Ratio (x) = 0.45493 -0.12275
# Poissons Ratio (y) = 0.22013 0.21566
# Poissons Ratio (z) = -0.07106 0.25801
#
# Static dielectric constant tensor:
#      x y z
#    x 2.139390 0.017530 -0.045370 
#    y 0.017530 2.163280 -0.082930 
#    z -0.045370 -0.082930 2.050430 
# 
# From -- ./inp_files/40751.got.cif
#   From: 2010.05.17/outbox.cif.g08.bks.cpg/sg2_21_cif.got.tgz:40751.got - 2010.06.03 11:33:40.
