data_PCOD9073831
_publ_section_title
;
Structure prediction by ZEFSAII (Michael W. Deem and Ramdas Pophale) SiO2 
 PCOD9073831
Probable space group: P -1
;
_chemical_formula_sum "Si O2"
_cell_formula_units_Z 16
_cell_length_a 12.000000
_cell_length_b 18.000000
_cell_length_c 21.000000
_cell_angle_alpha 30.000000
_cell_angle_beta 150.000000
_cell_angle_gamma 160.000000
_cell_volume 738.640068
_symmetry_space_group_name_H-M "P -1"
_symmetry_group_IT_number 2
_symmetry_cell_setting 'triclinic'
loop_
_space_group_symop_operation_xyz
x,y,z
-x,-y,-z
loop_
_atom_site_type_symbol
_atom_site_label
_atom_site_fract_x
_atom_site_fract_y
_atom_site_fract_z
Si Si1 0.380828 0.604481 0.977360
Si Si2 0.587315 0.214422 0.892249
Si Si3 0.667493 0.030733 0.738802
Si Si4 0.832541 0.838337 0.385304
Si Si5 0.776602 0.495172 0.567178
Si Si6 0.907664 0.665909 0.149685
Si Si7 0.703316 0.849912 0.518818
Si Si8 0.201054 0.101897 0.907118
O O1 0.463882 0.778532 0.840716
O O2 0.989740 0.422177 0.933048
O O3 0.518634 0.518098 0.081760
O O4 0.596875 0.752748 0.036923
O O5 0.390377 0.200721 0.750239
O O6 0.457554 0.215854 0.892381
O O7 0.500000 0.000000 0.000000
O O8 0.424686 0.049433 0.600498
O O9 0.886536 0.185916 0.794459
O O10 0.930709 0.100125 0.765256
O O11 0.955909 0.742181 0.488838
O O12 0.560111 0.673487 0.429566
O O13 0.109879 0.092910 0.364406
O O14 0.615910 0.395700 0.489952
O O15 0.996398 0.458056 0.720450
O O16 0.039202 0.855588 0.023146
O O17 0.000000 0.000000 0.500000
#
# Coordination Sequence:
#
# PCOD9073831 Si02
#       8
#     2   2   2   2   2   2   2   2
#     4   9  19  35  63  86 109 155 200 235 287 343
#     4  12  25  39  51  82 128 155 190 235 290 352
#     4   8  16  33  63  90 112 140 200 248 285 339
#     4  10  22  36  54  87 117 152 196 240 285 351
#     4   9  18  36  61  86 115 144 194 248 292 338
#     4   8  15  35  64  92 109 140 196 250 288 337
#     4   9  18  34  59  88 114 149 186 248 295 333
#     4   9  18  38  59  85 117 153 188 240 294 348
#
# _framework density 21.661429999999999
#
# number of rings (size 3 to 8) (size 9 to 14) (size 15 to 20)
#    0.000    2.750    0.000    2.625    5.250    1.000 
#    4.500    2.500    0.000    2.250    0.000    0.000 
#    0.000    0.000    0.000    0.000    0.000    0.000 
#
# Total GULP energy -89105.943317 kJ/mol
# GULP energy per Si atom -5569.121457 kJ/mol
# Density = 2.161213 g / cm^3
# Si number density = 21.661430 Si / 1000 Ang^3
#
#
#
# Elastic Constant Matrix: (Units=GPa)
#
#
# Indices 1 2 3 4 5 6 
#
# 1 80.9641 69.1218 37.9560 15.1786 37.7241 -5.3164
# 2 69.1218 50.9443 36.8427 13.9108 5.4395 -3.5358
# 3 37.9560 36.8427 74.7873 14.7743 30.2881 -11.5567
# 4 15.1786 13.9108 14.7743 19.0537 -3.3820 8.2002
# 5 37.7241 5.4395 30.2881 -3.3820 39.9041 9.7058
# 6 -5.3164 -3.5358 -11.5567 8.2002 9.7058 36.3488
#
#
#
# Elastic Compliance Matrix: (Units=1/GPa)
#
#
# Indices 1 2 3 4 5 6 
#
# 1 -0.004570 0.010608 -0.020951 0.024676 0.025404 -0.018648
# 2 0.010608 0.011614 0.019485 -0.052126 -0.038327 0.030870
# 3 -0.020951 0.019485 0.020767 -0.018570 -0.002702 0.010345
# 4 0.024676 -0.052126 -0.018570 0.102819 0.014994 -0.034565
# 5 0.025404 -0.038327 -0.002702 0.014994 0.011364 -0.007289
# 6 -0.018648 0.030870 0.010345 -0.034565 -0.007289 0.040820
#
#
# Mechanical properties :
#
#
# Convention : Reuss Voigt Hill
#
# Bulk Modulus (GPa) = 21.69475 54.94852 38.32163
# Shear Modulus (GPa) = 27.79416 23.24633 25.52025
#
# Velocity S-wave (km/s) = 3.58595 3.27948 3.43613
# Velocity P-wave (km/s) = 5.21368 6.30571 5.78552
#
# Compressibility (1/GPa) = 0.04609410
#
# Stress axis : x y z
#
# Youngs Moduli (GPa) = -218.81402 86.10426 48.15407
#
# Poissons Ratio (x) = -0.91335 1.00886
# Poissons Ratio (y) = 2.32107 -0.93828
# Poissons Ratio (z) = -4.58431 -1.67774
#
# Static dielectric constant tensor:
#      x y z
#    x 1.754380 0.004930 0.022320 
#    y 0.004930 1.907160 0.133010 
#    z 0.022320 0.133010 1.910130 
# 
# From -- ./inp_files/432688.got.cif
#   From: 2010.05.17/outbox.ucp.g08.bks.cvg/sg2_217_cif.got.tgz:432688.got - 2010.06.11 11:32:03.
