data_PCOD9073832
_publ_section_title
;
Structure prediction by ZEFSAII (Michael W. Deem and Ramdas Pophale) SiO2 
 PCOD9073832
Probable space group: P -1
;
_chemical_formula_sum "Si O2"
_cell_formula_units_Z 16
_cell_length_a 9.121941
_cell_length_b 11.122216
_cell_length_c 16.675318
_cell_angle_alpha 58.431221
_cell_angle_beta 78.050291
_cell_angle_gamma 125.017617
_cell_volume 810.258805
_symmetry_space_group_name_H-M "P -1"
_symmetry_group_IT_number 2
_symmetry_cell_setting 'triclinic'
loop_
_space_group_symop_operation_xyz
x,y,z
-x,-y,-z
loop_
_atom_site_type_symbol
_atom_site_label
_atom_site_fract_x
_atom_site_fract_y
_atom_site_fract_z
Si Si1 0.520258 0.744251 0.446568
Si Si2 0.053609 0.171953 0.171296
Si Si3 0.808834 0.005086 0.692773
Si Si4 0.525947 0.979366 0.095906
Si Si5 0.014678 0.587819 0.381896
Si Si6 0.340651 0.431726 0.418217
Si Si7 0.815464 0.920854 0.115924
Si Si8 0.724835 0.362477 0.060545
O O1 0.423767 0.599206 0.424034
O O2 0.586028 0.667541 0.525078
O O3 0.274907 0.643296 0.540068
O O4 0.788931 0.025410 0.294788
O O5 0.166087 0.134057 0.227204
O O6 0.230895 0.442254 0.038740
O O7 0.962589 0.033157 0.145705
O O8 0.505608 0.812552 0.784875
O O9 0.916559 0.195554 0.682532
O O10 0.025196 0.192519 0.532661
O O11 0.609791 0.181108 0.065181
O O12 0.250604 0.714889 0.256935
O O13 0.738561 0.022224 0.070471
O O14 0.500000 0.000000 0.000000
O O15 0.000000 0.500000 0.500000
O O16 0.538342 0.625922 0.258001
O O17 0.000000 0.000000 0.000000
O O18 0.000000 0.500000 0.000000
#
# Coordination Sequence:
#
# PCOD9073832 Si02
#       8
#     2   2   2   2   2   2   2   2
#     4   8  15  27  54  82 109 136 186 250 282 324
#     4  10  19  37  57  90 113 151 203 241 287 350
#     4   9  19  32  58  85 112 147 195 251 281 334
#     4  11  25  39  56  91 123 151 193 250 307 349
#     4  10  18  31  57  87 116 151 195 246 292 347
#     4   8  15  31  50  82 110 140 193 238 279 334
#     4  11  22  34  58  84 121 155 191 237 299 352
#     4  11  22  38  59  86 119 156 199 242 294 359
#
# _framework density 19.746777999999999
#
# number of rings (size 3 to 8) (size 9 to 14) (size 15 to 20)
#    0.000    2.250    1.250    4.875    7.000    0.000 
#    0.000    0.000    0.000    1.500   13.000    0.000 
#    0.000    0.000    0.000    0.000    0.000    0.000 
#
# Total GULP energy -89151.895686 kJ/mol
# GULP energy per Si atom -5571.993480 kJ/mol
# Density = 1.970183 g / cm^3
# Si number density = 19.746778 Si / 1000 Ang^3
#
#
#
# Elastic Constant Matrix: (Units=GPa)
#
#
# Indices 1 2 3 4 5 6 
#
# 1 74.8189 10.8038 46.3031 -0.1287 -26.9256 -5.0025
# 2 10.8038 19.9533 33.1519 0.7299 -10.2008 -1.0642
# 3 46.3031 33.1519 151.7860 -6.9287 -28.0049 -6.8380
# 4 -0.1287 0.7299 -6.9287 22.5748 1.3987 -0.4903
# 5 -26.9256 -10.2008 -28.0049 1.3987 41.5526 -2.5298
# 6 -5.0025 -1.0642 -6.8380 -0.4903 -2.5298 20.4414
#
#
#
# Elastic Compliance Matrix: (Units=1/GPa)
#
#
# Indices 1 2 3 4 5 6 
#
# 1 0.020053 0.002601 -0.004539 -0.001935 0.010933 0.004831
# 2 0.002601 0.083498 -0.017433 -0.008695 0.010744 0.000273
# 3 -0.004539 -0.017433 0.012274 0.004290 0.001048 0.002320
# 4 -0.001935 -0.008695 0.004290 0.046036 -0.001963 0.001370
# 5 0.010933 0.010744 0.001048 -0.001963 0.035040 0.007875
# 6 0.004831 0.000273 0.002320 0.001370 0.007875 0.051900
#
#
# Mechanical properties :
#
#
# Convention : Reuss Voigt Hill
#
# Bulk Modulus (GPa) = 12.97277 47.45287 30.21282
# Shear Modulus (GPa) = 15.96232 27.33371 21.64802
#
# Velocity S-wave (km/s) = 2.84624 3.72454 3.31461
# Velocity P-wave (km/s) = 4.16956 6.52526 5.47560
#
# Compressibility (1/GPa) = 0.07708456
#
# Stress axis : x y z
#
# Youngs Moduli (GPa) = 49.86713 11.97632 81.47143
#
# Poissons Ratio (x) = -0.03116 0.36981
# Poissons Ratio (y) = -0.12973 1.42028
# Poissons Ratio (z) = 0.22635 0.20878
#
# Static dielectric constant tensor:
#      x y z
#    x 1.743770 0.021690 -0.094160 
#    y 0.021690 1.765670 -0.246200 
#    z -0.094160 -0.246200 2.334020 
# 
# From -- ./inp_files/404919.got.cif
#   From: 2010.05.17/outbox.cif.g08.bks.cpg/sg2_203_cif.got.tgz:404919.got - 2010.06.03 11:33:40.
