data_PCOD9073868
_publ_section_title
;
Structure prediction by ZEFSAII (Michael W. Deem and Ramdas Pophale) SiO2 
 PCOD9073868
Probable space group: P -1
;
_chemical_formula_sum "Si O2"
_cell_formula_units_Z 16
_cell_length_a 9.000000
_cell_length_b 15.000000
_cell_length_c 12.000000
_cell_angle_alpha 130.000000
_cell_angle_beta 140.000000
_cell_angle_gamma 70.000000
_cell_volume 759.581896
_symmetry_space_group_name_H-M "P -1"
_symmetry_group_IT_number 2
_symmetry_cell_setting 'triclinic'
loop_
_space_group_symop_operation_xyz
x,y,z
-x,-y,-z
loop_
_atom_site_type_symbol
_atom_site_label
_atom_site_fract_x
_atom_site_fract_y
_atom_site_fract_z
Si Si1 0.806634 0.273819 0.988992
Si Si2 0.223105 0.873494 0.916839
Si Si3 0.969364 0.890874 0.564023
Si Si4 0.469374 0.259236 0.158230
Si Si5 0.420366 0.868961 0.672764
Si Si6 0.930733 0.467890 0.562053
Si Si7 0.088874 0.846167 0.266198
Si Si8 0.339169 0.356216 0.784400
O O1 0.818365 0.207262 0.060270
O O2 0.992586 0.410040 0.221777
O O3 0.856795 0.189299 0.854435
O O4 0.555124 0.299589 0.829760
O O5 0.408074 0.822808 0.911104
O O6 0.007875 0.872238 0.704166
O O7 0.354717 0.014482 0.134161
O O8 0.799057 0.762476 0.313491
O O9 0.229164 0.914082 0.673549
O O10 0.882841 0.009221 0.591068
O O11 0.490278 0.220284 0.267310
O O12 0.647789 0.395201 0.352458
O O13 0.192838 0.229238 0.939974
O O14 0.268796 0.814354 0.432268
O O15 0.000000 0.500000 0.500000
O O16 0.094214 0.380205 0.615475
O O17 0.500000 0.500000 0.000000
#
# Coordination Sequence:
#
# PCOD9073868 Si02
#       8
#     2   2   2   2   2   2   2   2
#     4  11  26  42  61 106 134 175 220 273 345 392
#     4  11  20  40  69  97 129 170 233 276 319 393
#     4  11  20  39  67  98 128 177 226 277 325 392
#     4  11  22  42  70  98 126 173 231 275 322 399
#     4  11  22  40  65 101 130 178 224 270 334 389
#     4  11  21  44  73  95 124 175 230 279 324 390
#     4  12  26  41  65 101 145 173 213 277 347 397
#     4  10  22  38  65  92 130 165 225 275 311 400
#
# _framework density 21.064219999999999
#
# number of rings (size 3 to 8) (size 9 to 14) (size 15 to 20)
#    0.000    1.000    6.250    1.875    1.750    3.000 
#    4.500    0.625    0.000    0.000    0.000    0.000 
#    0.000    0.000    0.000    0.000    0.000    0.000 
#
# Total GULP energy -89118.737841 kJ/mol
# GULP energy per Si atom -5569.921115 kJ/mol
# Density = 2.101628 g / cm^3
# Si number density = 21.064220 Si / 1000 Ang^3
#
#
#
# Elastic Constant Matrix: (Units=GPa)
#
#
# Indices 1 2 3 4 5 6 
#
# 1 33.9860 19.1072 15.3395 0.5677 -6.9841 17.3562
# 2 19.1072 62.5930 26.4456 12.1302 5.6202 20.8643
# 3 15.3395 26.4456 89.7426 8.5707 10.0109 29.0049
# 4 0.5677 12.1302 8.5707 39.5307 14.3173 1.6187
# 5 -6.9841 5.6202 10.0109 14.3173 31.1866 -1.0043
# 6 17.3562 20.8643 29.0049 1.6187 -1.0043 19.9400
#
#
#
# Elastic Compliance Matrix: (Units=1/GPa)
#
#
# Indices 1 2 3 4 5 6 
#
# 1 0.061823 -0.001080 0.010846 -0.003806 0.010127 -0.067639
# 2 -0.001080 0.027277 0.003944 -0.006169 -0.004656 -0.033072
# 3 0.010846 0.003944 0.025624 -0.002256 -0.007115 -0.051015
# 4 -0.003806 -0.006169 -0.002256 0.032222 -0.013495 0.009754
# 5 0.010127 -0.004656 -0.007115 -0.013495 0.043964 0.009716
# 6 -0.067639 -0.033072 -0.051015 0.009754 0.009716 0.217535
#
#
# Mechanical properties :
#
#
# Convention : Reuss Voigt Hill
#
# Bulk Modulus (GPa) = 7.03512 34.23401 20.63457
# Shear Modulus (GPa) = 11.67117 26.49341 19.08229
#
# Velocity S-wave (km/s) = 2.35643 3.55032 3.01310
# Velocity P-wave (km/s) = 3.27884 5.75272 4.68213
#
# Compressibility (1/GPa) = 0.14214399
#
# Stress axis : x y z
#
# Youngs Moduli (GPa) = 16.17528 36.66064 39.02561
#
# Poissons Ratio (x) = 0.03959 -0.42326
# Poissons Ratio (y) = 0.01747 -0.15392
# Poissons Ratio (z) = -0.17543 -0.14459
#
# Static dielectric constant tensor:
#      x y z
#    x 1.763930 0.024280 0.017070 
#    y 0.024280 1.763460 -0.007180 
#    z 0.017070 -0.007180 1.841890 
# 
# From -- ./inp_files/399714.got.cif
#   From: 2010.05.17/outbox.ucp.g08.bks.cvg/sg2_200_cif.got.tgz:399714.got - 2010.06.11 11:32:03.
