data_PCOD9073674
_publ_section_title
;
Structure prediction by ZEFSAII (Michael W. Deem and Ramdas Pophale) SiO2 
 PCOD9073674
Probable space group: P -1
;
_chemical_formula_sum "Si O2"
_cell_formula_units_Z 16
_cell_length_a 15.000000
_cell_length_b 15.000000
_cell_length_c 9.000000
_cell_angle_alpha 130.000000
_cell_angle_beta 50.000000
_cell_angle_gamma 150.000000
_cell_volume 755.761493
_symmetry_space_group_name_H-M "P -1"
_symmetry_group_IT_number 2
_symmetry_cell_setting 'triclinic'
loop_
_space_group_symop_operation_xyz
x,y,z
-x,-y,-z
loop_
_atom_site_type_symbol
_atom_site_label
_atom_site_fract_x
_atom_site_fract_y
_atom_site_fract_z
Si Si1 0.690099 0.681462 0.070320
Si Si2 0.669238 0.935226 0.392811
Si Si3 0.748060 0.375148 0.477021
Si Si4 0.221665 0.494452 0.729368
Si Si5 0.891256 0.258961 0.030990
Si Si6 0.300228 0.319023 0.583379
Si Si7 0.015564 0.280358 0.228263
Si Si8 0.360525 0.108180 0.269576
O O1 0.714879 0.838138 0.193062
O O2 0.685739 0.659822 0.230689
O O3 0.500000 0.500000 0.000000
O O4 0.854090 0.728660 0.884145
O O5 0.458876 0.795534 0.426727
O O6 0.667002 0.943538 0.582780
O O7 0.824437 0.131223 0.360459
O O8 0.766575 0.482456 0.435996
O O9 0.809390 0.305632 0.255571
O O10 0.873574 0.519741 0.628301
O O11 0.188949 0.335161 0.641349
O O12 0.421478 0.699273 0.785433
O O13 0.049906 0.418637 0.916465
O O14 0.978257 0.250356 0.061045
O O15 0.731765 0.062836 0.911807
O O16 0.500000 0.500000 0.500000
O O17 0.259713 0.154952 0.407372
#
# Coordination Sequence:
#
# PCOD9073674 Si02
#       8
#     2   2   2   2   2   2   2   2
#     4  11  21  41  67  93 132 164 208 262 322 382
#     4  10  23  43  64  95 127 169 213 258 321 380
#     4  11  25  44  66  89 131 178 211 260 314 374
#     4  10  21  42  66  93 126 165 218 263 317 370
#     4  12  25  41  64  98 127 169 220 259 315 378
#     4   9  19  38  64  97 123 159 206 262 323 368
#     4  12  25  42  63  96 129 169 213 262 316 382
#     4   9  22  41  64  93 128 167 207 269 318 370
#
# _framework density 21.1707
#
# number of rings (size 3 to 8) (size 9 to 14) (size 15 to 20)
#    0.000    1.500    2.500    2.625    0.000    7.000 
#    2.250    0.000    0.000    0.000    0.000    0.000 
#    0.000    0.000    0.000    0.000    0.000    0.000 
#
# Total GULP energy -89361.026378 kJ/mol
# GULP energy per Si atom -5585.064149 kJ/mol
# Density = 2.112251 g / cm^3
# Si number density = 21.170700 Si / 1000 Ang^3
#
#
#
# Elastic Constant Matrix: (Units=GPa)
#
#
# Indices 1 2 3 4 5 6 
#
# 1 24.8473 5.3285 -21.3242 4.3822 -5.0260 1.3635
# 2 5.3285 112.1752 35.6386 -10.7868 3.4545 19.7929
# 3 -21.3242 35.6386 63.9028 11.7904 -8.5476 5.8455
# 4 4.3822 -10.7868 11.7904 45.9537 10.5547 5.8377
# 5 -5.0260 3.4545 -8.5476 10.5547 27.7210 2.5537
# 6 1.3635 19.7929 5.8455 5.8377 2.5537 8.9709
#
#
#
# Elastic Compliance Matrix: (Units=1/GPa)
#
#
# Indices 1 2 3 4 5 6 
#
# 1 0.794287 -0.379653 0.591638 -0.500204 0.517246 0.509663
# 2 -0.379653 0.206783 -0.296446 0.257850 -0.256535 -0.300129
# 3 0.591638 -0.296446 0.466944 -0.388171 0.399242 0.398819
# 4 -0.500204 0.257850 -0.388171 0.355985 -0.343618 -0.373780
# 5 0.517246 -0.256535 0.399242 -0.343618 0.384301 0.341446
# 6 0.509663 -0.300129 0.398819 -0.373780 0.341446 0.582356
#
#
# Mechanical properties :
#
#
# Convention : Reuss Voigt Hill
#
# Bulk Modulus (GPa) = 0.76977 26.69012 13.72994
# Shear Modulus (GPa) = 1.47379 28.61463 15.04421
#
# Velocity S-wave (km/s) = 0.83526 3.68042 2.66863
# Velocity P-wave (km/s) = 1.13781 5.54032 3.99936
#
# Compressibility (1/GPa) = 1.29909216
#
# Stress axis : x y z
#
# Youngs Moduli (GPa) = 1.25899 4.83599 2.14158
#
# Poissons Ratio (x) = 1.83600 -1.26704
# Poissons Ratio (y) = 0.47798 0.63486
# Poissons Ratio (z) = -0.74487 1.43361
#
# Static dielectric constant tensor:
#      x y z
#    x 1.866740 -0.000880 -0.079110 
#    y -0.000880 1.714490 0.000680 
#    z -0.079110 0.000680 1.758120 
# 
# From -- ./inp_files/272052.got.cif
#   From: 2010.05.17/outbox.ucp.g08.bks.cvg/sg2_137_cif.got.tgz:272052.got - 2010.06.11 11:32:03.
