data_PCOD9073821
_publ_section_title
;
Structure prediction by ZEFSAII (Michael W. Deem and Ramdas Pophale) SiO2 
 PCOD9073821
Probable space group: P -1
;
_chemical_formula_sum "Si O2"
_cell_formula_units_Z 14
_cell_length_a 12.000000
_cell_length_b 15.000000
_cell_length_c 12.000000
_cell_angle_alpha 140.000000
_cell_angle_beta 130.000000
_cell_angle_gamma 30.000000
_cell_volume 692.779491
_symmetry_space_group_name_H-M "P -1"
_symmetry_group_IT_number 2
_symmetry_cell_setting 'triclinic'
loop_
_space_group_symop_operation_xyz
x,y,z
-x,-y,-z
loop_
_atom_site_type_symbol
_atom_site_label
_atom_site_fract_x
_atom_site_fract_y
_atom_site_fract_z
Si Si1 0.334088 0.115314 0.153392
Si Si2 0.148162 0.290205 0.971509
Si Si3 0.272298 0.611499 0.514873
Si Si4 0.074985 0.097428 0.608466
Si Si5 0.181102 0.921240 0.914074
Si Si6 0.588656 0.691521 0.490022
Si Si7 0.680191 0.369836 0.089539
O O1 0.308703 0.229434 0.355528
O O2 0.597460 0.916364 0.104734
O O3 0.184514 0.289133 0.124473
O O4 0.278591 0.995950 0.013386
O O5 0.056675 0.202311 0.808217
O O6 0.000000 0.500000 0.000000
O O7 0.500000 0.500000 0.500000
O O8 0.166940 0.816100 0.709691
O O9 0.337997 0.442900 0.479694
O O10 0.092632 0.707146 0.397557
O O11 0.320962 0.904146 0.527989
O O12 0.000000 0.000000 0.500000
O O13 0.348209 0.726240 0.924107
O O14 0.930723 0.145578 0.002315
O O15 0.665645 0.533558 0.290924
O O16 0.500000 0.500000 0.000000
#
# Coordination Sequence:
#
# PCOD9073821 Si02
#       7
#     2   2   2   2   2   2   2
#     4  10  22  38  55  85 123 151 194 235 293 350
#     4  10  22  34  54  82 125 160 184 228 285 357
#     4  11  21  34  58  85 118 151 189 235 290 341
#     4  11  20  32  53  84 113 150 195 227 281 343
#     4  10  23  39  61  87 112 156 195 243 291 348
#     4  10  22  38  57  85 116 154 190 244 286 347
#     4  10  22  43  63  83 112 149 205 250 287 337
#
# _framework density 20.208449999999999
#
# number of rings (size 3 to 8) (size 9 to 14) (size 15 to 20)
#    0.000    1.714    1.429    2.571    6.000    1.714 
#    0.000    0.714    0.000    0.000    0.000    0.000 
#    0.000    0.000    0.000    0.000    0.000    0.000 
#
# Total GULP energy -77972.053209 kJ/mol
# GULP energy per Si atom -5569.432372 kJ/mol
# Density = 2.016246 g / cm^3
# Si number density = 20.208450 Si / 1000 Ang^3
#
#
#
# Elastic Constant Matrix: (Units=GPa)
#
#
# Indices 1 2 3 4 5 6 
#
# 1 0.2167 -3.4582 -3.9674 -16.4203 10.3457 10.4192
# 2 -3.4582 134.7038 32.2311 -12.4625 -4.5226 12.2792
# 3 -3.9674 32.2311 86.6237 -21.1753 -0.0027 2.3430
# 4 -16.4203 -12.4625 -21.1753 24.8857 -2.0896 -4.6462
# 5 10.3457 -4.5226 -0.0027 -2.0896 26.5470 5.4674
# 6 10.4192 12.2792 2.3430 -4.6462 5.4674 18.1072
#
#
#
# Elastic Compliance Matrix: (Units=1/GPa)
#
#
# Indices 1 2 3 4 5 6 
#
# 1 -0.049077 -0.003546 -0.010978 -0.039064 0.011629 0.018530
# 2 -0.003546 0.008620 -0.003663 -0.001742 0.003722 -0.004902
# 3 -0.010978 -0.003663 0.013095 0.003632 0.002438 0.007303
# 4 -0.039064 -0.001742 0.003632 0.022342 0.011441 0.025468
# 5 0.011629 0.003722 0.002438 0.011441 0.038419 -0.018197
# 6 0.018530 -0.004902 0.007303 0.025468 -0.018197 0.058973
#
#
# Mechanical properties :
#
#
# Convention : Reuss Voigt Hill
#
# Bulk Modulus (GPa) = -15.68955 30.12835 7.21940
# Shear Modulus (GPa) = 46.51132 27.02388 36.76760
#
# Velocity S-wave (km/s) = 4.80268 3.66082 4.27009
# Velocity P-wave (km/s) = 4.79308 5.72800 5.28127
#
# Compressibility (1/GPa) = -0.06373669
#
# Stress axis : x y z
#
# Youngs Moduli (GPa) = -20.37620 116.01288 76.36670
#
# Poissons Ratio (x) = 0.41137 0.83838
# Poissons Ratio (y) = -0.07225 0.27972
# Poissons Ratio (z) = -0.22370 0.42494
#
# Static dielectric constant tensor:
#      x y z
#    x 2.426850 -0.297700 0.574880 
#    y -0.297700 1.839900 -0.300990 
#    z 0.574880 -0.300990 2.268010 
# 
# From -- ./inp_files/100852.got.cif
#   From: 2010.05.17/outbox.ucp.g08.bks.cvg/sg2_51_cif.got.tgz:100852.got - 2010.06.11 11:32:03.
