data_PCOD9073924
_publ_section_title
;
Structure prediction by ZEFSAII (Michael W. Deem and Ramdas Pophale) SiO2 
 PCOD9073924
Probable space group: P -1
;
_chemical_formula_sum "Si O2"
_cell_formula_units_Z 14
_cell_length_a 12.000000
_cell_length_b 9.000000
_cell_length_c 15.000000
_cell_angle_alpha 40.000000
_cell_angle_beta 40.000000
_cell_angle_gamma 50.000000
_cell_volume 663.176671
_symmetry_space_group_name_H-M "P -1"
_symmetry_group_IT_number 2
_symmetry_cell_setting 'triclinic'
loop_
_space_group_symop_operation_xyz
x,y,z
-x,-y,-z
loop_
_atom_site_type_symbol
_atom_site_label
_atom_site_fract_x
_atom_site_fract_y
_atom_site_fract_z
Si Si1 0.497431 0.262262 0.422822
Si Si2 0.898629 0.131736 0.717646
Si Si3 0.117801 0.837318 0.073771
Si Si4 0.215310 0.834181 0.561321
Si Si5 0.452926 0.216531 0.175448
Si Si6 0.462859 0.618622 0.124541
Si Si7 0.124403 0.526402 0.589451
O O1 0.646780 0.283441 0.395219
O O2 0.531456 0.443265 0.240908
O O3 0.301837 0.346269 0.542893
O O4 0.500000 0.000000 0.500000
O O5 0.934498 0.112092 0.812159
O O6 0.685587 0.187807 0.831471
O O7 0.923714 0.344722 0.535490
O O8 0.032888 0.930310 0.679780
O O9 0.042254 0.591817 0.222220
O O10 0.329120 0.846097 0.924261
O O11 0.000000 0.000000 0.000000
O O12 0.173625 0.690681 0.564809
O O13 0.330401 0.032023 0.366763
O O14 0.400036 0.438158 0.171623
O O15 0.416411 0.259699 0.072570
#
# Coordination Sequence:
#
# PCOD9073924 Si02
#       7
#     2   2   2   2   2   2   2
#     4  11  21  39  67  97 126 173 223 262 313 392
#     4  10  24  43  67  95 128 178 219 259 318 403
#     4  11  24  42  69  96 130 169 222 267 323 382
#     4  12  24  41  70  98 131 168 220 269 326 379
#     4  10  22  39  67  96 128 167 218 268 319 382
#     4   9  21  40  63  94 127 168 219 266 311 376
#     4  11  25  44  65  97 135 173 211 270 326 388
#
# _framework density 21.110513000000001
#
# number of rings (size 3 to 8) (size 9 to 14) (size 15 to 20)
#    0.000    1.429    1.429    3.000   10.000    0.000 
#    0.000    8.571    0.000    0.000    0.000    0.000 
#    0.000    0.000    0.000    0.000    0.000    0.000 
#
# Total GULP energy -77974.716950 kJ/mol
# GULP energy per Si atom -5569.622639 kJ/mol
# Density = 2.106246 g / cm^3
# Si number density = 21.110513 Si / 1000 Ang^3
#
#
#
# Elastic Constant Matrix: (Units=GPa)
#
#
# Indices 1 2 3 4 5 6 
#
# 1 105.0790 37.2077 33.7268 -3.8100 29.0847 3.4211
# 2 37.2077 125.1491 15.7245 32.1483 -2.2406 2.8358
# 3 33.7268 15.7245 77.2482 19.1490 23.2999 2.0299
# 4 -3.8100 32.1483 19.1490 28.7997 -7.2391 6.0644
# 5 29.0847 -2.2406 23.2999 -7.2391 45.8210 -6.4309
# 6 3.4211 2.8358 2.0299 6.0644 -6.4309 34.4084
#
#
#
# Elastic Compliance Matrix: (Units=1/GPa)
#
#
# Indices 1 2 3 4 5 6 
#
# 1 0.017409 -0.008484 -0.008440 0.017046 -0.005111 -0.004493
# 2 -0.008484 0.015721 0.006422 -0.023731 -0.000401 0.003277
# 3 -0.008440 0.006422 0.026050 -0.028948 -0.011918 0.001648
# 4 0.017046 -0.023731 -0.028948 0.088832 0.015253 -0.010837
# 5 -0.005111 -0.000401 -0.011918 0.015253 0.034213 0.004950
# 6 -0.004493 0.003277 0.001648 -0.010837 0.004950 0.031977
#
#
# Mechanical properties :
#
#
# Convention : Reuss Voigt Hill
#
# Bulk Modulus (GPa) = 26.19478 53.42159 39.80818
# Shear Modulus (GPa) = 20.16690 36.52697 28.34694
#
# Velocity S-wave (km/s) = 3.09415 4.16417 3.66838
# Velocity P-wave (km/s) = 5.01999 6.96283 6.06965
#
# Compressibility (1/GPa) = 0.03817555
#
# Stress axis : x y z
#
# Youngs Moduli (GPa) = 57.44305 63.61086 38.38738
#
# Poissons Ratio (x) = 0.53966 0.32398
# Poissons Ratio (y) = 0.48734 -0.24651
# Poissons Ratio (z) = 0.48480 -0.40848
#
# Static dielectric constant tensor:
#      x y z
#    x 1.815120 -0.038590 0.023460 
#    y -0.038590 1.797670 -0.042770 
#    z 0.023460 -0.042770 1.791730 
# 
# From -- ./inp_files/512594.got.cif
#   From: 2010.05.17/outbox.ucp.g08.bks.cvg/sg2_257_cif.got.tgz:512594.got - 2010.06.11 11:32:03.
