data_PCOD9073515
_publ_section_title
;
Structure prediction by ZEFSAII (Michael W. Deem and Ramdas Pophale) SiO2 
 PCOD9073515
Probable space group: P -1
;
_chemical_formula_sum "Si O2"
_cell_formula_units_Z 14
_cell_length_a 15.000000
_cell_length_b 15.000000
_cell_length_c 9.000000
_cell_angle_alpha 40.000000
_cell_angle_beta 40.000000
_cell_angle_gamma 30.000000
_cell_volume 616.747849
_symmetry_space_group_name_H-M "P -1"
_symmetry_group_IT_number 2
_symmetry_cell_setting 'triclinic'
loop_
_space_group_symop_operation_xyz
x,y,z
-x,-y,-z
loop_
_atom_site_type_symbol
_atom_site_label
_atom_site_fract_x
_atom_site_fract_y
_atom_site_fract_z
Si Si1 0.486540 0.232238 0.671830
Si Si2 0.236825 0.718218 0.780655
Si Si3 0.496600 0.639692 0.937655
Si Si4 0.716612 0.882163 0.041367
Si Si5 0.857771 0.417869 0.158920
Si Si6 0.199450 0.350883 0.353647
Si Si7 0.829831 0.928158 0.158801
O O1 0.664761 0.200700 0.428716
O O2 0.396227 0.185738 0.731013
O O3 0.306927 0.441814 0.692040
O O4 0.578781 0.081443 0.879621
O O5 0.166256 0.719909 0.705805
O O6 0.417386 0.495954 0.856385
O O7 0.054996 0.809673 0.002094
O O8 0.644813 0.671675 0.716194
O O9 0.294178 0.850998 0.931187
O O10 0.500000 0.500000 0.000000
O O11 0.764612 0.911208 0.103743
O O12 0.920348 0.722039 0.904640
O O13 0.824254 0.553313 0.895594
O O14 0.219989 0.169647 0.546370
O O15 0.000000 0.500000 0.500000
#
# Coordination Sequence:
#
# PCOD9073515 Si02
#       7
#     2   2   2   2   2   2   2
#     4  11  23  39  61 100 128 167 221 269 316 380
#     4  10  23  41  62  93 134 169 216 267 318 394
#     4  11  25  41  65 100 131 169 217 270 329 380
#     4  10  22  39  64  91 130 172 216 261 323 390
#     4  10  21  40  65  91 131 171 213 268 321 382
#     4  11  20  44  69  95 131 171 220 264 319 400
#     4  11  23  45  68  94 130 179 213 260 336 386
#
# _framework density 22.699714
#
# number of rings (size 3 to 8) (size 9 to 14) (size 15 to 20)
#    0.000    1.429    4.286    3.000    2.000    4.000 
#    2.571    0.000    0.000    0.000    0.000    0.000 
#    0.000    0.000    0.000    0.000    0.000    0.000 
#
# Total GULP energy -78093.952222 kJ/mol
# GULP energy per Si atom -5578.139444 kJ/mol
# Density = 2.264805 g / cm^3
# Si number density = 22.699714 Si / 1000 Ang^3
#
#
#
# Elastic Constant Matrix: (Units=GPa)
#
#
# Indices 1 2 3 4 5 6 
#
# 1 79.7333 18.0764 24.3218 10.0876 -40.5833 -4.1073
# 2 18.0764 139.9203 15.7930 -2.6702 -22.4861 1.3016
# 3 24.3218 15.7930 63.8829 12.0863 -41.5068 3.1198
# 4 10.0876 -2.6702 12.0863 29.9619 -5.1023 -6.0471
# 5 -40.5833 -22.4861 -41.5068 -5.1023 50.0160 -1.5095
# 6 -4.1073 1.3016 3.1198 -6.0471 -1.5095 32.1574
#
#
#
# Elastic Compliance Matrix: (Units=1/GPa)
#
#
# Indices 1 2 3 4 5 6 
#
# 1 0.024398 -0.000037 0.009486 -0.007013 0.027001 0.002146
# 2 -0.000037 0.007759 0.000416 0.001216 0.003929 0.000054
# 3 0.009486 0.000416 0.040830 -0.013453 0.040292 -0.003405
# 4 -0.007013 0.001216 -0.013453 0.040747 -0.011925 0.007463
# 5 0.027001 0.003929 0.040292 -0.011925 0.075911 0.000701
# 6 0.002146 0.000054 -0.003405 0.007463 0.000701 0.033136
#
#
# Mechanical properties :
#
#
# Convention : Reuss Voigt Hill
#
# Bulk Modulus (GPa) = 10.78558 44.43544 27.61051
# Shear Modulus (GPa) = 21.37154 37.45009 29.41081
#
# Velocity S-wave (km/s) = 3.07170 4.06619 3.60341
# Velocity P-wave (km/s) = 4.16439 6.45469 5.43163
#
# Compressibility (1/GPa) = 0.09271637
#
# Stress axis : x y z
#
# Youngs Moduli (GPa) = 40.98739 128.88425 24.49181
#
# Poissons Ratio (x) = 0.00479 -0.23233
# Poissons Ratio (y) = 0.00152 -0.01019
# Poissons Ratio (z) = -0.38880 -0.05364
#
# Static dielectric constant tensor:
#      x y z
#    x 1.888790 0.021220 0.004970 
#    y 0.021220 1.845670 -0.024080 
#    z 0.004970 -0.024080 1.929590 
# 
# From -- ./inp_files/200103.got.cif
#   From: 2010.05.17/outbox.ucp.g08.bks.cvg/sg2_101_cif.got.tgz:200103.got - 2010.06.11 11:32:03.
