data_PCOD9073357
_publ_section_title
;
Structure prediction by ZEFSAII (Michael W. Deem and Ramdas Pophale) SiO2 
 PCOD9073357
Probable space group: P -1
;
_chemical_formula_sum "Si O2"
_cell_formula_units_Z 16
_cell_length_a 9.000000
_cell_length_b 9.000000
_cell_length_c 15.000000
_cell_angle_alpha 140.000000
_cell_angle_beta 100.000000
_cell_angle_gamma 90.000000
_cell_volume 751.948787
_symmetry_space_group_name_H-M "P -1"
_symmetry_group_IT_number 2
_symmetry_cell_setting 'triclinic'
loop_
_space_group_symop_operation_xyz
x,y,z
-x,-y,-z
loop_
_atom_site_type_symbol
_atom_site_label
_atom_site_fract_x
_atom_site_fract_y
_atom_site_fract_z
Si Si1 0.323874 0.689768 0.767535
Si Si2 0.837938 0.869409 0.047409
Si Si3 0.141932 0.302872 0.699402
Si Si4 0.197409 0.044610 0.218094
Si Si5 0.343787 0.390180 0.237358
Si Si6 0.174562 0.503155 0.495529
Si Si7 0.795464 0.207481 0.552843
Si Si8 0.823019 0.479485 0.003684
O O1 0.208439 0.476787 0.706242
O O2 0.494511 0.666581 0.804561
O O3 0.301914 0.647308 0.640255
O O4 0.258817 0.926960 0.883872
O O5 0.806928 0.712875 0.884438
O O6 0.770747 0.680842 0.031293
O O7 0.019548 0.973597 0.130816
O O8 0.955376 0.249712 0.645411
O O9 0.216484 0.069186 0.597964
O O10 0.182655 0.441731 0.859232
O O11 0.307068 0.219865 0.242118
O O12 0.189812 0.230973 0.380528
O O13 0.247604 0.802042 0.137485
O O14 0.340925 0.671675 0.365983
O O15 0.184938 0.631896 0.460517
O O16 0.000000 0.500000 0.500000
O O17 0.000000 0.500000 0.000000
#
# Coordination Sequence:
#
# PCOD9073357 Si02
#       8
#     2   2   2   2   2   2   2   2
#     4  12  24  39  63  90 127 166 200 252 306 370
#     4  11  21  40  64  88 121 163 208 253 301 363
#     4  11  22  39  63  91 123 160 209 251 306 362
#     4  10  21  38  66  89 120 159 207 255 299 362
#     4  11  24  41  59  92 127 164 204 249 310 359
#     4  11  20  39  63  91 118 159 205 244 302 361
#     4  10  22  38  63  91 122 162 205 256 297 364
#     4  10  22  37  63  94 117 152 205 265 301 349
#
# _framework density 21.278044999999999
#
# number of rings (size 3 to 8) (size 9 to 14) (size 15 to 20)
#    0.000    1.250    2.500    4.500    1.750    3.500 
#    0.000    3.750    0.000    0.000    0.000    0.000 
#    0.000    0.000    0.000    0.000    0.000    0.000 
#
# Total GULP energy -89109.784063 kJ/mol
# GULP energy per Si atom -5569.361504 kJ/mol
# Density = 2.122962 g / cm^3
# Si number density = 21.278045 Si / 1000 Ang^3
#
#
#
# Elastic Constant Matrix: (Units=GPa)
#
#
# Indices 1 2 3 4 5 6 
#
# 1 48.3331 -3.4662 -3.7019 14.3746 -10.9365 -13.8793
# 2 -3.4662 78.2721 4.6873 34.5625 -16.4300 -16.4198
# 3 -3.7019 4.6873 62.9088 33.6358 -15.5508 -6.2181
# 4 14.3746 34.5625 33.6358 39.5340 -17.1391 -12.4060
# 5 -10.9365 -16.4300 -15.5508 -17.1391 23.2154 7.2152
# 6 -13.8793 -16.4198 -6.2181 -12.4060 7.2152 21.7744
#
#
#
# Elastic Compliance Matrix: (Units=1/GPa)
#
#
# Indices 1 2 3 4 5 6 
#
# 1 0.346615 0.339708 0.387096 -0.636513 0.137297 0.179499
# 2 0.339708 0.366646 0.403251 -0.670499 0.138613 0.180224
# 3 0.387096 0.403251 0.479407 -0.770794 0.158939 0.195902
# 4 -0.636513 -0.670499 -0.770794 1.298569 -0.234447 -0.313903
# 5 0.137297 0.138613 0.158939 -0.234447 0.119237 0.064342
# 6 0.179499 0.180224 0.195902 -0.313903 0.064342 0.152022
#
#
# Mechanical properties :
#
#
# Convention : Reuss Voigt Hill
#
# Bulk Modulus (GPa) = 0.28962 20.50580 10.39771
# Shear Modulus (GPa) = 3.02423 29.70439 16.36431
#
# Velocity S-wave (km/s) = 1.19347 3.74038 2.77622
# Velocity P-wave (km/s) = 1.42674 5.32089 3.89535
#
# Compressibility (1/GPa) = 3.45277783
#
# Stress axis : x y z
#
# Youngs Moduli (GPa) = 2.88505 2.72743 2.08591
#
# Poissons Ratio (x) = -0.92653 -0.80745
# Poissons Ratio (y) = -0.98007 -0.84114
# Poissons Ratio (z) = -1.11679 -1.09984
#
# Static dielectric constant tensor:
#      x y z
#    x 1.791580 0.018410 -0.082560 
#    y 0.018410 1.833650 -0.023920 
#    z -0.082560 -0.023920 1.893760 
# 
# From -- ./inp_files/177864.got.cif
#   From: 2010.05.17/outbox.ucp.g08.bks.cvg/sg2_89_cif.got.tgz:177864.got - 2010.06.11 11:32:03.
