data_PCOD9073828
_publ_section_title
;
Structure prediction by ZEFSAII (Michael W. Deem and Ramdas Pophale) SiO2 
 PCOD9073828
Probable space group: P -1
;
_chemical_formula_sum "Si O2"
_cell_formula_units_Z 14
_cell_length_a 9.997804
_cell_length_b 15.624261
_cell_length_c 7.999278
_cell_angle_alpha 69.147559
_cell_angle_beta 73.546558
_cell_angle_gamma 36.792063
_cell_volume 699.351513
_symmetry_space_group_name_H-M "P -1"
_symmetry_group_IT_number 2
_symmetry_cell_setting 'triclinic'
loop_
_space_group_symop_operation_xyz
x,y,z
-x,-y,-z
loop_
_atom_site_type_symbol
_atom_site_label
_atom_site_fract_x
_atom_site_fract_y
_atom_site_fract_z
Si Si1 0.966747 0.407638 0.565448
Si Si2 0.908614 0.425347 0.925893
Si Si3 0.866771 0.960327 0.421395
Si Si4 0.805390 0.881420 0.813795
Si Si5 0.288011 0.872928 0.322621
Si Si6 0.364554 0.059791 0.679006
Si Si7 0.751331 0.576182 0.208267
O O1 0.819469 0.461100 0.744171
O O2 0.867464 0.447325 0.388594
O O3 0.000000 0.500000 0.500000
O O4 0.190269 0.232920 0.632025
O O5 0.093307 0.412667 0.866770
O O6 0.740544 0.539318 0.053077
O O7 0.038094 0.267693 0.042075
O O8 0.702779 0.106811 0.494578
O O9 0.906300 0.857288 0.612202
O O10 0.764482 0.968972 0.285522
O O11 0.088969 0.903287 0.351744
O O12 0.776368 0.996095 0.825469
O O13 0.558911 0.965950 0.811842
O O14 0.516941 0.722103 0.270386
O O15 0.500000 0.000000 0.500000
#
# Coordination Sequence:
#
# PCOD9073828 Si02
#       7
#     2   2   2   2   2   2   2
#     4  10  21  35  54  84 119 149 183 236 290 343
#     4  10  21  35  55  88 119 145 192 242 285 340
#     4   8  18  34  57  87 113 148 197 236 283 347
#     4   9  17  33  56  82 113 144 188 247 282 328
#     4   9  18  35  60  81 113 159 191 230 294 341
#     4  10  18  31  57  86 110 142 192 239 279 330
#     4  10  20  36  55  82 115 155 189 232 289 346
#
# _framework density 20.018547999999999
#
# number of rings (size 3 to 8) (size 9 to 14) (size 15 to 20)
#    0.857    1.714    0.000    3.429    0.000    2.286 
#    0.000    2.857    0.000    6.857    0.000    0.000 
#    0.000    0.000    0.000    0.000    0.000    0.000 
#
# Total GULP energy -77945.988602 kJ/mol
# GULP energy per Si atom -5567.570614 kJ/mol
# Density = 1.997298 g / cm^3
# Si number density = 20.018548 Si / 1000 Ang^3
#
#
#
# Elastic Constant Matrix: (Units=GPa)
#
#
# Indices 1 2 3 4 5 6 
#
# 1 95.4269 22.9131 19.6694 1.5900 -9.9764 3.8460
# 2 22.9131 110.3310 11.7290 17.7444 -12.9343 7.0357
# 3 19.6694 11.7290 69.0230 15.1324 -8.8451 2.5409
# 4 1.5900 17.7444 15.1324 25.6447 8.4714 -5.2420
# 5 -9.9764 -12.9343 -8.8451 8.4714 3.0500 4.3470
# 6 3.8460 7.0357 2.5409 -5.2420 4.3470 16.0282
#
#
#
# Elastic Compliance Matrix: (Units=1/GPa)
#
#
# Indices 1 2 3 4 5 6 
#
# 1 0.011739 -0.003084 -0.004178 0.004800 -0.002000 0.001312
# 2 -0.003084 0.006510 -0.004282 0.005946 -0.019778 0.005870
# 3 -0.004178 -0.004282 0.012269 0.004833 -0.021610 0.008379
# 4 0.004800 0.005946 0.004833 0.007048 0.062803 -0.019256
# 5 -0.002000 -0.019778 -0.021610 0.062803 -0.076396 0.053846
# 6 0.001312 0.005870 0.008379 -0.019256 0.053846 0.037270
#
#
# Mechanical properties :
#
#
# Convention : Reuss Voigt Hill
#
# Bulk Modulus (GPa) = 134.58155 42.60045 88.59100
# Shear Modulus (GPa) = 208.29685 23.64253 115.96969
#
# Velocity S-wave (km/s) = 10.21165 3.44034 7.61951
# Velocity P-wave (km/s) = 14.36703 6.09163 11.03448
#
# Compressibility (1/GPa) = 0.00743044
#
# Stress axis : x y z
#
# Youngs Moduli (GPa) = 85.18648 153.60795 81.50757
#
# Poissons Ratio (x) = 0.47371 0.34056
# Poissons Ratio (y) = 0.26271 0.34898
# Poissons Ratio (z) = 0.35593 0.65768
#
# Static dielectric constant tensor:
#      x y z
#    x 1.750730 0.045280 0.044650 
#    y 0.045280 1.723140 0.038380 
#    z 0.044650 0.038380 1.774160 
# 
# From -- ./inp_files/277566.got.cif
#   From: 2010.05.17/outbox.cif.g08.bks.cpg/sg2_139_cif.got.tgz:277566.got - 2010.06.03 11:33:40.
