data_PCOD9073160
_publ_section_title
;
Structure prediction by ZEFSAII (Michael W. Deem and Ramdas Pophale) SiO2 
 PCOD9073160
Probable space group: P -1
;
_chemical_formula_sum "Si O2"
_cell_formula_units_Z 16
_cell_length_a 9.000000
_cell_length_b 15.000000
_cell_length_c 15.000000
_cell_angle_alpha 140.000000
_cell_angle_beta 100.000000
_cell_angle_gamma 50.000000
_cell_volume 759.999475
_symmetry_space_group_name_H-M "P -1"
_symmetry_group_IT_number 2
_symmetry_cell_setting 'triclinic'
loop_
_space_group_symop_operation_xyz
x,y,z
-x,-y,-z
loop_
_atom_site_type_symbol
_atom_site_label
_atom_site_fract_x
_atom_site_fract_y
_atom_site_fract_z
Si Si1 0.722509 0.323528 0.985633
Si Si2 0.586236 0.663712 0.496931
Si Si3 0.746146 0.846756 0.249934
Si Si4 0.089870 0.338624 0.214491
Si Si5 0.100281 0.487854 0.860878
Si Si6 0.119625 0.812105 0.291240
Si Si7 0.562412 0.165780 0.188557
Si Si8 0.723642 0.256286 0.133890
O O1 0.792347 0.435461 0.076968
O O2 0.416521 0.555601 0.129662
O O3 0.762230 0.218154 0.002632
O O4 0.881161 0.141101 0.778614
O O5 0.464617 0.753948 0.652422
O O6 0.601035 0.499929 0.327364
O O7 0.884142 0.477442 0.377271
O O8 0.452937 0.887572 0.598704
O O9 0.710695 0.756514 0.253734
O O10 0.971723 0.777182 0.256374
O O11 0.850970 0.689066 0.052333
O O12 0.325498 0.241343 0.206663
O O13 0.974072 0.498238 0.236668
O O14 0.191507 0.115072 0.016218
O O15 0.000000 0.000000 0.500000
O O16 0.551152 0.283356 0.196938
O O17 0.000000 0.000000 0.000000
#
# Coordination Sequence:
#
# PCOD9073160 Si02
#       8
#     2   2   2   2   2   2   2   2
#     4  10  22  43  66  91 134 170 217 265 328 395
#     4  12  23  45  68  99 130 174 229 274 324 406
#     4  10  23  39  71  93 127 169 220 263 340 387
#     4  11  23  44  69  94 138 167 224 277 331 390
#     4  10  20  44  66  93 128 175 209 271 329 396
#     4  10  22  42  64  95 128 167 211 277 325 385
#     4  11  25  44  68  98 134 178 219 279 329 385
#     4  12  24  44  69  96 134 181 221 270 336 393
#
# _framework density 21.052645999999999
#
# number of rings (size 3 to 8) (size 9 to 14) (size 15 to 20)
#    0.000    1.250    3.750    1.500    3.500    0.500 
#    2.250    0.000    0.000    0.000    0.000    0.000 
#    0.000    0.000    0.000    0.000    0.000    0.000 
#
# Total GULP energy -89120.176909 kJ/mol
# GULP energy per Si atom -5570.011057 kJ/mol
# Density = 2.100473 g / cm^3
# Si number density = 21.052646 Si / 1000 Ang^3
#
#
#
# Elastic Constant Matrix: (Units=GPa)
#
#
# Indices 1 2 3 4 5 6 
#
# 1 53.2806 21.8527 16.1895 11.0955 -10.0480 14.2128
# 2 21.8527 97.1977 29.7109 -16.8858 -2.8554 34.0832
# 3 16.1895 29.7109 122.8412 -13.2219 -0.6118 14.8316
# 4 11.0955 -16.8858 -13.2219 36.9308 3.0669 -2.1712
# 5 -10.0480 -2.8554 -0.6118 3.0669 25.3750 0.9444
# 6 14.2128 34.0832 14.8316 -2.1712 0.9444 40.2281
#
#
#
# Elastic Compliance Matrix: (Units=1/GPa)
#
#
# Indices 1 2 3 4 5 6 
#
# 1 0.028639 -0.005656 -0.003191 -0.013673 0.012473 -0.005181
# 2 -0.005656 0.017603 -0.001129 0.008712 -0.000892 -0.012009
# 3 -0.003191 -0.001129 0.009379 0.003866 -0.001590 -0.001128
# 4 -0.013673 0.008712 0.003866 0.037177 -0.008768 -0.001763
# 5 0.012473 -0.000892 -0.001590 -0.008768 0.045440 -0.004605
# 6 -0.005181 -0.012009 -0.001128 -0.001763 -0.004605 0.037292
#
#
# Mechanical properties :
#
#
# Convention : Reuss Voigt Hill
#
# Bulk Modulus (GPa) = 28.03455 45.42509 36.72982
# Shear Modulus (GPa) = 24.11133 34.21121 29.16127
#
# Velocity S-wave (km/s) = 3.38788 4.03554 3.72581
# Velocity P-wave (km/s) = 5.35247 6.58315 5.99945
#
# Compressibility (1/GPa) = 0.03567027
#
# Stress axis : x y z
#
# Youngs Moduli (GPa) = 34.91708 56.80776 106.62675
#
# Poissons Ratio (x) = 0.32129 0.34019
# Poissons Ratio (y) = 0.19748 0.12039
# Poissons Ratio (z) = 0.11140 0.06414
#
# Static dielectric constant tensor:
#      x y z
#    x 1.765080 -0.021730 -0.000880 
#    y -0.021730 1.866670 0.007960 
#    z -0.000880 0.007960 1.754670 
# 
# From -- ./inp_files/455287.got.cif
#   From: 2010.05.17/outbox.ucp.g08.bks.cvg/sg2_228_cif.got.tgz:455287.got - 2010.06.11 11:32:03.
