data_PCOD9073618
_publ_section_title
;
Structure prediction by ZEFSAII (Michael W. Deem and Ramdas Pophale) SiO2 
 PCOD9073618
Probable space group: P -1
;
_chemical_formula_sum "Si O2"
_cell_formula_units_Z 16
_cell_length_a 12.000000
_cell_length_b 9.000000
_cell_length_c 18.000000
_cell_angle_alpha 40.000000
_cell_angle_beta 140.000000
_cell_angle_gamma 140.000000
_cell_volume 723.717541
_symmetry_space_group_name_H-M "P -1"
_symmetry_group_IT_number 2
_symmetry_cell_setting 'triclinic'
loop_
_space_group_symop_operation_xyz
x,y,z
-x,-y,-z
loop_
_atom_site_type_symbol
_atom_site_label
_atom_site_fract_x
_atom_site_fract_y
_atom_site_fract_z
Si Si1 0.277373 0.087060 0.281564
Si Si2 0.425759 0.060464 0.747748
Si Si3 0.969101 0.299089 0.248483
Si Si4 0.050296 0.159540 0.690622
Si Si5 0.657948 0.914489 0.031960
Si Si6 0.334819 0.714317 0.355578
Si Si7 0.249379 0.576041 0.030763
Si Si8 0.362798 0.514931 0.609246
O O1 0.206099 0.306718 0.147903
O O2 0.490453 0.251356 0.357312
O O3 0.274739 0.938605 0.262200
O O4 0.149407 0.890571 0.354309
O O5 0.487522 0.169050 0.655316
O O6 0.435498 0.289914 0.719982
O O7 0.205346 0.851952 0.725177
O O8 0.571522 0.945610 0.896481
O O9 0.165327 0.479482 0.318326
O O10 0.987314 0.090455 0.282996
O O11 0.896563 0.461805 0.096122
O O12 0.187887 0.184383 0.823026
O O13 0.165900 0.383689 0.605623
O O14 0.464522 0.722612 0.050092
O O15 0.751842 0.206415 0.998483
O O16 0.363918 0.612895 0.489064
#
# Coordination Sequence:
#
# PCOD9073618 Si02
#       8
#     2   2   2   2   2   2   2   2
#     4  12  24  39  61  94 122 163 201 246 304 363
#     4  10  21  41  67  89 117 160 205 256 298 349
#     4   9  22  40  60  94 119 155 203 255 302 352
#     4  10  22  38  69  92 113 159 208 259 294 343
#     4   9  16  37  66  93 114 150 207 256 297 341
#     4  12  27  39  58  91 132 164 194 242 311 371
#     4   9  17  36  64  89 122 149 205 256 293 353
#     4  11  23  45  64  85 119 164 216 249 284 355
#
# _framework density 22.108073000000001
#
# number of rings (size 3 to 8) (size 9 to 14) (size 15 to 20)
#    0.000    1.750    2.500    3.000    1.750    6.000 
#    0.000    1.250    0.000    0.000    0.000    0.000 
#    0.000    0.000    0.000    0.000    0.000    0.000 
#
# Total GULP energy -89339.735910 kJ/mol
# GULP energy per Si atom -5583.733494 kJ/mol
# Density = 2.205775 g / cm^3
# Si number density = 22.108073 Si / 1000 Ang^3
#
#
#
# Elastic Constant Matrix: (Units=GPa)
#
#
# Indices 1 2 3 4 5 6 
#
# 1 109.4380 28.3100 1.4118 -10.9100 -15.8280 17.7711
# 2 28.3100 36.2432 9.7897 -5.3759 2.6549 9.2176
# 3 1.4118 9.7897 52.3694 -15.3799 -18.8881 9.7062
# 4 -10.9100 -5.3759 -15.3799 27.2085 6.2996 -6.5534
# 5 -15.8280 2.6549 -18.8881 6.2996 19.3893 -6.2346
# 6 17.7711 9.2176 9.7062 -6.5534 -6.2346 15.4251
#
#
#
# Elastic Compliance Matrix: (Units=1/GPa)
#
#
# Indices 1 2 3 4 5 6 
#
# 1 0.021089 -0.021457 0.018662 0.005080 0.034379 -0.007164
# 2 -0.021457 0.061066 -0.030247 -0.004273 -0.060001 -0.018805
# 3 0.018662 -0.030247 0.052785 0.015447 0.064488 -0.004013
# 4 0.005080 -0.004273 0.015447 0.047358 0.007674 0.010202
# 5 0.034379 -0.060001 0.064488 0.007674 0.155139 0.021633
# 6 -0.007164 -0.018805 -0.004013 0.010202 0.021633 0.099924
#
#
# Mechanical properties :
#
#
# Convention : Reuss Voigt Hill
#
# Bulk Modulus (GPa) = 14.52296 30.78596 22.65446
# Shear Modulus (GPa) = 9.49852 22.97384 16.23618
#
# Velocity S-wave (km/s) = 2.07503 3.22710 2.71292
# Velocity P-wave (km/s) = 3.51060 5.27646 4.48137
#
# Compressibility (1/GPa) = 0.06885647
#
# Stress axis : x y z
#
# Youngs Moduli (GPa) = 47.41706 16.37584 18.94464
#
# Poissons Ratio (x) = 0.35137 -0.35354
# Poissons Ratio (y) = 1.01742 0.57302
# Poissons Ratio (z) = -0.88489 0.49532
#
# Static dielectric constant tensor:
#      x y z
#    x 1.797190 0.010990 0.044630 
#    y 0.010990 1.771970 -0.018260 
#    z 0.044630 -0.018260 1.903180 
# 
# From -- ./inp_files/280188.got.cif
#   From: 2010.05.17/outbox.ucp.g08.bks.cvg/sg2_141_cif.got.tgz:280188.got - 2010.06.11 11:32:03.
