data_PCOD9073497
_publ_section_title
;
Structure prediction by ZEFSAII (Michael W. Deem and Ramdas Pophale) SiO2 
 PCOD9073497
Probable space group: P -1
;
_chemical_formula_sum "Si O2"
_cell_formula_units_Z 16
_cell_length_a 9.000000
_cell_length_b 12.000000
_cell_length_c 9.000000
_cell_angle_alpha 50.000000
_cell_angle_beta 100.000000
_cell_angle_gamma 100.000000
_cell_volume 730.800219
_symmetry_space_group_name_H-M "P -1"
_symmetry_group_IT_number 2
_symmetry_cell_setting 'triclinic'
loop_
_space_group_symop_operation_xyz
x,y,z
-x,-y,-z
loop_
_atom_site_type_symbol
_atom_site_label
_atom_site_fract_x
_atom_site_fract_y
_atom_site_fract_z
Si Si1 0.631502 0.642296 0.080140
Si Si2 0.676293 0.750529 0.310593
Si Si3 0.385265 0.748195 0.418209
Si Si4 0.104873 0.630149 0.980210
Si Si5 0.849213 0.481336 0.584766
Si Si6 0.201556 0.963564 0.069386
Si Si7 0.394520 0.678343 0.784708
Si Si8 0.060586 0.177846 0.045620
O O1 0.543528 0.722864 0.867605
O O2 0.810697 0.688872 0.067837
O O3 0.587716 0.689986 0.196863
O O4 0.592139 0.474316 0.172343
O O5 0.560752 0.734737 0.438064
O O6 0.801549 0.642862 0.457796
O O7 0.754983 0.907799 0.149032
O O8 0.278749 0.612705 0.451456
O O9 0.354137 0.780443 0.556005
O O10 0.347138 0.881031 0.195045
O O11 0.134477 0.585398 0.193077
O O12 0.258755 0.652343 0.898131
O O13 0.000000 0.500000 0.000000
O O14 0.022713 0.780011 0.855880
O O15 0.000000 0.500000 0.500000
O O16 0.150092 0.036261 0.151264
O O17 0.067009 0.853029 0.077839
#
# Coordination Sequence:
#
# PCOD9073497 Si02
#       8
#     2   2   2   2   2   2   2   2
#     4  10  21  40  63  96 137 171 210 278 342 392
#     4  11  24  42  68 101 129 176 232 279 334 388
#     4  12  24  42  68 101 131 177 233 277 326 401
#     4  12  23  41  67 101 139 173 215 279 346 396
#     4  12  24  40  70 103 133 169 231 285 323 395
#     4  10  23  43  72  94 133 176 229 284 326 387
#     4  11  24  38  65  99 140 172 214 274 349 393
#     4  10  21  43  69  92 128 180 223 268 340 393
#
# _framework density 21.893808
#
# number of rings (size 3 to 8) (size 9 to 14) (size 15 to 20)
#    0.000    1.000    3.750    3.750    5.250    0.000 
#    0.000    3.125    0.000    0.000    0.000    0.000 
#    0.000    0.000    0.000    0.000    0.000    0.000 
#
# Total GULP energy -89241.093070 kJ/mol
# GULP energy per Si atom -5577.568317 kJ/mol
# Density = 2.184398 g / cm^3
# Si number density = 21.893808 Si / 1000 Ang^3
#
#
#
# Elastic Constant Matrix: (Units=GPa)
#
#
# Indices 1 2 3 4 5 6 
#
# 1 108.9309 19.0011 51.8970 2.8775 -15.5339 4.1140
# 2 19.0011 75.3085 21.3948 9.6182 -7.5276 9.1019
# 3 51.8970 21.3948 81.9183 1.7454 -17.9799 -5.9974
# 4 2.8775 9.6182 1.7454 32.2756 -8.7556 1.5239
# 5 -15.5339 -7.5276 -17.9799 -8.7556 17.5398 6.4302
# 6 4.1140 9.1019 -5.9974 1.5239 6.4302 19.4516
#
#
#
# Elastic Compliance Matrix: (Units=1/GPa)
#
#
# Indices 1 2 3 4 5 6 
#
# 1 0.014483 0.000328 -0.007980 0.001884 0.008947 -0.008782
# 2 0.000328 0.016560 -0.003950 -0.002608 0.006013 -0.010819
# 3 -0.007980 -0.003950 0.021539 0.004093 0.013367 0.005437
# 4 0.001884 -0.002608 0.004093 0.039531 0.028277 -0.010361
# 5 0.008947 0.006013 0.013367 0.028277 0.109650 -0.039048
# 6 -0.008782 -0.010819 0.005437 -0.010361 -0.039048 0.073726
#
#
# Mechanical properties :
#
#
# Convention : Reuss Voigt Hill
#
# Bulk Modulus (GPa) = 34.03853 50.08261 42.06057
# Shear Modulus (GPa) = 16.20826 25.44439 20.82633
#
# Velocity S-wave (km/s) = 2.72382 3.41276 3.08757
# Velocity P-wave (km/s) = 5.04709 6.20114 5.65364
#
# Compressibility (1/GPa) = 0.02937847
#
# Stress axis : x y z
#
# Youngs Moduli (GPa) = 69.04857 60.38709 46.42728
#
# Poissons Ratio (x) = -0.01981 0.37049
# Poissons Ratio (y) = -0.02265 0.18336
# Poissons Ratio (z) = 0.55101 0.23850
#
# Static dielectric constant tensor:
#      x y z
#    x 1.807650 -0.050780 0.051140 
#    y -0.050780 1.784460 -0.040630 
#    z 0.051140 -0.040630 1.907200 
# 
# From -- ./inp_files/184401.got.cif
#   From: 2010.05.17/outbox.ucp.g08.bks.cvg/sg2_93_cif.got.tgz:184401.got - 2010.06.11 11:32:03.
