data_PCOD9073385
_publ_section_title
;
Structure prediction by ZEFSAII (Michael W. Deem and Ramdas Pophale) SiO2 
 PCOD9073385
Probable space group: P -1
;
_chemical_formula_sum "Si O2"
_cell_formula_units_Z 11
_cell_length_a 6.000000
_cell_length_b 15.000000
_cell_length_c 6.000000
_cell_angle_alpha 100.000000
_cell_angle_beta 90.000000
_cell_angle_gamma 120.000000
_cell_volume 458.156288
_symmetry_space_group_name_H-M "P -1"
_symmetry_group_IT_number 2
_symmetry_cell_setting 'triclinic'
loop_
_space_group_symop_operation_xyz
x,y,z
-x,-y,-z
loop_
_atom_site_type_symbol
_atom_site_label
_atom_site_fract_x
_atom_site_fract_y
_atom_site_fract_z
Si Si1 0.886076 0.615274 0.984157
Si Si2 0.000000 0.000000 0.500000
Si Si3 0.796824 0.428665 0.659951
Si Si4 0.364639 0.747472 0.726503
Si Si5 0.186704 0.195150 0.911918
Si Si6 0.718036 0.074030 0.205778
O O1 0.045270 0.600204 0.176242
O O2 0.784119 0.692083 0.089152
O O3 0.087603 0.677746 0.811863
O O4 0.706995 0.500372 0.822703
O O5 0.899514 0.883925 0.327643
O O6 0.209085 0.985278 0.641554
O O7 0.594242 0.323655 0.483344
O O8 0.000000 0.500000 0.500000
O O9 0.370809 0.847789 0.661366
O O10 0.559042 0.784371 0.949077
O O11 0.968061 0.137954 0.077143
O O12 0.500000 0.000000 0.000000
#
# Coordination Sequence:
#
# PCOD9073385 Si02
#       6
#     2   1   2   2   2   2
#     4   9  20  39  61  89 122 163 205 252 312 373
#     4  12  24  40  64  88 122 174 204 256 316 358
#     4   9  18  38  64  87 123 162 199 257 313 364
#     4  10  21  39  61  90 126 161 203 262 305 367
#     4  11  24  41  61  93 126 162 219 253 310 379
#     4  11  24  44  62  91 129 163 213 264 306 370
#
# _framework density 24.009274000000001
#
# number of rings (size 3 to 8) (size 9 to 14) (size 15 to 20)
#    0.000    1.818    1.818    1.636    0.000    2.909 
#    0.000    8.182    0.000    0.000    0.000    0.000 
#    0.000    0.000    0.000    0.000    0.000    0.000 
#
# Total GULP energy -61270.438072 kJ/mol
# GULP energy per Si atom -5570.039825 kJ/mol
# Density = 2.395463 g / cm^3
# Si number density = 24.009274 Si / 1000 Ang^3
#
#
#
# Elastic Constant Matrix: (Units=GPa)
#
#
# Indices 1 2 3 4 5 6 
#
# 1 69.9530 65.1929 30.0961 17.3462 14.3233 -36.3910
# 2 65.1929 125.3598 63.7227 31.5472 -8.9966 -41.0618
# 3 30.0961 63.7227 116.3119 45.7582 12.5792 -23.5286
# 4 17.3462 31.5472 45.7582 60.2637 -5.2396 -1.6613
# 5 14.3233 -8.9966 12.5792 -5.2396 41.0771 -4.8995
# 6 -36.3910 -41.0618 -23.5286 -1.6613 -4.8995 53.6548
#
#
#
# Elastic Compliance Matrix: (Units=1/GPa)
#
#
# Indices 1 2 3 4 5 6 
#
# 1 0.049860 -0.025304 0.011904 -0.011945 -0.026079 0.016922
# 2 -0.025304 0.028088 -0.012105 0.003468 0.019230 0.000889
# 3 0.011904 -0.012105 0.020155 -0.013445 -0.013979 0.005956
# 4 -0.011945 0.003468 -0.013445 0.029179 0.011645 -0.009377
# 5 -0.026079 0.019230 -0.013979 0.011645 0.042840 -0.004828
# 6 0.016922 0.000889 0.005956 -0.009377 -0.004828 0.032675
#
#
# Mechanical properties :
#
#
# Convention : Reuss Voigt Hill
#
# Bulk Modulus (GPa) = 21.23387 69.96091 45.59739
# Shear Modulus (GPa) = 18.55258 41.17332 29.86295
#
# Velocity S-wave (km/s) = 2.78281 4.14562 3.53059
# Velocity P-wave (km/s) = 4.38048 7.21923 5.97101
#
# Compressibility (1/GPa) = 0.04709456
#
# Stress axis : x y z
#
# Youngs Moduli (GPa) = 20.05596 35.60272 49.61575
#
# Poissons Ratio (x) = 0.90088 -0.59064
# Poissons Ratio (y) = 0.50749 0.60059
# Poissons Ratio (z) = -0.23875 0.43097
#
# Static dielectric constant tensor:
#      x y z
#    x 1.892940 -0.048670 -0.071050 
#    y -0.048670 1.931160 0.004500 
#    z -0.071050 0.004500 1.862970 
# 
# From -- ./inp_files/3133.got.cif
#   From: 2010.05.17/outbox.ucp.g08.bks.cvg/sg2_2_cif.got.tgz:3133.got - 2010.06.11 11:32:03.
