data_PCOD9073975
_publ_section_title
;
Structure prediction by ZEFSAII (Michael W. Deem and Ramdas Pophale) SiO2 
 PCOD9073975
Probable space group: P -1
;
_chemical_formula_sum "Si O2"
_cell_formula_units_Z 16
_cell_length_a 15.617770
_cell_length_b 20.543000
_cell_length_c 15.518839
_cell_angle_alpha 140.585224
_cell_angle_beta 161.340400
_cell_angle_gamma 37.272202
_cell_volume 960.258113
_symmetry_space_group_name_H-M "P -1"
_symmetry_group_IT_number 2
_symmetry_cell_setting 'triclinic'
loop_
_space_group_symop_operation_xyz
x,y,z
-x,-y,-z
loop_
_atom_site_type_symbol
_atom_site_label
_atom_site_fract_x
_atom_site_fract_y
_atom_site_fract_z
Si Si1 0.037580 0.617557 0.673702
Si Si2 0.709245 0.401688 0.284983
Si Si3 0.832803 0.623504 0.169324
Si Si4 0.113556 0.872051 0.470612
Si Si5 0.319126 0.253186 0.020992
Si Si6 0.245051 0.725456 0.289759
Si Si7 0.188544 0.392587 0.200544
Si Si8 0.504377 0.355099 0.726740
O O1 0.155350 0.648056 0.727671
O O2 0.000000 0.500000 0.500000
O O3 0.727621 0.681474 0.479158
O O4 0.269678 0.618016 0.967206
O O5 0.657549 0.530631 0.357601
O O6 0.929336 0.353767 0.521605
O O7 0.409364 0.390514 0.013007
O O8 0.996556 0.511888 0.162530
O O9 0.698240 0.710337 0.056578
O O10 0.381511 0.819542 0.732705
O O11 0.191969 0.831816 0.405833
O O12 0.000000 0.000000 0.500000
O O13 0.888240 0.815486 0.228106
O O14 0.224372 0.359472 0.100745
O O15 0.499312 0.636631 0.491788
O O16 0.344023 0.726111 0.287038
O O17 0.970099 0.686544 0.990193
#
# Coordination Sequence:
#
# PCOD9073975 Si02
#       8
#     2   2   2   2   2   2   2   2
#     4  10  20  29  43  64  95 137 172 201 229 273
#     4  11  20  29  44  66  99 139 168 193 240 267
#     4  12  19  31  47  69 103 132 168 196 224 293
#     4  10  21  39  55  72 100 123 158 211 257 288
#     4  10  22  33  52  74  94 130 166 196 244 290
#     4  10  19  30  51  73  93 132 167 197 242 286
#     4  10  18  32  44  69 102 131 162 197 231 276
#     4  11  17  31  45  65  98 129 176 200 226 282
#
# _framework density 16.662186999999999
#
# number of rings (size 3 to 8) (size 9 to 14) (size 15 to 20)
#    0.000    1.500    2.500    6.000    0.000    0.000 
#    0.000    5.000    0.000    0.000    0.000    0.000 
#    0.000   20.000    0.000    0.000    0.000    0.000 
#
# Total GULP energy -89241.291791 kJ/mol
# GULP energy per Si atom -5577.580737 kJ/mol
# Density = 1.662426 g / cm^3
# Si number density = 16.662187 Si / 1000 Ang^3
#
#
#
# Elastic Constant Matrix: (Units=GPa)
#
#
# Indices 1 2 3 4 5 6 
#
# 1 105.3724 33.5342 17.4020 -6.9337 -6.5226 -8.4192
# 2 33.5342 51.2740 11.0382 -5.0198 -9.4978 -8.4736
# 3 17.4020 11.0382 70.7065 -19.6074 -0.5236 2.8112
# 4 -6.9337 -5.0198 -19.6074 13.2825 -2.9591 1.2954
# 5 -6.5226 -9.4978 -0.5236 -2.9591 31.5417 -3.3749
# 6 -8.4192 -8.4736 2.8112 1.2954 -3.3749 12.5434
#
#
#
# Elastic Compliance Matrix: (Units=1/GPa)
#
#
# Indices 1 2 3 4 5 6 
#
# 1 0.012418 -0.006679 -0.001927 0.000922 0.001087 0.004452
# 2 -0.006679 0.029695 -0.002340 0.004709 0.009920 0.018284
# 3 -0.001927 -0.002340 0.026048 0.038109 0.001597 -0.012218
# 4 0.000922 0.004709 0.038109 0.138327 0.013573 -0.015375
# 5 0.001087 0.009920 0.001597 0.013573 0.037914 0.015872
# 6 0.004452 0.018284 -0.012218 -0.015375 0.015872 0.103660
#
#
# Mechanical properties :
#
#
# Convention : Reuss Voigt Hill
#
# Bulk Modulus (GPa) = 21.61252 39.03353 30.32303
# Shear Modulus (GPa) = 12.97431 22.49875 17.73653
#
# Velocity S-wave (km/s) = 2.79349 3.67861 3.26617
# Velocity P-wave (km/s) = 4.83776 6.44362 5.69755
#
# Compressibility (1/GPa) = 0.04626948
#
# Stress axis : x y z
#
# Youngs Moduli (GPa) = 80.53058 33.67538 38.39074
#
# Poissons Ratio (x) = 0.22492 0.07397
# Poissons Ratio (y) = 0.53788 0.08982
# Poissons Ratio (z) = 0.15517 0.07879
#
# Static dielectric constant tensor:
#      x y z
#    x 1.610470 -0.026690 0.001730 
#    y -0.026690 1.517490 -0.014850 
#    z 0.001730 -0.014850 1.563560 
# 
# From -- ./inp_files/67311.got.cif
#   From: 2010.05.17/outbox.cif.g08.bks.cpg/sg2_34_cif.got.tgz:67311.got - 2010.06.03 11:33:40.
