data_PCOD9073967
_publ_section_title
;
Structure prediction by ZEFSAII (Michael W. Deem and Ramdas Pophale) SiO2 
 PCOD9073967
Probable space group: P -1
;
_chemical_formula_sum "Si O2"
_cell_formula_units_Z 16
_cell_length_a 12.000000
_cell_length_b 15.000000
_cell_length_c 9.000000
_cell_angle_alpha 80.000000
_cell_angle_beta 110.000000
_cell_angle_gamma 150.000000
_cell_volume 734.803614
_symmetry_space_group_name_H-M "P -1"
_symmetry_group_IT_number 2
_symmetry_cell_setting 'triclinic'
loop_
_space_group_symop_operation_xyz
x,y,z
-x,-y,-z
loop_
_atom_site_type_symbol
_atom_site_label
_atom_site_fract_x
_atom_site_fract_y
_atom_site_fract_z
Si Si1 0.654430 0.114982 0.388202
Si Si2 0.970729 0.900935 0.181144
Si Si3 0.388131 0.015142 0.020565
Si Si4 0.639161 0.902805 0.479338
Si Si5 0.825876 0.629808 0.785132
Si Si6 0.585193 0.775030 0.189622
Si Si7 0.345946 0.306786 0.172313
Si Si8 0.777770 0.502777 0.476957
O O1 0.938755 0.329066 0.479658
O O2 0.500000 0.000000 0.500000
O O3 0.507717 0.083896 0.219566
O O4 0.637936 0.998271 0.366165
O O5 0.799214 0.856923 0.199953
O O6 0.778536 0.732232 0.022908
O O7 0.127294 0.941422 0.350318
O O8 0.188247 0.109274 0.158406
O O9 0.098181 0.812509 0.922806
O O10 0.500000 0.000000 0.000000
O O11 0.449858 0.154830 0.938479
O O12 0.664719 0.849568 0.372281
O O13 0.392180 0.699518 0.504926
O O14 0.656371 0.446692 0.851107
O O15 0.721685 0.662270 0.745498
O O16 0.807365 0.581207 0.620824
O O17 0.618013 0.453521 0.296226
#
# Coordination Sequence:
#
# PCOD9073967 Si02
#       8
#     2   2   2   2   2   2   2   2
#     4  12  28  44  71  98 135 188 223 281 345 404
#     4  10  22  40  66 100 142 179 221 281 344 404
#     4  12  24  46  69  95 139 177 230 282 326 408
#     4  10  23  43  67 100 136 176 232 280 337 404
#     4  11  23  40  71 105 132 182 228 280 338 402
#     4  11  23  41  71 101 131 183 229 280 338 401
#     4  10  22  40  68 101 142 179 220 280 349 399
#     4  10  23  44  67 100 140 176 228 284 333 405
#
# _framework density 21.774525000000001
#
# number of rings (size 3 to 8) (size 9 to 14) (size 15 to 20)
#    0.000    1.250    3.750    0.750    3.500    4.500 
#    0.000    0.000    0.000    0.000    0.000    0.000 
#    0.000    0.000    0.000    0.000    0.000    0.000 
#
# Total GULP energy -89246.546185 kJ/mol
# GULP energy per Si atom -5577.909137 kJ/mol
# Density = 2.172497 g / cm^3
# Si number density = 21.774525 Si / 1000 Ang^3
#
#
#
# Elastic Constant Matrix: (Units=GPa)
#
#
# Indices 1 2 3 4 5 6 
#
# 1 49.7148 15.1279 11.3373 6.1369 9.4863 15.0155
# 2 15.1279 124.1847 53.7326 24.5614 15.4439 14.2348
# 3 11.3373 53.7326 145.3469 22.8734 28.2217 18.5840
# 4 6.1369 24.5614 22.8734 40.5390 3.7666 9.6415
# 5 9.4863 15.4439 28.2217 3.7666 38.9850 1.1931
# 6 15.0155 14.2348 18.5840 9.6415 1.1931 37.4821
#
#
#
# Elastic Compliance Matrix: (Units=1/GPa)
#
#
# Indices 1 2 3 4 5 6 
#
# 1 0.024333 -0.001520 0.001073 -0.000607 -0.005751 -0.009364
# 2 -0.001520 0.010536 -0.002717 -0.004276 -0.001396 -0.000901
# 3 0.001073 -0.002717 0.009807 -0.002696 -0.005920 -0.003378
# 4 -0.000607 -0.004276 -0.002696 0.029846 0.001048 -0.004507
# 5 -0.005751 -0.001396 -0.005920 0.001048 0.031650 0.004492
# 6 -0.009364 -0.000901 -0.003378 -0.004507 0.004492 0.033464
#
#
# Mechanical properties :
#
#
# Convention : Reuss Voigt Hill
#
# Bulk Modulus (GPa) = 26.07742 53.29357 39.68550
# Shear Modulus (GPa) = 31.49687 39.33778 35.41732
#
# Velocity S-wave (km/s) = 3.80742 4.25502 4.03742
# Velocity P-wave (km/s) = 5.59738 6.97629 6.32452
#
# Compressibility (1/GPa) = 0.03834734
#
# Stress axis : x y z
#
# Youngs Moduli (GPa) = 41.09677 94.91230 101.97254
#
# Poissons Ratio (x) = 0.14427 -0.10944
# Poissons Ratio (y) = 0.06247 0.27708
# Poissons Ratio (z) = -0.04411 0.25790
#
# Static dielectric constant tensor:
#      x y z
#    x 1.961870 -0.005530 -0.084620 
#    y -0.005530 1.814520 -0.047100 
#    z -0.084620 -0.047100 1.868610 
# 
# From -- ./inp_files/272966.got.cif
#   From: 2010.05.17/outbox.ucp.g08.bks.cvg/sg2_137_cif.got.tgz:272966.got - 2010.06.11 11:32:03.
