data_PCOD9073218
_publ_section_title
;
Structure prediction by ZEFSAII (Michael W. Deem and Ramdas Pophale) SiO2 
 PCOD9073218
Probable space group: P -1
;
_chemical_formula_sum "Si O2"
_cell_formula_units_Z 16
_cell_length_a 15.000000
_cell_length_b 12.000000
_cell_length_c 15.000000
_cell_angle_alpha 60.000000
_cell_angle_beta 40.000000
_cell_angle_gamma 30.000000
_cell_volume 747.221570
_symmetry_space_group_name_H-M "P -1"
_symmetry_group_IT_number 2
_symmetry_cell_setting 'triclinic'
loop_
_space_group_symop_operation_xyz
x,y,z
-x,-y,-z
loop_
_atom_site_type_symbol
_atom_site_label
_atom_site_fract_x
_atom_site_fract_y
_atom_site_fract_z
Si Si1 0.311756 0.191449 0.387742
Si Si2 0.203546 0.023802 0.842549
Si Si3 0.787771 0.015041 0.444593
Si Si4 0.097067 0.937494 0.350851
Si Si5 0.636908 0.909584 0.062274
Si Si6 0.120967 0.871284 0.823583
Si Si7 0.654375 0.651788 0.022826
Si Si8 0.788107 0.397303 0.279090
O O1 0.000000 0.500000 0.500000
O O2 0.516553 0.119228 0.314518
O O3 0.267337 0.084828 0.502143
O O4 0.481065 0.033025 0.227792
O O5 0.225400 0.882024 0.817172
O O6 0.141448 0.999185 0.992650
O O7 0.939328 0.338867 0.911105
O O8 0.925806 0.985318 0.272300
O O9 0.487412 0.313090 0.587230
O O10 0.019026 0.858476 0.404756
O O11 0.408659 0.743010 0.181676
O O12 0.000000 0.000000 0.500000
O O13 0.911164 0.194242 0.337088
O O14 0.658355 0.748159 0.066438
O O15 0.952244 0.715409 0.896125
O O16 0.445535 0.164262 0.049590
O O17 0.291341 0.622901 0.739778
#
# Coordination Sequence:
#
# PCOD9073218 Si02
#       8
#     2   2   2   2   2   2   2   2
#     4  12  28  47  66  98 133 176 223 278 340 396
#     4  11  25  45  72  95 131 187 218 272 333 407
#     4  11  25  43  70 101 134 181 217 282 333 390
#     4  10  21  36  62 107 138 165 214 277 331 384
#     4  10  22  45  66  98 135 172 224 280 326 393
#     4  10  23  43  67 101 133 170 228 265 329 399
#     4  10  23  40  70 100 128 178 224 271 331 394
#     4  10  21  43  70  97 136 175 224 273 330 396
#
# _framework density 21.412658
#
# number of rings (size 3 to 8) (size 9 to 14) (size 15 to 20)
#    0.000    1.500    1.250    3.000    7.000    3.500 
#    9.000    2.500    0.000    0.000    0.000    0.000 
#    0.000    0.000    0.000    0.000    0.000    0.000 
#
# Total GULP energy -89220.013432 kJ/mol
# GULP energy per Si atom -5576.250839 kJ/mol
# Density = 2.136392 g / cm^3
# Si number density = 21.412658 Si / 1000 Ang^3
#
#
#
# Elastic Constant Matrix: (Units=GPa)
#
#
# Indices 1 2 3 4 5 6 
#
# 1 101.3489 22.9450 28.9326 7.1862 -27.8547 19.2721
# 2 22.9450 89.2373 29.9178 14.8684 -18.8694 12.0137
# 3 28.9326 29.9178 59.8002 4.7921 -32.2096 -4.8954
# 4 7.1862 14.8684 4.7921 41.2511 -2.8965 0.4880
# 5 -27.8547 -18.8694 -32.2096 -2.8965 52.2122 -9.9993
# 6 19.2721 12.0137 -4.8954 0.4880 -9.9993 32.2861
#
#
#
# Elastic Compliance Matrix: (Units=1/GPa)
#
#
# Indices 1 2 3 4 5 6 
#
# 1 0.013951 0.000490 -0.006697 -0.001605 0.001680 -0.008981
# 2 0.000490 0.015680 -0.009160 -0.004684 -0.001497 -0.007909
# 3 -0.006697 -0.009160 0.036324 0.001374 0.019210 0.018842
# 4 -0.001605 -0.004684 0.001374 0.026036 0.000239 0.002590
# 5 0.001680 -0.001497 0.019210 0.000239 0.033851 0.012948
# 6 -0.008981 -0.007909 0.018842 0.002590 0.012948 0.046104
#
#
# Mechanical properties :
#
#
# Convention : Reuss Voigt Hill
#
# Bulk Modulus (GPa) = 28.39214 45.99747 37.19481
# Shear Modulus (GPa) = 23.31859 36.38927 29.85393
#
# Velocity S-wave (km/s) = 3.30359 4.12688 3.73797
# Velocity P-wave (km/s) = 5.27636 6.65104 6.00318
#
# Compressibility (1/GPa) = 0.03522102
#
# Stress axis : x y z
#
# Youngs Moduli (GPa) = 71.68005 63.77662 27.52975
#
# Poissons Ratio (x) = -0.03122 0.18436
# Poissons Ratio (y) = -0.03509 0.25217
# Poissons Ratio (z) = 0.48001 0.58419
#
# Static dielectric constant tensor:
#      x y z
#    x 1.983390 -0.017320 0.098130 
#    y -0.017320 1.787830 -0.026330 
#    z 0.098130 -0.026330 1.786250 
# 
# From -- ./inp_files/532462.got.cif
#   From: 2010.05.17/outbox.ucp.g08.bks.cvg/sg2_267_cif.got.tgz:532462.got - 2010.06.11 11:32:03.
