data_PCOD9073801
_publ_section_title
;
Structure prediction by ZEFSAII (Michael W. Deem and Ramdas Pophale) SiO2 
 PCOD9073801
Probable space group: P -1
;
_chemical_formula_sum "Si O2"
_cell_formula_units_Z 14
_cell_length_a 15.000000
_cell_length_b 6.000000
_cell_length_c 9.000000
_cell_angle_alpha 110.000000
_cell_angle_beta 120.000000
_cell_angle_gamma 90.000000
_cell_volume 644.457818
_symmetry_space_group_name_H-M "P -1"
_symmetry_group_IT_number 2
_symmetry_cell_setting 'triclinic'
loop_
_space_group_symop_operation_xyz
x,y,z
-x,-y,-z
loop_
_atom_site_type_symbol
_atom_site_label
_atom_site_fract_x
_atom_site_fract_y
_atom_site_fract_z
Si Si1 0.378039 0.620743 0.996898
Si Si2 0.752428 0.668836 0.940100
Si Si3 0.227198 0.159439 0.342740
Si Si4 0.764112 0.119298 0.249452
Si Si5 0.601344 0.832017 0.277048
Si Si6 0.082937 0.664959 0.000467
Si Si7 0.925206 0.540190 0.582138
O O1 0.352164 0.463777 0.090073
O O2 0.478009 0.834408 0.166127
O O3 0.279453 0.718064 0.872209
O O4 0.398922 0.440887 0.842547
O O5 0.745836 0.716110 0.769040
O O6 0.830523 0.490920 0.989470
O O7 0.795533 0.909727 0.127969
O O8 0.332959 0.122479 0.505191
O O9 0.167258 0.307602 0.441517
O O10 0.143352 0.914888 0.177677
O O11 0.854059 0.266504 0.465717
O O12 0.667140 0.006605 0.249274
O O13 0.011032 0.676111 0.801166
O O14 0.000000 0.500000 0.000000
O O15 0.000000 0.500000 0.500000
#
# Coordination Sequence:
#
# PCOD9073801 Si02
#       7
#     2   2   2   2   2   2   2
#     4  10  21  45  68 101 130 175 221 272 334 393
#     4  11  25  43  68  95 139 177 219 273 326 398
#     4  12  25  45  64 103 136 172 220 274 333 397
#     4  11  23  45  68 101 133 171 227 276 322 397
#     4  10  23  40  73  98 134 172 218 278 335 388
#     4  12  26  44  65  95 136 181 218 269 334 391
#     4  12  25  41  69  96 132 177 222 273 323 392
#
# _framework density 21.723687000000002
#
# number of rings (size 3 to 8) (size 9 to 14) (size 15 to 20)
#    0.000    0.857    2.857    4.286    4.000    1.143 
#    0.000    2.857    0.000    0.000    0.000    0.000 
#    0.000    0.000    0.000    0.000    0.000    0.000 
#
# Total GULP energy -78061.242203 kJ/mol
# GULP energy per Si atom -5575.803014 kJ/mol
# Density = 2.167424 g / cm^3
# Si number density = 21.723687 Si / 1000 Ang^3
#
#
#
# Elastic Constant Matrix: (Units=GPa)
#
#
# Indices 1 2 3 4 5 6 
#
# 1 48.7899 9.4676 33.1584 13.0111 1.3732 11.9271
# 2 9.4676 49.4262 29.0245 6.9541 -11.0814 10.2073
# 3 33.1584 29.0245 127.1111 9.4478 24.4773 13.4117
# 4 13.0111 6.9541 9.4478 37.9458 -4.1018 1.0103
# 5 1.3732 -11.0814 24.4773 -4.1018 14.0564 21.9255
# 6 11.9271 10.2073 13.4117 1.0103 21.9255 26.6235
#
#
#
# Elastic Compliance Matrix: (Units=1/GPa)
#
#
# Indices 1 2 3 4 5 6 
#
# 1 0.024525 -0.006769 -0.001908 -0.008433 -0.014830 0.005102
# 2 -0.006769 0.010865 0.002513 -0.003586 -0.025769 0.018959
# 3 -0.001908 0.002513 0.006680 0.000406 0.013714 -0.014783
# 4 -0.008433 -0.003586 0.000406 0.029701 0.000013 0.003810
# 5 -0.014830 -0.025769 0.013714 0.000013 -0.047096 0.048400
# 6 0.005102 0.018959 -0.014783 0.003810 0.048400 -0.004550
#
#
# Mechanical properties :
#
#
# Convention : Reuss Voigt Hill
#
# Bulk Modulus (GPa) = 33.62266 40.95870 37.29068
# Shear Modulus (GPa) = 118.02018 25.97026 71.99522
#
# Velocity S-wave (km/s) = 7.37874 3.46132 5.76310
# Velocity P-wave (km/s) = 9.38645 5.90506 7.84140
#
# Compressibility (1/GPa) = 0.02974184
#
# Stress axis : x y z
#
# Youngs Moduli (GPa) = 40.77445 92.04019 149.70864
#
# Poissons Ratio (x) = 0.62307 0.28562
# Poissons Ratio (y) = 0.27602 -0.37628
# Poissons Ratio (z) = 0.07779 -0.23134
#
# Static dielectric constant tensor:
#      x y z
#    x 1.918810 0.045850 -0.030750 
#    y 0.045850 1.843980 -0.025330 
#    z -0.030750 -0.025330 1.778040 
# 
# From -- ./inp_files/23888.got.cif
#   From: 2010.05.17/outbox.ucp.g08.bks.cvg/sg2_12_cif.got.tgz:23888.got - 2010.06.11 11:32:03.
