data_PCOD9073890
_publ_section_title
;
Structure prediction by ZEFSAII (Michael W. Deem and Ramdas Pophale) SiO2 
 PCOD9073890
Probable space group: P -1
;
_chemical_formula_sum "Si O2"
_cell_formula_units_Z 12
_cell_length_a 18.000000
_cell_length_b 9.000000
_cell_length_c 6.000000
_cell_angle_alpha 90.000000
_cell_angle_beta 70.000000
_cell_angle_gamma 40.000000
_cell_volume 529.002133
_symmetry_space_group_name_H-M "P -1"
_symmetry_group_IT_number 2
_symmetry_cell_setting 'triclinic'
loop_
_space_group_symop_operation_xyz
x,y,z
-x,-y,-z
loop_
_atom_site_type_symbol
_atom_site_label
_atom_site_fract_x
_atom_site_fract_y
_atom_site_fract_z
Si Si1 0.146730 0.105433 0.939327
Si Si2 0.612314 0.809793 0.190625
Si Si3 0.887957 0.523965 0.881810
Si Si4 0.943918 0.923584 0.585040
Si Si5 0.330590 0.741634 0.393227
Si Si6 0.488724 0.768056 0.002599
O O1 0.024024 0.317514 0.892026
O O2 0.290527 0.854664 0.678967
O O3 0.156151 0.237232 0.081920
O O4 0.103260 0.029241 0.118119
O O5 0.586088 0.695273 0.089106
O O6 0.500000 0.000000 0.500000
O O7 0.767031 0.607676 0.107197
O O8 0.587818 0.978202 0.034381
O O9 0.937356 0.375223 0.601613
O O10 0.810682 0.092755 0.575899
O O11 0.000000 0.000000 0.500000
O O12 0.393558 0.789468 0.210644
O O13 0.427473 0.452383 0.266893
#
# Coordination Sequence:
#
# PCOD9073890 Si02
#       6
#     2   2   2   2   2   2
#     4  10  22  40  63  86 116 156 196 239 293 349
#     4  11  23  39  62  89 118 156 195 237 292 348
#     4  10  22  39  61  88 117 153 197 240 288 346
#     4  11  23  38  61  90 119 151 192 246 296 342
#     4  10  22  41  61  86 118 156 196 239 291 345
#     4  10  23  40  60  87 121 154 195 243 285 344
#
# _framework density 22.684218999999999
#
# number of rings (size 3 to 8) (size 9 to 14) (size 15 to 20)
#    0.000    1.667    0.000    3.500    0.000   12.000 
#    0.000    4.167    0.000    0.000    0.000    0.000 
#    0.000    0.000    0.000    0.000    0.000    0.000 
#
# Total GULP energy -67029.782932 kJ/mol
# GULP energy per Si atom -5585.815244 kJ/mol
# Density = 2.263259 g / cm^3
# Si number density = 22.684219 Si / 1000 Ang^3
#
#
#
# Elastic Constant Matrix: (Units=GPa)
#
#
# Indices 1 2 3 4 5 6 
#
# 1 133.0120 30.2023 20.9270 20.7032 -15.4953 26.5408
# 2 30.2023 27.1859 28.6640 14.1094 10.1693 24.8840
# 3 20.9270 28.6640 92.6509 33.8408 -7.8996 16.0857
# 4 20.7032 14.1094 33.8408 27.6650 0.4804 -1.4580
# 5 -15.4953 10.1693 -7.8996 0.4804 27.6630 4.1817
# 6 26.5408 24.8840 16.0857 -1.4580 4.1817 24.0272
#
#
#
# Elastic Compliance Matrix: (Units=1/GPa)
#
#
# Indices 1 2 3 4 5 6 
#
# 1 0.020734 -0.024913 0.017331 -0.025305 0.028457 -0.015193
# 2 -0.024913 -0.076421 -0.038194 0.112206 -0.020269 0.142572
# 3 0.017331 -0.038194 0.042044 -0.046516 0.039190 -0.017379
# 4 -0.025305 0.112206 -0.046516 0.053596 -0.063157 -0.042868
# 5 0.028457 -0.020269 0.039190 -0.063157 0.080060 -0.054446
# 6 -0.015193 0.142572 -0.017379 -0.042868 -0.054446 -0.070746
#
#
# Mechanical properties :
#
#
# Convention : Reuss Voigt Hill
#
# Bulk Modulus (GPa) = -9.50610 45.82615 18.16003
# Shear Modulus (GPa) = 47.27970 27.40807 37.34389
#
# Velocity S-wave (km/s) = 4.57032 3.47975 4.06180
# Velocity P-wave (km/s) = 4.86320 6.03246 5.47911
#
# Compressibility (1/GPa) = -0.10519561
#
# Stress axis : x y z
#
# Youngs Moduli (GPa) = 48.23086 -13.08540 23.78463
#
# Poissons Ratio (x) = -0.32599 -0.41222
# Poissons Ratio (y) = 1.20156 0.90844
# Poissons Ratio (z) = -0.83590 -0.49979
#
# Static dielectric constant tensor:
#      x y z
#    x 1.830550 -0.039920 0.047090 
#    y -0.039920 1.852730 0.000740 
#    z 0.047090 0.000740 1.893160 
# 
# From -- ./inp_files/18861.got.cif
#   From: 2010.05.17/outbox.ucp.g08.bks.cvg/sg2_10_cif.got.tgz:18861.got - 2010.06.11 11:32:03.
