data_PCOD9073372
_publ_section_title
;
Structure prediction by ZEFSAII (Michael W. Deem and Ramdas Pophale) SiO2 
 PCOD9073372
Probable space group: P -1
;
_chemical_formula_sum "Si O2"
_cell_formula_units_Z 16
_cell_length_a 12.000000
_cell_length_b 9.000000
_cell_length_c 27.000000
_cell_angle_alpha 150.000000
_cell_angle_beta 150.000000
_cell_angle_gamma 40.000000
_cell_volume 727.497153
_symmetry_space_group_name_H-M "P -1"
_symmetry_group_IT_number 2
_symmetry_cell_setting 'triclinic'
loop_
_space_group_symop_operation_xyz
x,y,z
-x,-y,-z
loop_
_atom_site_type_symbol
_atom_site_label
_atom_site_fract_x
_atom_site_fract_y
_atom_site_fract_z
Si Si1 0.456068 0.355093 0.577741
Si Si2 0.028291 0.711062 0.992550
Si Si3 0.660659 0.759803 0.151441
Si Si4 0.077038 0.363353 0.182162
Si Si5 0.778712 0.781905 0.304535
Si Si6 0.462670 0.350823 0.093013
Si Si7 0.710018 0.368604 0.507420
Si Si8 0.502463 0.350803 0.218024
O O1 0.685339 0.506971 0.696096
O O2 0.301476 0.438849 0.493623
O O3 0.406208 0.471691 0.648729
O O4 0.500000 0.000000 0.500000
O O5 0.211642 0.482561 0.021951
O O6 0.082722 0.050959 0.122798
O O7 0.040658 0.683774 0.930025
O O8 0.768045 0.664303 0.888371
O O9 0.657242 0.934014 0.252690
O O10 0.907786 0.612768 0.210938
O O11 0.613873 0.016532 0.167784
O O12 0.500000 0.500000 0.000000
O O13 0.638256 0.492157 0.166009
O O14 0.040223 0.666636 0.381143
O O15 0.700783 0.025960 0.386624
O O16 0.536388 0.457587 0.206530
O O17 0.500000 0.000000 0.000000
O O18 0.500000 0.500000 0.500000
#
# Coordination Sequence:
#
# PCOD9073372 Si02
#       8
#     2   2   2   2   2   2   2   2
#     4  11  25  45  66  98 134 180 231 285 343 408
#     4  10  21  40  67  99 136 175 234 277 341 421
#     4  12  21  42  70 102 136 173 225 286 351 415
#     4  10  21  38  70 100 127 180 226 284 344 407
#     4  11  26  45  72 106 135 181 242 287 340 422
#     4  12  26  43  64 102 147 181 214 283 360 416
#     4  11  25  50  76  99 134 185 244 296 339 399
#     4  11  24  42  66  99 139 179 225 283 344 418
#
# _framework density 21.993213000000001
#
# number of rings (size 3 to 8) (size 9 to 14) (size 15 to 20)
#    0.000    1.000    2.500    4.125    3.500    3.000 
#    0.000    1.250    0.000    0.000    0.000    0.000 
#    0.000    0.000    0.000    0.000    0.000    0.000 
#
# Total GULP energy -89156.828144 kJ/mol
# GULP energy per Si atom -5572.301759 kJ/mol
# Density = 2.194316 g / cm^3
# Si number density = 21.993213 Si / 1000 Ang^3
#
#
#
# Elastic Constant Matrix: (Units=GPa)
#
#
# Indices 1 2 3 4 5 6 
#
# 1 47.9019 18.9722 4.2581 -8.9622 -18.1642 4.5910
# 2 18.9722 167.2160 34.7590 -2.8069 -6.0436 8.8501
# 3 4.2581 34.7590 60.9194 -4.3963 -19.5944 2.2180
# 4 -8.9622 -2.8069 -4.3963 45.1584 5.4028 -6.3643
# 5 -18.1642 -6.0436 -19.5944 5.4028 27.3728 -10.2123
# 6 4.5910 8.8501 2.2180 -6.3643 -10.2123 41.1342
#
#
#
# Elastic Compliance Matrix: (Units=1/GPa)
#
#
# Indices 1 2 3 4 5 6 
#
# 1 0.033387 -0.004996 0.010033 0.004475 0.029114 0.004728
# 2 -0.004996 0.007718 -0.006228 -0.000656 -0.006904 -0.002583
# 3 0.010033 -0.006228 0.027880 0.001893 0.026997 0.005713
# 4 0.004475 -0.000656 0.001893 0.023558 0.000792 0.003381
# 5 0.029114 -0.006904 0.026997 0.000792 0.079726 0.016696
# 6 0.004728 -0.002583 0.005713 0.003381 0.016696 0.028699
#
#
# Mechanical properties :
#
#
# Convention : Reuss Voigt Hill
#
# Bulk Modulus (GPa) = 15.01492 43.55731 29.28612
# Shear Modulus (GPa) = 22.16773 37.26963 29.71868
#
# Velocity S-wave (km/s) = 3.17824 4.12101 3.67994
# Velocity P-wave (km/s) = 4.50668 6.51855 5.60365
#
# Compressibility (1/GPa) = 0.06660043
#
# Stress axis : x y z
#
# Youngs Moduli (GPa) = 29.95152 129.56670 35.86818
#
# Poissons Ratio (x) = 0.64737 -0.35985
# Poissons Ratio (y) = 0.14965 0.22340
# Poissons Ratio (z) = -0.30049 0.80700
#
# Static dielectric constant tensor:
#      x y z
#    x 2.615020 0.273790 -0.288390 
#    y 0.273790 1.937510 -0.084900 
#    z -0.288390 -0.084900 1.863080 
# 
# From -- ./inp_files/432247.got.cif
#   From: 2010.05.17/outbox.ucp.g08.bks.cvg/sg2_217_cif.got.tgz:432247.got - 2010.06.11 11:32:03.
