data_PCOD9073408
_publ_section_title
;
Structure prediction by ZEFSAII (Michael W. Deem and Ramdas Pophale) SiO2 
 PCOD9073408
Probable space group: P -1
;
_chemical_formula_sum "Si O2"
_cell_formula_units_Z 16
_cell_length_a 12.000000
_cell_length_b 27.000000
_cell_length_c 27.000000
_cell_angle_alpha 10.000000
_cell_angle_beta 30.000000
_cell_angle_gamma 30.000000
_cell_volume 750.765935
_symmetry_space_group_name_H-M "P -1"
_symmetry_group_IT_number 2
_symmetry_cell_setting 'triclinic'
loop_
_space_group_symop_operation_xyz
x,y,z
-x,-y,-z
loop_
_atom_site_type_symbol
_atom_site_label
_atom_site_fract_x
_atom_site_fract_y
_atom_site_fract_z
Si Si1 0.267372 0.312890 0.332385
Si Si2 0.948216 0.878636 0.746801
Si Si3 0.738159 0.244621 0.172783
Si Si4 0.560026 0.145273 0.016108
Si Si5 0.171699 0.430447 0.548753
Si Si6 0.894087 0.687423 0.810293
Si Si7 0.590085 0.225273 0.043110
Si Si8 0.857315 0.684721 0.508993
O O1 0.522770 0.376660 0.159304
O O2 0.152705 0.364036 0.379839
O O3 0.306743 0.975590 0.636469
O O4 0.143669 0.519409 0.134088
O O5 0.697531 0.898547 0.843538
O O6 0.104576 0.962192 0.647324
O O7 0.974930 0.061692 0.506910
O O8 0.059384 0.550299 0.016476
O O9 0.596590 0.146691 0.060099
O O10 0.741819 0.908259 0.152966
O O11 0.609666 0.433814 0.686398
O O12 0.000000 0.500000 0.500000
O O13 0.055831 0.545795 0.531697
O O14 0.637683 0.796839 0.817368
O O15 0.000000 0.500000 0.000000
O O16 0.798194 0.024272 0.186790
O O17 0.637918 0.551878 0.705498
#
# Coordination Sequence:
#
# PCOD9073408 Si02
#       8
#     2   2   2   2   2   2   2   2
#     4  10  21  39  63  91 115 154 202 259 303 358
#     4  12  25  41  61  88 128 172 199 243 308 368
#     4  10  21  40  64  87 121 155 203 247 306 369
#     4  12  24  39  60  86 124 166 205 243 298 366
#     4  12  23  41  61  87 121 166 209 256 300 355
#     4  12  24  36  57  89 130 164 196 236 292 378
#     4  12  22  36  58  89 125 162 195 244 305 374
#     4  12  24  38  64  89 123 156 206 264 312 348
#
# _framework density 21.311568999999999
#
# number of rings (size 3 to 8) (size 9 to 14) (size 15 to 20)
#    0.000    0.500    3.750    6.000    1.750    2.000 
#    0.000    0.000    0.000    4.500    0.000    0.000 
#    0.000    0.000    0.000    0.000    0.000    0.000 
#
# Total GULP energy -89193.268632 kJ/mol
# GULP energy per Si atom -5574.579289 kJ/mol
# Density = 2.126306 g / cm^3
# Si number density = 21.311569 Si / 1000 Ang^3
#
#
#
# Elastic Constant Matrix: (Units=GPa)
#
#
# Indices 1 2 3 4 5 6 
#
# 1 51.8846 31.4166 6.2888 -3.8820 15.9898 22.2808
# 2 31.4166 136.3343 18.6656 9.4703 -0.5042 30.4180
# 3 6.2888 18.6656 77.9599 -5.6872 4.2585 6.6475
# 4 -3.8820 9.4703 -5.6872 39.6516 9.2885 -1.1296
# 5 15.9898 -0.5042 4.2585 9.2885 23.9888 5.0337
# 6 22.2808 30.4180 6.6475 -1.1296 5.0337 29.5510
#
#
#
# Elastic Compliance Matrix: (Units=1/GPa)
#
#
# Indices 1 2 3 4 5 6 
#
# 1 0.040766 -0.006279 0.002287 0.011871 -0.028209 -0.019529
# 2 -0.006279 0.011394 -0.002448 -0.006006 0.008903 -0.008190
# 3 0.002287 -0.002448 0.013922 0.004019 -0.005336 -0.001274
# 4 0.011871 -0.006006 0.004019 0.033597 -0.022048 0.001368
# 5 -0.028209 0.008903 -0.005336 -0.022048 0.070049 0.000530
# 6 -0.019529 -0.008190 -0.001274 0.001368 0.000530 0.057243
#
#
# Mechanical properties :
#
#
# Convention : Reuss Voigt Hill
#
# Bulk Modulus (GPa) = 18.79579 42.10232 30.44906
# Shear Modulus (GPa) = 19.41100 32.62546 26.01823
#
# Velocity S-wave (km/s) = 3.02125 3.91689 3.49786
# Velocity P-wave (km/s) = 4.58359 6.34465 5.53461
#
# Compressibility (1/GPa) = 0.05320339
#
# Stress axis : x y z
#
# Youngs Moduli (GPa) = 24.52997 87.76242 71.82885
#
# Poissons Ratio (x) = 0.55105 -0.16427
# Poissons Ratio (y) = 0.15402 0.17582
# Poissons Ratio (z) = -0.05610 0.21482
#
# Static dielectric constant tensor:
#      x y z
#    x 1.904530 -0.034500 -0.045320 
#    y -0.034500 1.747790 -0.036050 
#    z -0.045320 -0.036050 1.839460 
# 
# From -- ./inp_files/84345.got.cif
#   From: 2010.05.17/outbox.ucp.g08.bks.cvg/sg2_43_cif.got.tgz:84345.got - 2010.06.11 11:32:03.
