data_PCOD9073968
_publ_section_title
;
Structure prediction by ZEFSAII (Michael W. Deem and Ramdas Pophale) SiO2 
 PCOD9073968
Probable space group: P -1
;
_chemical_formula_sum "Si O2"
_cell_formula_units_Z 16
_cell_length_a 18.000000
_cell_length_b 9.000000
_cell_length_c 21.000000
_cell_angle_alpha 40.000000
_cell_angle_beta 20.000000
_cell_angle_gamma 40.000000
_cell_volume 731.217405
_symmetry_space_group_name_H-M "P -1"
_symmetry_group_IT_number 2
_symmetry_cell_setting 'triclinic'
loop_
_space_group_symop_operation_xyz
x,y,z
-x,-y,-z
loop_
_atom_site_type_symbol
_atom_site_label
_atom_site_fract_x
_atom_site_fract_y
_atom_site_fract_z
Si Si1 0.622392 0.026972 0.691110
Si Si2 0.264291 0.278451 0.118141
Si Si3 0.128580 0.446704 0.305702
Si Si4 0.392287 0.984158 0.663185
Si Si5 0.326870 0.758444 0.555868
Si Si6 0.905545 0.239975 0.945250
Si Si7 0.885254 0.026725 0.887948
Si Si8 0.284070 0.787724 0.305172
O O1 0.687597 0.155036 0.533815
O O2 0.672925 0.151194 0.675974
O O3 0.754006 0.750455 0.673869
O O4 0.357693 0.032594 0.902780
O O5 0.288285 0.368307 0.141261
O O6 0.089306 0.490427 0.160802
O O7 0.176956 0.039388 0.275595
O O8 0.486153 0.261845 0.903553
O O9 0.109401 0.727241 0.235146
O O10 0.884441 0.388860 0.507808
O O11 0.550706 0.073607 0.555726
O O12 0.145707 0.144649 0.812544
O O13 0.500000 0.000000 0.500000
O O14 0.310545 0.760304 0.835189
O O15 0.500000 0.500000 0.500000
O O16 0.081991 0.818088 0.768836
O O17 0.905672 0.097767 0.923936
#
# Coordination Sequence:
#
# PCOD9073968 Si02
#       8
#     2   2   2   2   2   2   2   2
#     4  11  24  44  64  99 146 174 225 283 352 405
#     4   9  20  37  65  99 132 167 223 272 333 397
#     4  10  23  41  72 101 134 179 233 277 332 419
#     4  11  23  44  69  95 128 174 233 281 330 404
#     4  12  29  45  66  99 140 181 233 286 352 405
#     4  10  22  40  70  94 125 172 232 280 329 399
#     4  11  24  44  69 100 135 180 225 285 348 408
#     4  10  22  40  66 101 138 179 222 272 336 412
#
# _framework density 21.881316999999999
#
# number of rings (size 3 to 8) (size 9 to 14) (size 15 to 20)
#    0.000    1.500    2.500    1.875    1.750   10.000 
#    0.000    0.000    0.000    0.000    0.000    0.000 
#    0.000    0.000    0.000    0.000    0.000    0.000 
#
# Total GULP energy -89216.028237 kJ/mol
# GULP energy per Si atom -5576.001765 kJ/mol
# Density = 2.183151 g / cm^3
# Si number density = 21.881317 Si / 1000 Ang^3
#
#
#
# Elastic Constant Matrix: (Units=GPa)
#
#
# Indices 1 2 3 4 5 6 
#
# 1 70.3647 -1.4623 34.9380 -2.3144 17.6217 -8.8850
# 2 -1.4623 58.3015 -7.7746 -0.5480 14.1719 -6.5656
# 3 34.9380 -7.7746 123.3482 15.3896 9.6051 11.9096
# 4 -2.3144 -0.5480 15.3896 31.7412 -3.2742 8.1843
# 5 17.6217 14.1719 9.6051 -3.2742 50.0324 2.4090
# 6 -8.8850 -6.5656 11.9096 8.1843 2.4090 26.7025
#
#
#
# Elastic Compliance Matrix: (Units=1/GPa)
#
#
# Indices 1 2 3 4 5 6 
#
# 1 0.020554 0.002641 -0.006253 0.001099 -0.007225 0.010592
# 2 0.002641 0.019789 0.000685 -0.002284 -0.007143 0.006783
# 3 -0.006253 0.000685 0.011006 -0.004384 -0.000129 -0.005465
# 4 0.001099 -0.002284 -0.004384 0.036613 0.003970 -0.009820
# 5 -0.007225 -0.007143 -0.000129 0.003970 0.025205 -0.007594
# 6 0.010592 0.006783 -0.005465 -0.009820 -0.007594 0.048775
#
#
# Mechanical properties :
#
#
# Convention : Reuss Voigt Hill
#
# Bulk Modulus (GPa) = 21.97956 33.71294 27.84625
# Shear Modulus (GPa) = 27.32841 36.78277 32.05559
#
# Velocity S-wave (km/s) = 3.53787 4.10446 3.83165
# Velocity P-wave (km/s) = 5.17256 6.15652 5.68587
#
# Compressibility (1/GPa) = 0.04549681
#
# Stress axis : x y z
#
# Youngs Moduli (GPa) = 48.65171 50.53410 90.85848
#
# Poissons Ratio (x) = -0.13347 0.56811
# Poissons Ratio (y) = -0.12850 -0.06228
# Poissons Ratio (z) = 0.30421 -0.03464
#
# Static dielectric constant tensor:
#      x y z
#    x 1.871130 -0.088820 0.046660 
#    y -0.088820 1.926560 -0.038140 
#    z 0.046660 -0.038140 1.806200 
# 
# From -- ./inp_files/599696.got.cif
#   From: 2010.05.17/outbox.ucp.g08.bks.cvg/sg2_300_cif.got.tgz:599696.got - 2010.06.11 11:32:03.
