data_PCOD9073341
_publ_section_title
;
Structure prediction by ZEFSAII (Michael W. Deem and Ramdas Pophale) SiO2 
 PCOD9073341
Probable space group: P -1
;
_chemical_formula_sum "Si O2"
_cell_formula_units_Z 14
_cell_length_a 9.000000
_cell_length_b 12.000000
_cell_length_c 12.000000
_cell_angle_alpha 130.000000
_cell_angle_beta 40.000000
_cell_angle_gamma 120.000000
_cell_volume 638.079485
_symmetry_space_group_name_H-M "P -1"
_symmetry_group_IT_number 2
_symmetry_cell_setting 'triclinic'
loop_
_space_group_symop_operation_xyz
x,y,z
-x,-y,-z
loop_
_atom_site_type_symbol
_atom_site_label
_atom_site_fract_x
_atom_site_fract_y
_atom_site_fract_z
Si Si1 0.509239 0.318561 0.220281
Si Si2 0.813557 0.076830 0.800986
Si Si3 0.078963 0.027868 0.843513
Si Si4 0.054242 0.644904 0.846020
Si Si5 0.424203 0.476474 0.899824
Si Si6 0.776645 0.794960 0.495250
Si Si7 0.640684 0.252999 0.468550
O O1 0.724498 0.369772 0.208802
O O2 0.502840 0.409597 0.167571
O O3 0.286716 0.307492 0.425025
O O4 0.593709 0.161957 0.027970
O O5 0.932779 0.007216 0.798506
O O6 0.989632 0.187996 0.703281
O O7 0.752442 0.953727 0.667124
O O8 0.277443 0.907611 0.646108
O O9 0.081324 0.203500 0.956488
O O10 0.000000 0.000000 0.000000
O O11 0.160857 0.664430 0.670733
O O12 0.855074 0.532405 0.928293
O O13 0.551490 0.336905 0.682760
O O14 0.500000 0.500000 0.000000
O O15 0.574116 0.762296 0.502612
#
# Coordination Sequence:
#
# PCOD9073341 Si02
#       7
#     2   2   2   2   2   2   2
#     4  10  22  41  61  84 123 160 198 244 291 360
#     4  10  21  38  63  94 121 151 199 251 297 352
#     4   9  19  38  65  93 123 156 191 246 308 355
#     4   9  21  41  64  88 117 160 203 244 298 355
#     4  12  27  40  59  90 121 162 205 246 302 362
#     4  10  22  38  63  92 114 156 205 247 302 349
#     4  10  22  41  62  88 124 159 198 247 301 359
#
# _framework density 21.940840000000001
#
# number of rings (size 3 to 8) (size 9 to 14) (size 15 to 20)
#    0.000    2.000    0.000    3.429    0.000   12.000 
#    0.000    0.000    0.000    0.000    0.000    0.000 
#    0.000    0.000    0.000    0.000    0.000    0.000 
#
# Total GULP energy -77991.709277 kJ/mol
# GULP energy per Si atom -5570.836377 kJ/mol
# Density = 2.189090 g / cm^3
# Si number density = 21.940840 Si / 1000 Ang^3
#
#
#
# Elastic Constant Matrix: (Units=GPa)
#
#
# Indices 1 2 3 4 5 6 
#
# 1 71.7586 40.2866 33.7379 -2.5690 38.8991 -21.9784
# 2 40.2866 92.3445 23.2823 -28.2307 0.5341 -17.9168
# 3 33.7379 23.2823 129.3381 -20.4873 29.4016 2.9479
# 4 -2.5690 -28.2307 -20.4873 41.8175 -4.7120 2.5242
# 5 38.8991 0.5341 29.4016 -4.7120 37.7628 -2.7285
# 6 -21.9784 -17.9168 2.9479 2.5242 -2.7285 35.2399
#
#
#
# Elastic Compliance Matrix: (Units=1/GPa)
#
#
# Indices 1 2 3 4 5 6 
#
# 1 0.199727 -0.098155 -0.001440 -0.082122 -0.208815 0.064496
# 2 -0.098155 0.064018 -0.001562 0.049799 0.105905 -0.023906
# 3 -0.001440 -0.001562 0.010482 0.003464 -0.006464 -0.003317
# 4 -0.082122 0.049799 0.003464 0.065513 0.087624 -0.024096
# 5 -0.208815 0.105905 -0.006464 0.087624 0.251520 -0.062650
# 6 0.064496 -0.023906 -0.003317 -0.024096 -0.062650 0.053601
#
#
# Mechanical properties :
#
#
# Convention : Reuss Voigt Hill
#
# Bulk Modulus (GPa) = 13.90545 54.22831 34.06688
# Shear Modulus (GPa) = 5.73958 36.03966 20.88962
#
# Velocity S-wave (km/s) = 1.61914 4.05728 3.08894
# Velocity P-wave (km/s) = 3.13798 6.83506 5.31813
#
# Compressibility (1/GPa) = 0.07191427
#
# Stress axis : x y z
#
# Youngs Moduli (GPa) = 5.00683 15.62072 95.40111
#
# Poissons Ratio (x) = 1.53325 0.13734
# Poissons Ratio (y) = 0.49144 0.14900
# Poissons Ratio (z) = 0.00721 0.02440
#
# Static dielectric constant tensor:
#      x y z
#    x 1.774030 0.027700 -0.014970 
#    y 0.027700 1.930490 0.029610 
#    z -0.014970 0.029610 1.816930 
# 
# From -- ./inp_files/270158.got.cif
#   From: 2010.05.17/outbox.ucp.g08.bks.cvg/sg2_136_cif.got.tgz:270158.got - 2010.06.11 11:32:03.
