data_PCOD9073481
_publ_section_title
;
Structure prediction by ZEFSAII (Michael W. Deem and Ramdas Pophale) SiO2 
 PCOD9073481
Probable space group: P -1
;
_chemical_formula_sum "Si O2"
_cell_formula_units_Z 16
_cell_length_a 9.000000
_cell_length_b 12.000000
_cell_length_c 12.000000
_cell_angle_alpha 130.000000
_cell_angle_beta 60.000000
_cell_angle_gamma 130.000000
_cell_volume 752.153660
_symmetry_space_group_name_H-M "P -1"
_symmetry_group_IT_number 2
_symmetry_cell_setting 'triclinic'
loop_
_space_group_symop_operation_xyz
x,y,z
-x,-y,-z
loop_
_atom_site_type_symbol
_atom_site_label
_atom_site_fract_x
_atom_site_fract_y
_atom_site_fract_z
Si Si1 0.566610 0.157661 0.745808
Si Si2 0.766021 0.919663 0.538761
Si Si3 0.159045 0.873485 0.010702
Si Si4 0.827672 0.938178 0.289329
Si Si5 0.474000 0.329582 0.352445
Si Si6 0.545952 0.218222 0.033247
Si Si7 0.132294 0.717034 0.476459
Si Si8 0.854515 0.344992 0.308075
O O1 0.339692 0.084522 0.751182
O O2 0.682225 0.242214 0.643876
O O3 0.656192 0.032543 0.657531
O O4 0.594443 0.264170 0.915361
O O5 0.721816 0.838309 0.378667
O O6 0.706052 0.812098 0.604182
O O7 0.000000 0.000000 0.500000
O O8 0.993731 0.900602 0.152978
O O9 0.342729 0.042974 0.004416
O O10 0.271097 0.803158 0.003105
O O11 0.064446 0.749147 0.861459
O O12 0.911409 0.130711 0.416145
O O13 0.500000 0.500000 0.500000
O O14 0.497048 0.327379 0.209007
O O15 0.641082 0.289826 0.307629
O O16 0.155271 0.693999 0.583427
O O17 0.967223 0.542720 0.380568
#
# Coordination Sequence:
#
# PCOD9073481 Si02
#       8
#     2   2   2   2   2   2   2   2
#     4  11  22  39  64  93 122 162 213 261 310 370
#     4  11  22  39  66  93 127 165 210 258 306 368
#     4  10  21  40  63  91 122 165 209 250 315 369
#     4  11  22  38  67  95 121 164 217 258 303 376
#     4  11  24  40  63  93 124 164 210 257 313 374
#     4  10  21  40  62  87 126 162 202 265 307 372
#     4  10  22  39  63  88 127 164 201 256 319 369
#     4  10  22  42  60  89 129 164 198 262 316 369
#
# _framework density 21.272248999999999
#
# number of rings (size 3 to 8) (size 9 to 14) (size 15 to 20)
#    0.000    1.500    0.000    7.500    5.250    2.000 
#    4.500    1.875    0.000    0.000    0.000    0.000 
#    0.000    0.000    0.000    0.000    0.000    0.000 
#
# Total GULP energy -89176.182650 kJ/mol
# GULP energy per Si atom -5573.511416 kJ/mol
# Density = 2.122383 g / cm^3
# Si number density = 21.272249 Si / 1000 Ang^3
#
#
#
# Elastic Constant Matrix: (Units=GPa)
#
#
# Indices 1 2 3 4 5 6 
#
# 1 92.4238 24.1966 43.5603 -14.4403 -4.1596 15.1436
# 2 24.1966 50.3361 48.5286 -10.1932 -9.4026 13.9713
# 3 43.5603 48.5286 212.6770 -22.5062 -6.0446 8.7160
# 4 -14.4403 -10.1932 -22.5062 24.9856 7.6009 -3.3874
# 5 -4.1596 -9.4026 -6.0446 7.6009 32.3932 -4.1591
# 6 15.1436 13.9713 8.7160 -3.3874 -4.1591 15.6770
#
#
#
# Elastic Compliance Matrix: (Units=1/GPa)
#
#
# Indices 1 2 3 4 5 6 
#
# 1 0.014573 -0.001562 -0.001663 0.005260 -0.001543 -0.011033
# 2 -0.001562 0.034786 -0.006177 0.002949 0.004957 -0.024106
# 3 -0.001663 -0.006177 0.006615 0.003323 -0.001055 0.003872
# 4 0.005260 0.002949 0.003323 0.050049 -0.009763 -0.001333
# 5 -0.001543 0.004957 -0.001055 -0.009763 0.034820 0.004788
# 6 -0.011033 -0.024106 0.003872 -0.001333 0.004788 0.094758
#
#
# Mechanical properties :
#
#
# Convention : Reuss Voigt Hill
#
# Bulk Modulus (GPa) = 26.90387 65.33419 46.11903
# Shear Modulus (GPa) = 18.74091 30.55457 24.64774
#
# Velocity S-wave (km/s) = 2.97139 3.79404 3.40763
# Velocity P-wave (km/s) = 4.94440 7.06916 6.10000
#
# Compressibility (1/GPa) = 0.03716937
#
# Stress axis : x y z
#
# Youngs Moduli (GPa) = 68.62089 28.74695 151.17004
#
# Poissons Ratio (x) = 0.04491 0.25145
# Poissons Ratio (y) = 0.10721 0.93373
# Poissons Ratio (z) = 0.11414 0.17756
#
# Static dielectric constant tensor:
#      x y z
#    x 1.806590 0.010860 0.062710 
#    y 0.010860 1.845470 0.009550 
#    z 0.062710 0.009550 1.816400 
# 
# From -- ./inp_files/393024.got.cif
#   From: 2010.05.17/outbox.ucp.g08.bks.cvg/sg2_197_cif.got.tgz:393024.got - 2010.06.11 11:32:03.
