data_PCOD9073780
_publ_section_title
;
Structure prediction by ZEFSAII (Michael W. Deem and Ramdas Pophale) SiO2 
 PCOD9073780
Probable space group: P -1
;
_chemical_formula_sum "Si O2"
_cell_formula_units_Z 14
_cell_length_a 19.337321
_cell_length_b 12.057463
_cell_length_c 8.689590
_cell_angle_alpha 121.611670
_cell_angle_beta 64.468709
_cell_angle_gamma 154.377902
_cell_volume 741.355445
_symmetry_space_group_name_H-M "P -1"
_symmetry_group_IT_number 2
_symmetry_cell_setting 'triclinic'
loop_
_space_group_symop_operation_xyz
x,y,z
-x,-y,-z
loop_
_atom_site_type_symbol
_atom_site_label
_atom_site_fract_x
_atom_site_fract_y
_atom_site_fract_z
Si Si1 0.292437 0.571215 0.322883
Si Si2 0.997965 0.730104 0.151547
Si Si3 0.121038 0.739571 0.431895
Si Si4 0.853661 0.283908 0.130113
Si Si5 0.133545 0.262973 0.950431
Si Si6 0.373691 0.998578 0.574079
Si Si7 0.943665 0.061151 0.434701
O O1 0.330111 0.781113 0.443611
O O2 0.125258 0.304116 0.379466
O O3 0.437053 0.710976 0.367231
O O4 0.273150 0.503013 0.112720
O O5 0.858976 0.427725 0.136129
O O6 0.937454 0.715785 0.049475
O O7 0.050395 0.908963 0.365713
O O8 0.143165 0.848109 0.056710
O O9 0.296594 0.954908 0.469269
O O10 0.000000 0.500000 0.500000
O O11 0.034254 0.557180 0.230336
O O12 0.106059 0.872223 0.536117
O O13 0.721359 0.092384 0.250152
O O14 0.164261 0.208841 0.741483
O O15 0.000000 0.000000 0.000000
#
# Coordination Sequence:
#
# PCOD9073780 Si02
#       7
#     2   2   2   2   2   2   2
#     4  10  19  34  51  82 108 137 175 215 268 311
#     4  10  18  33  55  81 104 135 178 223 261 303
#     4   9  15  29  53  78 100 134 174 221 251 300
#     4   9  18  30  56  82 106 133 176 221 267 306
#     4  10  22  33  54  78 107 142 182 213 254 318
#     4  10  18  31  57  78 113 131 172 225 265 309
#     4  10  19  35  55  79 104 140 181 213 262 310
#
# _framework density 18.884329000000001
#
# number of rings (size 3 to 8) (size 9 to 14) (size 15 to 20)
#    0.000    2.286    4.286    1.286    6.000    0.000 
#    0.000    1.429    9.429    0.857    0.000    0.000 
#    0.000    0.000    0.000    0.000    0.000    0.000 
#
# Total GULP energy -77942.427645 kJ/mol
# GULP energy per Si atom -5567.316260 kJ/mol
# Density = 1.884135 g / cm^3
# Si number density = 18.884329 Si / 1000 Ang^3
#
#
#
# Elastic Constant Matrix: (Units=GPa)
#
#
# Indices 1 2 3 4 5 6 
#
# 1 101.9424 25.1894 18.1117 1.8232 23.0875 12.7928
# 2 25.1894 23.6357 20.2019 1.1189 6.2793 16.3667
# 3 18.1117 20.2019 113.2161 4.8901 -6.9500 16.8834
# 4 1.8232 1.1189 4.8901 12.3866 1.4508 4.4199
# 5 23.0875 6.2793 -6.9500 1.4508 34.2121 -0.3145
# 6 12.7928 16.3667 16.8834 4.4199 -0.3145 32.4229
#
#
#
# Elastic Compliance Matrix: (Units=1/GPa)
#
#
# Indices 1 2 3 4 5 6 
#
# 1 0.015043 -0.014881 -0.000460 -0.000457 -0.007478 0.001805
# 2 -0.014881 0.096229 -0.010135 0.012750 -0.010580 -0.039267
# 3 -0.000460 -0.010135 0.011158 -0.003989 0.004607 0.000075
# 4 -0.000457 0.012750 -0.003989 0.087794 -0.006714 -0.016212
# 5 -0.007478 -0.010580 0.004607 -0.006714 0.037504 0.007171
# 6 0.001805 -0.039267 0.000075 -0.016212 0.007171 0.052192
#
#
# Mechanical properties :
#
#
# Convention : Reuss Voigt Hill
#
# Bulk Modulus (GPa) = 13.99003 40.64446 27.31724
# Shear Modulus (GPa) = 13.34406 27.49039 20.41723
#
# Velocity S-wave (km/s) = 2.66112 3.81954 3.29169
# Velocity P-wave (km/s) = 4.10688 6.40479 5.37995
#
# Compressibility (1/GPa) = 0.07147946
#
# Stress axis : x y z
#
# Youngs Moduli (GPa) = 66.47451 10.39191 89.61807
#
# Poissons Ratio (x) = 0.15464 0.04120
# Poissons Ratio (y) = 0.98922 0.90824
# Poissons Ratio (z) = 0.03056 0.10532
#
# Static dielectric constant tensor:
#      x y z
#    x 1.696090 -0.008840 0.008440 
#    y -0.008840 1.651160 0.009320 
#    z 0.008440 0.009320 1.744930 
# 
# From -- ./inp_files/254243.got.cif
#   From: 2010.05.17/outbox.cif.g08.bks.cpg/sg2_128_cif.got.tgz:254243.got - 2010.06.03 11:33:40.
