data_PCOD9073223
_publ_section_title
;
Structure prediction by ZEFSAII (Michael W. Deem and Ramdas Pophale) SiO2 
 PCOD9073223
Probable space group: P -1
;
_chemical_formula_sum "Si O2"
_cell_formula_units_Z 16
_cell_length_a 21.000000
_cell_length_b 18.000000
_cell_length_c 9.000000
_cell_angle_alpha 150.000000
_cell_angle_beta 150.000000
_cell_angle_gamma 30.000000
_cell_volume 753.357562
_symmetry_space_group_name_H-M "P -1"
_symmetry_group_IT_number 2
_symmetry_cell_setting 'triclinic'
loop_
_space_group_symop_operation_xyz
x,y,z
-x,-y,-z
loop_
_atom_site_type_symbol
_atom_site_label
_atom_site_fract_x
_atom_site_fract_y
_atom_site_fract_z
Si Si1 0.125726 0.031347 0.731057
Si Si2 0.063554 0.373881 0.551493
Si Si3 0.098948 0.624204 0.255710
Si Si4 0.618917 0.454973 0.497714
Si Si5 0.563477 0.742859 0.288610
Si Si6 0.339254 0.087241 0.476166
Si Si7 0.668515 0.271577 0.577134
Si Si8 0.823435 0.396673 0.288054
O O1 0.035798 0.212461 0.793547
O O2 0.227316 0.903899 0.589964
O O3 0.238189 0.032258 0.079358
O O4 0.000000 0.000000 0.500000
O O5 0.220820 0.224579 0.580433
O O6 0.000000 0.500000 0.500000
O O7 0.941876 0.325771 0.273873
O O8 0.074576 0.472492 0.887009
O O9 0.245751 0.595752 0.421593
O O10 0.112477 0.635706 0.476653
O O11 0.670070 0.399755 0.674208
O O12 0.502188 0.651144 0.604811
O O13 0.535636 0.348462 0.098907
O O14 0.597921 0.818213 0.340109
O O15 0.714471 0.595453 0.395663
O O16 0.471444 0.911531 0.491676
O O17 0.730391 0.300134 0.904152
#
# Coordination Sequence:
#
# PCOD9073223 Si02
#       8
#     2   2   2   2   2   2   2   2
#     4  12  21  38  62  94 122 155 207 255 298 353
#     4  12  22  40  65  91 118 160 209 247 294 362
#     4  12  25  39  62  89 128 164 192 249 315 360
#     4  10  21  38  62  91 117 159 210 247 295 353
#     4  10  21  39  62  90 125 151 204 256 298 352
#     4  11  22  36  64  96 114 155 207 260 294 336
#     4  10  21  36  64  86 121 154 206 253 285 359
#     4  11  24  42  59  91 128 160 195 245 315 368
#
# _framework density 21.238254999999999
#
# number of rings (size 3 to 8) (size 9 to 14) (size 15 to 20)
#    0.000    1.000    5.000    1.875    3.500    2.500 
#    0.000    1.875    0.000    0.000    0.000    0.000 
#    0.000    0.000    0.000    0.000    0.000    0.000 
#
# Total GULP energy -89296.897659 kJ/mol
# GULP energy per Si atom -5581.056104 kJ/mol
# Density = 2.118992 g / cm^3
# Si number density = 21.238255 Si / 1000 Ang^3
#
#
#
# Elastic Constant Matrix: (Units=GPa)
#
#
# Indices 1 2 3 4 5 6 
#
# 1 43.7933 13.1216 -15.6147 -5.6943 -1.7169 -24.7564
# 2 13.1216 90.1147 -22.1389 23.3242 -4.2784 -55.4641
# 3 -15.6147 -22.1389 37.4724 -0.3109 -1.1604 -2.8028
# 4 -5.6943 23.3242 -0.3109 26.2126 -10.0524 -7.2086
# 5 -1.7169 -4.2784 -1.1604 -10.0524 38.6601 -2.6499
# 6 -24.7564 -55.4641 -2.8028 -7.2086 -2.6499 36.8386
#
#
#
# Elastic Compliance Matrix: (Units=1/GPa)
#
#
# Indices 1 2 3 4 5 6 
#
# 1 0.014428 -0.025625 -0.010894 0.018898 0.000612 -0.025971
# 2 -0.025625 -0.009349 -0.019169 -0.010182 -0.007816 -0.035310
# 3 -0.010894 -0.019169 0.008107 0.003664 -0.003817 -0.035122
# 4 0.018898 -0.010182 0.003664 0.060542 0.016296 0.010667
# 5 0.000612 -0.007816 -0.003817 0.016296 0.028713 -0.006393
# 6 -0.025971 -0.035310 -0.035122 0.010667 -0.006393 -0.044515
#
#
# Mechanical properties :
#
#
# Convention : Reuss Voigt Hill
#
# Bulk Modulus (GPa) = -10.18437 13.56847 1.69205
# Shear Modulus (GPa) = 36.61132 33.40974 35.01053
#
# Velocity S-wave (km/s) = 4.15642 3.97053 4.06453
# Velocity P-wave (km/s) = 4.26951 5.23667 4.77762
#
# Compressibility (1/GPa) = -0.09818968
#
# Stress axis : x y z
#
# Youngs Moduli (GPa) = 69.31175 -106.95966 123.35173
#
# Poissons Ratio (x) = -2.74079 1.34379
# Poissons Ratio (y) = 1.77608 2.36451
# Poissons Ratio (z) = 0.75508 -2.05030
#
# Static dielectric constant tensor:
#      x y z
#    x 1.759750 -0.043300 0.028090 
#    y -0.043300 1.796690 0.015830 
#    z 0.028090 0.015830 1.843910 
# 
# From -- ./inp_files/314502.got.cif
#   From: 2010.05.17/outbox.ucp.g08.bks.cvg/sg2_158_cif.got.tgz:314502.got - 2010.06.11 11:32:03.
