data_PCOD9073857
_publ_section_title
;
Structure prediction by ZEFSAII (Michael W. Deem and Ramdas Pophale) SiO2 
 PCOD9073857
Probable space group: P -1
;
_chemical_formula_sum "Si O2"
_cell_formula_units_Z 16
_cell_length_a 8.721987
_cell_length_b 12.110809
_cell_length_c 14.644371
_cell_angle_alpha 53.034328
_cell_angle_beta 141.788791
_cell_angle_gamma 128.026748
_cell_volume 731.564083
_symmetry_space_group_name_H-M "P -1"
_symmetry_group_IT_number 2
_symmetry_cell_setting 'triclinic'
loop_
_space_group_symop_operation_xyz
x,y,z
-x,-y,-z
loop_
_atom_site_type_symbol
_atom_site_label
_atom_site_fract_x
_atom_site_fract_y
_atom_site_fract_z
Si Si1 0.899614 0.627479 0.680843
Si Si2 0.783737 0.115817 0.565478
Si Si3 0.990099 0.684021 0.263486
Si Si4 0.052069 0.935959 0.657245
Si Si5 0.588234 0.342490 0.653587
Si Si6 0.317334 0.633510 0.727801
Si Si7 0.375406 0.969021 0.131141
Si Si8 0.179827 0.169746 0.066728
O O1 0.770233 0.468071 0.739055
O O2 0.690365 0.635811 0.500733
O O3 0.905501 0.766005 0.673847
O O4 0.171772 0.636522 0.755681
O O5 0.922177 0.190889 0.684098
O O6 0.765799 0.253424 0.430526
O O7 0.500000 0.000000 0.500000
O O8 0.951259 0.030240 0.633916
O O9 0.247697 0.644646 0.370161
O O10 0.783563 0.532422 0.269145
O O11 0.887383 0.750625 0.094124
O O12 0.345868 0.937730 0.817536
O O13 0.000000 0.000000 0.500000
O O14 0.562729 0.181572 0.750106
O O15 0.623399 0.705854 0.846216
O O16 0.319102 0.053107 0.153051
O O17 0.096323 0.919399 0.975885
#
# Coordination Sequence:
#
# PCOD9073857 Si02
#       8
#     2   2   2   2   2   2   2   2
#     4  10  18  31  58  87 117 147 206 248 298 341
#     4  12  26  38  63  94 130 157 197 257 319 359
#     4  10  23  39  59  91 127 160 200 254 312 361
#     4  12  20  37  62  88 118 159 209 249 295 365
#     4   9  18  32  54  90 118 150 189 260 299 352
#     4  11  21  40  63  88 120 166 207 247 302 374
#     4  10  19  33  60  87 118 149 207 249 296 340
#     4  10  21  36  66  91 120 159 215 249 295 361
#
# _framework density 21.870947000000001
#
# number of rings (size 3 to 8) (size 9 to 14) (size 15 to 20)
#    0.000    1.500    3.750    1.500    7.000    0.000 
#    0.000    1.875    0.000    0.750    0.000    0.000 
#    0.000    0.000    0.000    0.000    0.000    0.000 
#
# Total GULP energy -89217.167363 kJ/mol
# GULP energy per Si atom -5576.072960 kJ/mol
# Density = 2.182117 g / cm^3
# Si number density = 21.870947 Si / 1000 Ang^3
#
#
#
# Elastic Constant Matrix: (Units=GPa)
#
#
# Indices 1 2 3 4 5 6 
#
# 1 56.3424 29.4876 24.4592 13.6417 19.3763 -14.9465
# 2 29.4876 182.0082 31.9359 5.2423 1.0281 -9.1963
# 3 24.4592 31.9359 50.4098 8.5277 12.7434 -3.5399
# 4 13.6417 5.2423 8.5277 42.2819 5.8202 10.1301
# 5 19.3763 1.0281 12.7434 5.8202 24.1741 0.7425
# 6 -14.9465 -9.1963 -3.5399 10.1301 0.7425 35.8509
#
#
#
# Elastic Compliance Matrix: (Units=1/GPa)
#
#
# Indices 1 2 3 4 5 6 
#
# 1 0.039178 -0.003706 -0.006977 -0.011730 -0.025312 0.018533
# 2 -0.003706 0.006679 -0.003708 0.000605 0.004509 -0.000462
# 3 -0.006977 -0.003708 0.027991 -0.001642 -0.008596 -0.000454
# 4 -0.011730 0.000605 -0.001642 0.030488 0.003318 -0.013580
# 5 -0.025312 0.004509 -0.008596 0.003318 0.065581 -0.012541
# 6 0.018533 -0.000462 -0.000454 -0.013580 -0.012541 0.039553
#
#
# Mechanical properties :
#
#
# Convention : Reuss Voigt Hill
#
# Bulk Modulus (GPa) = 22.18985 51.16952 36.67969
# Shear Modulus (GPa) = 19.74138 33.98658 26.86398
#
# Velocity S-wave (km/s) = 3.00764 3.94631 3.50851
# Velocity P-wave (km/s) = 4.71477 6.64916 5.76370
#
# Compressibility (1/GPa) = 0.04506564
#
# Stress axis : x y z
#
# Youngs Moduli (GPa) = 25.52431 149.72258 35.72584
#
# Poissons Ratio (x) = 0.55486 0.24927
# Poissons Ratio (y) = 0.09459 0.13247
# Poissons Ratio (z) = 0.17809 0.55518
#
# Static dielectric constant tensor:
#      x y z
#    x 1.823180 0.022990 -0.006860 
#    y 0.022990 1.866340 0.013010 
#    z -0.006860 0.013010 1.841370 
# 
# From -- ./inp_files/319208.got.cif
#   From: 2010.05.17/outbox.cif.g08.bks.cpg/sg2_160_cif.got.tgz:319208.got - 2010.06.03 11:33:40.
