data_PCOD9073775
_publ_section_title
;
Structure prediction by ZEFSAII (Michael W. Deem and Ramdas Pophale) SiO2 
 PCOD9073775
Probable space group: P -1
;
_chemical_formula_sum "Si O2"
_cell_formula_units_Z 14
_cell_length_a 9.458709
_cell_length_b 12.375362
_cell_length_c 9.142673
_cell_angle_alpha 123.893643
_cell_angle_beta 115.568335
_cell_angle_gamma 63.840882
_cell_volume 772.177167
_symmetry_space_group_name_H-M "P -1"
_symmetry_group_IT_number 2
_symmetry_cell_setting 'triclinic'
loop_
_space_group_symop_operation_xyz
x,y,z
-x,-y,-z
loop_
_atom_site_type_symbol
_atom_site_label
_atom_site_fract_x
_atom_site_fract_y
_atom_site_fract_z
Si Si1 0.575989 0.309758 0.438236
Si Si2 0.087155 0.846756 0.457944
Si Si3 0.010754 0.639793 0.035036
Si Si4 0.495153 0.555441 0.787880
Si Si5 0.977068 0.667614 0.490452
Si Si6 0.805764 0.636098 0.677588
Si Si7 0.713251 0.546733 0.142545
O O1 0.717607 0.185244 0.464446
O O2 0.600578 0.437360 0.640139
O O3 0.588785 0.335910 0.289668
O O4 0.388112 0.314409 0.387195
O O5 0.037122 0.750184 0.241701
O O6 0.029966 0.791727 0.541291
O O7 0.000000 0.000000 0.500000
O O8 0.167859 0.593699 0.965972
O O9 0.000000 0.500000 0.000000
O O10 0.855932 0.679930 0.890645
O O11 0.382460 0.487572 0.786430
O O12 0.600570 0.603065 0.995423
O O13 0.909037 0.687056 0.638319
O O14 0.826792 0.639647 0.311353
O O15 0.121349 0.527809 0.430680
#
# Coordination Sequence:
#
# PCOD9073775 Si02
#       7
#     2   2   2   2   2   2   2
#     4  11  21  35  56  88 120 155 195 244 302 341
#     4  12  26  42  58  83 126 166 199 238 298 359
#     4  11  20  36  61  88 116 154 198 243 289 353
#     4  10  19  29  58  96 123 140 188 264 298 338
#     4  10  20  36  60  90 121 154 190 248 303 349
#     4  10  20  35  65  93 114 143 204 255 295 342
#     4  10  18  31  56  96 121 143 188 248 307 340
#
# _framework density 18.130554
#
# number of rings (size 3 to 8) (size 9 to 14) (size 15 to 20)
#    0.000    1.429    5.714    2.571    4.000    0.000 
#    0.000    2.143    0.000    0.000    0.000    0.000 
#    0.000    0.000    0.000    0.000    0.000    0.000 
#
# Total GULP energy -78074.691313 kJ/mol
# GULP energy per Si atom -5576.763665 kJ/mol
# Density = 1.808929 g / cm^3
# Si number density = 18.130554 Si / 1000 Ang^3
#
#
#
# Elastic Constant Matrix: (Units=GPa)
#
#
# Indices 1 2 3 4 5 6 
#
# 1 105.1979 48.7707 34.5518 -13.7296 -3.0716 -5.1530
# 2 48.7707 115.5042 39.8820 -10.1574 2.3830 -13.0765
# 3 34.5518 39.8820 95.7599 -25.6482 -0.0815 -7.5029
# 4 -13.7296 -10.1574 -25.6482 23.5556 0.3032 5.7523
# 5 -3.0716 2.3830 -0.0815 0.3032 28.3941 -14.6800
# 6 -5.1530 -13.0765 -7.5029 5.7523 -14.6800 25.9941
#
#
#
# Elastic Compliance Matrix: (Units=1/GPa)
#
#
# Indices 1 2 3 4 5 6 
#
# 1 0.012664 -0.004471 -0.001767 0.003531 0.001652 -0.000098
# 2 -0.004471 0.012209 -0.003799 -0.002858 0.001396 0.005580
# 3 -0.001767 -0.003799 0.016845 0.016006 -0.000680 -0.001325
# 4 0.003531 -0.002858 0.016006 0.064383 -0.007597 -0.014655
# 5 0.001652 0.001396 -0.000680 -0.007597 0.051777 0.031755
# 6 -0.000098 0.005580 -0.001325 -0.014655 0.031755 0.062052
#
#
# Mechanical properties :
#
#
# Convention : Reuss Voigt Hill
#
# Bulk Modulus (GPa) = 46.20491 62.54122 54.37307
# Shear Modulus (GPa) = 20.22498 28.47259 24.34878
#
# Velocity S-wave (km/s) = 3.34356 3.96715 3.66863
# Velocity P-wave (km/s) = 6.35970 7.45347 6.92820
#
# Compressibility (1/GPa) = 0.02164272
#
# Stress axis : x y z
#
# Youngs Moduli (GPa) = 78.96566 81.90763 59.36449
#
# Poissons Ratio (x) = 0.36625 0.10493
# Poissons Ratio (y) = 0.35309 0.22550
# Poissons Ratio (z) = 0.13957 0.31113
#
# Static dielectric constant tensor:
#      x y z
#    x 1.707210 -0.008240 0.003710 
#    y -0.008240 1.618040 -0.064750 
#    z 0.003710 -0.064750 1.671190 
# 
# From -- ./inp_files/190242.got.cif
#   From: 2010.05.17/outbox.cif.g08.bks.cpg/sg2_96_cif.got.tgz:190242.got - 2010.06.03 11:33:40.
