data_PCOD9073899
_publ_section_title
;
Structure prediction by ZEFSAII (Michael W. Deem and Ramdas Pophale) SiO2 
 PCOD9073899
Probable space group: P -1
;
_chemical_formula_sum "Si O2"
_cell_formula_units_Z 16
_cell_length_a 9.713176
_cell_length_b 10.429827
_cell_length_c 17.378332
_cell_angle_alpha 147.896271
_cell_angle_beta 138.505626
_cell_angle_gamma 59.912149
_cell_volume 573.872434
_symmetry_space_group_name_H-M "P -1"
_symmetry_group_IT_number 2
_symmetry_cell_setting 'triclinic'
loop_
_space_group_symop_operation_xyz
x,y,z
-x,-y,-z
loop_
_atom_site_type_symbol
_atom_site_label
_atom_site_fract_x
_atom_site_fract_y
_atom_site_fract_z
Si Si1 0.860810 0.278624 0.720708
Si Si2 0.163927 0.175450 0.224610
Si Si3 0.914284 0.833388 0.088791
Si Si4 0.519456 0.080093 0.232509
Si Si5 0.869637 0.438650 0.263201
Si Si6 0.581116 0.357291 0.239533
Si Si7 0.292781 0.336102 0.882248
Si Si8 0.586220 0.740391 0.324615
O O1 0.863236 0.556514 0.884638
O O2 0.958136 0.169379 0.779889
O O3 0.045658 0.320590 0.753467
O O4 0.633206 0.038551 0.484937
O O5 0.106619 0.436084 0.336117
O O6 0.407530 0.185270 0.307798
O O7 0.000000 0.000000 0.000000
O O8 0.069385 0.040190 0.197698
O O9 0.662841 0.835513 0.994819
O O10 0.571284 0.272895 0.279526
O O11 0.702874 0.952003 0.257653
O O12 0.316200 0.810054 0.982594
O O13 0.799060 0.370651 0.289119
O O14 0.793412 0.680421 0.344072
O O15 0.583103 0.639527 0.359017
O O16 0.365689 0.533524 0.087597
O O17 0.500000 0.500000 0.000000
#
# Coordination Sequence:
#
# PCOD9073899 Si02
#       8
#     2   2   2   2   2   2   2   2
#     4  11  24  41  62  93 126 166 212 262 309 372
#     4  10  18  31  59  94 120 161 206 257 314 376
#     4  11  21  37  62  93 124 164 216 257 312 374
#     4  10  18  33  64  90 124 163 204 259 318 364
#     4   8  17  30  57  90 116 149 209 246 307 363
#     4  10  18  36  64  92 117 165 210 260 309 368
#     4  11  23  41  64  90 128 166 211 252 315 386
#     4   9  22  40  64  93 120 166 210 261 311 370
#
# _framework density 27.880761
#
# number of rings (size 3 to 8) (size 9 to 14) (size 15 to 20)
#    0.750    1.250    3.750    1.125    1.750    1.000 
#    0.000    2.500    0.000    1.500    0.000    0.000 
#    0.000    0.000    0.000    0.000    0.000    0.000 
#
# Total GULP energy -89385.034463 kJ/mol
# GULP energy per Si atom -5586.564654 kJ/mol
# Density = 2.781730 g / cm^3
# Si number density = 27.880761 Si / 1000 Ang^3
#
#
#
# Elastic Constant Matrix: (Units=GPa)
#
#
# Indices 1 2 3 4 5 6 
#
# 1 167.1972 27.9589 4.4029 4.2493 6.6217 -26.0914
# 2 27.9589 67.6540 15.4714 6.3631 -5.0798 3.5403
# 3 4.4029 15.4714 70.1203 7.4092 2.9384 -6.5723
# 4 4.2493 6.3631 7.4092 34.5287 -4.3577 -3.6934
# 5 6.6217 -5.0798 2.9384 -4.3577 28.7408 6.9451
# 6 -26.0914 3.5403 -6.5723 -3.6934 6.9451 54.9271
#
#
#
# Elastic Compliance Matrix: (Units=1/GPa)
#
#
# Indices 1 2 3 4 5 6 
#
# 1 0.007401 -0.003729 0.000954 -0.000419 -0.003563 0.004292
# 2 -0.003729 0.018057 -0.004178 -0.001763 0.005229 -0.004215
# 3 0.000954 -0.004178 0.015858 -0.002910 -0.003720 0.002895
# 4 -0.000419 -0.001763 -0.002910 0.030640 0.004472 0.001061
# 5 -0.003563 0.005229 -0.003720 0.004472 0.039324 -0.007146
# 6 0.004292 -0.004215 0.002895 0.001061 -0.007146 0.021838
#
#
# Mechanical properties :
#
#
# Convention : Reuss Voigt Hill
#
# Bulk Modulus (GPa) = 36.48417 44.51530 40.49974
# Shear Modulus (GPa) = 32.01834 40.78187 36.40011
#
# Velocity S-wave (km/s) = 3.39249 3.82871 3.61718
# Velocity P-wave (km/s) = 5.33474 5.96207 5.65711
#
# Compressibility (1/GPa) = 0.02740914
#
# Stress axis : x y z
#
# Youngs Moduli (GPa) = 135.11551 55.38096 63.06041
#
# Poissons Ratio (x) = 0.20654 -0.06016
# Poissons Ratio (y) = 0.50391 0.26345
# Poissons Ratio (z) = -0.12890 0.23137
#
# Static dielectric constant tensor:
#      x y z
#    x 2.244530 0.011320 -0.022760 
#    y 0.011320 2.224890 -0.047090 
#    z -0.022760 -0.047090 2.164580 
# 
# From -- ./inp_files/595020.got.cif
#   From: 2010.05.17/outbox.cif.g08.bks.cpg/sg2_298_cif.got.tgz:595020.got - 2010.06.03 11:33:40.
