data_PCOD9073871
_publ_section_title
;
Structure prediction by ZEFSAII (Michael W. Deem and Ramdas Pophale) SiO2 
 PCOD9073871
Probable space group: P -1
;
_chemical_formula_sum "Si O2"
_cell_formula_units_Z 15
_cell_length_a 9.000000
_cell_length_b 12.000000
_cell_length_c 15.000000
_cell_angle_alpha 150.000000
_cell_angle_beta 130.000000
_cell_angle_gamma 60.000000
_cell_volume 613.666794
_symmetry_space_group_name_H-M "P -1"
_symmetry_group_IT_number 2
_symmetry_cell_setting 'triclinic'
loop_
_space_group_symop_operation_xyz
x,y,z
-x,-y,-z
loop_
_atom_site_type_symbol
_atom_site_label
_atom_site_fract_x
_atom_site_fract_y
_atom_site_fract_z
Si Si1 0.000000 0.000000 0.000000
Si Si2 0.598764 0.835868 0.806789
Si Si3 0.731628 0.267525 0.277834
Si Si4 0.155074 0.342438 0.548562
Si Si5 0.755054 0.348872 0.047252
Si Si6 0.181445 0.454821 0.981603
Si Si7 0.646379 0.948183 0.284375
Si Si8 0.529568 0.188444 0.566428
O O1 0.796465 0.812828 0.814531
O O2 0.134033 0.833753 0.986706
O O3 0.452516 0.661007 0.689660
O O4 0.444249 0.929445 0.747214
O O5 0.676905 0.030321 0.042915
O O6 0.805370 0.435963 0.343656
O O7 0.926999 0.250229 0.396741
O O8 0.216997 0.421821 0.725935
O O9 0.302826 0.194052 0.457332
O O10 0.827485 0.409189 0.018804
O O11 0.527619 0.246614 0.886012
O O12 0.188341 0.193201 0.782075
O O13 0.374037 0.571141 0.190572
O O14 0.000000 0.500000 0.000000
O O15 0.666466 0.119056 0.492769
O O16 0.500000 0.000000 0.500000
#
# Coordination Sequence:
#
# PCOD9073871 Si02
#       8
#     1   2   2   2   2   2   2   2
#     4  10  22  38  66 102 124 186 226 268 354 410
#     4  10  22  40  66  99 140 181 229 289 345 424
#     4  10  22  39  66  99 137 181 233 288 346 418
#     4  11  23  42  68 101 138 184 235 295 353 411
#     4  11  22  44  69  95 142 182 226 287 350 422
#     4  12  27  46  70 104 142 180 232 299 352 412
#     4  11  23  45  71 100 137 183 232 289 353 416
#     4  12  25  42  71 101 128 185 239 282 348 427
#
# _framework density 24.443231999999998
#
# number of rings (size 3 to 8) (size 9 to 14) (size 15 to 20)
#    0.000    1.067    5.333    1.200    3.733    5.867 
#    0.000    1.333    0.000    0.000    0.000    0.000 
#    0.000    0.000    0.000    0.000    0.000    0.000 
#
# Total GULP energy -83588.636971 kJ/mol
# GULP energy per Si atom -5572.575798 kJ/mol
# Density = 2.438760 g / cm^3
# Si number density = 24.443232 Si / 1000 Ang^3
#
#
#
# Elastic Constant Matrix: (Units=GPa)
#
#
# Indices 1 2 3 4 5 6 
#
# 1 139.5873 32.3304 26.1230 -18.9190 -0.5938 0.5065
# 2 32.3304 29.0482 20.9180 -14.0542 -0.8385 -14.6747
# 3 26.1230 20.9180 68.2488 -7.6061 -19.5223 6.0109
# 4 -18.9190 -14.0542 -7.6061 13.4104 0.5406 -2.9746
# 5 -0.5938 -0.8385 -19.5223 0.5406 33.6675 3.8200
# 6 0.5065 -14.6747 6.0109 -2.9746 3.8200 39.7389
#
#
#
# Elastic Compliance Matrix: (Units=1/GPa)
#
#
# Indices 1 2 3 4 5 6 
#
# 1 0.012282 -0.054517 0.012812 -0.038722 0.009868 -0.026074
# 2 -0.054517 0.996816 -0.287137 0.924909 -0.214449 0.502075
# 3 0.012812 -0.287137 0.102900 -0.260360 0.073753 -0.148339
# 4 -0.038722 0.924909 -0.260360 0.954195 -0.197473 0.471830
# 5 0.009868 -0.214449 0.073753 -0.197473 0.083323 -0.113263
# 6 -0.026074 0.502075 -0.148339 0.471830 -0.113263 0.279545
#
#
# Mechanical properties :
#
#
# Convention : Reuss Voigt Hill
#
# Bulk Modulus (GPa) = 2.20113 43.95855 23.07984
# Shear Modulus (GPa) = 1.54408 27.86423 14.70415
#
# Velocity S-wave (km/s) = 0.79566 3.37999 2.45534
# Velocity P-wave (km/s) = 1.32157 5.76675 4.18342
#
# Compressibility (1/GPa) = 0.45431287
#
# Stress axis : x y z
#
# Youngs Moduli (GPa) = 81.42254 1.00319 9.71816
#
# Poissons Ratio (x) = 0.05469 -0.12451
# Poissons Ratio (y) = 4.43893 2.79045
# Poissons Ratio (z) = -1.04319 0.28805
#
# Static dielectric constant tensor:
#      x y z
#    x 2.004550 -0.046230 -0.035860 
#    y -0.046230 1.958160 -0.002260 
#    z -0.035860 -0.002260 1.996590 
# 
# From -- ./inp_files/501312.got.cif
#   From: 2010.05.17/outbox.ucp.g08.bks.cvg/sg2_251_cif.got.tgz:501312.got - 2010.06.11 11:32:03.
