data_PCOD9073414
_publ_section_title
;
Structure prediction by ZEFSAII (Michael W. Deem and Ramdas Pophale) SiO2 
 PCOD9073414
Probable space group: P -1
;
_chemical_formula_sum "Si O2"
_cell_formula_units_Z 16
_cell_length_a 15.000000
_cell_length_b 12.000000
_cell_length_c 21.000000
_cell_angle_alpha 150.000000
_cell_angle_beta 30.000000
_cell_angle_gamma 150.000000
_cell_volume 837.063958
_symmetry_space_group_name_H-M "P -1"
_symmetry_group_IT_number 2
_symmetry_cell_setting 'triclinic'
loop_
_space_group_symop_operation_xyz
x,y,z
-x,-y,-z
loop_
_atom_site_type_symbol
_atom_site_label
_atom_site_fract_x
_atom_site_fract_y
_atom_site_fract_z
Si Si1 0.241280 0.864137 0.884847
Si Si2 0.276580 0.265581 0.378240
Si Si3 0.097439 0.615760 0.711838
Si Si4 0.393531 0.582667 0.900106
Si Si5 0.902646 0.010329 0.212827
Si Si6 0.112349 0.073953 0.245097
Si Si7 0.247953 0.509197 0.819426
Si Si8 0.306459 0.793863 0.186566
O O1 0.187056 0.755545 0.793045
O O2 0.218888 0.664682 0.856204
O O3 0.473487 0.075186 0.852227
O O4 0.082245 0.962380 0.049946
O O5 0.198603 0.437433 0.546874
O O6 0.144106 0.167534 0.345978
O O7 0.520011 0.447666 0.309914
O O8 0.257571 0.020803 0.307360
O O9 0.128553 0.805418 0.727085
O O10 0.862700 0.419435 0.771128
O O11 0.639465 0.770236 0.845601
O O12 0.288712 0.632563 0.926670
O O13 0.296738 0.272179 0.801607
O O14 0.313759 0.655216 0.048447
O O15 0.994953 0.130245 0.285728
O O16 0.948338 0.768739 0.197052
#
# Coordination Sequence:
#
# PCOD9073414 Si02
#       8
#     2   2   2   2   2   2   2   2
#     4  11  23  39  62  94 124 160 200 258 306 356
#     4  10  24  42  63  94 122 161 203 252 304 363
#     4  12  26  43  59  86 135 169 202 238 295 381
#     4  10  21  39  64 100 122 146 207 264 313 348
#     4  11  24  40  62  92 123 166 203 248 304 358
#     4  10  21  41  67  94 120 157 204 259 310 353
#     4   9  22  39  66  96 121 154 201 263 314 351
#     4  11  23  39  67  95 119 159 204 258 306 359
#
# _framework density 19.114429999999999
#
# number of rings (size 3 to 8) (size 9 to 14) (size 15 to 20)
#    0.000    1.500    2.500    1.500    1.750    7.500 
#    0.000    5.625    0.000    0.000    0.000    0.000 
#    0.000    0.000    0.000    0.000    0.000    0.000 
#
# Total GULP energy -89077.686094 kJ/mol
# GULP energy per Si atom -5567.355381 kJ/mol
# Density = 1.907092 g / cm^3
# Si number density = 19.114430 Si / 1000 Ang^3
#
#
#
# Elastic Constant Matrix: (Units=GPa)
#
#
# Indices 1 2 3 4 5 6 
#
# 1 113.5294 32.8508 -8.8358 10.7791 2.4113 12.1237
# 2 32.8508 142.0701 1.6610 -2.8723 -8.4643 16.9390
# 3 -8.8358 1.6610 19.8141 2.4822 1.0520 12.0109
# 4 10.7791 -2.8723 2.4822 22.2814 3.7724 -3.3620
# 5 2.4113 -8.4643 1.0520 3.7724 17.4913 3.9885
# 6 12.1237 16.9390 12.0109 -3.3620 3.9885 45.4825
#
#
#
# Elastic Compliance Matrix: (Units=1/GPa)
#
#
# Indices 1 2 3 4 5 6 
#
# 1 0.011514 -0.002331 0.009481 -0.007641 -0.000445 -0.005231
# 2 -0.002331 0.008198 -0.000513 0.001050 0.004693 -0.002630
# 3 0.009481 -0.000513 0.070163 -0.016317 0.002833 -0.022319
# 4 -0.007641 0.001050 -0.016317 0.054157 -0.011641 0.010979
# 5 -0.000445 0.004693 0.002833 -0.011641 0.063859 -0.008838
# 6 -0.005231 -0.002630 -0.022319 0.010979 -0.008838 0.031841
#
#
# Mechanical properties :
#
#
# Convention : Reuss Voigt Hill
#
# Bulk Modulus (GPa) = 9.69444 36.30733 23.00088
# Shear Modulus (GPa) = 19.16883 33.70021 26.43452
#
# Velocity S-wave (km/s) = 3.17021 4.20346 3.72285
# Velocity P-wave (km/s) = 4.29920 6.52646 5.52620
#
# Compressibility (1/GPa) = 0.10315192
#
# Stress axis : x y z
#
# Youngs Moduli (GPa) = 86.85016 121.97930 14.25248
#
# Poissons Ratio (x) = 0.28428 -0.13513
# Poissons Ratio (y) = 0.20241 0.00731
# Poissons Ratio (z) = -0.82347 0.06254
#
# Static dielectric constant tensor:
#      x y z
#    x 1.665710 -0.025700 0.010310 
#    y -0.025700 1.703060 -0.023730 
#    z 0.010310 -0.023730 1.706120 
# 
# From -- ./inp_files/268992.got.cif
#   From: 2010.05.17/outbox.ucp.g08.bks.cvg/sg2_135_cif.got.tgz:268992.got - 2010.06.11 11:32:03.
