data_PCOD9073216
_publ_section_title
;
Structure prediction by ZEFSAII (Michael W. Deem and Ramdas Pophale) SiO2 
 PCOD9073216
Probable space group: P -1
;
_chemical_formula_sum "Si O2"
_cell_formula_units_Z 16
_cell_length_a 12.000000
_cell_length_b 30.000000
_cell_length_c 18.000000
_cell_angle_alpha 160.000000
_cell_angle_beta 30.000000
_cell_angle_gamma 160.000000
_cell_volume 749.971719
_symmetry_space_group_name_H-M "P -1"
_symmetry_group_IT_number 2
_symmetry_cell_setting 'triclinic'
loop_
_space_group_symop_operation_xyz
x,y,z
-x,-y,-z
loop_
_atom_site_type_symbol
_atom_site_label
_atom_site_fract_x
_atom_site_fract_y
_atom_site_fract_z
Si Si1 0.487483 0.986540 0.368048
Si Si2 0.764591 0.789401 0.484433
Si Si3 0.664776 0.985487 0.103486
Si Si4 0.085481 0.351740 0.163153
Si Si5 0.165179 0.286071 0.164730
Si Si6 0.854365 0.037773 0.702719
Si Si7 0.662079 0.281267 0.835567
Si Si8 0.541621 0.312708 0.350089
O O1 0.664264 0.006311 0.224181
O O2 0.446203 0.858013 0.252406
O O3 0.111485 0.873705 0.394702
O O4 0.670946 0.190341 0.616848
O O5 0.450802 0.562198 0.296530
O O6 0.750191 0.820037 0.627971
O O7 0.713199 0.890487 0.620057
O O8 0.412498 0.986537 0.220556
O O9 0.541255 0.791787 0.843022
O O10 0.983911 0.148800 0.125126
O O11 0.951711 0.245284 0.153785
O O12 0.844016 0.360129 0.285241
O O13 0.098143 0.243077 0.924647
O O14 0.360970 0.495536 0.410074
O O15 0.396057 0.280338 0.982963
O O16 0.000000 0.000000 0.500000
O O17 0.000000 0.500000 0.000000
#
# Coordination Sequence:
#
# PCOD9073216 Si02
#       8
#     2   2   2   2   2   2   2   2
#     4  11  25  43  63  94 120 156 202 258 314 354
#     4  11  20  39  62  87 126 164 206 245 290 362
#     4  11  23  40  60  93 132 156 196 251 303 364
#     4  10  21  36  61  90 124 167 207 241 289 355
#     4  11  22  40  65  89 119 165 207 248 302 359
#     4  11  21  35  56  94 129 166 198 238 298 356
#     4  11  25  46  69  88 114 156 211 258 306 369
#     4  10  21  38  61  92 126 165 203 242 294 358
#
# _framework density 21.334137999999999
#
# number of rings (size 3 to 8) (size 9 to 14) (size 15 to 20)
#    0.000    1.250    1.250    6.750    0.000    5.000 
#    2.250    1.250    0.000    0.000    0.000    0.000 
#    0.000    0.000    0.000    0.000    0.000    0.000 
#
# Total GULP energy -89429.837123 kJ/mol
# GULP energy per Si atom -5589.364820 kJ/mol
# Density = 2.128558 g / cm^3
# Si number density = 21.334138 Si / 1000 Ang^3
#
#
#
# Elastic Constant Matrix: (Units=GPa)
#
#
# Indices 1 2 3 4 5 6 
#
# 1 52.4802 1.9971 35.9850 10.3054 14.9773 -11.8071
# 2 1.9971 48.0108 25.8680 9.5143 22.4455 -2.1970
# 3 35.9850 25.8680 155.4401 -3.6362 19.3326 -13.1998
# 4 10.3054 9.5143 -3.6362 20.2336 -9.4206 4.1707
# 5 14.9773 22.4455 19.3326 -9.4206 34.5486 -14.9683
# 6 -11.8071 -2.1970 -13.1998 4.1707 -14.9683 21.1458
#
#
#
# Elastic Compliance Matrix: (Units=1/GPa)
#
#
# Indices 1 2 3 4 5 6 
#
# 1 -3.793081 -5.327211 1.184050 7.686493 7.276185 1.702198
# 2 -5.327211 -7.412248 1.655973 10.734586 10.144894 2.353009
# 3 1.184050 1.655973 -0.361916 -2.393992 -2.267002 -0.525279
# 4 7.686493 10.734586 -2.393992-15.466592-14.664490 -3.417110
# 5 7.276185 10.144894 -2.267002-14.664490-13.831417 -3.196710
# 6 1.702198 2.353009 -0.525279 -3.417110 -3.196710 -0.674539
#
#
# Mechanical properties :
#
#
# Convention : Reuss Voigt Hill
#
# Bulk Modulus (GPa) = -0.06045 42.62569 21.28262
# Shear Modulus (GPa) = -0.11882 27.99100 13.93609
#
# Velocity S-wave (km/s) = -0.23626 3.62612 2.55861
# Velocity P-wave (km/s) = 0.32066 6.12822 4.32737
#
# Compressibility (1/GPa) = -16.54162107
#
# Stress axis : x y z
#
# Youngs Moduli (GPa) = -0.26364 -0.13491 -2.76307
#
# Poissons Ratio (x) = -0.71870 3.27161
# Poissons Ratio (y) = -1.40446 4.57557
# Poissons Ratio (z) = 0.31216 0.22341
#
# Static dielectric constant tensor:
#      x y z
#    x 1.809320 0.033390 -0.002820 
#    y 0.033390 1.757090 0.006930 
#    z -0.002820 0.006930 1.776490 
# 
# From -- ./inp_files/399707.got.cif
#   From: 2010.05.17/outbox.ucp.g08.bks.cvg/sg2_200_cif.got.tgz:399707.got - 2010.06.11 11:32:03.
