data_PCOD9073836
_publ_section_title
;
Structure prediction by ZEFSAII (Michael W. Deem and Ramdas Pophale) SiO2 
 PCOD9073836
Probable space group: P -1
;
_chemical_formula_sum "Si O2"
_cell_formula_units_Z 16
_cell_length_a 9.000000
_cell_length_b 21.000000
_cell_length_c 9.000000
_cell_angle_alpha 50.000000
_cell_angle_beta 80.000000
_cell_angle_gamma 120.000000
_cell_volume 751.240448
_symmetry_space_group_name_H-M "P -1"
_symmetry_group_IT_number 2
_symmetry_cell_setting 'triclinic'
loop_
_space_group_symop_operation_xyz
x,y,z
-x,-y,-z
loop_
_atom_site_type_symbol
_atom_site_label
_atom_site_fract_x
_atom_site_fract_y
_atom_site_fract_z
Si Si1 0.468405 0.708665 0.172128
Si Si2 0.637717 0.723826 0.792333
Si Si3 0.415499 0.997550 0.678753
Si Si4 0.999835 0.729219 0.797315
Si Si5 0.844297 0.271169 0.714688
Si Si6 0.243132 0.438850 0.630743
Si Si7 0.109169 0.462675 0.101160
Si Si8 0.038823 0.983797 0.690837
O O1 0.320843 0.729538 0.176893
O O2 0.298331 0.557725 0.491305
O O3 0.527865 0.708305 0.992717
O O4 0.746198 0.837098 0.009808
O O5 0.836786 0.737439 0.767507
O O6 0.815024 0.875617 0.467013
O O7 0.387382 0.596319 0.928845
O O8 0.220280 0.985384 0.687946
O O9 0.500000 0.000000 0.500000
O O10 0.290100 0.875347 0.998019
O O11 0.697685 0.142442 0.481889
O O12 0.860980 0.590188 0.954372
O O13 0.961991 0.698692 0.024726
O O14 0.124535 0.389796 0.562659
O O15 0.905135 0.330322 0.450765
O O16 0.500000 0.500000 0.500000
O O17 0.000000 0.500000 0.000000
O O18 0.000000 0.000000 0.500000
#
# Coordination Sequence:
#
# PCOD9073836 Si02
#       8
#     2   2   2   2   2   2   2   2
#     4  11  21  38  64  97 133 165 222 283 331 385
#     4  11  22  42  64  95 134 174 224 279 333 398
#     4  12  22  41  69 101 134 173 226 282 336 395
#     4  12  25  42  70  98 135 181 222 274 342 401
#     4  12  25  41  69  99 137 176 227 278 336 397
#     4  12  22  39  66 101 131 168 226 283 333 390
#     4  12  27  45  66  97 139 185 223 271 340 408
#     4  10  22  36  62  98 135 169 212 277 339 391
#
# _framework density 21.298107999999999
#
# number of rings (size 3 to 8) (size 9 to 14) (size 15 to 20)
#    0.000    0.500    3.750    6.750    1.750    0.500 
#    0.000    1.250    0.000    5.250    0.000    0.000 
#    0.000    0.000    0.000    0.000    0.000    0.000 
#
# Total GULP energy -89309.956112 kJ/mol
# GULP energy per Si atom -5581.872257 kJ/mol
# Density = 2.124963 g / cm^3
# Si number density = 21.298108 Si / 1000 Ang^3
#
#
#
# Elastic Constant Matrix: (Units=GPa)
#
#
# Indices 1 2 3 4 5 6 
#
# 1 136.8438 9.1374 1.9497 4.1638 18.6506 20.1648
# 2 9.1374 66.0802 11.2515 -12.1690 3.8024 15.8353
# 3 1.9497 11.2515 89.7814 -16.4358 23.5573 26.0602
# 4 4.1638 -12.1690 -16.4358 30.7076 4.5658 -5.3665
# 5 18.6506 3.8024 23.5573 4.5658 40.4627 -8.1711
# 6 20.1648 15.8353 26.0602 -5.3665 -8.1711 29.0654
#
#
#
# Elastic Compliance Matrix: (Units=1/GPa)
#
#
# Indices 1 2 3 4 5 6 
#
# 1 0.014875 0.006018 0.016633 0.006982 -0.024798 -0.034194
# 2 0.006018 0.023992 0.015658 0.014342 -0.022842 -0.035059
# 3 0.016633 0.015658 0.051131 0.026370 -0.057472 -0.077202
# 4 0.006982 0.014342 0.026370 0.049959 -0.032891 -0.036323
# 5 -0.024798 -0.022842 -0.057472 -0.032891 0.096085 0.102118
# 6 -0.034194 -0.035059 -0.077202 -0.036323 0.102118 0.168450
#
#
# Mechanical properties :
#
#
# Convention : Reuss Voigt Hill
#
# Bulk Modulus (GPa) = 6.00188 37.48696 21.74442
# Shear Modulus (GPa) = 13.04080 38.07159 25.55620
#
# Velocity S-wave (km/s) = 2.47715 4.23254 3.46776
# Velocity P-wave (km/s) = 3.31751 6.44400 5.12499
#
# Compressibility (1/GPa) = 0.16661453
#
# Stress axis : x y z
#
# Youngs Moduli (GPa) = 67.22756 41.68095 19.55764
#
# Poissons Ratio (x) = -0.25083 -0.32530
# Poissons Ratio (y) = -0.40457 -0.30623
# Poissons Ratio (z) = -1.11819 -0.65263
#
# Static dielectric constant tensor:
#      x y z
#    x 1.764160 0.042840 0.026340 
#    y 0.042840 1.873190 -0.026370 
#    z 0.026340 -0.026370 1.858340 
# 
# From -- ./inp_files/217111.got.cif
#   From: 2010.05.17/outbox.ucp.g08.bks.cvg/sg2_109_cif.got.tgz:217111.got - 2010.06.11 11:32:03.
