data_PCOD9073030
_publ_section_title
;
Structure prediction by ZEFSAII (Michael W. Deem and Ramdas Pophale) SiO2 
 PCOD9073030
Probable space group: P -1
;
_chemical_formula_sum "Si O2"
_cell_formula_units_Z 16
_cell_length_a 12.000000
_cell_length_b 12.000000
_cell_length_c 12.000000
_cell_angle_alpha 140.000000
_cell_angle_beta 110.000000
_cell_angle_gamma 100.000000
_cell_volume 722.981415
_symmetry_space_group_name_H-M "P -1"
_symmetry_group_IT_number 2
_symmetry_cell_setting 'triclinic'
loop_
_space_group_symop_operation_xyz
x,y,z
-x,-y,-z
loop_
_atom_site_type_symbol
_atom_site_label
_atom_site_fract_x
_atom_site_fract_y
_atom_site_fract_z
Si Si1 0.750906 0.712540 0.990773
Si Si2 0.120489 0.778286 0.509192
Si Si3 0.423893 0.463188 0.824309
Si Si4 0.695894 0.763625 0.773077
Si Si5 0.733472 0.322708 0.066110
Si Si6 0.216352 0.998810 0.247755
Si Si7 0.695167 0.150663 0.158316
Si Si8 0.895931 0.501867 0.876143
O O1 0.845478 0.981209 0.279576
O O2 0.560288 0.562240 0.849396
O O3 0.774100 0.738694 0.884220
O O4 0.795224 0.564995 0.934249
O O5 0.186288 0.738641 0.608315
O O6 0.206055 0.757996 0.422831
O O7 0.917280 0.555529 0.254833
O O8 0.377807 0.619058 0.934710
O O9 0.274967 0.174929 0.509928
O O10 0.500000 0.500000 0.000000
O O11 0.500000 0.500000 0.500000
O O12 0.775877 0.867554 0.756411
O O13 0.694390 0.955374 0.965117
O O14 0.761355 0.330177 0.214450
O O15 0.682601 0.077140 0.809505
O O16 0.030497 0.731198 0.011926
O O17 0.500000 0.000000 0.000000
O O18 0.000000 0.500000 0.000000
#
# Coordination Sequence:
#
# PCOD9073030 Si02
#       8
#     2   2   2   2   2   2   2   2
#     4  11  25  43  68 102 130 176 224 279 341 396
#     4  10  23  42  67  97 132 176 220 272 340 396
#     4  12  27  41  67  99 135 181 229 279 334 396
#     4  10  20  40  65  96 134 165 216 279 337 394
#     4  10  22  43  65  93 136 175 219 279 330 400
#     4  10  24  45  67  99 134 177 225 276 343 398
#     4  10  21  36  65 100 132 168 219 273 340 401
#     4  11  27  45  68  96 137 186 225 274 330 408
#
# _framework density 22.130583000000001
#
# number of rings (size 3 to 8) (size 9 to 14) (size 15 to 20)
#    0.000    1.500    1.250    2.625    7.000    3.500 
#    0.000    0.000    0.000    0.000    0.000    0.000 
#    0.000    0.000    0.000    0.000    0.000    0.000 
#
# Total GULP energy -89176.926685 kJ/mol
# GULP energy per Si atom -5573.557918 kJ/mol
# Density = 2.208021 g / cm^3
# Si number density = 22.130583 Si / 1000 Ang^3
#
#
#
# Elastic Constant Matrix: (Units=GPa)
#
#
# Indices 1 2 3 4 5 6 
#
# 1 121.4892 31.5169 9.8254 -8.2074 -11.0836 -30.4147
# 2 31.5169 77.8460 17.0544 -15.3386 -7.7180 -30.7515
# 3 9.8254 17.0544 75.4346 -8.9335 -28.7652 -9.6264
# 4 -8.2074 -15.3386 -8.9335 34.0914 11.1472 3.1932
# 5 -11.0836 -7.7180 -28.7652 11.1472 31.2956 7.2651
# 6 -30.4147 -30.7515 -9.6264 3.1932 7.2651 45.5176
#
#
#
# Elastic Compliance Matrix: (Units=1/GPa)
#
#
# Indices 1 2 3 4 5 6 
#
# 1 0.010244 -0.001867 0.000761 0.000528 0.002445 0.005317
# 2 -0.001867 0.020193 -0.003626 0.008097 -0.004637 0.011800
# 3 0.000761 -0.003626 0.021188 -0.002322 0.019782 -0.000455
# 4 0.000528 0.008097 -0.002322 0.036659 -0.014174 0.005023
# 5 0.002445 -0.004637 0.019782 -0.014174 0.056133 -0.005281
# 6 0.005317 0.011800 -0.000455 0.005023 -0.005281 0.033889
#
#
# Mechanical properties :
#
#
# Convention : Reuss Voigt Hill
#
# Bulk Modulus (GPa) = 23.71845 43.50701 33.61273
# Shear Modulus (GPa) = 24.77429 36.60580 30.69004
#
# Velocity S-wave (km/s) = 3.34946 4.07145 3.72798
# Velocity P-wave (km/s) = 5.06945 6.46562 5.80963
#
# Compressibility (1/GPa) = 0.04216127
#
# Stress axis : x y z
#
# Youngs Moduli (GPa) = 97.61932 49.52175 47.19727
#
# Poissons Ratio (x) = 0.09247 -0.03592
# Poissons Ratio (y) = 0.18228 0.17112
# Poissons Ratio (z) = -0.07430 0.17955
#
# Static dielectric constant tensor:
#      x y z
#    x 1.837230 0.015760 0.004790 
#    y 0.015760 1.870070 0.005570 
#    z 0.004790 0.005570 1.955970 
# 
# From -- ./inp_files/308898.got.cif
#   From: 2010.05.17/outbox.ucp.g08.bks.cvg/sg2_155_cif.got.tgz:308898.got - 2010.06.11 11:32:03.
