data_PCOD9073544
_publ_section_title
;
Structure prediction by ZEFSAII (Michael W. Deem and Ramdas Pophale) SiO2 
 PCOD9073544
Probable space group: P -1
;
_chemical_formula_sum "Si O2"
_cell_formula_units_Z 16
_cell_length_a 9.000000
_cell_length_b 21.000000
_cell_length_c 27.000000
_cell_angle_alpha 160.000000
_cell_angle_beta 140.000000
_cell_angle_gamma 30.000000
_cell_volume 837.950403
_symmetry_space_group_name_H-M "P -1"
_symmetry_group_IT_number 2
_symmetry_cell_setting 'triclinic'
loop_
_space_group_symop_operation_xyz
x,y,z
-x,-y,-z
loop_
_atom_site_type_symbol
_atom_site_label
_atom_site_fract_x
_atom_site_fract_y
_atom_site_fract_z
Si Si1 0.259632 0.253414 0.783320
Si Si2 0.250562 0.198614 0.898139
Si Si3 0.281948 0.564039 0.566944
Si Si4 0.775888 0.810305 0.390324
Si Si5 0.363744 0.289259 0.292958
Si Si6 0.247227 0.916293 0.138154
Si Si7 0.146429 0.240796 0.104500
Si Si8 0.187549 0.953044 0.619376
O O1 0.299009 0.196450 0.692383
O O2 0.544781 0.207996 0.849668
O O3 0.248928 0.058575 0.666202
O O4 0.960872 0.535601 0.932755
O O5 0.520712 0.144943 0.892368
O O6 0.400670 0.979028 0.816197
O O7 0.072707 0.156286 0.782607
O O8 0.192053 0.489125 0.440503
O O9 0.464297 0.643845 0.647510
O O10 0.511823 0.311483 0.473557
O O11 0.009708 0.790767 0.697759
O O12 0.990196 0.516106 0.245007
O O13 0.966759 0.901876 0.509602
O O14 0.500000 0.000000 0.500000
O O15 0.168041 0.272478 0.191960
O O16 0.069426 0.820610 0.009086
O O17 0.500000 0.000000 0.000000
#
# Coordination Sequence:
#
# PCOD9073544 Si02
#       8
#     2   2   2   2   2   2   2   2
#     4  11  26  44  66  95 137 181 215 271 341 389
#     4  10  24  43  68  99 132 178 220 268 335 399
#     4  10  21  40  67  98 127 173 225 269 331 396
#     4  12  28  43  67 103 132 178 229 275 332 400
#     4  10  21  40  67  94 135 175 212 276 338 384
#     4  11  24  42  67  99 132 176 226 268 327 408
#     4  12  24  45  67  97 139 171 221 284 331 390
#     4  10  21  46  68  92 138 173 218 276 329 393
#
# _framework density 19.094208999999999
#
# number of rings (size 3 to 8) (size 9 to 14) (size 15 to 20)
#    0.000    1.250    2.500    2.625    5.250    5.500 
#    0.000    0.000    0.000    0.000    0.000    0.000 
#    0.000    0.000    0.000    0.000    0.000    0.000 
#
# Total GULP energy -89261.259085 kJ/mol
# GULP energy per Si atom -5578.828693 kJ/mol
# Density = 1.905075 g / cm^3
# Si number density = 19.094209 Si / 1000 Ang^3
#
#
#
# Elastic Constant Matrix: (Units=GPa)
#
#
# Indices 1 2 3 4 5 6 
#
# 1 89.3148 50.4963 63.9338 -0.1392 -11.2734 14.8488
# 2 50.4963 112.1665 65.1551 -25.3802 -2.0384 16.5763
# 3 63.9338 65.1551 166.0063 -12.1233 -10.9879 -2.3519
# 4 -0.1392 -25.3802 -12.1233 55.1683 1.4049 2.5793
# 5 -11.2734 -2.0384 -10.9879 1.4049 47.4008 -1.0876
# 6 14.8488 16.5763 -2.3519 2.5793 -1.0876 43.8704
#
#
#
# Elastic Compliance Matrix: (Units=1/GPa)
#
#
# Indices 1 2 3 4 5 6 
#
# 1 0.019378 -0.005749 -0.005327 -0.003642 0.003134 -0.004380
# 2 -0.005749 0.015828 -0.003696 0.006721 -0.001850 -0.004674
# 3 -0.005327 -0.003696 0.009653 0.000211 0.000891 0.003727
# 4 -0.003642 0.006721 0.000211 0.021407 -0.001222 -0.002584
# 5 0.003134 -0.001850 0.000891 -0.001222 0.022012 0.000304
# 6 -0.004380 -0.004674 0.003727 -0.002584 0.000304 0.026402
#
#
# Mechanical properties :
#
#
# Convention : Reuss Voigt Hill
#
# Bulk Modulus (GPa) = 65.29526 80.73976 73.01751
# Shear Modulus (GPa) = 33.48248 41.81473 37.64861
#
# Velocity S-wave (km/s) = 4.19207 4.68473 4.44523
# Velocity P-wave (km/s) = 7.59618 8.46398 8.04180
#
# Compressibility (1/GPa) = 0.01531505
#
# Stress axis : x y z
#
# Youngs Moduli (GPa) = 51.60407 63.17792 103.59089
#
# Poissons Ratio (x) = 0.36322 0.55186
# Poissons Ratio (y) = 0.29668 0.38288
# Poissons Ratio (z) = 0.27491 0.23351
#
# Static dielectric constant tensor:
#      x y z
#    x 1.674190 -0.008840 -0.002170 
#    y -0.008840 1.707180 0.004500 
#    z -0.002170 0.004500 1.667670 
# 
# From -- ./inp_files/283504.got.cif
#   From: 2010.05.17/outbox.ucp.g08.bks.cvg/sg2_142_cif.got.tgz:283504.got - 2010.06.11 11:32:03.
