data_PCOD9073959
_publ_section_title
;
Structure prediction by ZEFSAII (Michael W. Deem and Ramdas Pophale) SiO2 
 PCOD9073959
Probable space group: P -1
;
_chemical_formula_sum "Si O2"
_cell_formula_units_Z 16
_cell_length_a 9.000000
_cell_length_b 15.000000
_cell_length_c 9.000000
_cell_angle_alpha 80.000000
_cell_angle_beta 60.000000
_cell_angle_gamma 120.000000
_cell_volume 751.948787
_symmetry_space_group_name_H-M "P -1"
_symmetry_group_IT_number 2
_symmetry_cell_setting 'triclinic'
loop_
_space_group_symop_operation_xyz
x,y,z
-x,-y,-z
loop_
_atom_site_type_symbol
_atom_site_label
_atom_site_fract_x
_atom_site_fract_y
_atom_site_fract_z
Si Si1 0.502792 0.483728 0.183317
Si Si2 0.333624 0.846637 0.506580
Si Si3 0.834608 0.026435 0.466085
Si Si4 0.669855 0.775602 0.701850
Si Si5 0.978472 0.281930 0.006969
Si Si6 0.877194 0.041232 0.118906
Si Si7 0.205120 0.630029 0.148380
Si Si8 0.983312 0.606983 0.566757
O O1 0.435875 0.353436 0.282726
O O2 0.752344 0.604509 0.097020
O O3 0.269534 0.455160 0.356622
O O4 0.500000 0.500000 0.000000
O O5 0.347751 0.959327 0.451663
O O6 0.135366 0.741547 0.521716
O O7 0.598487 0.915325 0.311021
O O8 0.206978 0.778328 0.745964
O O9 0.972434 0.078834 0.227878
O O10 0.047083 0.128277 0.441193
O O11 0.686222 0.881054 0.592700
O O12 0.481850 0.720012 0.946452
O O13 0.909585 0.334982 0.908573
O O14 0.936883 0.164583 0.995867
O O15 0.000000 0.000000 0.000000
O O16 0.074772 0.485384 0.245170
O O17 0.150341 0.630668 0.346654
#
# Coordination Sequence:
#
# PCOD9073959 Si02
#       8
#     2   2   2   2   2   2   2   2
#     4  12  21  43  69  96 127 174 227 267 322 387
#     4  11  21  44  67  89 132 174 224 264 323 397
#     4  10  22  40  64  99 123 175 219 267 320 392
#     4  11  21  39  68  92 131 168 223 267 318 395
#     4  11  24  44  71  94 131 177 222 269 322 395
#     4  11  25  40  65  96 134 167 216 272 334 381
#     4  11  25  41  61 101 136 172 214 275 333 383
#     4  11  25  41  66  96 134 178 215 273 335 381
#
# _framework density 21.278044999999999
#
# number of rings (size 3 to 8) (size 9 to 14) (size 15 to 20)
#    0.000    1.000    3.750    3.750    1.750    5.500 
#    0.000    1.250    0.000    0.000    0.000    0.000 
#    0.000    0.000    0.000    0.000    0.000    0.000 
#
# Total GULP energy -89091.063183 kJ/mol
# GULP energy per Si atom -5568.191449 kJ/mol
# Density = 2.122962 g / cm^3
# Si number density = 21.278045 Si / 1000 Ang^3
#
#
#
# Elastic Constant Matrix: (Units=GPa)
#
#
# Indices 1 2 3 4 5 6 
#
# 1 83.0693 61.7704 73.5484 -25.9100 -17.9439 -14.5252
# 2 61.7704 80.8049 1.3446 -30.9140 -4.6920 -25.0646
# 3 73.5484 1.3446 33.1786 -12.6566 -15.1225 -30.4803
# 4 -25.9100 -30.9140 -12.6566 41.0186 -8.2704 -2.4772
# 5 -17.9439 -4.6920 -15.1225 -8.2704 39.6939 -8.9548
# 6 -14.5252 -25.0646 -30.4803 -2.4772 -8.9548 38.7994
#
#
#
# Elastic Compliance Matrix: (Units=1/GPa)
#
#
# Indices 1 2 3 4 5 6 
#
# 1 0.013300 0.006994 0.010544 0.022613 0.020997 0.024070
# 2 0.006994 0.009965 -0.013578 0.007794 0.000569 -0.000982
# 3 0.010544 -0.013578 -0.005247 -0.006269 -0.002376 -0.009895
# 4 0.022613 0.007794 -0.006269 0.048177 0.022598 0.016867
# 5 0.020997 0.000569 -0.002376 0.022598 0.042530 0.017620
# 6 0.024070 -0.000982 -0.009895 0.016867 0.017620 0.031520
#
#
# Mechanical properties :
#
#
# Convention : Reuss Voigt Hill
#
# Bulk Modulus (GPa) = 38.55563 52.26440 45.41001
# Shear Modulus (GPa) = 35.46819 27.92836 31.69828
#
# Velocity S-wave (km/s) = 4.08719 3.62683 3.86387
# Velocity P-wave (km/s) = 6.35867 6.49265 6.42601
#
# Compressibility (1/GPa) = 0.02593655
#
# Stress axis : x y z
#
# Youngs Moduli (GPa) = 75.19031 100.35324 -190.58596
#
# Poissons Ratio (x) = -0.70190 2.00946
# Poissons Ratio (y) = -0.52590 -2.58783
# Poissons Ratio (z) = -0.79277 1.36262
#
# Static dielectric constant tensor:
#      x y z
#    x 1.854680 -0.022930 0.038960 
#    y -0.022930 1.700720 -0.054050 
#    z 0.038960 -0.054050 1.708820 
# 
# From -- ./inp_files/206783.got.cif
#   From: 2010.05.17/outbox.ucp.g08.bks.cvg/sg2_104_cif.got.tgz:206783.got - 2010.06.11 11:32:03.
