data_PCOD9073913
_publ_section_title
;
Structure prediction by ZEFSAII (Michael W. Deem and Ramdas Pophale) SiO2 
 PCOD9073913
Probable space group: P -1
;
_chemical_formula_sum "Si O2"
_cell_formula_units_Z 16
_cell_length_a 11.194330
_cell_length_b 10.820406
_cell_length_c 18.648078
_cell_angle_alpha 143.693722
_cell_angle_beta 77.847596
_cell_angle_gamma 126.236198
_cell_volume 896.173526
_symmetry_space_group_name_H-M "P -1"
_symmetry_group_IT_number 2
_symmetry_cell_setting 'triclinic'
loop_
_space_group_symop_operation_xyz
x,y,z
-x,-y,-z
loop_
_atom_site_type_symbol
_atom_site_label
_atom_site_fract_x
_atom_site_fract_y
_atom_site_fract_z
Si Si1 0.688206 0.485547 0.577650
Si Si2 0.113668 0.587303 0.126936
Si Si3 0.526219 0.392527 0.294318
Si Si4 0.249573 0.692663 0.002459
Si Si5 0.697871 0.088876 0.470235
Si Si6 0.187767 0.160625 0.413537
Si Si7 0.796154 0.762373 0.300564
Si Si8 0.354660 0.826063 0.330244
O O1 0.622698 0.608905 0.686299
O O2 0.767766 0.395885 0.573109
O O3 0.803035 0.699105 0.595862
O O4 0.502094 0.144745 0.417625
O O5 0.198421 0.574438 0.178207
O O6 0.901625 0.355615 0.041184
O O7 0.183924 0.912974 0.277108
O O8 0.180297 0.580116 0.039834
O O9 0.644100 0.572679 0.434751
O O10 0.660489 0.576618 0.296982
O O11 0.428797 0.049269 0.146172
O O12 0.258430 0.481199 0.863844
O O13 0.715165 0.124613 0.570791
O O14 0.783539 0.986563 0.381976
O O15 0.486409 0.824388 0.351700
O O16 0.002924 0.975045 0.390897
#
# Coordination Sequence:
#
# PCOD9073913 Si02
#       8
#     2   2   2   2   2   2   2   2
#     4  10  18  31  60  83  99 136 181 234 251 306
#     4  10  18  36  54  86 106 139 182 223 269 314
#     4  12  19  36  58  84 106 136 184 227 275 313
#     4  10  23  32  54  81 117 142 169 218 280 329
#     4   9  18  34  55  84 103 144 181 221 263 314
#     4  11  20  32  59  85 104 136 183 235 267 303
#     4  11  22  36  50  79 118 147 167 217 276 329
#     4   9  16  33  60  81 101 138 184 231 254 306
#
# _framework density 17.853686
#
# number of rings (size 3 to 8) (size 9 to 14) (size 15 to 20)
#    0.750    1.000    3.750    1.875    0.000    1.500 
#    0.000    0.625    0.000    3.000    0.000    0.000 
#    0.000    0.000    0.000    0.000    0.000    0.000 
#
# Total GULP energy -89070.109052 kJ/mol
# GULP energy per Si atom -5566.881816 kJ/mol
# Density = 1.781305 g / cm^3
# Si number density = 17.853686 Si / 1000 Ang^3
#
#
#
# Elastic Constant Matrix: (Units=GPa)
#
#
# Indices 1 2 3 4 5 6 
#
# 1 32.4910 12.7425 12.1359 -14.0359 -7.4396 -1.3459
# 2 12.7425 70.7874 13.1156 -8.9613 -4.6429 4.9833
# 3 12.1359 13.1156 61.1358 -4.6547 2.4379 -2.0069
# 4 -14.0359 -8.9613 -4.6547 26.6933 -1.0450 0.4982
# 5 -7.4396 -4.6429 2.4379 -1.0450 31.0187 -6.6547
# 6 -1.3459 4.9833 -2.0069 0.4982 -6.6547 15.2339
#
#
#
# Elastic Compliance Matrix: (Units=1/GPa)
#
#
# Indices 1 2 3 4 5 6 
#
# 1 0.049156 -0.004289 -0.007292 0.023518 0.014758 0.010463
# 2 -0.004289 0.016190 -0.002616 0.002851 0.000425 -0.005927
# 3 -0.007292 -0.002616 0.018414 -0.001657 -0.003383 0.001214
# 4 0.023518 0.002851 -0.001657 0.050776 0.008552 0.003002
# 5 0.014758 0.000425 -0.003383 0.008552 0.040263 0.018028
# 6 0.010463 -0.005927 0.001214 0.003002 0.018028 0.076443
#
#
# Mechanical properties :
#
#
# Convention : Reuss Voigt Hill
#
# Bulk Modulus (GPa) = 18.06186 26.71137 22.38662
# Shear Modulus (GPa) = 16.77335 23.01720 19.89528
#
# Velocity S-wave (km/s) = 3.06843 3.59446 3.34181
# Velocity P-wave (km/s) = 4.76364 5.67632 5.23989
#
# Compressibility (1/GPa) = 0.05536528
#
# Stress axis : x y z
#
# Youngs Moduli (GPa) = 20.34354 61.76797 54.30518
#
# Poissons Ratio (x) = 0.26491 0.39600
# Poissons Ratio (y) = 0.08725 0.14208
# Poissons Ratio (z) = 0.14835 0.16160
#
# Static dielectric constant tensor:
#      x y z
#    x 1.647290 -0.009520 0.000050 
#    y -0.009520 1.626150 0.005720 
#    z 0.000050 0.005720 1.598240 
# 
# From -- ./inp_files/595006.got.cif
#   From: 2010.05.17/outbox.cif.g08.bks.cpg/sg2_298_cif.got.tgz:595006.got - 2010.06.03 11:33:40.
