data_PCOD9073896
_publ_section_title
;
Structure prediction by ZEFSAII (Michael W. Deem and Ramdas Pophale) SiO2 
 PCOD9073896
Probable space group: P -1
;
_chemical_formula_sum "Si O2"
_cell_formula_units_Z 16
_cell_length_a 9.000000
_cell_length_b 12.000000
_cell_length_c 12.000000
_cell_angle_alpha 130.000000
_cell_angle_beta 80.000000
_cell_angle_gamma 120.000000
_cell_volume 838.191741
_symmetry_space_group_name_H-M "P -1"
_symmetry_group_IT_number 2
_symmetry_cell_setting 'triclinic'
loop_
_space_group_symop_operation_xyz
x,y,z
-x,-y,-z
loop_
_atom_site_type_symbol
_atom_site_label
_atom_site_fract_x
_atom_site_fract_y
_atom_site_fract_z
Si Si1 0.487987 0.817409 0.902521
Si Si2 0.172757 0.664697 0.440678
Si Si3 0.224935 0.994527 0.522744
Si Si4 0.557984 0.359087 0.756924
Si Si5 0.177369 0.675020 0.711213
Si Si6 0.667484 0.462687 0.063637
Si Si7 0.003889 0.150036 0.758529
Si Si8 0.117411 0.950598 0.027960
O O1 0.362047 0.705600 0.748634
O O2 0.389354 0.699152 0.948998
O O3 0.690150 0.878396 0.896352
O O4 0.500000 0.000000 0.000000
O O5 0.289021 0.595377 0.323308
O O6 0.193780 0.701128 0.593429
O O7 0.972229 0.513803 0.358941
O O8 0.213833 0.834363 0.481537
O O9 0.415187 0.164028 0.619286
O O10 0.105385 0.053332 0.643545
O O11 0.155720 0.930671 0.363735
O O12 0.462680 0.469588 0.838647
O O13 0.627306 0.387708 0.894527
O O14 0.132132 0.802583 0.865371
O O15 0.860563 0.643549 0.147861
O O16 0.945851 0.107683 0.870935
O O17 0.000000 0.000000 0.000000
#
# Coordination Sequence:
#
# PCOD9073896 Si02
#       8
#     2   2   2   2   2   2   2   2
#     4  10  24  41  63  94 133 165 209 270 324 372
#     4  11  22  39  63  88 131 170 215 255 330 390
#     4  10  22  39  62  93 130 165 211 274 317 383
#     4  10  23  37  67  93 122 167 220 265 323 378
#     4  10  24  41  59  91 133 168 212 263 323 385
#     4  10  22  42  66  93 129 161 224 274 313 381
#     4  10  22  41  66  94 127 168 220 267 327 376
#     4  11  24  40  69  94 128 171 220 264 323 389
#
# _framework density 19.088711
#
# number of rings (size 3 to 8) (size 9 to 14) (size 15 to 20)
#    0.000    1.750    0.000    2.625   12.250    2.000 
#    0.000    5.000    0.000    0.000    0.000    0.000 
#    0.000    0.000    0.000    0.000    0.000    0.000 
#
# Total GULP energy -89115.419521 kJ/mol
# GULP energy per Si atom -5569.713720 kJ/mol
# Density = 1.904526 g / cm^3
# Si number density = 19.088711 Si / 1000 Ang^3
#
#
#
# Elastic Constant Matrix: (Units=GPa)
#
#
# Indices 1 2 3 4 5 6 
#
# 1 80.0771 35.5817 42.4286 6.3552 22.3170 18.7418
# 2 35.5817 131.5951 54.0353 0.0084 14.1242 9.4503
# 3 42.4286 54.0353 128.0694 -2.5495 16.1988 13.9359
# 4 6.3552 0.0084 -2.5495 17.4596 12.0112 -10.4635
# 5 22.3170 14.1242 16.1988 12.0112 37.0649 7.5598
# 6 18.7418 9.4503 13.9359 -10.4635 7.5598 27.5305
#
#
#
# Elastic Compliance Matrix: (Units=1/GPa)
#
#
# Indices 1 2 3 4 5 6 
#
# 1 0.022423 -0.002807 -0.004542 -0.021469 0.000660 -0.020343
# 2 -0.002807 0.009694 -0.003040 0.003122 -0.002070 0.001877
# 3 -0.004542 -0.003040 0.010953 0.007220 -0.003714 0.002355
# 4 -0.021469 0.003122 0.007220 0.161489 -0.061743 0.088221
# 5 0.000660 -0.002070 -0.003714 -0.061743 0.056517 -0.036845
# 6 -0.020343 0.001877 0.002355 0.088221 -0.036845 0.091983
#
#
# Mechanical properties :
#
#
# Convention : Reuss Voigt Hill
#
# Bulk Modulus (GPa) = 44.85923 67.09254 55.97588
# Shear Modulus (GPa) = 13.11420 30.25741 21.68581
#
# Velocity S-wave (km/s) = 2.62394 3.98564 3.37420
# Velocity P-wave (km/s) = 5.72114 7.51030 6.67593
#
# Compressibility (1/GPa) = 0.02229196
#
# Stress axis : x y z
#
# Youngs Moduli (GPa) = 44.59802 103.16164 91.30005
#
# Poissons Ratio (x) = 0.28952 0.41464
# Poissons Ratio (y) = 0.12516 0.27759
# Poissons Ratio (z) = 0.20254 0.31366
#
# Static dielectric constant tensor:
#      x y z
#    x 1.746740 0.000050 0.022830 
#    y 0.000050 1.659980 0.015630 
#    z 0.022830 0.015630 1.651790 
# 
# From -- ./inp_files/391350.got.cif
#   From: 2010.05.17/outbox.ucp.g08.bks.cvg/sg2_196_cif.got.tgz:391350.got - 2010.06.11 11:32:03.
