data_PCOD9073476
_publ_section_title
;
Structure prediction by ZEFSAII (Michael W. Deem and Ramdas Pophale) SiO2 
 PCOD9073476
Probable space group: P -1
;
_chemical_formula_sum "Si O2"
_cell_formula_units_Z 16
_cell_length_a 21.000000
_cell_length_b 12.000000
_cell_length_c 18.000000
_cell_angle_alpha 30.000000
_cell_angle_beta 20.000000
_cell_angle_gamma 30.000000
_cell_volume 738.640068
_symmetry_space_group_name_H-M "P -1"
_symmetry_group_IT_number 2
_symmetry_cell_setting 'triclinic'
loop_
_space_group_symop_operation_xyz
x,y,z
-x,-y,-z
loop_
_atom_site_type_symbol
_atom_site_label
_atom_site_fract_x
_atom_site_fract_y
_atom_site_fract_z
Si Si1 0.971231 0.634185 0.762046
Si Si2 0.806709 0.411879 0.196910
Si Si3 0.870627 0.428833 0.763299
Si Si4 0.986771 0.872169 0.351493
Si Si5 0.421786 0.709280 0.739497
Si Si6 0.428440 0.529106 0.441835
Si Si7 0.201820 0.228613 0.636784
Si Si8 0.173366 0.979836 0.406171
O O1 0.065507 0.398211 0.749370
O O2 0.114377 0.789810 0.530067
O O3 0.808559 0.810369 0.786244
O O4 0.914508 0.562096 0.945748
O O5 0.621268 0.440282 0.330671
O O6 0.735746 0.510536 0.299726
O O7 0.911216 0.135124 0.251263
O O8 0.859518 0.689249 0.598834
O O9 0.854943 0.271552 0.799525
O O10 0.078500 0.306371 0.650382
O O11 0.700159 0.439690 0.001836
O O12 0.994846 0.912387 0.408953
O O13 0.529325 0.602552 0.606826
O O14 0.585299 0.733573 0.605221
O O15 0.259400 0.955112 0.753029
O O16 0.360462 0.810854 0.341129
#
# Coordination Sequence:
#
# PCOD9073476 Si02
#       8
#     2   2   2   2   2   2   2   2
#     4  11  21  41  65  92 120 172 209 261 324 369
#     4  10  22  39  63  91 126 170 209 264 323 370
#     4  11  22  42  68  88 132 174 209 263 322 372
#     4  10  22  41  63  93 124 170 216 257 313 388
#     4  11  23  40  65 100 127 170 210 263 327 371
#     4  10  21  40  57  94 131 154 215 264 308 388
#     4  11  22  40  67  98 128 161 218 268 300 396
#     4  10  22  40  65  89 128 162 211 266 307 388
#
# _framework density 21.661429999999999
#
# number of rings (size 3 to 8) (size 9 to 14) (size 15 to 20)
#    0.000    1.500    2.500    2.625    0.000    2.500 
#    9.000    2.500    2.750    0.000    0.000    0.000 
#    0.000    0.000    0.000    0.000    0.000    0.000 
#
# Total GULP energy -89168.284188 kJ/mol
# GULP energy per Si atom -5573.017762 kJ/mol
# Density = 2.161213 g / cm^3
# Si number density = 21.661430 Si / 1000 Ang^3
#
#
#
# Elastic Constant Matrix: (Units=GPa)
#
#
# Indices 1 2 3 4 5 6 
#
# 1 81.6704 7.7775 17.4089 2.5900 20.4384 5.6488
# 2 7.7775 92.5876 25.1543 -13.9786 28.1415 7.9175
# 3 17.4089 25.1543 66.5594 -15.4692 32.6751 -14.3953
# 4 2.5900 -13.9786 -15.4692 17.5797 -2.1003 10.9470
# 5 20.4384 28.1415 32.6751 -2.1003 30.6748 -1.1806
# 6 5.6488 7.9175 -14.3953 10.9470 -1.1806 49.0227
#
#
#
# Elastic Compliance Matrix: (Units=1/GPa)
#
#
# Indices 1 2 3 4 5 6 
#
# 1 0.015528 0.003532 0.002658 0.002480 -0.016345 -0.002527
# 2 0.003532 0.022972 0.013243 0.029970 -0.035782 -0.007783
# 3 0.002658 0.013243 0.054952 0.049663 -0.069019 0.000939
# 4 0.002480 0.029970 0.049663 0.128257 -0.074074 -0.020967
# 5 -0.016345 -0.035782 -0.069019 -0.074074 0.145051 0.007430
# 6 -0.002527 -0.007783 0.000939 -0.020967 0.007430 0.027084
#
#
# Mechanical properties :
#
#
# Convention : Reuss Voigt Hill
#
# Bulk Modulus (GPa) = 7.55760 37.94432 22.75096
# Shear Modulus (GPa) = 12.52865 32.15386 22.34125
#
# Velocity S-wave (km/s) = 2.40757 3.85695 3.21500
# Velocity P-wave (km/s) = 3.35039 6.11472 4.93026
#
# Compressibility (1/GPa) = 0.13231713
#
# Stress axis : x y z
#
# Youngs Moduli (GPa) = 64.39995 43.53087 18.19762
#
# Poissons Ratio (x) = -0.15375 -0.04836
# Poissons Ratio (y) = -0.22746 -0.24099
# Poissons Ratio (z) = -0.17115 -0.57647
#
# Static dielectric constant tensor:
#      x y z
#    x 1.859230 -0.015340 -0.017190 
#    y -0.015340 1.792140 0.025510 
#    z -0.017190 0.025510 1.855220 
# 
# From -- ./inp_files/467067.got.cif
#   From: 2010.05.17/outbox.ucp.g08.bks.cvg/sg2_234_cif.got.tgz:467067.got - 2010.06.11 11:32:03.
