data_PCOD9073015
_publ_section_title
;
Structure prediction by ZEFSAII (Michael W. Deem and Ramdas Pophale) SiO2 
 PCOD9073015
Probable space group: P -1
;
_chemical_formula_sum "Si O2"
_cell_formula_units_Z 16
_cell_length_a 15.000000
_cell_length_b 12.000000
_cell_length_c 9.000000
_cell_angle_alpha 140.000000
_cell_angle_beta 50.000000
_cell_angle_gamma 130.000000
_cell_volume 759.581896
_symmetry_space_group_name_H-M "P -1"
_symmetry_group_IT_number 2
_symmetry_cell_setting 'triclinic'
loop_
_space_group_symop_operation_xyz
x,y,z
-x,-y,-z
loop_
_atom_site_type_symbol
_atom_site_label
_atom_site_fract_x
_atom_site_fract_y
_atom_site_fract_z
Si Si1 0.587966 0.427606 0.935603
Si Si2 0.207149 0.368340 0.847159
Si Si3 0.728890 0.281383 0.070962
Si Si4 0.486249 0.132875 0.983081
Si Si5 0.160598 0.052976 0.018195
Si Si6 0.651474 0.164824 0.360521
Si Si7 0.961731 0.687784 0.761493
Si Si8 0.791340 0.948342 0.695086
O O1 0.510475 0.298578 0.013274
O O2 0.643733 0.301044 0.639685
O O3 0.500000 0.500000 0.000000
O O4 0.685497 0.575624 0.084589
O O5 0.191659 0.184645 0.585639
O O6 0.228160 0.527821 0.864965
O O7 0.091289 0.348031 0.052725
O O8 0.596285 0.182155 0.034130
O O9 0.816113 0.154804 0.822516
O O10 0.718164 0.280708 0.262123
O O11 0.473844 0.957472 0.710436
O O12 0.354627 0.109814 0.172856
O O13 0.285826 0.990161 0.814291
O O14 0.073433 0.873863 0.846318
O O15 0.132893 0.233740 0.160685
O O16 0.144778 0.060364 0.222952
O O17 0.000000 0.500000 0.500000
#
# Coordination Sequence:
#
# PCOD9073015 Si02
#       8
#     2   2   2   2   2   2   2   2
#     4  11  25  33  56  98 128 168 211 252 300 366
#     4  11  26  38  62  92 124 164 203 260 311 366
#     4   9  21  39  60  90 126 167 208 250 296 369
#     4   9  20  37  58  85 122 174 205 250 300 358
#     4   9  23  44  68  93 119 163 207 262 314 371
#     4  10  20  40  63  86 128 165 209 256 307 362
#     4  11  24  45  69  94 122 158 204 264 325 373
#     4  10  22  41  64  88 126 165 210 251 306 364
#
# _framework density 21.064219999999999
#
# number of rings (size 3 to 8) (size 9 to 14) (size 15 to 20)
#    0.000    2.250    0.000    2.625    8.750    7.500 
#    0.000    4.375    0.000    0.000    0.000    0.000 
#    0.000    0.000    0.000    0.000    0.000    0.000 
#
# Total GULP energy -89083.308526 kJ/mol
# GULP energy per Si atom -5567.706783 kJ/mol
# Density = 2.101628 g / cm^3
# Si number density = 21.064220 Si / 1000 Ang^3
#
#
#
# Elastic Constant Matrix: (Units=GPa)
#
#
# Indices 1 2 3 4 5 6 
#
# 1 87.5332 14.1698 27.4782 6.8583 -8.2280 -36.1284
# 2 14.1698 46.0744 -4.9492 1.9355 -15.8252 -22.3525
# 3 27.4782 -4.9492 129.3744 10.1547 -4.4462 -8.3072
# 4 6.8583 1.9355 10.1547 25.2668 -5.4559 0.2255
# 5 -8.2280 -15.8252 -4.4462 -5.4559 28.1875 10.6862
# 6 -36.1284 -22.3525 -8.3072 0.2255 10.6862 32.4571
#
#
#
# Elastic Compliance Matrix: (Units=1/GPa)
#
#
# Indices 1 2 3 4 5 6 
#
# 1 0.025122 0.007625 -0.002408 -0.007369 -0.002937 0.033616
# 2 0.007625 0.039725 0.002714 -0.003947 0.011803 0.032681
# 3 -0.002408 0.002714 0.008671 -0.002774 0.001269 0.001009
# 4 -0.007369 -0.003947 -0.002774 0.045222 0.009686 -0.015134
# 5 -0.002937 0.011803 0.001269 0.009686 0.047283 -0.010450
# 6 0.033616 0.032681 0.001009 -0.015134 -0.010450 0.094540
#
#
# Mechanical properties :
#
#
# Convention : Reuss Voigt Hill
#
# Bulk Modulus (GPa) = 11.18819 37.37550 24.28184
# Shear Modulus (GPa) = 18.21535 32.26785 25.24160
#
# Velocity S-wave (km/s) = 2.94386 3.91817 3.46543
# Velocity P-wave (km/s) = 4.10829 6.18478 5.25022
#
# Compressibility (1/GPa) = 0.08937998
#
# Stress axis : x y z
#
# Youngs Moduli (GPa) = 39.80580 25.17286 115.32759
#
# Poissons Ratio (x) = -0.19194 0.27771
# Poissons Ratio (y) = -0.30351 -0.31301
# Poissons Ratio (z) = 0.09585 -0.06832
#
# Static dielectric constant tensor:
#      x y z
#    x 1.813670 0.040180 -0.021000 
#    y 0.040180 1.862990 0.016500 
#    z -0.021000 0.016500 1.766660 
# 
# From -- ./inp_files/308686.got.cif
#   From: 2010.05.17/outbox.ucp.g08.bks.cvg/sg2_155_cif.got.tgz:308686.got - 2010.06.11 11:32:03.
