data_PCOD9073991
_publ_section_title
;
Structure prediction by ZEFSAII (Michael W. Deem and Ramdas Pophale) SiO2 
 PCOD9073991
Probable space group: P -1
;
_chemical_formula_sum "Si O2"
_cell_formula_units_Z 16
_cell_length_a 24.000000
_cell_length_b 9.000000
_cell_length_c 9.000000
_cell_angle_alpha 50.000000
_cell_angle_beta 130.000000
_cell_angle_gamma 150.000000
_cell_volume 725.531033
_symmetry_space_group_name_H-M "P -1"
_symmetry_group_IT_number 2
_symmetry_cell_setting 'triclinic'
loop_
_space_group_symop_operation_xyz
x,y,z
-x,-y,-z
loop_
_atom_site_type_symbol
_atom_site_label
_atom_site_fract_x
_atom_site_fract_y
_atom_site_fract_z
Si Si1 0.714626 0.004521 0.443829
Si Si2 0.730358 0.908138 0.838721
Si Si3 0.811225 0.395524 0.896303
Si Si4 0.549859 0.909562 0.854599
Si Si5 0.483236 0.539581 0.707539
Si Si6 0.328526 0.637311 0.785483
Si Si7 0.886712 0.843046 0.492036
Si Si8 0.097580 0.690039 0.667424
O O1 0.683633 0.170920 0.289886
O O2 0.787070 0.105037 0.358741
O O3 0.781960 0.069565 0.663651
O O4 0.604695 0.642970 0.459631
O O5 0.607305 0.757758 0.715318
O O6 0.787279 0.152326 0.910443
O O7 0.708203 0.633951 0.009678
O O8 0.868649 0.681602 0.714130
O O9 0.686469 0.214623 0.860522
O O10 0.899970 0.493065 0.105468
O O11 0.490992 0.735504 0.707040
O O12 0.459812 0.871910 0.803162
O O13 0.543846 0.702976 0.078737
O O14 0.231426 0.435241 0.621294
O O15 0.899485 0.098099 0.380186
O O16 0.000000 0.000000 0.500000
O O17 0.000000 0.500000 0.500000
#
# Coordination Sequence:
#
# PCOD9073991 Si02
#       8
#     2   2   2   2   2   2   2   2
#     4  12  23  42  65 105 145 177 230 285 337 399
#     4  10  22  40  69 101 139 184 226 271 345 408
#     4  11  23  48  74 102 136 185 231 282 348 418
#     4   9  19  40  69 100 142 189 223 271 345 418
#     4   9  18  37  63  96 143 180 218 277 326 402
#     4  11  23  42  69 105 142 186 229 276 340 416
#     4  12  27  48  75 101 132 183 240 286 342 416
#     4  12  28  48  73 101 136 176 232 300 344 400
#
# _framework density 22.052813
#
# number of rings (size 3 to 8) (size 9 to 14) (size 15 to 20)
#    0.000    1.250    3.750    2.625    0.000    5.500 
#    4.500    0.000    0.000    0.000    0.000    0.000 
#    0.000    0.000    0.000    0.000    0.000    0.000 
#
# Total GULP energy -89363.623930 kJ/mol
# GULP energy per Si atom -5585.226496 kJ/mol
# Density = 2.200262 g / cm^3
# Si number density = 22.052813 Si / 1000 Ang^3
#
#
#
# Elastic Constant Matrix: (Units=GPa)
#
#
# Indices 1 2 3 4 5 6 
#
# 1 122.2361 2.0440 25.3198 -6.1835 22.9228 5.7634
# 2 2.0440 40.5778 0.1635 14.3121 13.3137 4.9157
# 3 25.3198 0.1635 88.2830 -0.3838 15.2380 8.9685
# 4 -6.1835 14.3121 -0.3838 45.4172 -0.2232 -5.9242
# 5 22.9228 13.3137 15.2380 -0.2232 30.9234 -1.6343
# 6 5.7634 4.9157 8.9685 -5.9242 -1.6343 29.8465
#
#
#
# Elastic Compliance Matrix: (Units=1/GPa)
#
#
# Indices 1 2 3 4 5 6 
#
# 1 0.010009 0.002257 -0.001281 0.000303 -0.007879 -0.002291
# 2 0.002257 0.037103 0.003881 -0.012937 -0.020255 -0.011390
# 3 -0.001281 0.003881 0.013542 -0.002010 -0.007688 -0.005281
# 4 0.000303 -0.012937 -0.002010 0.027258 0.006980 0.008469
# 5 -0.007879 -0.020255 -0.007688 0.006980 0.051338 0.011364
# 6 -0.002291 -0.011390 -0.005281 0.008469 0.011364 0.039713
#
#
# Mechanical properties :
#
#
# Convention : Reuss Voigt Hill
#
# Bulk Modulus (GPa) = 14.21094 34.01681 24.11388
# Shear Modulus (GPa) = 25.94608 36.14204 31.04406
#
# Velocity S-wave (km/s) = 3.43380 4.05271 3.75602
# Velocity P-wave (km/s) = 4.70949 6.11211 5.45606
#
# Compressibility (1/GPa) = 0.07036832
#
# Stress axis : x y z
#
# Youngs Moduli (GPa) = 99.90634 26.95177 73.84349
#
# Poissons Ratio (x) = -0.06082 0.09459
# Poissons Ratio (y) = -0.22545 -0.28659
# Poissons Ratio (z) = 0.12797 -0.10460
#
# Static dielectric constant tensor:
#      x y z
#    x 1.872930 0.017280 -0.082510 
#    y 0.017280 1.822960 0.019570 
#    z -0.082510 0.019570 1.856940 
# 
# From -- ./inp_files/352050.got.cif
#   From: 2010.05.17/outbox.ucp.g08.bks.cvg/sg2_177_cif.got.tgz:352050.got - 2010.06.11 11:32:03.
