data_PCOD9073475
_publ_section_title
;
Structure prediction by ZEFSAII (Michael W. Deem and Ramdas Pophale) SiO2 
 PCOD9073475
Probable space group: P -1
;
_chemical_formula_sum "Si O2"
_cell_formula_units_Z 14
_cell_length_a 22.024272
_cell_length_b 8.332784
_cell_length_c 6.956098
_cell_angle_alpha 123.217331
_cell_angle_beta 125.399931
_cell_angle_gamma 34.642811
_cell_volume 584.505429
_symmetry_space_group_name_H-M "P -1"
_symmetry_group_IT_number 2
_symmetry_cell_setting 'triclinic'
loop_
_space_group_symop_operation_xyz
x,y,z
-x,-y,-z
loop_
_atom_site_type_symbol
_atom_site_label
_atom_site_fract_x
_atom_site_fract_y
_atom_site_fract_z
Si Si1 0.514269 0.268449 0.112258
Si Si2 0.317583 0.391948 0.943028
Si Si3 0.017478 0.273212 0.656627
Si Si4 0.450961 0.375313 0.618495
Si Si5 0.324348 0.275031 0.438665
Si Si6 0.114498 0.461730 0.043637
Si Si7 0.073874 0.889085 0.840595
O O1 0.557509 0.395908 0.328791
O O2 0.612798 0.926443 0.073771
O O3 0.407768 0.391728 0.114446
O O4 0.470703 0.359052 0.873438
O O5 0.290059 0.401143 0.672897
O O6 0.198364 0.654116 0.991942
O O7 0.965000 0.250210 0.376653
O O8 0.093431 0.312109 0.782393
O O9 0.920857 0.526469 0.792812
O O10 0.081702 0.995066 0.722182
O O11 0.352240 0.410561 0.453964
O O12 0.561686 0.058974 0.541570
O O13 0.236031 0.312152 0.192922
O O14 0.027476 0.795950 0.046876
#
# Coordination Sequence:
#
# PCOD9073475 Si02
#       7
#     2   2   2   2   2   2   2
#     4   9  20  35  49  77  98 136 170 205 253 309
#     4  10  18  31  55  76 103 125 170 215 255 291
#     4   8  15  25  43  74 107 124 159 209 259 297
#     4   9  20  35  51  69 105 136 169 201 253 308
#     4  10  18  32  54  75  99 133 168 213 246 302
#     4   9  16  27  47  77 104 126 169 205 259 300
#     4   9  15  28  45  76 107 127 154 221 259 291
#
# _framework density 23.951872999999999
#
# number of rings (size 3 to 8) (size 9 to 14) (size 15 to 20)
#    0.857    2.000    1.429    0.000    2.000    0.571 
#    2.571    0.000    0.000    1.714    0.000    0.000 
#    0.000    0.000    0.000    0.000    0.000    0.000 
#
# Total GULP energy -78189.746334 kJ/mol
# GULP energy per Si atom -5584.981881 kJ/mol
# Density = 2.389736 g / cm^3
# Si number density = 23.951873 Si / 1000 Ang^3
#
#
#
# Elastic Constant Matrix: (Units=GPa)
#
#
# Indices 1 2 3 4 5 6 
#
# 1 83.6182 38.4192 58.9190 -1.6528 29.2023 1.8901
# 2 38.4192 63.6992 60.8956 -12.9096 36.1344 3.1845
# 3 58.9190 60.8956 118.9528 -0.1698 49.6126 -1.5479
# 4 -1.6528 -12.9096 -0.1698 37.1486 2.5691 10.1585
# 5 29.2023 36.1344 49.6126 2.5691 52.1137 1.1353
# 6 1.8901 3.1845 -1.5479 10.1585 1.1353 30.2828
#
#
#
# Elastic Compliance Matrix: (Units=1/GPa)
#
#
# Indices 1 2 3 4 5 6 
#
# 1 0.019191 -0.004545 -0.006695 -0.000436 -0.001188 -0.000871
# 2 -0.004545 0.046686 -0.014960 0.020246 -0.016328 -0.011570
# 3 -0.006695 -0.014960 0.022343 -0.006432 -0.006950 0.005551
# 4 -0.000436 0.020246 -0.006432 0.038662 -0.009249 -0.015053
# 5 -0.001188 -0.016328 -0.006950 -0.009249 0.038180 0.003107
# 6 -0.000871 -0.011570 0.005551 -0.015053 0.003107 0.039510
#
#
# Mechanical properties :
#
#
# Convention : Reuss Voigt Hill
#
# Bulk Modulus (GPa) = 27.91842 64.74863 46.33353
# Shear Modulus (GPa) = 18.59334 31.11143 24.85238
#
# Velocity S-wave (km/s) = 2.78920 3.60796 3.22467
# Velocity P-wave (km/s) = 4.69619 6.66693 5.76637
#
# Compressibility (1/GPa) = 0.03581864
#
# Stress axis : x y z
#
# Youngs Moduli (GPa) = 52.10781 21.41983 44.75589
#
# Poissons Ratio (x) = 0.09735 0.29966
# Poissons Ratio (y) = 0.23683 0.66957
# Poissons Ratio (z) = 0.34888 0.32045
#
# Static dielectric constant tensor:
#      x y z
#    x 2.047730 -0.000120 -0.061480 
#    y -0.000120 1.857170 0.011080 
#    z -0.061480 0.011080 1.942290 
# 
# From -- ./inp_files/342954.got.cif
#   From: 2010.05.17/outbox.cif.g08.bks.cpg/sg2_172_cif.got.tgz:342954.got - 2010.06.03 11:33:40.
