data_PCOD9073146
_publ_section_title
;
Structure prediction by ZEFSAII (Michael W. Deem and Ramdas Pophale) SiO2 
 PCOD9073146
Probable space group: P -1
;
_chemical_formula_sum "Si O2"
_cell_formula_units_Z 16
_cell_length_a 9.000000
_cell_length_b 18.000000
_cell_length_c 9.000000
_cell_angle_alpha 120.000000
_cell_angle_beta 130.000000
_cell_angle_gamma 90.000000
_cell_volume 846.172868
_symmetry_space_group_name_H-M "P -1"
_symmetry_group_IT_number 2
_symmetry_cell_setting 'triclinic'
loop_
_space_group_symop_operation_xyz
x,y,z
-x,-y,-z
loop_
_atom_site_type_symbol
_atom_site_label
_atom_site_fract_x
_atom_site_fract_y
_atom_site_fract_z
Si Si1 0.448888 0.405155 0.468219
Si Si2 0.067778 0.598831 0.545567
Si Si3 0.320705 0.463878 0.983950
Si Si4 0.578745 0.692720 0.933462
Si Si5 0.980734 0.745968 0.814038
Si Si6 0.375342 0.899368 0.415551
Si Si7 0.805033 0.898612 0.842077
Si Si8 0.051968 0.097205 0.721027
O O1 0.500000 0.500000 0.500000
O O2 0.585757 0.446307 0.747890
O O3 0.494011 0.339282 0.317410
O O4 0.189876 0.336227 0.264899
O O5 0.333791 0.660602 0.803048
O O6 0.994278 0.677771 0.628849
O O7 0.000000 0.500000 0.500000
O O8 0.921383 0.561679 0.261649
O O9 0.333764 0.374300 0.990301
O O10 0.500000 0.500000 0.000000
O O11 0.773277 0.805019 0.158439
O O12 0.867295 0.812090 0.758083
O O13 0.217483 0.813636 0.112477
O O14 0.567755 0.884993 0.612167
O O15 0.181914 0.902990 0.396246
O O16 0.500000 0.000000 0.500000
O O17 0.838220 0.904126 0.049000
O O18 0.000000 0.000000 0.000000
O O19 0.000000 0.000000 0.500000
#
# Coordination Sequence:
#
# PCOD9073146 Si02
#       8
#     2   2   2   2   2   2   2   2
#     4  10  20  43  67  90 137 173 217 288 330 394
#     4  12  25  42  68 106 138 182 232 278 343 414
#     4  11  22  42  69  95 134 182 228 278 336 404
#     4  11  24  44  64 100 143 170 224 286 340 403
#     4  11  23  42  69 101 138 177 231 280 337 404
#     4  11  23  45  73  99 134 186 231 273 346 415
#     4  11  23  44  73 101 132 181 237 276 334 418
#     4  11  26  45  67 106 143 173 221 296 345 396
#
# _framework density 18.908666
#
# number of rings (size 3 to 8) (size 9 to 14) (size 15 to 20)
#    0.000    1.000    7.500    0.750    1.750    5.000 
#    0.000    0.000    0.000    0.000    0.000    0.000 
#    0.000    0.000    0.000    0.000    0.000    0.000 
#
# Total GULP energy -89087.238586 kJ/mol
# GULP energy per Si atom -5567.952412 kJ/mol
# Density = 1.886563 g / cm^3
# Si number density = 18.908666 Si / 1000 Ang^3
#
#
#
# Elastic Constant Matrix: (Units=GPa)
#
#
# Indices 1 2 3 4 5 6 
#
# 1 58.1781 37.8467 39.0364 9.5240 15.5089 -5.1815
# 2 37.8467 125.1106 85.5362 1.8540 19.0940 6.6732
# 3 39.0364 85.5362 122.7457 2.4678 9.4477 -13.3078
# 4 9.5240 1.8540 2.4678 55.5711 -2.8080 12.8707
# 5 15.5089 19.0940 9.4477 -2.8080 51.0257 4.9781
# 6 -5.1815 6.6732 -13.3078 12.8707 4.9781 37.4166
#
#
#
# Elastic Compliance Matrix: (Units=1/GPa)
#
#
# Indices 1 2 3 4 5 6 
#
# 1 0.025832 -0.004380 -0.003929 -0.005770 -0.006368 0.005793
# 2 -0.004380 0.018588 -0.012404 0.002633 -0.002312 -0.008932
# 3 -0.003929 -0.012404 0.018924 -0.001724 0.001378 0.008808
# 4 -0.005770 0.002633 -0.001724 0.021372 0.003206 -0.009660
# 5 -0.006368 -0.002312 0.001378 0.003206 0.022720 -0.004105
# 6 0.005793 -0.008932 0.008808 -0.009660 -0.004105 0.036123
#
#
# Mechanical properties :
#
#
# Convention : Reuss Voigt Hill
#
# Bulk Modulus (GPa) = 45.62286 70.09700 57.85993
# Shear Modulus (GPa) = 26.00223 38.37702 32.18963
#
# Velocity S-wave (km/s) = 3.71232 4.51000 4.13046
# Velocity P-wave (km/s) = 6.52346 8.01698 7.30847
#
# Compressibility (1/GPa) = 0.02191883
#
# Stress axis : x y z
#
# Youngs Moduli (GPa) = 38.71149 53.79701 52.84352
#
# Poissons Ratio (x) = 0.23562 0.20762
# Poissons Ratio (y) = 0.16955 0.65547
# Poissons Ratio (z) = 0.15210 0.66729
#
# Static dielectric constant tensor:
#      x y z
#    x 1.961720 0.013080 -0.008710 
#    y 0.013080 1.640260 0.008850 
#    z -0.008710 0.008850 1.667920 
# 
# From -- ./inp_files/218406.got.cif
#   From: 2010.05.17/outbox.ucp.g08.bks.cvg/sg2_110_cif.got.tgz:218406.got - 2010.06.11 11:32:03.
