data_PCOD9073468
_publ_section_title
;
Structure prediction by ZEFSAII (Michael W. Deem and Ramdas Pophale) SiO2 
 PCOD9073468
Probable space group: P -1
;
_chemical_formula_sum "Si O2"
_cell_formula_units_Z 16
_cell_length_a 21.000000
_cell_length_b 9.000000
_cell_length_c 12.000000
_cell_angle_alpha 140.000000
_cell_angle_beta 130.000000
_cell_angle_gamma 30.000000
_cell_volume 727.418465
_symmetry_space_group_name_H-M "P -1"
_symmetry_group_IT_number 2
_symmetry_cell_setting 'triclinic'
loop_
_space_group_symop_operation_xyz
x,y,z
-x,-y,-z
loop_
_atom_site_type_symbol
_atom_site_label
_atom_site_fract_x
_atom_site_fract_y
_atom_site_fract_z
Si Si1 0.106641 0.465155 0.614538
Si Si2 0.608148 0.151643 0.723487
Si Si3 0.996415 0.809349 0.070821
Si Si4 0.674057 0.753292 0.376045
Si Si5 0.350361 0.680368 0.825476
Si Si6 0.773926 0.752068 0.157296
Si Si7 0.170951 0.273274 0.144184
Si Si8 0.619518 0.678790 0.025372
O O1 0.207129 0.324927 0.552940
O O2 0.192533 0.205029 0.664149
O O3 0.000000 0.500000 0.500000
O O4 0.043983 0.843815 0.792419
O O5 0.500599 0.320259 0.789792
O O6 0.575274 0.097287 0.539669
O O7 0.749027 0.767033 0.695587
O O8 0.622678 0.396692 0.871670
O O9 0.058697 0.644234 0.168435
O O10 0.103490 0.509399 0.932436
O O11 0.885176 0.856916 0.959566
O O12 0.713051 0.435279 0.299604
O O13 0.622415 0.777632 0.211099
O O14 0.331066 0.870181 0.802320
O O15 0.281896 0.979302 0.011920
O O16 0.733055 0.575024 0.031809
O O17 0.500000 0.000000 0.000000
#
# Coordination Sequence:
#
# PCOD9073468 Si02
#       8
#     2   2   2   2   2   2   2   2
#     4  11  24  42  59  92 136 169 208 273 324 383
#     4  12  24  40  71  95 131 176 216 263 336 382
#     4  10  21  40  66  93 127 168 224 265 321 387
#     4  11  26  42  65  98 133 165 225 268 314 394
#     4  11  21  45  64  96 132 167 216 275 317 383
#     4  10  23  40  69  96 125 172 218 264 327 388
#     4  10  21  39  68  97 123 172 219 271 324 380
#     4  11  23  45  66  95 135 174 209 267 325 386
#
# _framework density 21.995591999999998
#
# number of rings (size 3 to 8) (size 9 to 14) (size 15 to 20)
#    0.000    1.250    3.750    1.875    3.500    1.500 
#    0.000    1.250    0.000    0.000    0.000    0.000 
#    0.000    0.000    0.000    0.000    0.000    0.000 
#
# Total GULP energy -89188.914482 kJ/mol
# GULP energy per Si atom -5574.307155 kJ/mol
# Density = 2.194553 g / cm^3
# Si number density = 21.995592 Si / 1000 Ang^3
#
#
#
# Elastic Constant Matrix: (Units=GPa)
#
#
# Indices 1 2 3 4 5 6 
#
# 1 91.9002 25.0045 19.3118 -11.9344 6.8032 1.8339
# 2 25.0045 53.2874 12.6514 -4.1775 2.9797 -7.2277
# 3 19.3118 12.6514 62.0320 -5.2627 -9.9036 1.2749
# 4 -11.9344 -4.1775 -5.2627 13.8231 -7.6173 -1.6340
# 5 6.8032 2.9797 -9.9036 -7.6173 21.8436 6.8527
# 6 1.8339 -7.2277 1.2749 -1.6340 6.8527 25.8534
#
#
#
# Elastic Compliance Matrix: (Units=1/GPa)
#
#
# Indices 1 2 3 4 5 6 
#
# 1 0.014200 -0.005441 -0.002798 0.008544 -0.001515 -0.001449
# 2 -0.005441 0.023915 -0.004737 -0.002252 -0.007360 0.009114
# 3 -0.002798 -0.004737 0.022221 0.014038 0.018440 -0.006222
# 4 0.008544 -0.002252 0.014038 0.107645 0.043649 -0.006694
# 5 -0.001515 -0.007360 0.018440 0.043649 0.077296 -0.020589
# 6 -0.001449 0.009114 -0.006222 -0.006694 -0.020589 0.046671
#
#
# Mechanical properties :
#
#
# Convention : Reuss Voigt Hill
#
# Bulk Modulus (GPa) = 29.08368 35.68390 32.38379
# Shear Modulus (GPa) = 15.18081 22.32081 18.75081
#
# Velocity S-wave (km/s) = 2.62997 3.18903 2.92289
# Velocity P-wave (km/s) = 4.74062 5.46061 5.11331
#
# Compressibility (1/GPa) = 0.03438355
#
# Stress axis : x y z
#
# Youngs Moduli (GPa) = 70.42006 41.81465 45.00288
#
# Poissons Ratio (x) = 0.22751 0.12594
# Poissons Ratio (y) = 0.38315 0.21318
# Poissons Ratio (z) = 0.19707 0.19807
#
# Static dielectric constant tensor:
#      x y z
#    x 1.868460 -0.006440 -0.037750 
#    y -0.006440 1.935480 -0.130760 
#    z -0.037750 -0.130760 1.922330 
# 
# From -- ./inp_files/346493.got.cif
#   From: 2010.05.17/outbox.ucp.g08.bks.cvg/sg2_174_cif.got.tgz:346493.got - 2010.06.11 11:32:03.
