data_PCOD9073445
_publ_section_title
;
Structure prediction by ZEFSAII (Michael W. Deem and Ramdas Pophale) SiO2 
 PCOD9073445
Probable space group: P -1
;
_chemical_formula_sum "Si O2"
_cell_formula_units_Z 16
_cell_length_a 21.000000
_cell_length_b 12.000000
_cell_length_c 18.000000
_cell_angle_alpha 40.000000
_cell_angle_beta 20.000000
_cell_angle_gamma 30.000000
_cell_volume 744.844803
_symmetry_space_group_name_H-M "P -1"
_symmetry_group_IT_number 2
_symmetry_cell_setting 'triclinic'
loop_
_space_group_symop_operation_xyz
x,y,z
-x,-y,-z
loop_
_atom_site_type_symbol
_atom_site_label
_atom_site_fract_x
_atom_site_fract_y
_atom_site_fract_z
Si Si1 0.481503 0.033655 0.207569
Si Si2 0.309928 0.479450 0.754635
Si Si3 0.994678 0.854487 0.798115
Si Si4 0.238825 0.271580 0.502977
Si Si5 0.265345 0.927923 0.759136
Si Si6 0.673675 0.629972 0.927807
Si Si7 0.473184 0.574375 0.313045
Si Si8 0.690362 0.228825 0.053009
O O1 0.283312 0.178224 0.417616
O O2 0.399722 0.174234 0.148945
O O3 0.559816 0.785648 0.249296
O O4 0.740376 0.965931 0.979558
O O5 0.500000 0.500000 0.500000
O O6 0.295256 0.538871 0.826436
O O7 0.075954 0.649821 0.870330
O O8 0.216768 0.749490 0.550338
O O9 0.910631 0.063177 0.837053
O O10 0.418123 0.328321 0.277901
O O11 0.953685 0.494587 0.716332
O O12 0.296390 0.079151 0.596971
O O13 0.483124 0.651328 0.644965
O O14 0.262999 0.935655 0.846686
O O15 0.000000 0.000000 0.000000
O O16 0.498216 0.696067 0.156908
O O17 0.684749 0.432529 0.977738
#
# Coordination Sequence:
#
# PCOD9073445 Si02
#       8
#     2   2   2   2   2   2   2   2
#     4  11  25  43  64  96 129 173 216 266 319 389
#     4  10  21  39  66  93 124 162 214 267 323 374
#     4  10  22  40  67  96 126 165 218 268 323 383
#     4  11  22  40  66  97 128 169 221 264 320 382
#     4  11  19  39  68  97 134 164 216 275 323 371
#     4  11  25  45  65  93 138 172 216 263 320 389
#     4  10  22  40  65  98 127 174 209 262 332 379
#     4  10  23  40  68 100 127 171 214 271 325 379
#
# _framework density 21.480985
#
# number of rings (size 3 to 8) (size 9 to 14) (size 15 to 20)
#    0.000    1.500    2.500    3.375    3.500    4.000 
#    9.000    0.000    0.000    0.000    0.000    0.000 
#    0.000    0.000    0.000    0.000    0.000    0.000 
#
# Total GULP energy -89219.227975 kJ/mol
# GULP energy per Si atom -5576.201748 kJ/mol
# Density = 2.143209 g / cm^3
# Si number density = 21.480985 Si / 1000 Ang^3
#
#
#
# Elastic Constant Matrix: (Units=GPa)
#
#
# Indices 1 2 3 4 5 6 
#
# 1 42.7228 26.0887 23.9700 9.8003 15.8904 -6.8732
# 2 26.0887 17.5161 8.7941 1.3466 22.0833 -18.3230
# 3 23.9700 8.7941 101.6482 15.7583 20.4182 12.0613
# 4 9.8003 1.3466 15.7583 21.2419 0.6163 5.0316
# 5 15.8904 22.0833 20.4182 0.6163 39.3466 -0.4173
# 6 -6.8732 -18.3230 12.0613 5.0316 -0.4173 28.4247
#
#
#
# Elastic Compliance Matrix: (Units=1/GPa)
#
#
# Indices 1 2 3 4 5 6 
#
# 1 0.023915 0.033636 -0.004653 -0.016552 -0.025523 0.031994
# 2 0.033636 -0.088996 -0.002292 0.002143 0.037011 -0.048098
# 3 -0.004653 -0.002292 0.013743 -0.006030 -0.003950 -0.007424
# 4 -0.016552 0.002143 -0.006030 0.061395 0.007535 -0.010820
# 5 -0.025523 0.037011 -0.003950 0.007535 0.017077 0.018279
# 6 0.031994 -0.048098 -0.007424 -0.010820 0.018279 0.017246
#
#
# Mechanical properties :
#
#
# Convention : Reuss Voigt Hill
#
# Bulk Modulus (GPa) = 489.19757 31.06586 260.13172
# Shear Modulus (GPa) = -600.78285 24.67160 -288.05563
#
# Velocity S-wave (km/s) = -16.74182 3.39268 -11.59263
# Velocity P-wave (km/s) = 12.06185 5.46264 7.60421
#
# Compressibility (1/GPa) = 0.00204416
#
# Stress axis : x y z
#
# Youngs Moduli (GPa) = 41.81514 -11.23645 72.76645
#
# Poissons Ratio (x) = 0.37795 0.33857
# Poissons Ratio (y) = -1.40650 0.16676
# Poissons Ratio (z) = 0.19456 -0.02575
#
# Static dielectric constant tensor:
#      x y z
#    x 1.936940 0.035860 -0.053880 
#    y 0.035860 1.783920 0.033740 
#    z -0.053880 0.033740 1.766680 
# 
# From -- ./inp_files/428222.got.cif
#   From: 2010.05.17/outbox.ucp.g08.bks.cvg/sg2_215_cif.got.tgz:428222.got - 2010.06.11 11:32:03.
