data_PCOD9073189
_publ_section_title
;
Structure prediction by ZEFSAII (Michael W. Deem and Ramdas Pophale) SiO2 
 PCOD9073189
Probable space group: P -1
;
_chemical_formula_sum "Si O2"
_cell_formula_units_Z 14
_cell_length_a 13.461453
_cell_length_b 12.762340
_cell_length_c 9.508338
_cell_angle_alpha 35.415252
_cell_angle_beta 56.342254
_cell_angle_gamma 33.957242
_cell_volume 489.931160
_symmetry_space_group_name_H-M "P -1"
_symmetry_group_IT_number 2
_symmetry_cell_setting 'triclinic'
loop_
_space_group_symop_operation_xyz
x,y,z
-x,-y,-z
loop_
_atom_site_type_symbol
_atom_site_label
_atom_site_fract_x
_atom_site_fract_y
_atom_site_fract_z
Si Si1 0.742652 0.390391 0.367092
Si Si2 0.736944 0.645519 0.536244
Si Si3 0.279646 0.711815 0.965442
Si Si4 0.992014 0.673415 0.606424
Si Si5 0.466172 0.865829 0.273969
Si Si6 0.106703 0.168275 0.111169
Si Si7 0.367055 0.849252 0.981068
O O1 0.868036 0.418185 0.277824
O O2 0.592599 0.563157 0.427279
O O3 0.593807 0.571314 0.152852
O O4 0.890028 0.049006 0.635064
O O5 0.893066 0.457381 0.492600
O O6 0.545526 0.813097 0.421102
O O7 0.776747 0.431605 0.843347
O O8 0.686551 0.908776 0.335038
O O9 0.500000 0.500000 0.000000
O O10 0.267310 0.797237 0.042089
O O11 0.160468 0.988890 0.661984
O O12 0.951173 0.508909 0.838941
O O13 0.248832 0.065177 0.235103
O O14 0.500000 0.000000 0.000000
O O15 0.247840 0.026433 0.021387
#
# Coordination Sequence:
#
# PCOD9073189 Si02
#       7
#     2   2   2   2   2   2   2
#     4  10  17  31  59  90 116 143 182 239 294 342
#     4  10  19  36  63  87 113 149 190 239 286 337
#     4  12  27  41  54  79 121 163 195 231 284 341
#     4  10  21  38  58  88 118 143 190 245 288 337
#     4  10  13  29  55  94 124 135 168 244 304 333
#     4  10  17  29  58  93 118 141 182 243 297 334
#     4  10  19  35  59  86 113 149 193 231 284 348
#
# _framework density 28.575444000000001
#
# number of rings (size 3 to 8) (size 9 to 14) (size 15 to 20)
#    0.000    1.714    5.714    4.714    0.000    4.000 
#    0.000    0.714    0.000    6.000    0.000    0.000 
#    0.000    0.000    0.000    0.000    0.000    0.000 
#
# Total GULP energy -78312.718393 kJ/mol
# GULP energy per Si atom -5593.765599 kJ/mol
# Density = 2.851041 g / cm^3
# Si number density = 28.575444 Si / 1000 Ang^3
#
#
#
# Elastic Constant Matrix: (Units=GPa)
#
#
# Indices 1 2 3 4 5 6 
#
# 1 102.1139 -5.7705 48.8551 -8.7955 -15.2138 -3.3873
# 2 -5.7705 57.9128 53.2793 3.1541 -8.4045 -7.1304
# 3 48.8551 53.2793 263.5236 -9.4291 -35.1487 -6.2279
# 4 -8.7955 3.1541 -9.4291 34.0548 2.2752 -0.9330
# 5 -15.2138 -8.4045 -35.1487 2.2752 59.6517 -4.1852
# 6 -3.3873 -7.1304 -6.2279 -0.9330 -4.1852 27.2254
#
#
#
# Elastic Compliance Matrix: (Units=1/GPa)
#
#
# Indices 1 2 3 4 5 6 
#
# 1 0.011830 0.004076 -0.002609 0.001876 0.002147 0.002337
# 2 0.004076 0.023594 -0.005247 -0.002548 0.001767 0.005670
# 3 -0.002609 -0.005247 0.005630 0.001245 0.001859 -0.000083
# 4 0.001876 -0.002548 0.001245 0.030470 -0.000249 0.000857
# 5 0.002147 0.001767 0.001859 -0.000249 0.018950 0.004060
# 6 0.002337 0.005670 -0.000083 0.000857 0.004060 0.039141
#
#
# Mechanical properties :
#
#
# Convention : Reuss Voigt Hill
#
# Bulk Modulus (GPa) = 29.85605 68.47535 49.16570
# Shear Modulus (GPa) = 33.70615 45.99880 39.85248
#
# Velocity S-wave (km/s) = 3.43818 4.01650 3.73854
# Velocity P-wave (km/s) = 5.12175 6.74720 5.98987
#
# Compressibility (1/GPa) = 0.03349405
#
# Stress axis : x y z
#
# Youngs Moduli (GPa) = 84.52848 42.38296 177.62455
#
# Poissons Ratio (x) = -0.17274 0.46335
# Poissons Ratio (y) = -0.34452 0.93207
# Poissons Ratio (z) = 0.22050 0.22240
#
# Static dielectric constant tensor:
#      x y z
#    x 2.827250 0.638140 -0.101500 
#    y 0.638140 2.970210 -0.117930 
#    z -0.101500 -0.117930 2.272840 
# 
# From -- ./inp_files/455372.got.cif
#   From: 2010.05.17/outbox.cif.g08.bks.cpg/sg2_228_cif.got.tgz:455372.got - 2010.06.03 11:33:40.
