data_PCOD9073786
_publ_section_title
;
Structure prediction by ZEFSAII (Michael W. Deem and Ramdas Pophale) SiO2 
 PCOD9073786
Probable space group: P -1
;
_chemical_formula_sum "Si O2"
_cell_formula_units_Z 16
_cell_length_a 18.959275
_cell_length_b 9.209781
_cell_length_c 8.754867
_cell_angle_alpha 71.146366
_cell_angle_beta 97.698300
_cell_angle_gamma 142.383354
_cell_volume 863.089737
_symmetry_space_group_name_H-M "P -1"
_symmetry_group_IT_number 2
_symmetry_cell_setting 'triclinic'
loop_
_space_group_symop_operation_xyz
x,y,z
-x,-y,-z
loop_
_atom_site_type_symbol
_atom_site_label
_atom_site_fract_x
_atom_site_fract_y
_atom_site_fract_z
Si Si1 0.764831 0.761330 0.019679
Si Si2 0.160559 0.664884 0.099449
Si Si3 0.679024 0.299750 0.043086
Si Si4 0.283743 0.059282 0.270192
Si Si5 0.473972 0.750414 0.202766
Si Si6 0.314199 0.248215 0.525091
Si Si7 0.553455 0.579698 0.187485
Si Si8 0.106146 0.873016 0.816851
O O1 0.653865 0.657550 0.103999
O O2 0.877476 0.986499 0.081841
O O3 0.742312 0.543663 0.070641
O O4 0.766864 0.862132 0.829234
O O5 0.233607 0.659586 0.037595
O O6 0.027286 0.379734 0.187670
O O7 0.219776 0.829137 0.217612
O O8 0.151095 0.789243 0.932707
O O9 0.603857 0.264991 0.908919
O O10 0.585845 0.037057 0.201892
O O11 0.277310 0.057902 0.452542
O O12 0.425382 0.290861 0.211389
O O13 0.385409 0.505735 0.371004
O O14 0.532009 0.724826 0.112523
O O15 0.405203 0.353304 0.647182
O O16 0.194544 0.079808 0.639593
#
# Coordination Sequence:
#
# PCOD9073786 Si02
#       8
#     2   2   2   2   2   2   2   2
#     4  10  19  33  57  82 105 151 181 219 267 327
#     4  10  22  38  58  83 104 145 187 232 262 316
#     4  11  21  32  54  85 116 139 178 227 272 322
#     4  10  18  31  57  80 109 140 187 214 270 326
#     4  10  20  32  53  83 116 140 173 223 275 319
#     4  10  19  36  59  81 109 143 182 226 269 319
#     4  10  19  33  56  81 111 143 182 219 266 327
#     4   9  21  41  60  76 107 142 194 228 261 316
#
# _framework density 18.538049999999998
#
# number of rings (size 3 to 8) (size 9 to 14) (size 15 to 20)
#    0.000    2.000    2.500    4.125    3.500    1.000 
#    0.000    3.125   11.000    0.000    0.000    0.000 
#    0.000    0.000    0.000    0.000    0.000    0.000 
#
# Total GULP energy -89071.633329 kJ/mol
# GULP energy per Si atom -5566.977083 kJ/mol
# Density = 1.849586 g / cm^3
# Si number density = 18.538050 Si / 1000 Ang^3
#
#
#
# Elastic Constant Matrix: (Units=GPa)
#
#
# Indices 1 2 3 4 5 6 
#
# 1 76.3599 54.6199 21.1511 0.1329 0.2222 -15.2983
# 2 54.6199 172.4617 35.4516 11.3698 -1.4919 -2.9871
# 3 21.1511 35.4516 63.2922 4.4813 -8.8837 0.1520
# 4 0.1329 11.3698 4.4813 33.9333 -0.1170 1.4596
# 5 0.2222 -1.4919 -8.8837 -0.1170 8.0257 3.6862
# 6 -15.2983 -2.9871 0.1520 1.4596 3.6862 22.4706
#
#
#
# Elastic Compliance Matrix: (Units=1/GPa)
#
#
# Indices 1 2 3 4 5 6 
#
# 1 0.022667 -0.005717 -0.006997 0.001940 -0.017423 0.017451
# 2 -0.005717 0.008233 -0.002522 -0.002289 0.000079 -0.002645
# 3 -0.006997 -0.002522 0.024055 -0.001757 0.031027 -0.010238
# 4 0.001940 -0.002289 -0.001757 0.030484 -0.001668 -0.000678
# 5 -0.017423 0.000079 0.031027 -0.001668 0.178343 -0.041209
# 6 0.017451 -0.002645 -0.010238 -0.000678 -0.041209 0.062905
#
#
# Mechanical properties :
#
#
# Convention : Reuss Voigt Hill
#
# Bulk Modulus (GPa) = 40.84492 59.39545 50.12019
# Shear Modulus (GPa) = 13.68665 26.27869 19.98267
#
# Velocity S-wave (km/s) = 2.72012 3.76913 3.28674
# Velocity P-wave (km/s) = 5.65210 7.14500 6.44194
#
# Compressibility (1/GPa) = 0.02448285
#
# Stress axis : x y z
#
# Youngs Moduli (GPa) = 44.11724 121.46170 41.57217
#
# Poissons Ratio (x) = 0.69436 0.29090
# Poissons Ratio (y) = 0.25221 0.10483
# Poissons Ratio (z) = 0.30871 0.30628
#
# Static dielectric constant tensor:
#      x y z
#    x 1.635390 -0.009940 -0.011950 
#    y -0.009940 1.697310 -0.005620 
#    z -0.011950 -0.005620 1.685880 
# 
# From -- ./inp_files/258259.got.cif
#   From: 2010.05.17/outbox.cif.g08.bks.cpg/sg2_130_cif.got.tgz:258259.got - 2010.06.03 11:33:40.
