data_PCOD9073463
_publ_section_title
;
Structure prediction by ZEFSAII (Michael W. Deem and Ramdas Pophale) SiO2 
 PCOD9073463
Probable space group: P -1
;
_chemical_formula_sum "Si O2"
_cell_formula_units_Z 16
_cell_length_a 12.000000
_cell_length_b 9.000000
_cell_length_c 15.000000
_cell_angle_alpha 70.000000
_cell_angle_beta 150.000000
_cell_angle_gamma 100.000000
_cell_volume 734.803614
_symmetry_space_group_name_H-M "P -1"
_symmetry_group_IT_number 2
_symmetry_cell_setting 'triclinic'
loop_
_space_group_symop_operation_xyz
x,y,z
-x,-y,-z
loop_
_atom_site_type_symbol
_atom_site_label
_atom_site_fract_x
_atom_site_fract_y
_atom_site_fract_z
Si Si1 0.302194 0.713242 0.030036
Si Si2 0.678343 0.826349 0.916440
Si Si3 0.345349 0.646518 0.631766
Si Si4 0.338883 0.847106 0.225032
Si Si5 0.854603 0.403983 0.321546
Si Si6 0.185030 0.649199 0.317897
Si Si7 0.479913 0.243935 0.001094
Si Si8 0.160720 0.308849 0.387210
O O1 0.470808 0.529870 0.190527
O O2 0.288847 0.775497 0.109276
O O3 0.419883 0.806323 0.017736
O O4 0.051949 0.712934 0.815340
O O5 0.484149 0.772457 0.737176
O O6 0.769120 0.961160 0.899294
O O7 0.586953 0.869531 0.945647
O O8 0.908140 0.681044 0.117105
O O9 0.141390 0.647198 0.561682
O O10 0.266219 0.676773 0.468728
O O11 0.264671 0.756915 0.276044
O O12 0.612187 0.838164 0.422050
O O13 0.733156 0.596195 0.190899
O O14 0.075729 0.353806 0.421235
O O15 0.677175 0.313825 0.171007
O O16 0.261520 0.456354 0.391231
#
# Coordination Sequence:
#
# PCOD9073463 Si02
#       8
#     2   2   2   2   2   2   2   2
#     4  10  21  40  65  93 120 155 196 252 303 353
#     4  11  23  44  62  87 124 161 192 256 304 343
#     4  10  21  39  68  92 115 156 207 245 295 361
#     4  12  28  39  57  93 128 155 206 247 292 356
#     4   8  15  33  62  94 112 146 201 250 289 357
#     4  12  24  41  63  88 117 166 214 235 284 370
#     4   8  15  34  63  88 116 151 199 238 299 367
#     4  11  21  40  64  90 122 155 199 255 298 344
#
# _framework density 21.774525000000001
#
# number of rings (size 3 to 8) (size 9 to 14) (size 15 to 20)
#    0.000    1.750    3.750    2.250    0.000    5.000 
#    0.000    5.625    0.000    0.000    0.000    0.000 
#    0.000    0.000    0.000    0.000    0.000    0.000 
#
# Total GULP energy -89269.816430 kJ/mol
# GULP energy per Si atom -5579.363527 kJ/mol
# Density = 2.172497 g / cm^3
# Si number density = 21.774525 Si / 1000 Ang^3
#
#
#
# Elastic Constant Matrix: (Units=GPa)
#
#
# Indices 1 2 3 4 5 6 
#
# 1 91.5511 6.3444 60.5272 20.3172 -24.2007 18.0276
# 2 6.3444 45.9587 16.4067 4.9498 -3.4694 4.4598
# 3 60.5272 16.4067 83.4127 14.5930 -8.4164 -7.8634
# 4 20.3172 4.9498 14.5930 17.0097 -2.7365 -1.5379
# 5 -24.2007 -3.4694 -8.4164 -2.7365 39.0986 3.2053
# 6 18.0276 4.4598 -7.8634 -1.5379 3.2053 25.6611
#
#
#
# Elastic Compliance Matrix: (Units=1/GPa)
#
#
# Indices 1 2 3 4 5 6 
#
# 1 0.286401 0.097256 -0.206498 -0.196812 0.153281 -0.312325
# 2 0.097256 0.057510 -0.074760 -0.070299 0.053480 -0.112122
# 3 -0.206498 -0.074760 0.164368 0.130674 -0.108764 0.229847
# 4 -0.196812 -0.070299 0.130674 0.205112 -0.103257 0.215716
# 5 0.153281 0.053480 -0.108764 -0.103257 0.108498 -0.170048
# 6 -0.312325 -0.112122 0.229847 0.215716 -0.170048 0.382473
#
#
# Mechanical properties :
#
#
# Convention : Reuss Voigt Hill
#
# Bulk Modulus (GPa) = 7.12875 43.05324 25.09100
# Shear Modulus (GPa) = 3.08809 25.53014 14.30912
#
# Velocity S-wave (km/s) = 1.19218 3.42786 2.56627
# Velocity P-wave (km/s) = 2.27510 5.95669 4.50878
#
# Compressibility (1/GPa) = 0.14027701
#
# Stress axis : x y z
#
# Youngs Moduli (GPa) = 3.49161 17.38836 6.08392
#
# Poissons Ratio (x) = -1.69113 1.25631
# Poissons Ratio (y) = -0.33958 0.45483
# Poissons Ratio (z) = 0.72101 1.29995
#
# Static dielectric constant tensor:
#      x y z
#    x 1.807500 -0.004240 0.022610 
#    y -0.004240 1.797090 0.004260 
#    z 0.022610 0.004260 1.763830 
# 
# From -- ./inp_files/273183.got.cif
#   From: 2010.05.17/outbox.ucp.g08.bks.cvg/sg2_137_cif.got.tgz:273183.got - 2010.06.11 11:32:03.
