data_PCOD9073558
_publ_section_title
;
Structure prediction by ZEFSAII (Michael W. Deem and Ramdas Pophale) SiO2 
 PCOD9073558
Probable space group: P -1
;
_chemical_formula_sum "Si O2"
_cell_formula_units_Z 16
_cell_length_a 12.000000
_cell_length_b 12.000000
_cell_length_c 9.000000
_cell_angle_alpha 90.000000
_cell_angle_beta 120.000000
_cell_angle_gamma 130.000000
_cell_volume 752.153660
_symmetry_space_group_name_H-M "P -1"
_symmetry_group_IT_number 2
_symmetry_cell_setting 'triclinic'
loop_
_space_group_symop_operation_xyz
x,y,z
-x,-y,-z
loop_
_atom_site_type_symbol
_atom_site_label
_atom_site_fract_x
_atom_site_fract_y
_atom_site_fract_z
Si Si1 0.998498 0.296705 0.163208
Si Si2 0.275858 0.914167 0.498413
Si Si3 0.378198 0.572945 0.274488
Si Si4 0.297600 0.775186 0.223392
Si Si5 0.232093 0.130906 0.329443
Si Si6 0.195396 0.058532 0.957489
Si Si7 0.060551 0.408775 0.536381
Si Si8 0.451626 0.600637 0.974366
O O1 0.187073 0.382150 0.193490
O O2 0.071833 0.378007 0.373442
O O3 0.842090 0.097504 0.068651
O O4 0.879031 0.317905 0.004129
O O5 0.263795 0.824706 0.349004
O O6 0.111360 0.771569 0.501502
O O7 0.495405 0.052624 0.703611
O O8 0.247077 0.019730 0.416616
O O9 0.321601 0.662315 0.282647
O O10 0.583961 0.681295 0.488215
O O11 0.409073 0.595400 0.118898
O O12 0.243349 0.125611 0.158631
O O13 0.018135 0.034771 0.224801
O O14 0.364060 0.212739 0.964670
O O15 0.000000 0.500000 0.500000
O O16 0.261682 0.512407 0.753864
O O17 0.500000 0.500000 0.000000
#
# Coordination Sequence:
#
# PCOD9073558 Si02
#       8
#     2   2   2   2   2   2   2   2
#     4  12  25  41  71 103 137 176 230 281 340 403
#     4  10  21  41  69  98 135 179 221 281 340 403
#     4  11  25  44  70  97 134 182 228 277 342 412
#     4  10  21  40  68  96 134 177 224 274 340 407
#     4  10  23  45  70  97 135 177 229 280 344 407
#     4  11  26  43  71 101 136 175 230 286 338 406
#     4  12  27  44  70 101 144 180 232 283 342 403
#     4  12  29  48  70  99 143 182 228 283 348 409
#
# _framework density 21.272248999999999
#
# number of rings (size 3 to 8) (size 9 to 14) (size 15 to 20)
#    0.000    1.000    1.250    4.125   10.500    1.500 
#    0.000    0.000    0.000    0.000    0.000    0.000 
#    0.000    0.000    0.000    0.000    0.000    0.000 
#
# Total GULP energy -89529.031338 kJ/mol
# GULP energy per Si atom -5595.564459 kJ/mol
# Density = 2.122383 g / cm^3
# Si number density = 21.272249 Si / 1000 Ang^3
#
#
#
# Elastic Constant Matrix: (Units=GPa)
#
#
# Indices 1 2 3 4 5 6 
#
# 1 54.5383 28.7634 28.3358 -8.5493 22.0626 27.1798
# 2 28.7634 129.7269 18.9500 8.8445 13.3769 38.1912
# 3 28.3358 18.9500 154.2868 4.8689 31.2942 27.4619
# 4 -8.5493 8.8445 4.8689 27.7562 1.8029 7.0621
# 5 22.0626 13.3769 31.2942 1.8029 37.1594 -1.8813
# 6 27.1798 38.1912 27.4619 7.0621 -1.8813 51.2629
#
#
#
# Elastic Compliance Matrix: (Units=1/GPa)
#
#
# Indices 1 2 3 4 5 6 
#
# 1 0.054112 0.000072 0.003248 0.027625 -0.038036 -0.035686
# 2 0.000072 0.010722 0.001381 -0.001037 -0.005462 -0.008824
# 3 0.003248 0.001381 0.009346 0.001759 -0.010807 -0.008397
# 4 0.027625 -0.001037 0.001759 0.051714 -0.021169 -0.022718
# 5 -0.038036 -0.005462 -0.010807 -0.021169 0.063374 0.035268
# 6 -0.035686 -0.008824 -0.008397 -0.022718 0.035268 0.053924
#
#
# Mechanical properties :
#
#
# Convention : Reuss Voigt Hill
#
# Bulk Modulus (GPa) = 11.96416 54.51672 33.24044
# Shear Modulus (GPa) = 19.10938 40.73587 29.92263
#
# Velocity S-wave (km/s) = 3.00046 4.38079 3.75460
# Velocity P-wave (km/s) = 4.20002 7.16046 5.86994
#
# Compressibility (1/GPa) = 0.08358293
#
# Stress axis : x y z
#
# Youngs Moduli (GPa) = 18.48028 93.26223 106.99309
#
# Poissons Ratio (x) = -0.00673 -0.34751
# Poissons Ratio (y) = -0.00133 -0.14776
# Poissons Ratio (z) = -0.06002 -0.12880
#
# Static dielectric constant tensor:
#      x y z
#    x 1.815360 -0.032930 0.001520 
#    y -0.032930 1.788420 0.011640 
#    z 0.001520 0.011640 1.750070 
# 
# From -- ./inp_files/262580.got.cif
#   From: 2010.05.17/outbox.ucp.g08.bks.cvg/sg2_132_cif.got.tgz:262580.got - 2010.06.11 11:32:03.
