data_PCOD9073224
_publ_section_title
;
Structure prediction by ZEFSAII (Michael W. Deem and Ramdas Pophale) SiO2 
 PCOD9073224
Probable space group: P -1
;
_chemical_formula_sum "Si O2"
_cell_formula_units_Z 14
_cell_length_a 11.873744
_cell_length_b 12.971641
_cell_length_c 10.106216
_cell_angle_alpha 90.300922
_cell_angle_beta 52.517619
_cell_angle_gamma 135.151821
_cell_volume 564.591887
_symmetry_space_group_name_H-M "P -1"
_symmetry_group_IT_number 2
_symmetry_cell_setting 'triclinic'
loop_
_space_group_symop_operation_xyz
x,y,z
-x,-y,-z
loop_
_atom_site_type_symbol
_atom_site_label
_atom_site_fract_x
_atom_site_fract_y
_atom_site_fract_z
Si Si1 0.000207 0.315081 0.206470
Si Si2 0.792976 0.260314 0.760912
Si Si3 0.500916 0.736906 0.051910
Si Si4 0.160666 0.582171 0.743071
Si Si5 0.494645 0.628367 0.635438
Si Si6 0.095823 0.248058 0.527514
Si Si7 0.038774 0.125939 0.294470
O O1 0.905388 0.142889 0.325403
O O2 0.751496 0.246285 0.368295
O O3 0.261179 0.528611 0.121688
O O4 0.180832 0.412908 0.940844
O O5 0.907902 0.379733 0.818285
O O6 0.043555 0.335694 0.541271
O O7 0.684583 0.287215 0.747618
O O8 0.500000 0.000000 0.000000
O O9 0.712783 0.782850 0.963347
O O10 0.770759 0.979612 0.788257
O O11 0.404585 0.646182 0.580030
O O12 0.000000 0.500000 0.000000
O O13 0.675349 0.636207 0.515165
O O14 0.746615 0.864364 0.530106
O O15 0.203842 0.269352 0.311876
#
# Coordination Sequence:
#
# PCOD9073224 Si02
#       7
#     2   2   2   2   2   2   2
#     4  10  18  32  53  80 108 142 186 219 267 316
#     4   9  19  33  56  82 111 142 183 217 275 326
#     4   9  16  32  49  76 112 136 175 224 260 315
#     4   9  20  35  54  79 111 147 178 221 269 322
#     4  10  19  34  53  78 113 140 184 224 262 325
#     4  10  18  31  53  85 106 140 183 224 272 315
#     4  11  19  30  58  83 106 142 183 227 264 314
#
# _framework density 24.796672999999998
#
# number of rings (size 3 to 8) (size 9 to 14) (size 15 to 20)
#    0.000    2.286    2.857    1.286    2.000    1.143 
#    0.000    2.857    0.000    0.000    0.000   13.000 
#    0.000    0.000    0.000    0.000    0.000    0.000 
#
# Total GULP energy -78001.365530 kJ/mol
# GULP energy per Si atom -5571.526109 kJ/mol
# Density = 2.474023 g / cm^3
# Si number density = 24.796673 Si / 1000 Ang^3
#
#
#
# Elastic Constant Matrix: (Units=GPa)
#
#
# Indices 1 2 3 4 5 6 
#
# 1 183.2076 36.4008 12.7849 9.2106 -34.3903 -52.6118
# 2 36.4008 74.4189 5.2247 1.6396 -6.2867 -24.6834
# 3 12.7849 5.2247 50.6120 14.1661 -10.2459 -8.9078
# 4 9.2106 1.6396 14.1661 18.1891 -11.0862 -6.1532
# 5 -34.3903 -6.2867 -10.2459 -11.0862 35.0409 4.5159
# 6 -52.6118 -24.6834 -8.9078 -6.1532 4.5159 53.3573
#
#
#
# Elastic Compliance Matrix: (Units=1/GPa)
#
#
# Indices 1 2 3 4 5 6 
#
# 1 0.009796 -0.001168 0.000027 0.003888 0.009513 0.008767
# 2 -0.001168 0.016273 -0.000720 0.002865 0.001638 0.006448
# 3 0.000027 -0.000720 0.025566 -0.018484 0.001303 0.001719
# 4 0.003888 0.002865 -0.018484 0.085545 0.024720 0.009846
# 5 0.009513 0.001638 0.001303 0.024720 0.045161 0.009384
# 6 0.008767 0.006448 0.001719 0.009846 0.009384 0.030997
#
#
# Mechanical properties :
#
#
# Convention : Reuss Voigt Hill
#
# Bulk Modulus (GPa) = 20.87158 46.33992 33.60575
# Shear Modulus (GPa) = 21.45634 38.23934 29.84784
#
# Velocity S-wave (km/s) = 2.94477 3.93124 3.47321
# Velocity P-wave (km/s) = 4.47187 6.27174 5.44667
#
# Compressibility (1/GPa) = 0.04791205
#
# Stress axis : x y z
#
# Youngs Moduli (GPa) = 102.08033 61.45058 39.11476
#
# Poissons Ratio (x) = 0.07176 -0.00104
# Poissons Ratio (y) = 0.11921 0.02818
# Poissons Ratio (z) = -0.00271 0.04427
#
# Static dielectric constant tensor:
#      x y z
#    x 2.082610 -0.067960 -0.060350 
#    y -0.067960 1.939100 0.045650 
#    z -0.060350 0.045650 2.037110 
# 
# From -- ./inp_files/251616.got.cif
#   From: 2010.05.17/outbox.cif.g08.bks.cpg/sg2_126_cif.got.tgz:251616.got - 2010.06.03 11:33:40.
