data_PCOD9073772
_publ_section_title
;
Structure prediction by ZEFSAII (Michael W. Deem and Ramdas Pophale) SiO2 
 PCOD9073772
Probable space group: P -1
;
_chemical_formula_sum "Si O2"
_cell_formula_units_Z 14
_cell_length_a 9.000000
_cell_length_b 9.000000
_cell_length_c 24.000000
_cell_angle_alpha 140.000000
_cell_angle_beta 150.000000
_cell_angle_gamma 50.000000
_cell_volume 623.501542
_symmetry_space_group_name_H-M "P -1"
_symmetry_group_IT_number 2
_symmetry_cell_setting 'triclinic'
loop_
_space_group_symop_operation_xyz
x,y,z
-x,-y,-z
loop_
_atom_site_type_symbol
_atom_site_label
_atom_site_fract_x
_atom_site_fract_y
_atom_site_fract_z
Si Si1 0.142606 0.907104 0.462704
Si Si2 0.886152 0.375608 0.002888
Si Si3 0.423065 0.952542 0.751179
Si Si4 0.575312 0.298633 0.672743
Si Si5 0.159402 0.651697 0.676591
Si Si6 0.465445 0.545339 0.413203
Si Si7 0.403595 0.256461 0.056586
O O1 0.248227 0.642483 0.418043
O O2 0.453778 0.063372 0.595881
O O3 0.000000 0.000000 0.500000
O O4 0.866791 0.949758 0.344077
O O5 0.655966 0.558031 0.957689
O O6 0.686863 0.157394 0.901175
O O7 0.144560 0.541243 0.165642
O O8 0.087128 0.258029 0.987106
O O9 0.303355 0.863980 0.747357
O O10 0.533154 0.725049 0.686228
O O11 0.272849 0.434651 0.617575
O O12 0.634146 0.296963 0.625994
O O13 0.334729 0.646342 0.789821
O O14 0.807918 0.625671 0.559708
O O15 0.500000 0.000000 0.000000
#
# Coordination Sequence:
#
# PCOD9073772 Si02
#       7
#     2   2   2   2   2   2   2
#     4  12  27  40  70 103 139 174 231 291 340 405
#     4  10  25  43  68  98 140 180 216 291 342 394
#     4  11  24  45  68 104 137 172 238 284 335 408
#     4  10  21  46  71  97 138 180 232 275 347 412
#     4  10  21  43  72  98 131 183 231 279 335 408
#     4  11  23  44  73  99 133 185 229 282 346 402
#     4  10  24  42  67  95 137 187 224 264 349 417
#
# _framework density 22.453834000000001
#
# number of rings (size 3 to 8) (size 9 to 14) (size 15 to 20)
#    0.000    1.429    2.857    1.286    8.000    6.857 
#    0.000    1.429    0.000    0.000    0.000    0.000 
#    0.000    0.000    0.000    0.000    0.000    0.000 
#
# Total GULP energy -78126.478376 kJ/mol
# GULP energy per Si atom -5580.462741 kJ/mol
# Density = 2.240273 g / cm^3
# Si number density = 22.453834 Si / 1000 Ang^3
#
#
#
# Elastic Constant Matrix: (Units=GPa)
#
#
# Indices 1 2 3 4 5 6 
#
# 1 72.2580 41.0697 39.9256 1.7596 4.2340 -11.3593
# 2 41.0697 127.7658 38.2780 -3.1926 3.9362 -20.6546
# 3 39.9256 38.2780 122.9280 2.5597 23.1047 7.4047
# 4 1.7596 -3.1926 2.5597 39.8329 7.8362 1.5651
# 5 4.2340 3.9362 23.1047 7.8362 26.7881 10.2990
# 6 -11.3593 -20.6546 7.4047 1.5651 10.2990 42.3498
#
#
#
# Elastic Compliance Matrix: (Units=1/GPa)
#
#
# Indices 1 2 3 4 5 6 
#
# 1 0.019882 -0.004116 -0.005599 -0.001221 0.001077 0.004087
# 2 -0.004116 0.010584 -0.002017 0.001237 -0.001329 0.004688
# 3 -0.005599 -0.002017 0.012373 0.001130 -0.008845 -0.002540
# 4 -0.001221 0.001237 0.001130 0.026977 -0.009379 0.001362
# 5 0.001077 -0.001329 -0.008845 -0.009379 0.051999 -0.011112
# 6 0.004087 0.004688 -0.002540 0.001362 -0.011112 0.030092
#
#
# Mechanical properties :
#
#
# Convention : Reuss Voigt Hill
#
# Bulk Modulus (GPa) = 51.61470 62.38872 57.00171
# Shear Modulus (GPa) = 27.49831 35.37274 31.43553
#
# Velocity S-wave (km/s) = 3.50331 3.97338 3.74573
# Velocity P-wave (km/s) = 6.27704 6.99257 6.64444
#
# Compressibility (1/GPa) = 0.01937432
#
# Stress axis : x y z
#
# Youngs Moduli (GPa) = 50.29751 94.48157 80.81984
#
# Poissons Ratio (x) = 0.38893 0.45249
# Poissons Ratio (y) = 0.20705 0.16302
# Poissons Ratio (z) = 0.28160 0.19058
#
# Static dielectric constant tensor:
#      x y z
#    x 1.971450 0.038020 -0.072560 
#    y 0.038020 1.902290 0.049510 
#    z -0.072560 0.049510 1.834320 
# 
# From -- ./inp_files/606900.got.cif
#   From: 2010.05.17/outbox.ucp.g08.bks.cvg/sg2_304_cif.got.tgz:606900.got - 2010.06.11 11:32:03.
