data_PCOD9073292
_publ_section_title
;
Structure prediction by ZEFSAII (Michael W. Deem and Ramdas Pophale) SiO2 
 PCOD9073292
Probable space group: P -1
;
_chemical_formula_sum "Si O2"
_cell_formula_units_Z 14
_cell_length_a 24.000000
_cell_length_b 9.000000
_cell_length_c 12.000000
_cell_angle_alpha 30.000000
_cell_angle_beta 150.000000
_cell_angle_gamma 140.000000
_cell_volume 646.664136
_symmetry_space_group_name_H-M "P -1"
_symmetry_group_IT_number 2
_symmetry_cell_setting 'triclinic'
loop_
_space_group_symop_operation_xyz
x,y,z
-x,-y,-z
loop_
_atom_site_type_symbol
_atom_site_label
_atom_site_fract_x
_atom_site_fract_y
_atom_site_fract_z
Si Si1 0.907044 0.358561 0.601615
Si Si2 0.896693 0.344691 0.851101
Si Si3 0.524198 0.057976 0.876687
Si Si4 0.341613 0.308639 0.264069
Si Si5 0.279312 0.150583 0.778585
Si Si6 0.134520 0.663892 0.703749
Si Si7 0.261929 0.162241 0.991558
O O1 0.927971 0.262601 0.829615
O O2 0.880519 0.203872 0.534028
O O3 0.017280 0.559315 0.624651
O O4 0.794893 0.526395 0.316004
O O5 0.795359 0.566263 0.532835
O O6 0.841346 0.061614 0.003780
O O7 0.000000 0.500000 0.000000
O O8 0.405536 0.075519 0.598668
O O9 0.593535 0.378999 0.793598
O O10 0.500000 0.000000 0.000000
O O11 0.605796 0.838303 0.099621
O O12 0.348251 0.204193 0.215412
O O13 0.212406 0.379648 0.014434
O O14 0.199032 0.898734 0.743227
O O15 0.303756 0.075927 0.998528
#
# Coordination Sequence:
#
# PCOD9073292 Si02
#       7
#     2   2   2   2   2   2   2
#     4   9  19  35  55  82 112 146 184 226 270 320
#     4  11  22  35  56  84 115 152 186 218 268 329
#     4  10  22  40  61  83 107 139 185 236 278 326
#     4   9  21  39  59  81 109 146 183 227 280 325
#     4  10  22  37  55  81 111 144 182 229 279 323
#     4   9  17  36  58  78 113 146 180 230 275 321
#     4  10  21  38  56  81 116 147 181 225 272 329
#
# _framework density 21.649569
#
# number of rings (size 3 to 8) (size 9 to 14) (size 15 to 20)
#    0.000    2.286    0.000    1.714    0.000   12.000 
#    0.000   12.857    0.000    0.000    0.000    0.000 
#    0.000    0.000    0.000    0.000    0.000    0.000 
#
# Total GULP energy -78011.052955 kJ/mol
# GULP energy per Si atom -5572.218068 kJ/mol
# Density = 2.160029 g / cm^3
# Si number density = 21.649569 Si / 1000 Ang^3
#
#
#
# Elastic Constant Matrix: (Units=GPa)
#
#
# Indices 1 2 3 4 5 6 
#
# 1 163.2024 3.7431 50.9974 11.9882 -2.7446 -26.6938
# 2 3.7431 37.5344 14.3177 10.5234 1.1169 -23.2686
# 3 50.9974 14.3177 109.9374 28.3296 3.8363 -13.8731
# 4 11.9882 10.5234 28.3296 23.3077 -10.0537 -8.2075
# 5 -2.7446 1.1169 3.8363 -10.0537 29.4230 11.4007
# 6 -26.6938 -23.2686 -13.8731 -8.2075 11.4007 35.8131
#
#
#
# Elastic Compliance Matrix: (Units=1/GPa)
#
#
# Indices 1 2 3 4 5 6 
#
# 1 0.008895 0.008490 -0.002855 -0.002766 -0.004674 0.011894
# 2 0.008490 0.072824 0.005903 -0.040639 -0.039572 0.059214
# 3 -0.002855 0.005903 0.018038 -0.026985 -0.014870 0.007244
# 4 -0.002766 -0.040639 -0.026985 0.107604 0.053722 -0.031361
# 5 -0.004674 -0.039572 -0.014870 0.053722 0.073144 -0.045928
# 6 0.011894 0.059214 0.007244 -0.031361 -0.045928 0.085501
#
#
# Mechanical properties :
#
#
# Convention : Reuss Voigt Hill
#
# Bulk Modulus (GPa) = 8.14114 49.86563 29.00338
# Shear Modulus (GPa) = 13.02509 33.81650 23.42079
#
# Velocity S-wave (km/s) = 2.45548 3.95649 3.29266
# Velocity P-wave (km/s) = 3.43624 6.62985 5.28028
#
# Compressibility (1/GPa) = 0.12283299
#
# Stress axis : x y z
#
# Youngs Moduli (GPa) = 112.42532 13.73178 55.43739
#
# Poissons Ratio (x) = -0.11659 0.15827
# Poissons Ratio (y) = -0.95451 -0.32724
# Poissons Ratio (z) = 0.32097 -0.08106
#
# Static dielectric constant tensor:
#      x y z
#    x 1.786580 -0.003790 -0.021110 
#    y -0.003790 1.793070 -0.041010 
#    z -0.021110 -0.041010 1.886900 
# 
# From -- ./inp_files/26731.got.cif
#   From: 2010.05.17/outbox.ucp.g08.bks.cvg/sg2_14_cif.got.tgz:26731.got - 2010.06.11 11:32:03.
