data_PCOD9073776
_publ_section_title
;
Structure prediction by ZEFSAII (Michael W. Deem and Ramdas Pophale) SiO2 
 PCOD9073776
Probable space group: P -1
;
_chemical_formula_sum "Si O2"
_cell_formula_units_Z 16
_cell_length_a 15.000000
_cell_length_b 18.000000
_cell_length_c 24.000000
_cell_angle_alpha 20.000000
_cell_angle_beta 160.000000
_cell_angle_gamma 150.000000
_cell_volume 749.971719
_symmetry_space_group_name_H-M "P -1"
_symmetry_group_IT_number 2
_symmetry_cell_setting 'triclinic'
loop_
_space_group_symop_operation_xyz
x,y,z
-x,-y,-z
loop_
_atom_site_type_symbol
_atom_site_label
_atom_site_fract_x
_atom_site_fract_y
_atom_site_fract_z
Si Si1 0.426907 0.833341 0.334952
Si Si2 0.304256 0.503214 0.958938
Si Si3 0.474450 0.877304 0.715012
Si Si4 0.023836 0.433708 0.126279
Si Si5 0.943429 0.108625 0.183019
Si Si6 0.453287 0.056227 0.004563
Si Si7 0.575858 0.223518 0.067983
Si Si8 0.712655 0.554623 0.542285
O O1 0.681566 0.667820 0.618073
O O2 0.250900 0.659508 0.327239
O O3 0.361125 0.974859 0.253626
O O4 0.530188 0.010514 0.228155
O O5 0.397107 0.681095 0.845840
O O6 0.450209 0.564484 0.057358
O O7 0.988102 0.564680 0.728196
O O8 0.377311 0.254695 0.156181
O O9 0.197708 0.010556 0.437074
O O10 0.851431 0.259039 0.174098
O O11 0.983195 0.678193 0.956000
O O12 0.000000 0.500000 0.000000
O O13 0.674303 0.159852 0.026044
O O14 0.827726 0.944242 0.189078
O O15 0.400699 0.192747 0.933720
O O16 0.594430 0.800132 0.277142
O O17 0.500000 0.500000 0.500000
#
# Coordination Sequence:
#
# PCOD9073776 Si02
#       8
#     2   2   2   2   2   2   2   2
#     4  11  22  36  63  90 123 161 201 257 304 359
#     4  10  24  40  64  87 121 167 212 251 295 366
#     4  10  21  44  62  86 122 170 210 243 303 368
#     4  12  21  34  60  94 123 156 203 251 312 373
#     4  11  22  37  61  89 128 160 196 255 312 367
#     4  11  22  36  58  94 125 155 197 258 317 355
#     4  11  23  38  59  89 125 160 204 255 304 358
#     4  12  22  35  60  96 122 150 198 259 309 355
#
# _framework density 21.334137999999999
#
# number of rings (size 3 to 8) (size 9 to 14) (size 15 to 20)
#    0.000    1.000    6.250    1.125    1.750    0.500 
#    0.000    1.250    0.000    0.000    0.000    0.000 
#    0.000    0.000    0.000    0.000    0.000    0.000 
#
# Total GULP energy -89067.834105 kJ/mol
# GULP energy per Si atom -5566.739632 kJ/mol
# Density = 2.128558 g / cm^3
# Si number density = 21.334138 Si / 1000 Ang^3
#
#
#
# Elastic Constant Matrix: (Units=GPa)
#
#
# Indices 1 2 3 4 5 6 
#
# 1 53.9658 17.6007 -2.8497 0.9190 -4.9682 -29.0411
# 2 17.6007 106.3776 -13.2106 -8.6716 -3.4972 -32.7902
# 3 -2.8497 -13.2106 3.7007 -5.1359 0.3160 -11.7528
# 4 0.9190 -8.6716 -5.1359 29.2669 -3.2882 -6.8433
# 5 -4.9682 -3.4972 0.3160 -3.2882 20.3351 -5.5519
# 6 -29.0411 -32.7902 -11.7528 -6.8433 -5.5519 52.4968
#
#
#
# Elastic Compliance Matrix: (Units=1/GPa)
#
#
# Indices 1 2 3 4 5 6 
#
# 1 0.019123 -0.007695 -0.028378 -0.007947 0.002124 -0.001392
# 2 -0.007695 0.004143 -0.026227 -0.005622 -0.004045 -0.008701
# 3 -0.028378 -0.026227 -0.074835 -0.036918 -0.031816 -0.057012
# 4 -0.007947 -0.005622 -0.036918 0.022873 -0.002304 -0.013435
# 5 0.002124 -0.004045 -0.031816 -0.002304 0.048115 -0.003686
# 6 -0.001392 -0.008701 -0.057012 -0.013435 -0.003686 -0.002061
#
#
# Mechanical properties :
#
#
# Convention : Reuss Voigt Hill
#
# Bulk Modulus (GPa) = -5.67632 18.56944 6.44656
# Shear Modulus (GPa) = 60.07018 31.25333 45.66175
#
# Velocity S-wave (km/s) = 5.31206 3.83161 4.63137
# Velocity P-wave (km/s) = 5.91249 5.31959 5.62385
#
# Compressibility (1/GPa) = -0.17617042
#
# Stress axis : x y z
#
# Youngs Moduli (GPa) = 52.29258 241.35523 -13.36268
#
# Poissons Ratio (x) = 1.85733 -0.37921
# Poissons Ratio (y) = 0.40241 -0.35046
# Poissons Ratio (z) = 1.48398 6.33002
#
# Static dielectric constant tensor:
#      x y z
#    x 1.934220 -0.097410 0.004620 
#    y -0.097410 1.849830 -0.033390 
#    z 0.004620 -0.033390 1.732390 
# 
# From -- ./inp_files/331763.got.cif
#   From: 2010.05.17/outbox.ucp.g08.bks.cvg/sg2_166_cif.got.tgz:331763.got - 2010.06.11 11:32:03.
