data_PCOD9073462
_publ_section_title
;
Structure prediction by ZEFSAII (Michael W. Deem and Ramdas Pophale) SiO2 
 PCOD9073462
Probable space group: P -1
;
_chemical_formula_sum "Si O2"
_cell_formula_units_Z 16
_cell_length_a 18.000000
_cell_length_b 9.000000
_cell_length_c 12.000000
_cell_angle_alpha 130.000000
_cell_angle_beta 140.000000
_cell_angle_gamma 80.000000
_cell_volume 729.599496
_symmetry_space_group_name_H-M "P -1"
_symmetry_group_IT_number 2
_symmetry_cell_setting 'triclinic'
loop_
_space_group_symop_operation_xyz
x,y,z
-x,-y,-z
loop_
_atom_site_type_symbol
_atom_site_label
_atom_site_fract_x
_atom_site_fract_y
_atom_site_fract_z
Si Si1 0.567711 0.866085 0.780465
Si Si2 0.081804 0.344095 0.798611
Si Si3 0.965058 0.987221 0.708655
Si Si4 0.901742 0.230729 0.315742
Si Si5 0.363525 0.888617 0.703687
Si Si6 0.410931 0.509250 0.235805
Si Si7 0.975481 0.581349 0.893189
Si Si8 0.625148 0.648936 0.121507
O O1 0.425766 0.837289 0.644847
O O2 0.530192 0.764724 0.563425
O O3 0.582710 0.692682 0.792917
O O4 0.736162 0.133349 0.104622
O O5 0.979764 0.230136 0.516417
O O6 0.084626 0.577356 0.937941
O O7 0.243908 0.420699 0.011105
O O8 0.999309 0.147610 0.712227
O O9 0.788973 0.734925 0.379687
O O10 0.086869 0.947419 0.834614
O O11 0.985104 0.154707 0.914859
O O12 0.000000 0.500000 0.500000
O O13 0.202530 0.638717 0.443118
O O14 0.345554 0.093481 0.750653
O O15 0.500000 0.000000 0.000000
O O16 0.441149 0.519045 0.146208
O O17 0.000000 0.500000 0.000000
O O18 0.500000 0.500000 0.000000
#
# Coordination Sequence:
#
# PCOD9073462 Si02
#       8
#     2   2   2   2   2   2   2   2
#     4  11  24  40  68 102 135 168 223 286 330 384
#     4  11  20  43  74  96 123 170 233 272 320 394
#     4  11  22  44  71  94 125 177 229 270 320 398
#     4  12  26  42  63  98 136 172 216 270 338 398
#     4  12  23  40  67  99 137 169 221 275 331 396
#     4  11  23  43  70 102 127 175 228 278 333 389
#     4  10  21  39  68 100 121 163 229 273 317 378
#     4  12  26  44  65  97 140 183 216 268 343 410
#
# _framework density 21.929839999999999
#
# number of rings (size 3 to 8) (size 9 to 14) (size 15 to 20)
#    0.000    0.750    6.250    3.375    3.500    0.000 
#    2.250    1.875    0.000    0.000    0.000    0.000 
#    0.000    0.000    0.000    0.000    0.000    0.000 
#
# Total GULP energy -89377.081830 kJ/mol
# GULP energy per Si atom -5586.067614 kJ/mol
# Density = 2.187993 g / cm^3
# Si number density = 21.929840 Si / 1000 Ang^3
#
#
#
# Elastic Constant Matrix: (Units=GPa)
#
#
# Indices 1 2 3 4 5 6 
#
# 1 114.5234 15.5826 13.2090 -8.5547 -10.7777 -8.1118
# 2 15.5826 21.3628 3.8179 3.4286 -1.4808 -12.1198
# 3 13.2090 3.8179 58.1268 -23.5223 -4.3466 17.5650
# 4 -8.5547 3.4286 -23.5223 19.0153 -13.1891 5.0276
# 5 -10.7777 -1.4808 -4.3466 -13.1891 37.4008 5.2102
# 6 -8.1118 -12.1198 17.5650 5.0276 5.2102 34.3445
#
#
#
# Elastic Compliance Matrix: (Units=1/GPa)
#
#
# Indices 1 2 3 4 5 6 
#
# 1 0.009514 -0.001098 -0.006779 -0.006514 -0.001289 0.006476
# 2 -0.001098 0.022405 0.031258 0.059204 0.028043 -0.021260
# 3 -0.006779 0.031258 -0.015849 -0.053802 -0.025612 0.029296
# 4 -0.006514 0.059204 -0.053802 -0.072165 -0.040082 0.063515
# 5 -0.001289 0.028043 -0.025612 -0.040082 0.006525 0.027568
# 6 0.006476 -0.021260 0.029296 0.063515 0.027568 -0.005319
#
#
# Mechanical properties :
#
#
# Convention : Reuss Voigt Hill
#
# Bulk Modulus (GPa) = 15.91567 28.80357 22.35962
# Shear Modulus (GPa) = -61.95315 28.91233 -16.52041
#
# Velocity S-wave (km/s) = -5.32090 3.63492 -2.74766
# Velocity P-wave (km/s) = 5.52050 5.54795 0.38975
#
# Compressibility (1/GPa) = 0.06283116
#
# Stress axis : x y z
#
# Youngs Moduli (GPa) = 105.10869 44.63209 -63.09513
#
# Poissons Ratio (x) = 0.04901 -0.42773
# Poissons Ratio (y) = 0.11542 1.97221
# Poissons Ratio (z) = 0.71255 -1.39510
#
# Static dielectric constant tensor:
#      x y z
#    x 1.197710 0.289890 0.118600 
#    y 0.289890 1.587060 -0.069190 
#    z 0.118600 -0.069190 1.756680 
# 
# From -- ./inp_files/462483.got.cif
#   From: 2010.05.17/outbox.ucp.g08.bks.cvg/sg2_232_cif.got.tgz:462483.got - 2010.06.11 11:32:03.
