data_PCOD9073121
_publ_section_title
;
Structure prediction by ZEFSAII (Michael W. Deem and Ramdas Pophale) SiO2 
 PCOD9073121
Probable space group: P -1
;
_chemical_formula_sum "Si O2"
_cell_formula_units_Z 16
_cell_length_a 9.000000
_cell_length_b 15.000000
_cell_length_c 12.000000
_cell_angle_alpha 150.000000
_cell_angle_beta 70.000000
_cell_angle_gamma 100.000000
_cell_volume 734.803614
_symmetry_space_group_name_H-M "P -1"
_symmetry_group_IT_number 2
_symmetry_cell_setting 'triclinic'
loop_
_space_group_symop_operation_xyz
x,y,z
-x,-y,-z
loop_
_atom_site_type_symbol
_atom_site_label
_atom_site_fract_x
_atom_site_fract_y
_atom_site_fract_z
Si Si1 0.522496 0.864612 0.116647
Si Si2 0.884306 0.813254 0.054401
Si Si3 0.014848 0.372941 0.555299
Si Si4 0.993093 0.706607 0.270368
Si Si5 0.222707 0.953557 0.440474
Si Si6 0.847686 0.232776 0.241963
Si Si7 0.467580 0.865915 0.766711
Si Si8 0.652828 0.617759 0.612385
O O1 0.709284 0.820675 0.056749
O O2 0.408190 0.873990 0.263499
O O3 0.473007 0.064818 0.286971
O O4 0.535968 0.718795 0.852723
O O5 0.838950 0.948979 0.319226
O O6 0.964219 0.596272 0.826403
O O7 0.004641 0.859363 0.979215
O O8 0.896675 0.312859 0.431582
O O9 0.017123 0.293791 0.593064
O O10 0.187466 0.310199 0.378499
O O11 0.148827 0.776099 0.264242
O O12 0.852263 0.876857 0.441108
O O13 0.000000 0.500000 0.000000
O O14 0.724490 0.110982 0.166684
O O15 0.738570 0.408692 0.393663
O O16 0.558512 0.663947 0.569441
O O17 0.500000 0.000000 0.000000
#
# Coordination Sequence:
#
# PCOD9073121 Si02
#       8
#     2   2   2   2   2   2   2   2
#     4  11  22  43  61  97 143 173 221 282 346 406
#     4  11  22  43  69  98 141 177 228 284 344 410
#     4  11  21  43  73 100 132 181 233 286 339 410
#     4  11  25  49  71 101 135 184 241 281 334 417
#     4  11  26  44  71 100 138 186 225 283 351 401
#     4  11  22  41  71 100 132 182 229 282 345 405
#     4  10  24  39  61  98 138 176 219 283 339 404
#     4  10  20  42  66  97 136 174 221 283 341 406
#
# _framework density 21.774525000000001
#
# number of rings (size 3 to 8) (size 9 to 14) (size 15 to 20)
#    0.000    1.250    3.750    2.250    1.750    6.500 
#    4.500    0.625    0.000    0.000    0.000    0.000 
#    0.000    0.000    0.000    0.000    0.000    0.000 
#
# Total GULP energy -89200.721418 kJ/mol
# GULP energy per Si atom -5575.045089 kJ/mol
# Density = 2.172497 g / cm^3
# Si number density = 21.774525 Si / 1000 Ang^3
#
#
#
# Elastic Constant Matrix: (Units=GPa)
#
#
# Indices 1 2 3 4 5 6 
#
# 1 66.5957 22.8183 30.5164 2.1389 3.3872 29.7460
# 2 22.8183 75.8157 51.6913 -6.1539 15.4605 12.1181
# 3 30.5164 51.6913 106.0914 -6.5553 -7.8836 20.6455
# 4 2.1389 -6.1539 -6.5553 36.1780 11.2482 -16.9900
# 5 3.3872 15.4605 -7.8836 11.2482 7.4184 7.7350
# 6 29.7460 12.1181 20.6455 -16.9900 7.7350 34.8274
#
#
#
# Elastic Compliance Matrix: (Units=1/GPa)
#
#
# Indices 1 2 3 4 5 6 
#
# 1 0.022950 0.006409 -0.009553 0.001038 -0.025026 -0.010104
# 2 0.006409 0.009188 -0.001310 -0.016929 0.024782 -0.021656
# 3 -0.009553 -0.001310 0.009790 0.013716 -0.017189 0.013320
# 4 0.001038 -0.016929 0.013716 0.008442 0.046263 -0.009284
# 5 -0.025026 0.024782 -0.017189 0.046263 -0.053732 0.057444
# 6 -0.010104 -0.021656 0.013320 -0.009284 0.057444 0.019695
#
#
# Mechanical properties :
#
#
# Convention : Reuss Voigt Hill
#
# Bulk Modulus (GPa) = 30.28565 50.95054 40.61810
# Shear Modulus (GPa) = 137.93488 25.24991 81.59240
#
# Velocity S-wave (km/s) = 7.96771 3.40900 6.12804
# Velocity P-wave (km/s) = 9.92899 6.24059 8.29246
#
# Compressibility (1/GPa) = 0.03301893
#
# Stress axis : x y z
#
# Youngs Moduli (GPa) = 43.57212 108.83732 102.14409
#
# Poissons Ratio (x) = -0.69750 0.97581
# Poissons Ratio (y) = -0.27924 0.13383
# Poissons Ratio (z) = 0.41626 0.14260
#
# Static dielectric constant tensor:
#      x y z
#    x 1.889130 -0.002190 0.018970 
#    y -0.002190 1.837520 0.054140 
#    z 0.018970 0.054140 1.839620 
# 
# From -- ./inp_files/399932.got.cif
#   From: 2010.05.17/outbox.ucp.g08.bks.cvg/sg2_200_cif.got.tgz:399932.got - 2010.06.11 11:32:03.
