data_PCOD9073551
_publ_section_title
;
Structure prediction by ZEFSAII (Michael W. Deem and Ramdas Pophale) SiO2 
 PCOD9073551
Probable space group: P -1
;
_chemical_formula_sum "Si O2"
_cell_formula_units_Z 16
_cell_length_a 9.000000
_cell_length_b 15.000000
_cell_length_c 9.000000
_cell_angle_alpha 120.000000
_cell_angle_beta 120.000000
_cell_angle_gamma 100.000000
_cell_volume 751.948787
_symmetry_space_group_name_H-M "P -1"
_symmetry_group_IT_number 2
_symmetry_cell_setting 'triclinic'
loop_
_space_group_symop_operation_xyz
x,y,z
-x,-y,-z
loop_
_atom_site_type_symbol
_atom_site_label
_atom_site_fract_x
_atom_site_fract_y
_atom_site_fract_z
Si Si1 0.901625 0.058551 0.407968
Si Si2 0.400013 0.906783 0.508604
Si Si3 0.687828 0.689965 0.186008
Si Si4 0.143351 0.671339 0.979629
Si Si5 0.701195 0.498147 0.607462
Si Si6 0.421106 0.080466 0.096529
Si Si7 0.672864 0.448828 0.883451
Si Si8 0.628524 0.307634 0.181404
O O1 0.742163 0.064494 0.441267
O O2 0.082159 0.197657 0.572134
O O3 0.000000 0.000000 0.500000
O O4 0.798916 0.980386 0.142286
O O5 0.563774 0.918423 0.718991
O O6 0.500000 0.000000 0.500000
O O7 0.272485 0.774241 0.254254
O O8 0.543366 0.651180 0.226557
O O9 0.693682 0.576891 0.031521
O O10 0.576117 0.722861 0.033730
O O11 0.238200 0.702943 0.888301
O O12 0.911557 0.634227 0.835861
O O13 0.153857 0.556436 0.944591
O O14 0.500000 0.500000 0.500000
O O15 0.681291 0.431570 0.698432
O O16 0.725349 0.438833 0.421171
O O17 0.570602 0.214850 0.210318
O O18 0.500000 0.000000 0.000000
#
# Coordination Sequence:
#
# PCOD9073551 Si02
#       8
#     2   2   2   2   2   2   2   2
#     4  11  22  42  72  97 133 179 224 275 345 396
#     4  11  25  45  66  98 136 176 230 279 332 401
#     4  10  21  40  67  97 132 178 219 278 339 406
#     4  11  24  42  68  93 132 184 220 275 342 405
#     4  12  24  41  63 100 135 166 225 282 335 398
#     4  10  22  41  65  98 127 173 224 278 326 400
#     4  10  22  41  64  94 134 177 221 272 340 403
#     4  11  22  42  67  93 136 173 225 273 344 398
#
# _framework density 21.278044999999999
#
# number of rings (size 3 to 8) (size 9 to 14) (size 15 to 20)
#    0.000    1.250    2.500    3.750    1.750    2.000 
#    6.750    0.625    0.000    0.000    0.000    0.000 
#    0.000    0.000    0.000    0.000    0.000    0.000 
#
# Total GULP energy -89315.526933 kJ/mol
# GULP energy per Si atom -5582.220433 kJ/mol
# Density = 2.122962 g / cm^3
# Si number density = 21.278045 Si / 1000 Ang^3
#
#
#
# Elastic Constant Matrix: (Units=GPa)
#
#
# Indices 1 2 3 4 5 6 
#
# 1 84.5508 25.0384 49.3144 -8.0371 0.7406 13.0483
# 2 25.0384 82.3564 40.8628 -15.8722 6.9298 15.5417
# 3 49.3144 40.8628 132.4506 -25.0324 -5.8314 25.1343
# 4 -8.0371 -15.8722 -25.0324 24.3973 4.3484 -11.4423
# 5 0.7406 6.9298 -5.8314 4.3484 33.4927 -6.4722
# 6 13.0483 15.5417 25.1343 -11.4423 -6.4722 27.6808
#
#
#
# Elastic Compliance Matrix: (Units=1/GPa)
#
#
# Indices 1 2 3 4 5 6 
#
# 1 0.015671 -0.002075 -0.005207 -0.002680 -0.001025 -0.002842
# 2 -0.002075 0.016594 -0.002495 0.006308 -0.005562 -0.004766
# 3 -0.005207 -0.002495 0.012486 0.007309 0.001042 -0.004217
# 4 -0.002680 0.006308 0.007309 0.059372 -0.004883 0.014486
# 5 -0.001025 -0.005562 0.001042 -0.004883 0.033483 0.008471
# 6 -0.002842 -0.004766 -0.004217 0.014486 0.008471 0.051939
#
#
# Mechanical properties :
#
#
# Convention : Reuss Voigt Hill
#
# Bulk Modulus (GPa) = 39.68683 58.86546 49.27615
# Shear Modulus (GPa) = 22.98849 29.39031 26.18940
#
# Velocity S-wave (km/s) = 3.29049 3.72055 3.51211
# Velocity P-wave (km/s) = 5.75573 6.79570 6.29722
#
# Compressibility (1/GPa) = 0.02519728
#
# Stress axis : x y z
#
# Youngs Moduli (GPa) = 63.81017 60.26115 80.08994
#
# Poissons Ratio (x) = 0.12504 0.41704
# Poissons Ratio (y) = 0.13240 0.19985
# Poissons Ratio (z) = 0.33227 0.15037
#
# Static dielectric constant tensor:
#      x y z
#    x 1.762330 -0.035890 0.028220 
#    y -0.035890 1.824370 0.045010 
#    z 0.028220 0.045010 1.825130 
# 
# From -- ./inp_files/208851.got.cif
#   From: 2010.05.17/outbox.ucp.g08.bks.cvg/sg2_105_cif.got.tgz:208851.got - 2010.06.11 11:32:03.
