data_PCOD9073465
_publ_section_title
;
Structure prediction by ZEFSAII (Michael W. Deem and Ramdas Pophale) SiO2 
 PCOD9073465
Probable space group: P -1
;
_chemical_formula_sum "Si O2"
_cell_formula_units_Z 16
_cell_length_a 6.000000
_cell_length_b 21.000000
_cell_length_c 24.000000
_cell_angle_alpha 160.000000
_cell_angle_beta 60.000000
_cell_angle_gamma 130.000000
_cell_volume 727.173860
_symmetry_space_group_name_H-M "P -1"
_symmetry_group_IT_number 2
_symmetry_cell_setting 'triclinic'
loop_
_space_group_symop_operation_xyz
x,y,z
-x,-y,-z
loop_
_atom_site_type_symbol
_atom_site_label
_atom_site_fract_x
_atom_site_fract_y
_atom_site_fract_z
Si Si1 0.630328 0.909739 0.193753
Si Si2 0.534501 0.493636 0.924228
Si Si3 0.845270 0.062341 0.647002
Si Si4 0.678500 0.327826 0.675040
Si Si5 0.246569 0.316096 0.571324
Si Si6 0.316949 0.283356 0.074015
Si Si7 0.344445 0.322033 0.442093
Si Si8 0.601870 0.854732 0.826825
O O1 0.371925 0.905598 0.258827
O O2 0.688003 0.745648 0.087662
O O3 0.517274 0.794357 0.051982
O O4 0.960963 0.158690 0.348728
O O5 0.711030 0.393064 0.789977
O O6 0.500000 0.500000 0.000000
O O7 0.171517 0.306401 0.795399
O O8 0.648722 0.917787 0.498476
O O9 0.870463 0.884734 0.534296
O O10 0.702591 0.536193 0.811979
O O11 0.938892 0.312900 0.599899
O O12 0.499435 0.566153 0.771494
O O13 0.379806 0.281642 0.469673
O O14 0.977692 0.052038 0.941130
O O15 0.484862 0.596679 0.649457
O O16 0.465654 0.225446 0.299002
O O17 0.500000 0.000000 0.000000
#
# Coordination Sequence:
#
# PCOD9073465 Si02
#       8
#     2   2   2   2   2   2   2   2
#     4  10  21  43  62  86 130 166 204 261 316 371
#     4  11  24  39  62  95 121 163 219 261 312 370
#     4  11  23  40  63  89 126 167 206 260 315 371
#     4  10  22  42  63  85 129 170 202 261 319 369
#     4  11  22  40  65  93 123 165 216 252 311 382
#     4   9  22  40  64  93 123 165 208 255 319 372
#     4  10  21  41  66  92 126 167 209 257 313 384
#     4  10  21  39  68  94 128 166 203 259 324 373
#
# _framework density 22.002991000000002
#
# number of rings (size 3 to 8) (size 9 to 14) (size 15 to 20)
#    0.000    1.750    1.250    2.250    3.500    1.000 
#    4.500    0.625    0.000    0.000    0.000    0.000 
#    0.000    0.000    0.000    0.000    0.000    0.000 
#
# Total GULP energy -89074.186580 kJ/mol
# GULP energy per Si atom -5567.136661 kJ/mol
# Density = 2.195291 g / cm^3
# Si number density = 22.002991 Si / 1000 Ang^3
#
#
#
# Elastic Constant Matrix: (Units=GPa)
#
#
# Indices 1 2 3 4 5 6 
#
# 1 10.5491 -3.6779 17.5668 -11.2148 11.0504 -0.9080
# 2 -3.6779 87.4046 22.1787 -29.6014 9.6337 0.0693
# 3 17.5668 22.1787 134.8382 -7.6368 13.3967 5.5898
# 4 -11.2148 -29.6014 -7.6368 64.8440 2.5325 1.8122
# 5 11.0504 9.6337 13.3967 2.5325 32.5283 -9.0039
# 6 -0.9080 0.0693 5.5898 1.8122 -9.0039 26.3835
#
#
#
# Elastic Compliance Matrix: (Units=1/GPa)
#
#
# Indices 1 2 3 4 5 6 
#
# 1 2.054119 0.423344 -0.213587 0.561903 -0.836938 -0.209385
# 2 0.423344 0.101871 -0.045496 0.122543 -0.177236 -0.044962
# 3 -0.213587 -0.045496 0.030406 -0.057900 0.083194 0.018695
# 4 0.561903 0.122543 -0.057900 0.172525 -0.233439 -0.060233
# 5 -0.836938 -0.177236 0.083194 -0.233439 0.378983 0.099406
# 6 -0.209385 -0.044962 0.018695 -0.060233 0.099406 0.064915
#
#
# Mechanical properties :
#
#
# Convention : Reuss Voigt Hill
#
# Bulk Modulus (GPa) = 0.39763 33.88078 17.13921
# Shear Modulus (GPa) = 1.50939 37.86612 19.68775
#
# Velocity S-wave (km/s) = 0.82914 4.15294 2.99453
# Velocity P-wave (km/s) = 1.04773 6.19900 4.44552
#
# Compressibility (1/GPa) = 2.51491846
#
# Stress axis : x y z
#
# Youngs Moduli (GPa) = 0.48683 9.81629 32.88821
#
# Poissons Ratio (x) = -4.15567 7.02450
# Poissons Ratio (y) = -0.20610 1.49629
# Poissons Ratio (z) = 0.10398 0.44660
#
# Static dielectric constant tensor:
#      x y z
#    x 1.884290 -0.035260 0.008020 
#    y -0.035260 1.836910 -0.049810 
#    z 0.008020 -0.049810 1.836000 
# 
# From -- ./inp_files/46544.got.cif
#   From: 2010.05.17/outbox.ucp.g08.bks.cvg/sg2_24_cif.got.tgz:46544.got - 2010.06.11 11:32:03.
