data_PCOD9073928
_publ_section_title
;
Structure prediction by ZEFSAII (Michael W. Deem and Ramdas Pophale) SiO2 
 PCOD9073928
Probable space group: P -1
;
_chemical_formula_sum "Si O2"
_cell_formula_units_Z 16
_cell_length_a 12.930105
_cell_length_b 8.219348
_cell_length_c 15.524229
_cell_angle_alpha 109.768378
_cell_angle_beta 45.629876
_cell_angle_gamma 133.444898
_cell_volume 823.297298
_symmetry_space_group_name_H-M "P -1"
_symmetry_group_IT_number 2
_symmetry_cell_setting 'triclinic'
loop_
_space_group_symop_operation_xyz
x,y,z
-x,-y,-z
loop_
_atom_site_type_symbol
_atom_site_label
_atom_site_fract_x
_atom_site_fract_y
_atom_site_fract_z
Si Si1 0.740515 0.004196 0.342645
Si Si2 0.570465 0.215552 0.053563
Si Si3 0.602369 0.572798 0.808423
Si Si4 0.784396 0.900800 0.118585
Si Si5 0.809723 0.544179 0.819116
Si Si6 0.522850 0.119933 0.382708
Si Si7 0.219067 0.627397 0.370362
Si Si8 0.780409 0.286805 0.117354
O O1 0.610625 0.864511 0.477525
O O2 0.231085 0.639292 0.260977
O O3 0.964855 0.222473 0.273012
O O4 0.651260 0.106774 0.370647
O O5 0.406336 0.230679 0.167090
O O6 0.653353 0.214397 0.094099
O O7 0.739653 0.435811 0.934543
O O8 0.500000 0.000000 0.000000
O O9 0.382253 0.334026 0.876912
O O10 0.683393 0.598174 0.861144
O O11 0.728476 0.534089 0.672363
O O12 0.777793 0.089902 0.119756
O O13 0.734275 0.864242 0.242884
O O14 0.000000 0.000000 0.000000
O O15 0.372218 0.873091 0.373995
O O16 0.676737 0.314678 0.258442
O O17 0.000000 0.500000 0.500000
O O18 0.000000 0.500000 0.000000
#
# Coordination Sequence:
#
# PCOD9073928 Si02
#       8
#     2   2   2   2   2   2   2   2
#     4  10  18  31  60  90 108 149 202 260 284 346
#     4  12  23  37  58  86 123 161 195 252 317 370
#     4  10  21  38  57  85 122 157 206 257 297 355
#     4  11  21  38  61  90 119 157 207 257 301 362
#     4  10  20  34  59  88 115 153 209 249 300 352
#     4  10  18  35  55  88 118 150 206 254 294 355
#     4  10  18  35  59  87 119 155 201 259 301 340
#     4  11  22  38  57  87 126 164 191 245 321 369
#
# _framework density 19.434049000000002
#
# number of rings (size 3 to 8) (size 9 to 14) (size 15 to 20)
#    0.750    0.750    3.750    4.875    0.000    1.000 
#    0.000    0.000    0.000   11.250    0.000    0.000 
#    0.000    0.000    0.000    0.000    0.000    0.000 
#
# Total GULP energy -89136.388582 kJ/mol
# GULP energy per Si atom -5571.024286 kJ/mol
# Density = 1.938982 g / cm^3
# Si number density = 19.434049 Si / 1000 Ang^3
#
#
#
# Elastic Constant Matrix: (Units=GPa)
#
#
# Indices 1 2 3 4 5 6 
#
# 1 96.0191 26.7207 55.4489 -0.5917 -11.9330 18.7997
# 2 26.7207 57.6621 34.0239 -2.6499 -7.1798 7.9925
# 3 55.4489 34.0239 153.0716 10.1716 -10.4235 7.6336
# 4 -0.5917 -2.6499 10.1716 23.7080 8.9801 -8.2216
# 5 -11.9330 -7.1798 -10.4235 8.9801 39.8650 2.3854
# 6 18.7997 7.9925 7.6336 -8.2216 2.3854 33.0186
#
#
#
# Elastic Compliance Matrix: (Units=1/GPa)
#
#
# Indices 1 2 3 4 5 6 
#
# 1 0.015838 -0.003376 -0.004122 -0.002624 0.004137 -0.008200
# 2 -0.003376 0.021573 -0.003550 0.002623 0.001471 -0.001932
# 3 -0.004122 -0.003550 0.009308 -0.005304 0.001779 -0.000395
# 4 -0.002624 0.002623 -0.005304 0.056535 -0.015469 0.017280
# 5 0.004137 0.001471 0.001779 -0.015469 0.031090 -0.009221
# 6 -0.008200 -0.001932 -0.000395 0.017280 -0.009221 0.040483
#
#
# Mechanical properties :
#
#
# Convention : Reuss Voigt Hill
#
# Bulk Modulus (GPa) = 40.61122 59.90442 50.25782
# Shear Modulus (GPa) = 24.37484 32.02229 28.19857
#
# Velocity S-wave (km/s) = 3.54536 4.06364 3.81332
# Velocity P-wave (km/s) = 6.14017 7.27385 6.73092
#
# Compressibility (1/GPa) = 0.02462374
#
# Stress axis : x y z
#
# Youngs Moduli (GPa) = 63.14089 46.35396 107.43095
#
# Poissons Ratio (x) = 0.15650 0.44279
# Poissons Ratio (y) = 0.21317 0.38137
# Poissons Ratio (z) = 0.26024 0.16455
#
# Static dielectric constant tensor:
#      x y z
#    x 1.672120 -0.012190 0.001040 
#    y -0.012190 1.705240 0.035810 
#    z 0.001040 0.035810 1.754900 
# 
# From -- ./inp_files/514430.got.cif
#   From: 2010.05.17/outbox.cif.g08.bks.cpg/sg2_258_cif.got.tgz:514430.got - 2010.06.03 11:33:40.
