data_PCOD9073356
_publ_section_title
;
Structure prediction by ZEFSAII (Michael W. Deem and Ramdas Pophale) SiO2 
 PCOD9073356
Probable space group: P -1
;
_chemical_formula_sum "Si O2"
_cell_formula_units_Z 14
_cell_length_a 12.000000
_cell_length_b 9.000000
_cell_length_c 9.000000
_cell_angle_alpha 50.000000
_cell_angle_beta 110.000000
_cell_angle_gamma 110.000000
_cell_volume 689.539475
_symmetry_space_group_name_H-M "P -1"
_symmetry_group_IT_number 2
_symmetry_cell_setting 'triclinic'
loop_
_space_group_symop_operation_xyz
x,y,z
-x,-y,-z
loop_
_atom_site_type_symbol
_atom_site_label
_atom_site_fract_x
_atom_site_fract_y
_atom_site_fract_z
Si Si1 0.713630 0.330057 0.948370
Si Si2 0.864606 0.423211 0.690699
Si Si3 0.113770 0.158411 0.406423
Si Si4 0.649674 0.028924 0.349331
Si Si5 0.523322 0.595909 0.610880
Si Si6 0.281378 0.584708 0.666911
Si Si7 0.880854 0.610182 0.038651
O O1 0.761747 0.297207 0.827878
O O2 0.633935 0.504249 0.790312
O O3 0.637972 0.144771 0.115833
O O4 0.835597 0.411111 0.047394
O O5 0.874275 0.647382 0.610301
O O6 0.818337 0.402334 0.514514
O O7 0.994144 0.373976 0.826493
O O8 0.229402 0.061061 0.548819
O O9 0.110212 0.223724 0.190003
O O10 0.000000 0.000000 0.500000
O O11 0.675054 0.204218 0.369288
O O12 0.552202 0.834441 0.462536
O O13 0.500000 0.500000 0.500000
O O14 0.400992 0.530127 0.686388
O O15 0.222969 0.421751 0.864209
#
# Coordination Sequence:
#
# PCOD9073356 Si02
#       7
#     2   2   2   2   2   2   2
#     4  10  21  41  69  93 124 168 220 258 319 376
#     4  11  20  42  65  93 133 168 213 267 316 382
#     4  11  20  39  66  95 129 169 220 258 313 390
#     4  11  23  41  65  98 125 167 218 261 326 376
#     4  12  23  46  67  92 129 170 221 264 315 383
#     4  11  24  41  63  95 132 170 209 272 321 376
#     4  10  21  38  65  96 128 171 208 262 329 366
#
# _framework density 20.303405999999999
#
# number of rings (size 3 to 8) (size 9 to 14) (size 15 to 20)
#    0.000    1.143    4.286    5.143    0.000    2.857 
#    2.571    4.286    0.000    0.000    0.000    0.000 
#    0.000    0.000    0.000    0.000    0.000    0.000 
#
# Total GULP energy -78145.821820 kJ/mol
# GULP energy per Si atom -5581.844416 kJ/mol
# Density = 2.025719 g / cm^3
# Si number density = 20.303406 Si / 1000 Ang^3
#
#
#
# Elastic Constant Matrix: (Units=GPa)
#
#
# Indices 1 2 3 4 5 6 
#
# 1 79.1190 27.6768 44.1584 -16.0180 -26.1525 15.3550
# 2 27.6768 72.6155 38.6226 7.8076 -11.7111 0.8016
# 3 44.1584 38.6226 125.1415 -5.1411 -33.0419 7.6777
# 4 -16.0180 7.8076 -5.1411 30.9298 1.4934 3.3692
# 5 -26.1525 -11.7111 -33.0419 1.4934 39.8493 2.4253
# 6 15.3550 0.8016 7.6777 3.3692 2.4253 20.8221
#
#
#
# Elastic Compliance Matrix: (Units=1/GPa)
#
#
# Indices 1 2 3 4 5 6 
#
# 1 0.033892 -0.011671 -0.000422 0.022794 0.019455 -0.030343
# 2 -0.011671 0.021432 -0.005450 -0.013445 -0.006148 0.012683
# 3 -0.000422 -0.005450 0.012646 0.003457 0.008826 -0.005729
# 4 0.022794 -0.013445 0.003457 0.050421 0.013647 -0.027314
# 5 0.019455 -0.006148 0.008826 0.013647 0.044368 -0.024741
# 6 -0.030343 0.012683 -0.005729 -0.027314 -0.024741 0.079327
#
#
# Mechanical properties :
#
#
# Convention : Reuss Voigt Hill
#
# Bulk Modulus (GPa) = 30.41110 55.31018 42.86064
# Shear Modulus (GPa) = 17.35298 29.41478 23.38388
#
# Velocity S-wave (km/s) = 2.92667 3.81039 3.39738
# Velocity P-wave (km/s) = 5.14114 6.83079 6.04529
#
# Compressibility (1/GPa) = 0.03288273
#
# Stress axis : x y z
#
# Youngs Moduli (GPa) = 29.50559 46.65835 79.07680
#
# Poissons Ratio (x) = 0.54456 0.03341
# Poissons Ratio (y) = 0.34436 0.43098
# Poissons Ratio (z) = 0.01246 0.25429
#
# Static dielectric constant tensor:
#      x y z
#    x 1.755630 -0.005430 -0.028640 
#    y -0.005430 1.721120 0.001840 
#    z -0.028640 0.001840 1.746600 
# 
# From -- ./inp_files/178392.got.cif
#   From: 2010.05.17/outbox.ucp.g08.bks.cvg/sg2_90_cif.got.tgz:178392.got - 2010.06.11 11:32:03.
