data_PCOD9073360
_publ_section_title
;
Structure prediction by ZEFSAII (Michael W. Deem and Ramdas Pophale) SiO2 
 PCOD9073360
Probable space group: P -1
;
_chemical_formula_sum "Si O2"
_cell_formula_units_Z 16
_cell_length_a 12.000000
_cell_length_b 9.000000
_cell_length_c 15.000000
_cell_angle_alpha 120.000000
_cell_angle_beta 60.000000
_cell_angle_gamma 70.000000
_cell_volume 745.925389
_symmetry_space_group_name_H-M "P -1"
_symmetry_group_IT_number 2
_symmetry_cell_setting 'triclinic'
loop_
_space_group_symop_operation_xyz
x,y,z
-x,-y,-z
loop_
_atom_site_type_symbol
_atom_site_label
_atom_site_fract_x
_atom_site_fract_y
_atom_site_fract_z
Si Si1 0.295254 0.832874 0.164571
Si Si2 0.216052 0.283705 0.293508
Si Si3 0.959916 0.836800 0.466579
Si Si4 0.914005 0.621162 0.971784
Si Si5 0.331899 0.302126 0.610155
Si Si6 0.576964 0.366849 0.525932
Si Si7 0.003009 0.818113 0.246121
Si Si8 0.543941 0.776851 0.671211
O O1 0.121728 0.874404 0.217258
O O2 0.286675 0.013391 0.159532
O O3 0.222869 0.986395 0.334931
O O4 0.500000 0.500000 0.000000
O O5 0.383566 0.176573 0.264724
O O6 0.000000 0.500000 0.500000
O O7 0.149142 0.504288 0.315513
O O8 0.903700 0.870720 0.396942
O O9 0.000000 0.000000 0.500000
O O10 0.101112 0.496634 0.796800
O O11 0.850625 0.495122 0.929239
O O12 0.000000 0.500000 0.000000
O O13 0.706365 0.952615 0.154848
O O14 0.406467 0.413811 0.644796
O O15 0.359296 0.277093 0.482336
O O16 0.500000 0.000000 0.500000
O O17 0.500000 0.500000 0.500000
O O18 0.610287 0.517260 0.600998
O O19 0.801396 0.040945 0.331400
#
# Coordination Sequence:
#
# PCOD9073360 Si02
#       8
#     2   2   2   2   2   2   2   2
#     4  10  21  39  61  97 130 166 217 270 319 396
#     4  10  21  38  66  94 131 175 219 265 333 405
#     4   9  20  39  65  87 125 170 218 258 324 398
#     4  12  24  42  68 100 129 169 229 276 325 403
#     4  11  22  41  68  95 127 175 225 269 332 404
#     4  10  21  41  66  91 130 172 216 270 336 395
#     4  11  22  42  67  89 128 177 212 266 341 389
#     4  11  23  41  67  95 135 174 213 279 337 383
#
# _framework density 21.449866
#
# number of rings (size 3 to 8) (size 9 to 14) (size 15 to 20)
#    0.000    1.500    2.500    3.750    3.500    0.500 
#    2.250    6.875    0.000    0.000    0.000    0.000 
#    0.000    0.000    0.000    0.000    0.000    0.000 
#
# Total GULP energy -89164.996570 kJ/mol
# GULP energy per Si atom -5572.812286 kJ/mol
# Density = 2.140105 g / cm^3
# Si number density = 21.449866 Si / 1000 Ang^3
#
#
#
# Elastic Constant Matrix: (Units=GPa)
#
#
# Indices 1 2 3 4 5 6 
#
# 1 84.0108 30.6570 17.1681 0.9531 -5.3033 18.3073
# 2 30.6570 131.8835 35.1012 21.4116 -5.2409 19.8954
# 3 17.1681 35.1012 91.4645 18.3805 -12.6681 3.2359
# 4 0.9531 21.4116 18.3805 36.5515 1.6665 1.3230
# 5 -5.3033 -5.2409 -12.6681 1.6665 35.5947 8.7172
# 6 18.3073 19.8954 3.2359 1.3230 8.7172 45.7369
#
#
#
# Elastic Compliance Matrix: (Units=1/GPa)
#
#
# Indices 1 2 3 4 5 6 
#
# 1 0.014337 -0.002333 -0.001672 0.001911 0.002360 -0.005111
# 2 -0.002333 0.010027 -0.002155 -0.004671 0.001416 -0.003410
# 3 -0.001672 -0.002155 0.013912 -0.005900 0.004686 -0.000100
# 4 0.001911 -0.004671 -0.005900 0.033157 -0.004440 0.001571
# 5 0.002360 0.001416 0.004686 -0.004440 0.032477 -0.007953
# 6 -0.005111 -0.003410 -0.000100 0.001571 -0.007953 0.026871
#
#
# Mechanical properties :
#
#
# Convention : Reuss Voigt Hill
#
# Bulk Modulus (GPa) = 38.52641 52.57903 45.55272
# Shear Modulus (GPa) = 32.94780 38.53879 35.74330
#
# Velocity S-wave (km/s) = 3.92348 4.24334 4.08654
# Velocity P-wave (km/s) = 6.20686 6.96948 6.59919
#
# Compressibility (1/GPa) = 0.02595622
#
# Stress axis : x y z
#
# Youngs Moduli (GPa) = 69.74776 99.72721 71.87917
#
# Poissons Ratio (x) = 0.23269 0.12019
# Poissons Ratio (y) = 0.16274 0.15489
# Poissons Ratio (z) = 0.11663 0.21490
#
# Static dielectric constant tensor:
#      x y z
#    x 1.880050 0.057350 0.079090 
#    y 0.057350 1.835790 0.002740 
#    z 0.079090 0.002740 1.774930 
# 
# From -- ./inp_files/516083.got.cif
#   From: 2010.05.17/outbox.ucp.g08.bks.cvg/sg2_259_cif.got.tgz:516083.got - 2010.06.11 11:32:03.
