data_PCOD9073777
_publ_section_title
;
Structure prediction by ZEFSAII (Michael W. Deem and Ramdas Pophale) SiO2 
 PCOD9073777
Probable space group: P -1
;
_chemical_formula_sum "Si O2"
_cell_formula_units_Z 16
_cell_length_a 9.096292
_cell_length_b 12.175334
_cell_length_c 16.874180
_cell_angle_alpha 129.273520
_cell_angle_beta 139.057834
_cell_angle_gamma 43.473721
_cell_volume 827.516041
_symmetry_space_group_name_H-M "P -1"
_symmetry_group_IT_number 2
_symmetry_cell_setting 'triclinic'
loop_
_space_group_symop_operation_xyz
x,y,z
-x,-y,-z
loop_
_atom_site_type_symbol
_atom_site_label
_atom_site_fract_x
_atom_site_fract_y
_atom_site_fract_z
Si Si1 0.655662 0.162018 0.272552
Si Si2 0.397942 0.292548 0.082800
Si Si3 0.014897 0.621004 0.170016
Si Si4 0.475119 0.739274 0.571163
Si Si5 0.074603 0.605347 0.370054
Si Si6 0.720259 0.722724 0.427155
Si Si7 0.784334 0.372073 0.327718
Si Si8 0.772269 0.128591 0.629816
O O1 0.507045 0.151686 0.129850
O O2 0.534576 0.166582 0.309535
O O3 0.652811 0.334716 0.333541
O O4 0.951768 0.028587 0.331399
O O5 0.646801 0.317530 0.180449
O O6 0.184791 0.450625 0.116413
O O7 0.255291 0.284042 0.943015
O O8 0.988411 0.595937 0.241050
O O9 0.162233 0.724842 0.269078
O O10 0.255821 0.686695 0.470755
O O11 0.747047 0.575116 0.603910
O O12 0.383748 0.844612 0.503199
O O13 0.847670 0.703831 0.384705
O O14 0.721276 0.554043 0.370600
O O15 0.426820 0.859187 0.378864
O O16 0.915863 0.727261 0.574058
#
# Coordination Sequence:
#
# PCOD9073777 Si02
#       8
#     2   2   2   2   2   2   2   2
#     4  10  19  35  52  79 109 135 169 214 260 309
#     4   9  18  36  56  74 103 129 189 215 250 290
#     4  10  19  35  58  77  97 139 179 223 246 296
#     4  10  18  33  50  81 104 133 175 212 261 301
#     4  10  18  31  57  75 103 134 175 221 253 295
#     4  11  19  33  53  80 104 137 172 208 264 317
#     4   9  18  33  52  74 102 138 168 217 249 300
#     4  11  22  31  54  81 111 138 164 206 267 322
#
# _framework density 19.334972
#
# number of rings (size 3 to 8) (size 9 to 14) (size 15 to 20)
#    0.750    1.250    3.750    1.875    3.500    1.000 
#    0.000    0.625    0.000    0.750    0.000    0.000 
#    0.000    0.000    0.000    0.000    0.000    0.000 
#
# Total GULP energy -89074.906596 kJ/mol
# GULP energy per Si atom -5567.181662 kJ/mol
# Density = 1.929096 g / cm^3
# Si number density = 19.334972 Si / 1000 Ang^3
#
#
#
# Elastic Constant Matrix: (Units=GPa)
#
#
# Indices 1 2 3 4 5 6 
#
# 1 63.1997 21.4362 29.3369 -2.6598 -6.2694 -13.6179
# 2 21.4362 56.1814 18.7286 -15.9217 -13.0512 -15.4590
# 3 29.3369 18.7286 124.2441 -31.0109 -12.2765 -6.0126
# 4 -2.6598 -15.9217 -31.0109 19.9368 1.9497 4.6682
# 5 -6.2694 -13.0512 -12.2765 1.9497 22.6691 -3.7002
# 6 -13.6179 -15.4590 -6.0126 4.6682 -3.7002 22.1381
#
#
#
# Elastic Compliance Matrix: (Units=1/GPa)
#
#
# Indices 1 2 3 4 5 6 
#
# 1 0.024597 -0.009345 -0.009068 -0.020752 0.000013 0.010520
# 2 -0.009345 0.041401 0.009254 0.038463 0.026546 0.022001
# 3 -0.009068 0.009254 0.018086 0.033252 0.009824 0.000426
# 4 -0.020752 0.038463 0.033252 0.127495 0.023473 0.000163
# 5 0.000013 0.026546 0.009824 0.023473 0.067188 0.027493
# 6 0.010520 0.022001 0.000426 0.000163 0.027493 0.071682
#
#
# Mechanical properties :
#
#
# Convention : Reuss Voigt Hill
#
# Bulk Modulus (GPa) = 15.20587 42.51430 28.86008
# Shear Modulus (GPa) = 12.79789 24.55704 18.67746
#
# Velocity S-wave (km/s) = 2.57554 3.56769 3.11142
# Velocity P-wave (km/s) = 4.08975 6.24558 5.27889
#
# Compressibility (1/GPa) = 0.06576408
#
# Stress axis : x y z
#
# Youngs Moduli (GPa) = 40.65591 24.15382 55.29208
#
# Poissons Ratio (x) = 0.22572 0.50140
# Poissons Ratio (y) = 0.37994 -0.51165
# Poissons Ratio (z) = 0.36868 -0.22351
#
# Static dielectric constant tensor:
#      x y z
#    x 1.689820 0.015050 -0.003520 
#    y 0.015050 1.733600 0.004520 
#    z -0.003520 0.004520 1.743000 
# 
# From -- ./inp_files/220657.got.cif
#   From: 2010.05.17/outbox.cif.g08.bks.cpg/sg2_111_cif.got.tgz:220657.got - 2010.06.03 11:33:40.
