data_PCOD9073110
_publ_section_title
;
Structure prediction by ZEFSAII (Michael W. Deem and Ramdas Pophale) SiO2 
 PCOD9073110
Probable space group: P -1
;
_chemical_formula_sum "Si O2"
_cell_formula_units_Z 16
_cell_length_a 27.000000
_cell_length_b 9.000000
_cell_length_c 12.000000
_cell_angle_alpha 140.000000
_cell_angle_beta 30.000000
_cell_angle_gamma 150.000000
_cell_volume 727.497153
_symmetry_space_group_name_H-M "P -1"
_symmetry_group_IT_number 2
_symmetry_cell_setting 'triclinic'
loop_
_space_group_symop_operation_xyz
x,y,z
-x,-y,-z
loop_
_atom_site_type_symbol
_atom_site_label
_atom_site_fract_x
_atom_site_fract_y
_atom_site_fract_z
Si Si1 0.647451 0.309634 0.745444
Si Si2 0.362621 0.974803 0.031238
Si Si3 0.968715 0.170793 0.898645
Si Si4 0.837953 0.490529 0.679973
Si Si5 0.755529 0.339312 0.325141
Si Si6 0.650875 0.853886 0.089541
Si Si7 0.368407 0.444992 0.431712
Si Si8 0.892812 0.056643 0.226937
O O1 0.720914 0.341925 0.733404
O O2 0.712829 0.264063 0.492210
O O3 0.674633 0.626728 0.871768
O O4 0.494568 0.063660 0.877490
O O5 0.236004 0.665954 0.149218
O O6 0.360069 0.229592 0.232934
O O7 0.360735 0.005166 0.918496
O O8 0.114373 0.322898 0.733643
O O9 0.913277 0.855748 0.757183
O O10 0.889545 0.077525 0.112264
O O11 0.000000 0.500000 0.000000
O O12 0.909150 0.346404 0.419182
O O13 0.651344 0.341249 0.466888
O O14 0.755796 0.106374 0.116954
O O15 0.515099 0.649120 0.302273
O O16 0.247665 0.229960 0.623554
O O17 0.000000 0.000000 0.000000
#
# Coordination Sequence:
#
# PCOD9073110 Si02
#       8
#     2   2   2   2   2   2   2   2
#     4  11  22  43  67 102 140 180 226 281 344 425
#     4  10  21  42  70 103 139 174 228 288 347 414
#     4  12  28  48  67  99 141 189 240 283 342 417
#     4  11  27  45  70 101 143 191 228 281 355 410
#     4  12  23  38  69  97 132 178 234 277 334 405
#     4  11  22  39  72 103 136 179 225 287 352 404
#     4  10  20  42  64 103 135 169 223 286 342 406
#     4  11  25  47  71 101 140 180 236 297 339 409
#
# _framework density 21.993213000000001
#
# number of rings (size 3 to 8) (size 9 to 14) (size 15 to 20)
#    0.000    1.000    3.750    3.000    1.750    3.500 
#    0.000    0.000    0.000    7.500    0.000    0.000 
#    0.000    0.000    0.000    0.000    0.000    0.000 
#
# Total GULP energy -89110.955623 kJ/mol
# GULP energy per Si atom -5569.434726 kJ/mol
# Density = 2.194316 g / cm^3
# Si number density = 21.993213 Si / 1000 Ang^3
#
#
#
# Elastic Constant Matrix: (Units=GPa)
#
#
# Indices 1 2 3 4 5 6 
#
# 1 74.4262 26.0549 37.2677 -2.7147 10.0869 -3.5138
# 2 26.0549 110.6750 31.2175 13.8199 11.1806 12.8134
# 3 37.2677 31.2175 118.1384 -1.3379 9.8597 1.1922
# 4 -2.7147 13.8199 -1.3379 42.1693 -9.0847 0.7267
# 5 10.0869 11.1806 9.8597 -9.0847 41.8178 4.8322
# 6 -3.5138 12.8134 1.1922 0.7267 4.8322 39.6089
#
#
#
# Elastic Compliance Matrix: (Units=1/GPa)
#
#
# Indices 1 2 3 4 5 6 
#
# 1 0.017247 -0.003090 -0.004444 0.001434 -0.002312 0.002919
# 2 -0.003090 0.011515 -0.001878 -0.004500 -0.002457 -0.003560
# 3 -0.004444 -0.001878 0.010433 0.000493 -0.000777 -0.000015
# 4 0.001434 -0.004500 0.000493 0.026694 0.006507 0.000284
# 5 -0.002312 -0.002457 -0.000777 0.006507 0.027049 -0.002806
# 6 0.002919 -0.003560 -0.000015 0.000284 -0.002806 0.026995
#
#
# Mechanical properties :
#
#
# Convention : Reuss Voigt Hill
#
# Bulk Modulus (GPa) = 49.09078 54.70220 51.89649
# Shear Modulus (GPa) = 34.35298 38.63251 36.49274
#
# Velocity S-wave (km/s) = 3.95648 4.19569 4.07784
# Velocity P-wave (km/s) = 6.57579 6.95687 6.76901
#
# Compressibility (1/GPa) = 0.02037042
#
# Stress axis : x y z
#
# Youngs Moduli (GPa) = 57.98190 86.84373 95.84520
#
# Poissons Ratio (x) = 0.26835 0.42597
# Poissons Ratio (y) = 0.17917 0.18000
# Poissons Ratio (z) = 0.25769 0.16309
#
# Static dielectric constant tensor:
#      x y z
#    x 1.873260 -0.017940 -0.057010 
#    y -0.017940 1.853030 -0.001640 
#    z -0.057010 -0.001640 1.874170 
# 
# From -- ./inp_files/476406.got.cif
#   From: 2010.05.17/outbox.ucp.g08.bks.cvg/sg2_239_cif.got.tgz:476406.got - 2010.06.11 11:32:03.
