data_PCOD9073787
_publ_section_title
;
Structure prediction by ZEFSAII (Michael W. Deem and Ramdas Pophale) SiO2 
 PCOD9073787
Probable space group: P -1
;
_chemical_formula_sum "Si O2"
_cell_formula_units_Z 14
_cell_length_a 11.921665
_cell_length_b 9.248996
_cell_length_c 11.597599
_cell_angle_alpha 111.007901
_cell_angle_beta 89.476617
_cell_angle_gamma 38.674627
_cell_volume 648.007374
_symmetry_space_group_name_H-M "P -1"
_symmetry_group_IT_number 2
_symmetry_cell_setting 'triclinic'
loop_
_space_group_symop_operation_xyz
x,y,z
-x,-y,-z
loop_
_atom_site_type_symbol
_atom_site_label
_atom_site_fract_x
_atom_site_fract_y
_atom_site_fract_z
Si Si1 0.359280 0.445831 0.037756
Si Si2 0.939026 0.649411 0.869990
Si Si3 0.695046 0.277611 0.319121
Si Si4 0.355135 0.128278 0.861087
Si Si5 0.967276 0.281192 0.690406
Si Si6 0.329397 0.483537 0.418371
Si Si7 0.245542 0.826352 0.974542
O O1 0.206767 0.567599 0.173159
O O2 0.525616 0.369029 0.065787
O O3 0.453093 0.177843 0.911285
O O4 0.241981 0.674305 0.003980
O O5 0.956008 0.480267 0.739613
O O6 0.155746 0.397154 0.862977
O O7 0.753117 0.831253 0.016651
O O8 0.897370 0.869910 0.889136
O O9 0.463945 0.475334 0.371300
O O10 0.696251 0.444328 0.426529
O O11 0.784918 0.165875 0.158467
O O12 0.826340 0.016725 0.332104
O O13 0.521798 0.830003 0.709761
O O14 0.889970 0.291764 0.576603
#
# Coordination Sequence:
#
# PCOD9073787 Si02
#       7
#     2   2   2   2   2   2   2
#     4  10  22  33  60  80 115 142 180 227 287 315
#     4  10  18  31  57  80 112 134 185 229 271 321
#     4  11  22  35  56  82 113 146 185 222 267 326
#     4  10  18  35  53  83 106 145 180 228 271 320
#     4  11  20  37  58  87 106 146 180 231 272 325
#     4  11  21  36  56  82 113 146 182 228 263 323
#     4  11  20  38  52  87 112 145 179 229 272 336
#
# _framework density 21.604692
#
# number of rings (size 3 to 8) (size 9 to 14) (size 15 to 20)
#    0.000    1.429    4.286    3.000    0.000    4.571 
#    0.000    0.714    0.000    0.000    0.000    7.000 
#    0.000    0.000    0.000    0.000    0.000    0.000 
#
# Total GULP energy -78181.930610 kJ/mol
# GULP energy per Si atom -5584.423615 kJ/mol
# Density = 2.155552 g / cm^3
# Si number density = 21.604692 Si / 1000 Ang^3
#
#
#
# Elastic Constant Matrix: (Units=GPa)
#
#
# Indices 1 2 3 4 5 6 
#
# 1 71.4212 21.0718 38.2621 -11.0659 27.9981 -9.1485
# 2 21.0718 95.9068 29.6679 0.3522 16.5254 -1.3066
# 3 38.2621 29.6679 75.4138 5.6445 37.4604 0.9662
# 4 -11.0659 0.3522 5.6445 28.9207 -4.1280 11.4916
# 5 27.9981 16.5254 37.4604 -4.1280 30.0868 3.9217
# 6 -9.1485 -1.3066 0.9662 11.4916 3.9217 36.9808
#
#
#
# Elastic Compliance Matrix: (Units=1/GPa)
#
#
# Indices 1 2 3 4 5 6 
#
# 1 0.025141 -0.001159 -0.003595 0.005055 -0.018458 0.006659
# 2 -0.001159 0.011984 -0.003492 -0.000262 -0.001250 0.000442
# 3 -0.003595 -0.003492 0.046334 -0.022849 -0.056985 0.010920
# 4 0.005055 -0.000262 -0.022849 0.052984 0.033528 -0.018182
# 5 -0.018458 -0.001250 -0.056985 0.033528 0.130216 -0.027349
# 6 0.006659 0.000442 0.010920 -0.018182 -0.027349 0.036969
#
#
# Mechanical properties :
#
#
# Convention : Reuss Voigt Hill
#
# Bulk Modulus (GPa) = 14.93246 46.74948 30.84097
# Shear Modulus (GPa) = 14.60101 29.44700 22.02401
#
# Velocity S-wave (km/s) = 2.60249 3.69588 3.19628
# Velocity P-wave (km/s) = 3.99465 6.31650 5.28467
#
# Compressibility (1/GPa) = 0.06696822
#
# Stress axis : x y z
#
# Youngs Moduli (GPa) = 39.77536 83.44536 21.58244
#
# Poissons Ratio (x) = 0.09673 0.07758
# Poissons Ratio (y) = 0.04611 0.07536
# Poissons Ratio (z) = 0.14298 0.29136
#
# Static dielectric constant tensor:
#      x y z
#    x 1.806160 -0.030140 0.040580 
#    y -0.030140 1.829180 0.014890 
#    z 0.040580 0.014890 1.791320 
# 
# From -- ./inp_files/255777.got.cif
#   From: 2010.05.17/outbox.cif.g08.bks.cpg/sg2_128_cif.got.tgz:255777.got - 2010.06.03 11:33:40.
