data_PCOD9073978
_publ_section_title
;
Structure prediction by ZEFSAII (Michael W. Deem and Ramdas Pophale) SiO2 
 PCOD9073978
Probable space group: P -1
;
_chemical_formula_sum "Si O2"
_cell_formula_units_Z 12
_cell_length_a 14.691880
_cell_length_b 5.142152
_cell_length_c 13.376859
_cell_angle_alpha 86.769875
_cell_angle_beta 51.989920
_cell_angle_gamma 66.184756
_cell_volume 702.047078
_symmetry_space_group_name_H-M "P -1"
_symmetry_group_IT_number 2
_symmetry_cell_setting 'triclinic'
loop_
_space_group_symop_operation_xyz
x,y,z
-x,-y,-z
loop_
_atom_site_type_symbol
_atom_site_label
_atom_site_fract_x
_atom_site_fract_y
_atom_site_fract_z
Si Si1 0.246225 0.461532 0.953667
Si Si2 0.827950 0.935505 0.101628
Si Si3 0.144527 0.572289 0.332856
Si Si4 0.017065 0.750177 0.618859
Si Si5 0.411241 0.346847 0.040492
Si Si6 0.978619 0.501767 0.169630
O O1 0.267900 0.172722 0.883940
O O2 0.224943 0.722378 0.887161
O O3 0.350047 0.415646 0.969156
O O4 0.106292 0.548855 0.100048
O O5 0.867076 0.791851 0.187116
O O6 0.962499 0.757966 0.948924
O O7 0.091893 0.343609 0.342385
O O8 0.288212 0.464846 0.195937
O O9 0.129093 0.617705 0.461896
O O10 0.047760 0.896607 0.347098
O O11 0.057440 0.613529 0.704219
O O12 0.500000 0.500000 0.000000
O O13 0.500000 0.000000 0.000000
#
# Coordination Sequence:
#
# PCOD9073978 Si02
#       6
#     2   2   2   2   2   2
#     4  10  18  32  44  70 102 124 160 209 241 290
#     4   9  18  27  48  71 106 121 156 199 255 316
#     4  10  20  35  47  76 100 136 168 201 256 296
#     4  10  19  31  55  71 107 131 156 209 260 310
#     4  12  23  34  53  72 100 141 177 205 238 291
#     4   9  18  27  50  74 100 128 154 195 265 305
#
# _framework density 17.092872
#
# number of rings (size 3 to 8) (size 9 to 14) (size 15 to 20)
#    1.000    1.000    1.667    3.500    0.000    0.000 
#    0.000    0.000    0.000    0.000    0.000    7.000 
#    0.000    0.000    0.000    0.000    0.000    0.000 
#
# Total GULP energy -66871.768113 kJ/mol
# GULP energy per Si atom -5572.647343 kJ/mol
# Density = 1.705397 g / cm^3
# Si number density = 17.092872 Si / 1000 Ang^3
#
#
#
# Elastic Constant Matrix: (Units=GPa)
#
#
# Indices 1 2 3 4 5 6 
#
# 1 67.6911 14.7719 4.5399 -5.5974 -10.6986 -10.1543
# 2 14.7719 79.9670 9.5428 -18.1101 5.1893 -7.0964
# 3 4.5399 9.5428 59.6015 -6.1985 6.1834 -12.2966
# 4 -5.5974 -18.1101 -6.1985 24.2725 -6.7489 7.2700
# 5 -10.6986 5.1893 6.1834 -6.7489 26.3563 -10.8201
# 6 -10.1543 -7.0964 -12.2966 7.2700 -10.8201 39.4564
#
#
#
# Elastic Compliance Matrix: (Units=1/GPa)
#
#
# Indices 1 2 3 4 5 6 
#
# 1 0.018573 -0.002785 -0.000452 0.003353 0.011829 0.006764
# 2 -0.002785 0.015566 -0.001166 0.010441 -0.001501 -0.000616
# 3 -0.000452 -0.001166 0.018321 0.001814 -0.001932 0.004520
# 4 0.003353 0.010441 0.001814 0.054463 0.011340 -0.003619
# 5 0.011829 -0.001501 -0.001932 0.011340 0.052320 0.014430
# 6 0.006764 -0.000616 0.004520 -0.003619 0.014430 0.033007
#
#
# Mechanical properties :
#
#
# Convention : Reuss Voigt Hill
#
# Bulk Modulus (GPa) = 22.90706 29.44098 26.17402
# Shear Modulus (GPa) = 23.19055 29.91070 26.55063
#
# Velocity S-wave (km/s) = 3.68739 4.18771 3.94549
# Velocity P-wave (km/s) = 5.61781 6.37527 6.00849
#
# Compressibility (1/GPa) = 0.04365466
#
# Stress axis : x y z
#
# Youngs Moduli (GPa) = 53.84305 64.24207 54.58303
#
# Poissons Ratio (x) = 0.17891 0.02466
# Poissons Ratio (y) = 0.14995 0.06362
# Poissons Ratio (z) = 0.02432 0.07488
#
# Static dielectric constant tensor:
#      x y z
#    x 1.616540 0.010690 0.023730 
#    y 0.010690 1.575780 -0.012900 
#    z 0.023730 -0.012900 1.565010 
# 
# From -- ./inp_files/92346.got.cif
#   From: 2010.05.17/outbox.cif.g08.bks.cpg/sg2_47_cif.got.tgz:92346.got - 2010.06.03 11:33:40.
