data_PCOD9073997
_publ_section_title
;
Structure prediction by ZEFSAII (Michael W. Deem and Ramdas Pophale) SiO2 
 PCOD9073997
Probable space group: P -1
;
_chemical_formula_sum "Si O2"
_cell_formula_units_Z 16
_cell_length_a 6.000000
_cell_length_b 24.000000
_cell_length_c 12.000000
_cell_angle_alpha 30.000000
_cell_angle_beta 120.000000
_cell_angle_gamma 110.000000
_cell_volume 731.538865
_symmetry_space_group_name_H-M "P -1"
_symmetry_group_IT_number 2
_symmetry_cell_setting 'triclinic'
loop_
_space_group_symop_operation_xyz
x,y,z
-x,-y,-z
loop_
_atom_site_type_symbol
_atom_site_label
_atom_site_fract_x
_atom_site_fract_y
_atom_site_fract_z
Si Si1 0.726116 0.060085 0.003815
Si Si2 0.621595 0.549234 0.169435
Si Si3 0.539367 0.842856 0.999476
Si Si4 0.670402 0.078906 0.585678
Si Si5 0.636675 0.264897 0.066540
Si Si6 0.765005 0.736053 0.723915
Si Si7 0.872190 0.297743 0.567802
Si Si8 0.058638 0.623278 0.799598
O O1 0.627684 0.105277 0.024149
O O2 0.758887 0.181718 0.749111
O O3 0.500000 0.000000 0.000000
O O4 0.011025 0.966824 0.232004
O O5 0.737810 0.412244 0.411765
O O6 0.592927 0.620155 0.158370
O O7 0.737123 0.619355 0.981274
O O8 0.314515 0.595846 0.987157
O O9 0.817642 0.755391 0.242767
O O10 0.397387 0.772491 0.002853
O O11 0.589950 0.958585 0.755647
O O12 0.603222 0.163871 0.317682
O O13 0.477984 0.158360 0.491552
O O14 0.951294 0.253519 0.176804
O O15 0.824837 0.710423 0.652106
O O16 0.860594 0.339699 0.364624
O O17 0.000000 0.500000 0.000000
#
# Coordination Sequence:
#
# PCOD9073997 Si02
#       8
#     2   2   2   2   2   2   2   2
#     4  11  28  48  66  99 144 183 223 274 349 405
#     4  10  23  43  67 103 133 174 226 282 342 399
#     4  11  26  44  67  99 137 185 228 278 343 400
#     4  10  23  45  70  98 134 178 232 279 337 401
#     4  10  23  43  72 100 134 175 234 286 333 399
#     4  10  22  40  70 102 134 172 228 284 340 390
#     4  11  26  44  68 101 141 180 225 279 341 411
#     4  11  23  41  71 102 134 174 231 278 339 405
#
# _framework density 21.871701999999999
#
# number of rings (size 3 to 8) (size 9 to 14) (size 15 to 20)
#    0.000    1.500    1.250    1.500    1.750   16.500 
#    0.000    3.125    0.000    0.000    0.000    0.000 
#    0.000    0.000    0.000    0.000    0.000    0.000 
#
# Total GULP energy -89099.546912 kJ/mol
# GULP energy per Si atom -5568.721682 kJ/mol
# Density = 2.182192 g / cm^3
# Si number density = 21.871702 Si / 1000 Ang^3
#
#
#
# Elastic Constant Matrix: (Units=GPa)
#
#
# Indices 1 2 3 4 5 6 
#
# 1 116.0441 54.3546 34.2213 -9.0506 27.3371 -25.7775
# 2 54.3546 117.2174 33.9436 -15.1591 15.7780 -30.4030
# 3 34.2213 33.9436 106.6388 -37.0775 28.6374 -9.1204
# 4 -9.0506 -15.1591 -37.0775 33.7573 -5.7580 12.4792
# 5 27.3371 15.7780 28.6374 -5.7580 56.2821 -19.8961
# 6 -25.7775 -30.4030 -9.1204 12.4792 -19.8961 33.3356
#
#
#
# Elastic Compliance Matrix: (Units=1/GPa)
#
#
# Indices 1 2 3 4 5 6 
#
# 1 0.012834 -0.003606 -0.003727 -0.004959 -0.001511 0.006571
# 2 -0.003606 0.013675 -0.004543 -0.003652 0.004211 0.012322
# 3 -0.003727 -0.004543 0.023194 0.027050 -0.012383 -0.018197
# 4 -0.004959 -0.003652 0.027050 0.066218 -0.015509 -0.033809
# 5 -0.001511 0.004211 -0.012383 -0.015509 0.030208 0.023120
# 6 0.006571 0.012322 -0.018197 -0.033809 0.023120 0.067794
#
#
# Mechanical properties :
#
#
# Convention : Reuss Voigt Hill
#
# Bulk Modulus (GPa) = 38.53246 64.99327 51.76286
# Shear Modulus (GPa) = 20.29839 39.16706 29.73272
#
# Velocity S-wave (km/s) = 3.04972 4.23633 3.69102
# Velocity P-wave (km/s) = 5.48241 7.32863 6.47170
#
# Compressibility (1/GPa) = 0.02595215
#
# Stress axis : x y z
#
# Youngs Moduli (GPa) = 77.91646 73.12394 43.11494
#
# Poissons Ratio (x) = 0.26366 0.16071
# Poissons Ratio (y) = 0.28094 0.19586
# Poissons Ratio (z) = 0.29042 0.33218
#
# Static dielectric constant tensor:
#      x y z
#    x 1.822830 -0.064530 -0.030310 
#    y -0.064530 1.975060 0.076270 
#    z -0.030310 0.076270 1.774670 
# 
# From -- ./inp_files/371019.got.cif
#   From: 2010.05.17/outbox.ucp.g08.bks.cvg/sg2_186_cif.got.tgz:371019.got - 2010.06.11 11:32:03.
