data_PCOD9073396
_publ_section_title
;
Structure prediction by ZEFSAII (Michael W. Deem and Ramdas Pophale) SiO2 
 PCOD9073396
Probable space group: P -1
;
_chemical_formula_sum "Si O2"
_cell_formula_units_Z 16
_cell_length_a 9.000000
_cell_length_b 12.000000
_cell_length_c 15.000000
_cell_angle_alpha 130.000000
_cell_angle_beta 110.000000
_cell_angle_gamma 40.000000
_cell_volume 759.581896
_symmetry_space_group_name_H-M "P -1"
_symmetry_group_IT_number 2
_symmetry_cell_setting 'triclinic'
loop_
_space_group_symop_operation_xyz
x,y,z
-x,-y,-z
loop_
_atom_site_type_symbol
_atom_site_label
_atom_site_fract_x
_atom_site_fract_y
_atom_site_fract_z
Si Si1 0.044818 0.427836 0.285306
Si Si2 0.540356 0.743123 0.416726
Si Si3 0.865261 0.586719 0.145435
Si Si4 0.841104 0.379258 0.889400
Si Si5 0.991363 0.215263 0.512492
Si Si6 0.754101 0.131915 0.300340
Si Si7 0.607961 0.475206 0.710572
Si Si8 0.453356 0.096132 0.326040
O O1 0.767083 0.572999 0.310842
O O2 0.063963 0.420462 0.178419
O O3 0.059469 0.579744 0.407845
O O4 0.243356 0.202499 0.266969
O O5 0.492475 0.614442 0.372071
O O6 0.633477 0.777726 0.534146
O O7 0.278832 0.983167 0.452575
O O8 0.991046 0.616442 0.121641
O O9 0.625515 0.841783 0.255667
O O10 0.782027 0.500354 0.032005
O O11 0.639022 0.486884 0.827818
O O12 0.001762 0.123992 0.808567
O O13 0.842525 0.212044 0.415159
O O14 0.878014 0.277668 0.620815
O O15 0.570562 0.298192 0.267357
O O16 0.610470 0.117086 0.325003
#
# Coordination Sequence:
#
# PCOD9073396 Si02
#       8
#     2   2   2   2   2   2   2   2
#     4  12  24  40  58  91 126 158 192 240 300 361
#     4  12  24  37  61  92 125 158 192 237 305 363
#     4  10  22  39  62  86 120 156 201 246 296 341
#     4  10  21  39  62  91 113 154 206 251 287 343
#     4  12  20  38  63  88 121 155 191 244 298 350
#     4  11  21  36  65  92 116 152 199 248 299 341
#     4  12  21  39  62  91 120 154 197 250 293 348
#     4  11  21  38  61  91 122 156 192 245 296 358
#
# _framework density 21.064219999999999
#
# number of rings (size 3 to 8) (size 9 to 14) (size 15 to 20)
#    0.000    0.750    6.250    3.000    0.000    1.000 
#    0.000    4.375    0.000    1.500    0.000    0.000 
#    0.000    0.000    0.000    0.000    0.000    0.000 
#
# Total GULP energy -89284.248439 kJ/mol
# GULP energy per Si atom -5580.265527 kJ/mol
# Density = 2.101628 g / cm^3
# Si number density = 21.064220 Si / 1000 Ang^3
#
#
#
# Elastic Constant Matrix: (Units=GPa)
#
#
# Indices 1 2 3 4 5 6 
#
# 1 30.7323 -0.8415 3.2727 3.8714 -6.4942 -12.6650
# 2 -0.8415 126.3334 15.5522 -21.6309 13.8802 -12.8396
# 3 3.2727 15.5522 73.3779 -21.2094 29.3328 -3.0846
# 4 3.8714 -21.6309 -21.2094 19.3762 -9.0588 9.5259
# 5 -6.4942 13.8802 29.3328 -9.0588 9.9835 -2.5729
# 6 -12.6650 -12.8396 -3.0846 9.5259 -2.5729 19.8077
#
#
#
# Elastic Compliance Matrix: (Units=1/GPa)
#
#
# Indices 1 2 3 4 5 6 
#
# 1 0.021859 0.004978 0.027551 -0.017567 -0.084709 0.018939
# 2 0.004978 0.009049 -0.004259 0.005843 0.010251 0.006907
# 3 0.027551 -0.004259 -0.015804 -0.006799 0.070504 0.024822
# 4 -0.017567 0.005843 -0.006799 0.132098 0.105248 -0.058361
# 5 -0.084709 0.010251 0.070504 0.105248 -0.106879 -0.101037
# 6 0.018939 0.006907 0.024822 -0.058361 -0.101037 0.085880
#
#
# Mechanical properties :
#
#
# Convention : Reuss Voigt Hill
#
# Bulk Modulus (GPa) = 13.95787 29.60116 21.77952
# Shear Modulus (GPa) = 53.45071 23.99751 38.72411
#
# Velocity S-wave (km/s) = 5.04284 3.37895 4.29229
# Velocity P-wave (km/s) = 6.36771 5.41353 5.90991
#
# Compressibility (1/GPa) = 0.07164418
#
# Stress axis : x y z
#
# Youngs Moduli (GPa) = 45.74793 110.50825 -63.27513
#
# Poissons Ratio (x) = -0.55009 1.74329
# Poissons Ratio (y) = -0.22772 -0.26946
# Poissons Ratio (z) = -1.26040 0.47061
#
# Static dielectric constant tensor:
#      x y z
#    x 1.805580 0.016230 -0.048620 
#    y 0.016230 1.754480 -0.005800 
#    z -0.048620 -0.005800 1.803120 
# 
# From -- ./inp_files/188890.got.cif
#   From: 2010.05.17/outbox.ucp.g08.bks.cvg/sg2_95_cif.got.tgz:188890.got - 2010.06.11 11:32:03.
