data_PCOD9073219
_publ_section_title
;
Structure prediction by ZEFSAII (Michael W. Deem and Ramdas Pophale) SiO2 
 PCOD9073219
Probable space group: P -1
;
_chemical_formula_sum "Si O2"
_cell_formula_units_Z 12
_cell_length_a 15.000000
_cell_length_b 12.000000
_cell_length_c 21.000000
_cell_angle_alpha 30.000000
_cell_angle_beta 20.000000
_cell_angle_gamma 40.000000
_cell_volume 620.704002
_symmetry_space_group_name_H-M "P -1"
_symmetry_group_IT_number 2
_symmetry_cell_setting 'triclinic'
loop_
_space_group_symop_operation_xyz
x,y,z
-x,-y,-z
loop_
_atom_site_type_symbol
_atom_site_label
_atom_site_fract_x
_atom_site_fract_y
_atom_site_fract_z
Si Si1 0.069187 0.884744 0.240179
Si Si2 0.768101 0.408737 0.360099
Si Si3 0.685741 0.182543 0.661817
Si Si4 0.916194 0.913709 0.732930
Si Si5 0.390187 0.497723 0.329367
Si Si6 0.139191 0.688346 0.868532
O O1 0.878764 0.639907 0.461510
O O2 0.914825 0.073321 0.231267
O O3 0.084477 0.915602 0.291469
O O4 0.382661 0.997057 0.950228
O O5 0.500000 0.500000 0.500000
O O6 0.795512 0.323857 0.454914
O O7 0.823449 0.189112 0.392227
O O8 0.989759 0.611110 0.074701
O O9 0.665901 0.370917 0.635289
O O10 0.886737 0.048422 0.622441
O O11 0.636211 0.699575 0.031093
O O12 0.551628 0.314049 0.332645
O O13 0.000000 0.500000 0.000000
#
# Coordination Sequence:
#
# PCOD9073219 Si02
#       6
#     2   2   2   2   2   2
#     4  11  20  37  63  89 116 153 198 239 288 342
#     4  11  20  38  64  82 117 158 192 239 292 344
#     4  11  22  38  59  90 121 151 191 239 297 344
#     4  10  23  38  61  87 118 156 194 239 286 344
#     4  10  21  36  62  90 116 153 196 241 286 344
#     4  11  18  38  62  88 114 152 199 243 285 340
#
# _framework density 19.332885999999998
#
# number of rings (size 3 to 8) (size 9 to 14) (size 15 to 20)
#    0.000    1.333    6.667    3.000    0.000    2.667 
#    0.000    4.167    0.000    7.000    0.000    0.000 
#    0.000    0.000    0.000    0.000    0.000    0.000 
#
# Total GULP energy -66811.581973 kJ/mol
# GULP energy per Si atom -5567.631831 kJ/mol
# Density = 1.928888 g / cm^3
# Si number density = 19.332886 Si / 1000 Ang^3
#
#
#
# Elastic Constant Matrix: (Units=GPa)
#
#
# Indices 1 2 3 4 5 6 
#
# 1 106.5548 15.1920 48.1104 -10.6186 13.3574 -0.8539
# 2 15.1920 66.7835 17.9351 11.7188 2.2047 0.6030
# 3 48.1104 17.9351 67.3104 -6.2553 -12.7221 18.8476
# 4 -10.6186 11.7188 -6.2553 23.9246 6.0881 -2.6605
# 5 13.3574 2.2047 -12.7221 6.0881 49.9432 -6.0736
# 6 -0.8539 0.6030 18.8476 -2.6605 -6.0736 40.4046
#
#
#
# Elastic Compliance Matrix: (Units=1/GPa)
#
#
# Indices 1 2 3 4 5 6 
#
# 1 0.018819 -0.001064 -0.016166 0.007774 -0.009190 0.007085
# 2 -0.001064 0.018662 -0.005758 -0.010815 -0.000493 0.001599
# 3 -0.016166 -0.005758 0.034177 0.000041 0.011520 -0.014464
# 4 0.007774 -0.010815 0.000041 0.052810 -0.007710 0.002625
# 5 -0.009190 -0.000493 0.011520 -0.007710 0.026116 -0.002142
# 6 0.007085 0.001599 -0.014464 0.002625 -0.002142 0.031473
#
#
# Mechanical properties :
#
#
# Convention : Reuss Voigt Hill
#
# Bulk Modulus (GPa) = 38.93836 44.79152 41.86494
# Shear Modulus (GPa) = 21.13329 33.48191 27.30760
#
# Velocity S-wave (km/s) = 3.30983 4.16608 3.76239
# Velocity P-wave (km/s) = 5.89842 6.80885 6.36992
#
# Compressibility (1/GPa) = 0.02568162
#
# Stress axis : x y z
#
# Youngs Moduli (GPa) = 53.13740 53.58537 29.25986
#
# Poissons Ratio (x) = 0.05702 0.47301
# Poissons Ratio (y) = 0.05655 0.16847
# Poissons Ratio (z) = 0.85902 0.30853
#
# Static dielectric constant tensor:
#      x y z
#    x 1.717110 -0.040520 0.002520 
#    y -0.040520 1.732680 -0.003870 
#    z 0.002520 -0.003870 1.664750 
# 
# From -- ./inp_files/171630.got.cif
#   From: 2010.05.17/outbox.ucp.g08.bks.cvg/sg2_86_cif.got.tgz:171630.got - 2010.06.11 11:32:03.
