data_PCOD9073783
_publ_section_title
;
Structure prediction by ZEFSAII (Michael W. Deem and Ramdas Pophale) SiO2 
 PCOD9073783
Probable space group: P -1
;
_chemical_formula_sum "Si O2"
_cell_formula_units_Z 16
_cell_length_a 12.249600
_cell_length_b 8.624477
_cell_length_c 13.799063
_cell_angle_alpha 123.803892
_cell_angle_beta 129.285183
_cell_angle_gamma 48.039071
_cell_volume 816.342043
_symmetry_space_group_name_H-M "P -1"
_symmetry_group_IT_number 2
_symmetry_cell_setting 'triclinic'
loop_
_space_group_symop_operation_xyz
x,y,z
-x,-y,-z
loop_
_atom_site_type_symbol
_atom_site_label
_atom_site_fract_x
_atom_site_fract_y
_atom_site_fract_z
Si Si1 0.462340 0.242914 0.366857
Si Si2 0.378486 0.631576 0.892193
Si Si3 0.224061 0.094037 0.474841
Si Si4 0.077453 0.867666 0.595102
Si Si5 0.526924 0.044243 0.891391
Si Si6 0.194720 0.396116 0.746504
Si Si7 0.433304 0.721002 0.762442
Si Si8 0.834313 0.571314 0.602757
O O1 0.516363 0.343383 0.343355
O O2 0.297523 0.395933 0.380625
O O3 0.610186 0.120331 0.481760
O O4 0.436974 0.061538 0.232770
O O5 0.230999 0.584964 0.800787
O O6 0.460832 0.557965 0.807039
O O7 0.500000 0.500000 0.000000
O O8 0.356343 0.866902 0.978830
O O9 0.204292 0.255328 0.608766
O O10 0.221521 0.214109 0.416979
O O11 0.067806 0.061529 0.385942
O O12 0.239105 0.877927 0.711365
O O13 0.145612 0.617304 0.523118
O O14 0.000000 0.000000 0.500000
O O15 0.342021 0.239140 0.844353
O O16 0.525288 0.853688 0.884431
O O17 0.013760 0.492180 0.717494
#
# Coordination Sequence:
#
# PCOD9073783 Si02
#       8
#     2   2   2   2   2   2   2   2
#     4   9  20  33  49  73 111 138 167 202 259 310
#     4  10  18  31  57  79  92 126 177 225 253 289
#     4  10  18  34  49  77 104 139 172 210 244 299
#     4  11  19  34  55  78 106 134 174 214 243 301
#     4   8  18  34  51  72  99 128 171 215 257 290
#     4   9  17  32  50  78  95 129 178 214 246 295
#     4  10  18  33  51  76 103 130 169 210 259 297
#     4  11  20  31  53  74 108 141 168 203 256 306
#
# _framework density 19.599627000000002
#
# number of rings (size 3 to 8) (size 9 to 14) (size 15 to 20)
#    0.750    1.500    1.250    4.500    0.000    0.500 
#    0.000    0.625    0.000    3.000    0.000    0.000 
#    0.000    0.000    0.000    0.000    0.000    0.000 
#
# Total GULP energy -89084.688966 kJ/mol
# GULP energy per Si atom -5567.793060 kJ/mol
# Density = 1.955502 g / cm^3
# Si number density = 19.599627 Si / 1000 Ang^3
#
#
#
# Elastic Constant Matrix: (Units=GPa)
#
#
# Indices 1 2 3 4 5 6 
#
# 1 92.5949 22.3123 18.1761 -7.5695 12.6646 -3.1856
# 2 22.3123 39.0304 8.6912 -10.1436 0.6925 0.6836
# 3 18.1761 8.6912 44.1405 -9.8352 12.7969 -5.5051
# 4 -7.5695 -10.1436 -9.8352 25.6514 16.4761 0.9358
# 5 12.6646 0.6925 12.7969 16.4761 31.6343 -6.5447
# 6 -3.1856 0.6836 -5.5051 0.9358 -6.5447 33.7608
#
#
#
# Elastic Compliance Matrix: (Units=1/GPa)
#
#
# Indices 1 2 3 4 5 6 
#
# 1 0.014238 -0.005745 0.000004 0.008472 -0.010141 -0.000740
# 2 -0.005745 0.033565 0.002574 0.019216 -0.010168 -0.003306
# 3 0.000004 0.002574 0.043772 0.044450 -0.041364 -0.002165
# 4 0.008472 0.019216 0.044450 0.123714 -0.088919 -0.013008
# 5 -0.010141 -0.010168 -0.041364 -0.088919 0.101988 0.014740
# 6 -0.000740 -0.003306 -0.002165 -0.013008 0.014740 0.032482
#
#
# Mechanical properties :
#
#
# Convention : Reuss Voigt Hill
#
# Bulk Modulus (GPa) = 11.73152 30.45835 21.09493
# Shear Modulus (GPa) = 13.00369 26.64836 19.82603
#
# Velocity S-wave (km/s) = 2.57858 3.69132 3.18394
# Velocity P-wave (km/s) = 3.85539 5.80877 4.92980
#
# Compressibility (1/GPa) = 0.08524048
#
# Stress axis : x y z
#
# Youngs Moduli (GPa) = 70.23675 29.79326 22.84549
#
# Poissons Ratio (x) = 0.17117 -0.00009
# Poissons Ratio (y) = 0.40353 -0.05881
# Poissons Ratio (z) = -0.00028 -0.07670
#
# Static dielectric constant tensor:
#      x y z
#    x 1.723560 0.053130 -0.015280 
#    y 0.053130 1.724420 0.010060 
#    z -0.015280 0.010060 1.742720 
# 
# From -- ./inp_files/281070.got.cif
#   From: 2010.05.17/outbox.cif.g08.bks.cpg/sg2_141_cif.got.tgz:281070.got - 2010.06.03 11:33:40.
