data_PCOD9073060
_publ_section_title
;
Structure prediction by ZEFSAII (Michael W. Deem and Ramdas Pophale) SiO2 
 PCOD9073060
Probable space group: P -1
;
_chemical_formula_sum "Si O2"
_cell_formula_units_Z 16
_cell_length_a 15.000000
_cell_length_b 12.000000
_cell_length_c 15.000000
_cell_angle_alpha 50.000000
_cell_angle_beta 140.000000
_cell_angle_gamma 150.000000
_cell_volume 865.974363
_symmetry_space_group_name_H-M "P -1"
_symmetry_group_IT_number 2
_symmetry_cell_setting 'triclinic'
loop_
_space_group_symop_operation_xyz
x,y,z
-x,-y,-z
loop_
_atom_site_type_symbol
_atom_site_label
_atom_site_fract_x
_atom_site_fract_y
_atom_site_fract_z
Si Si1 0.946858 0.386223 0.171211
Si Si2 0.260524 0.493386 0.136028
Si Si3 0.476569 0.553257 0.090947
Si Si4 0.787752 0.266419 0.310589
Si Si5 0.446006 0.763018 0.316240
Si Si6 0.889034 0.052488 0.189328
Si Si7 0.882317 0.055118 0.583938
Si Si8 0.780124 0.581349 0.213340
O O1 0.204638 0.587344 0.256716
O O2 0.876044 0.359452 0.231584
O O3 0.869079 0.167609 0.185921
O O4 0.838054 0.429562 0.009373
O O5 0.368785 0.494920 0.135071
O O6 0.419428 0.654488 0.258112
O O7 0.060682 0.244658 0.149745
O O8 0.606873 0.508766 0.188927
O O9 0.662735 0.825079 0.091665
O O10 0.305066 0.434958 0.940824
O O11 0.790920 0.415397 0.294818
O O12 0.552484 0.006355 0.256831
O O13 0.922402 0.240864 0.469802
O O14 0.625689 0.834381 0.483572
O O15 0.996563 0.988520 0.340920
O O16 0.994164 0.171899 0.706106
#
# Coordination Sequence:
#
# PCOD9073060 Si02
#       8
#     2   2   2   2   2   2   2   2
#     4  11  22  36  61  94 117 151 194 241 297 352
#     4  11  22  38  61  95 115 149 197 242 300 349
#     4  10  22  39  64  87 115 157 194 244 303 323
#     4  10  21  39  62  81 123 155 195 240 280 356
#     4   9  22  38  60  90 119 154 186 240 301 346
#     4  10  22  39  60  90 125 144 193 248 288 358
#     4   9  22  42  58  84 120 162 193 234 294 339
#     4  10  20  41  62  84 117 156 204 240 277 352
#
# _framework density 18.476298
#
# number of rings (size 3 to 8) (size 9 to 14) (size 15 to 20)
#    0.750    1.250    1.250    2.625    3.500    3.500 
#    6.750    8.750    0.000    0.000    0.000    0.000 
#    0.000    0.000    0.000    0.000    0.000    0.000 
#
# Total GULP energy -89103.741035 kJ/mol
# GULP energy per Si atom -5568.983815 kJ/mol
# Density = 1.843424 g / cm^3
# Si number density = 18.476298 Si / 1000 Ang^3
#
#
#
# Elastic Constant Matrix: (Units=GPa)
#
#
# Indices 1 2 3 4 5 6 
#
# 1 128.7861 41.3627 22.9562 -0.0327 2.2882 -23.1761
# 2 41.3627 72.8024 30.1559 18.9271 -10.0454 -11.3452
# 3 22.9562 30.1559 95.6112 16.7277 4.8468 -12.1840
# 4 -0.0327 18.9271 16.7277 41.7804 -15.6696 4.6198
# 5 2.2882 -10.0454 4.8468 -15.6696 26.3137 -3.7158
# 6 -23.1761 -11.3452 -12.1840 4.6198 -3.7158 28.4069
#
#
#
# Elastic Compliance Matrix: (Units=1/GPa)
#
#
# Indices 1 2 3 4 5 6 
#
# 1 0.010713 -0.005629 -0.000232 0.001503 -0.001298 0.005979
# 2 -0.005629 0.021863 -0.004250 -0.006232 0.006498 0.004179
# 3 -0.000232 -0.004250 0.014036 -0.007095 -0.007811 0.004266
# 4 0.001503 -0.006232 -0.007095 0.038112 0.020386 -0.007837
# 5 -0.001298 0.006498 -0.007811 0.020386 0.054456 0.001994
# 6 0.005979 0.004179 0.004266 -0.007837 0.001994 0.045115
#
#
# Mechanical properties :
#
#
# Convention : Reuss Voigt Hill
#
# Bulk Modulus (GPa) = 37.89461 54.01659 45.95560
# Shear Modulus (GPa) = 23.43953 32.81517 28.12735
#
# Velocity S-wave (km/s) = 3.56564 4.21891 3.90596
# Velocity P-wave (km/s) = 6.12422 7.28227 6.72821
#
# Compressibility (1/GPa) = 0.02638898
#
# Stress axis : x y z
#
# Youngs Moduli (GPa) = 93.34077 45.74041 71.24388
#
# Poissons Ratio (x) = 0.25747 0.01655
# Poissons Ratio (y) = 0.52541 0.30282
# Poissons Ratio (z) = 0.02168 0.19442
#
# Static dielectric constant tensor:
#      x y z
#    x 1.621970 -0.001350 0.006990 
#    y -0.001350 1.643740 -0.006580 
#    z 0.006990 -0.006580 1.689260 
# 
# From -- ./inp_files/471786.got.cif
#   From: 2010.05.17/outbox.ucp.g08.bks.cvg/sg2_236_cif.got.tgz:471786.got - 2010.06.11 11:32:03.
