data_PCOD9073487
_publ_section_title
;
Structure prediction by ZEFSAII (Michael W. Deem and Ramdas Pophale) SiO2 
 PCOD9073487
Probable space group: P -1
;
_chemical_formula_sum "Si O2"
_cell_formula_units_Z 10
_cell_length_a 12.993646
_cell_length_b 8.832823
_cell_length_c 12.494561
_cell_angle_alpha 44.382998
_cell_angle_beta 31.942654
_cell_angle_gamma 30.402882
_cell_volume 383.162309
_symmetry_space_group_name_H-M "P -1"
_symmetry_group_IT_number 2
_symmetry_cell_setting 'triclinic'
loop_
_space_group_symop_operation_xyz
x,y,z
-x,-y,-z
loop_
_atom_site_type_symbol
_atom_site_label
_atom_site_fract_x
_atom_site_fract_y
_atom_site_fract_z
Si Si1 0.560324 0.696763 0.579194
Si Si2 0.142171 0.048737 0.586967
Si Si3 0.379565 0.094270 0.853262
Si Si4 0.976706 0.281612 0.262912
Si Si5 0.779971 0.190811 0.004320
O O1 0.859570 0.436574 0.402522
O O2 0.489240 0.601005 0.791238
O O3 0.500000 0.000000 0.500000
O O4 0.361647 0.786430 0.611779
O O5 0.312555 0.104589 0.350728
O O6 0.072714 0.926226 0.621095
O O7 0.891288 0.275126 0.776278
O O8 0.217037 0.433291 0.790552
O O9 0.257171 0.997629 0.936728
O O10 0.279817 0.113882 0.049940
O O11 0.000000 0.000000 0.000000
#
# Coordination Sequence:
#
# PCOD9073487 Si02
#       5
#     2   2   2   2   2
#     4  10  14  21  26  32  39  42  46  58  60  60
#     4   9  16  23  27  32  37  46  49  51  61  70
#     4   9  14  23  27  30  39  45  48  55  58  67
#     4   9  16  21  28  32  37  45  50  51  61  69
#     4   9  16  20  27  34  38  42  50  55  61  64
#
# _framework density 26.098600000000001
#
# number of rings (size 3 to 8) (size 9 to 14) (size 15 to 20)
#    0.000    2.800    4.000    2.400    0.000    1.600 
#    0.000    0.000    0.000    0.000    0.000    0.000 
#    0.000    0.000    0.000    0.000    0.000    0.000 
#
# Total GULP energy -55784.402125 kJ/mol
# GULP energy per Si atom -5578.440212 kJ/mol
# Density = 2.603920 g / cm^3
# Si number density = 26.098600 Si / 1000 Ang^3
#
#
#
# Elastic Constant Matrix: (Units=GPa)
#
#
# Indices 1 2 3 4 5 6 
#
# 1 90.7424 39.9922 38.0412 16.1258 -21.8007 -3.7654
# 2 39.9922 104.8045 72.6583 -3.6255 10.4853 10.7239
# 3 38.0412 72.6583 317.2645 36.9907 38.1810 31.8995
# 4 16.1258 -3.6255 36.9907 21.8786 43.0829 15.1440
# 5 -21.8007 10.4853 38.1810 43.0829 5.0546 1.8913
# 6 -3.7654 10.7239 31.8995 15.1440 1.8913 24.8174
#
#
#
# Elastic Compliance Matrix: (Units=1/GPa)
#
#
# Indices 1 2 3 4 5 6 
#
# 1 0.009513 -0.002317 -0.000562 0.006657 -0.006514 -0.000399
# 2 -0.002317 0.011784 -0.002747 -0.002231 0.005697 -0.000985
# 3 -0.000562 -0.002747 0.004686 -0.003495 -0.001324 -0.002687
# 4 0.006657 -0.002231 -0.003495 0.004511 0.020485 0.002152
# 5 -0.006514 0.005697 -0.001324 0.020485 -0.001377 -0.014143
# 6 -0.000399 -0.000985 -0.002687 0.002152 -0.014143 0.043878
#
#
# Mechanical properties :
#
#
# Convention : Reuss Voigt Hill
#
# Bulk Modulus (GPa) = 67.89486 90.46608 79.18047
# Shear Modulus (GPa) = 56.08011 34.49144 45.28578
#
# Velocity S-wave (km/s) = 4.64052 3.63930 4.17007
# Velocity P-wave (km/s) = 7.40161 7.23863 7.32057
#
# Compressibility (1/GPa) = 0.01472865
#
# Stress axis : x y z
#
# Youngs Moduli (GPa) = 105.12272 84.85950 213.42098
#
# Poissons Ratio (x) = 0.19666 0.11996
# Poissons Ratio (y) = 0.24362 0.58634
# Poissons Ratio (z) = 0.05909 0.23314
#
# Static dielectric constant tensor:
#      x y z
#    x 1.991010 -0.000480 0.039310 
#    y -0.000480 2.000740 0.062540 
#    z 0.039310 0.062540 2.225520 
# 
# From -- ./inp_files/166584.got.cif
#   From: 2010.05.17/outbox.cif.g08.bks.cpg/sg2_84_cif.got.tgz:166584.got - 2010.06.03 11:33:40.
