data_PCOD9073947
_publ_section_title
;
Structure prediction by ZEFSAII (Michael W. Deem and Ramdas Pophale) SiO2 
 PCOD9073947
Probable space group: P -1
;
_chemical_formula_sum "Si O2"
_cell_formula_units_Z 16
_cell_length_a 14.119369
_cell_length_b 12.341420
_cell_length_c 13.971592
_cell_angle_alpha 118.109933
_cell_angle_beta 150.132181
_cell_angle_gamma 39.358854
_cell_volume 596.405698
_symmetry_space_group_name_H-M "P -1"
_symmetry_group_IT_number 2
_symmetry_cell_setting 'triclinic'
loop_
_space_group_symop_operation_xyz
x,y,z
-x,-y,-z
loop_
_atom_site_type_symbol
_atom_site_label
_atom_site_fract_x
_atom_site_fract_y
_atom_site_fract_z
Si Si1 0.815989 0.247810 0.210299
Si Si2 0.893461 0.696495 0.395875
Si Si3 0.495905 0.343749 0.164015
Si Si4 0.685055 0.676681 0.722283
Si Si5 0.586665 0.199430 0.844959
Si Si6 0.757770 0.281932 0.569874
Si Si7 0.213875 0.144408 0.229373
Si Si8 0.164616 0.267035 0.857921
O O1 0.071407 0.210854 0.461181
O O2 0.500000 0.500000 0.000000
O O3 0.699044 0.238351 0.199624
O O4 0.859529 0.142616 0.109809
O O5 0.274921 0.432565 0.613722
O O6 0.803204 0.783710 0.245875
O O7 0.627781 0.745608 0.231636
O O8 0.146246 0.606706 0.948599
O O9 0.428057 0.238432 0.090852
O O10 0.664103 0.321104 0.392197
O O11 0.343352 0.799623 0.515289
O O12 0.681615 0.817369 0.746239
O O13 0.812630 0.529263 0.681766
O O14 0.000000 0.500000 0.000000
O O15 0.778448 0.995011 0.865979
O O16 0.500000 0.500000 0.500000
O O17 0.102818 0.177498 0.829787
O O18 0.500000 0.000000 0.500000
#
# Coordination Sequence:
#
# PCOD9073947 Si02
#       8
#     2   2   2   2   2   2   2   2
#     4  10  21  35  60  88 121 170 216 251 308 387
#     4  10  19  35  62  83 120 167 213 247 308 385
#     4  11  20  39  62  95 126 159 213 264 310 377
#     4  10  19  37  61  88 125 167 205 254 310 375
#     4  10  21  37  57  86 126 167 201 257 317 368
#     4  10  20  34  61  94 118 161 215 260 301 374
#     4  11  24  38  64  97 132 165 201 263 327 367
#     4  10  18  31  61  92 109 153 215 259 295 360
#
# _framework density 26.827376000000001
#
# number of rings (size 3 to 8) (size 9 to 14) (size 15 to 20)
#    0.000    1.750    5.000    1.500    3.500    0.000 
#    0.000    6.250    0.000    3.750    0.000    0.000 
#    0.000    0.000    0.000    0.000    0.000    0.000 
#
# Total GULP energy -89519.049482 kJ/mol
# GULP energy per Si atom -5594.940593 kJ/mol
# Density = 2.676632 g / cm^3
# Si number density = 26.827376 Si / 1000 Ang^3
#
#
#
# Elastic Constant Matrix: (Units=GPa)
#
#
# Indices 1 2 3 4 5 6 
#
# 1 97.5551 14.4381 27.8676 -0.9945 6.6908 0.1385
# 2 14.4381 139.9572 53.6078 16.0945 -2.0367 -20.3754
# 3 27.8676 53.6078 83.3140 8.7318 -8.3086 -8.6360
# 4 -0.9945 16.0945 8.7318 52.1278 -12.6890 3.0098
# 5 6.6908 -2.0367 -8.3086 -12.6890 42.8321 7.0180
# 6 0.1385 -20.3754 -8.6360 3.0098 7.0180 51.7813
#
#
#
# Elastic Compliance Matrix: (Units=1/GPa)
#
#
# Indices 1 2 3 4 5 6 
#
# 1 0.011643 0.000401 -0.004462 0.000242 -0.002547 -0.000286
# 2 0.000401 0.010337 -0.006347 -0.002862 -0.002220 0.003475
# 3 -0.004462 -0.006347 0.017983 -0.000208 0.003821 0.000008
# 4 0.000242 -0.002862 -0.000208 0.021967 0.006845 -0.003366
# 5 -0.002547 -0.002220 0.003821 0.006845 0.027113 -0.004302
# 6 -0.000286 0.003475 0.000008 -0.003366 -0.004302 0.021460
#
#
# Mechanical properties :
#
#
# Convention : Reuss Voigt Hill
#
# Bulk Modulus (GPa) = 52.22324 56.96148 54.59236
# Shear Modulus (GPa) = 36.31033 44.34242 40.32638
#
# Velocity S-wave (km/s) = 3.68296 4.06997 3.88129
# Velocity P-wave (km/s) = 6.13141 6.58521 6.36236
#
# Compressibility (1/GPa) = 0.01914856
#
# Stress axis : x y z
#
# Youngs Moduli (GPa) = 85.88620 96.73554 55.60878
#
# Poissons Ratio (x) = -0.03882 0.24811
# Poissons Ratio (y) = -0.03446 0.35295
# Poissons Ratio (z) = 0.38320 0.61398
#
# Static dielectric constant tensor:
#      x y z
#    x 2.082450 0.033850 0.054640 
#    y 0.033850 2.169000 -0.066060 
#    z 0.054640 -0.066060 2.074460 
# 
# From -- ./inp_files/532644.got.cif
#   From: 2010.05.17/outbox.cif.g08.bks.cpg/sg2_267_cif.got.tgz:532644.got - 2010.06.03 11:33:40.
