data_PCOD9073495
_publ_section_title
;
Structure prediction by ZEFSAII (Michael W. Deem and Ramdas Pophale) SiO2 
 PCOD9073495
Probable space group: P -1
;
_chemical_formula_sum "Si O2"
_cell_formula_units_Z 14
_cell_length_a 9.540846
_cell_length_b 11.344926
_cell_length_c 9.987611
_cell_angle_alpha 70.381827
_cell_angle_beta 137.821627
_cell_angle_gamma 124.807015
_cell_volume 588.483507
_symmetry_space_group_name_H-M "P -1"
_symmetry_group_IT_number 2
_symmetry_cell_setting 'triclinic'
loop_
_space_group_symop_operation_xyz
x,y,z
-x,-y,-z
loop_
_atom_site_type_symbol
_atom_site_label
_atom_site_fract_x
_atom_site_fract_y
_atom_site_fract_z
Si Si1 0.017570 0.681349 0.957222
Si Si2 0.430011 0.556781 0.133253
Si Si3 0.655302 0.370039 0.247388
Si Si4 0.186210 0.812211 0.447991
Si Si5 0.695582 0.666438 0.529561
Si Si6 0.499572 0.135210 0.619160
Si Si7 0.855765 0.835449 0.001674
O O1 0.822214 0.517147 0.930834
O O2 0.909579 0.755467 0.951871
O O3 0.298514 0.775338 0.158292
O O4 0.951050 0.692679 0.752871
O O5 0.342539 0.588843 0.920178
O O6 0.559079 0.462737 0.223909
O O7 0.638028 0.675952 0.330897
O O8 0.858356 0.337022 0.458820
O O9 0.419720 0.209884 0.158597
O O10 0.349244 0.836941 0.421188
O O11 0.945866 0.798057 0.216672
O O12 0.322286 0.961839 0.571980
O O13 0.500000 0.500000 0.500000
O O14 0.648394 0.781908 0.527009
O O15 0.000000 0.000000 0.000000
#
# Coordination Sequence:
#
# PCOD9073495 Si02
#       7
#     2   2   2   2   2   2   2
#     4   9  18  32  51  77 102 132 170 210 256 302
#     4   9  20  35  53  74 106 142 171 209 256 311
#     4  10  19  37  53  74 108 136 170 215 258 305
#     4  10  19  32  55  80 101 133 170 216 264 300
#     4  10  19  33  51  75 105 137 172 210 254 305
#     4  10  19  32  53  80 102 126 171 219 256 298
#     4  10  18  31  55  81 101 129 173 217 257 303
#
# _framework density 23.789961999999999
#
# number of rings (size 3 to 8) (size 9 to 14) (size 15 to 20)
#    0.000    2.286    0.000    6.000    0.000    2.286 
#    0.000   17.857    0.000    6.000    0.000    0.000 
#    0.000    0.000    0.000    0.000    0.000    0.000 
#
# Total GULP energy -78073.896470 kJ/mol
# GULP energy per Si atom -5576.706891 kJ/mol
# Density = 2.373582 g / cm^3
# Si number density = 23.789962 Si / 1000 Ang^3
#
#
#
# Elastic Constant Matrix: (Units=GPa)
#
#
# Indices 1 2 3 4 5 6 
#
# 1 41.2822 -3.5946 7.3387 -3.5354 2.6938 -5.0840
# 2 -3.5946 72.0828 9.4747 -2.6045 -0.4182 -14.8996
# 3 7.3387 9.4747 158.8269 -3.0819 8.8204 -11.2700
# 4 -3.5354 -2.6045 -3.0819 35.8479 -8.0066 3.2598
# 5 2.6938 -0.4182 8.8204 -8.0066 23.5788 -2.9227
# 6 -5.0840 -14.8996 -11.2700 3.2598 -2.9227 14.2855
#
#
#
# Elastic Compliance Matrix: (Units=1/GPa)
#
#
# Indices 1 2 3 4 5 6 
#
# 1 0.026414 0.004075 -0.000491 0.001552 -0.000651 0.012776
# 2 0.004075 0.018484 0.000079 0.000402 0.002601 0.021231
# 3 -0.000491 0.000079 0.006767 -0.000351 -0.001983 0.004920
# 4 0.001552 0.000402 -0.000351 0.030633 0.009832 -0.004284
# 5 -0.000651 0.002601 -0.001983 0.009832 0.047656 0.008423
# 6 0.012776 0.021231 0.004920 -0.004284 0.008423 0.103274
#
#
# Mechanical properties :
#
#
# Convention : Reuss Voigt Hill
#
# Bulk Modulus (GPa) = 16.95178 33.18108 25.06643
# Shear Modulus (GPa) = 20.36110 32.00730 26.18420
#
# Velocity S-wave (km/s) = 2.92870 3.67196 3.32119
# Velocity P-wave (km/s) = 4.31015 5.65292 5.02658
#
# Compressibility (1/GPa) = 0.05899087
#
# Stress axis : x y z
#
# Youngs Moduli (GPa) = 37.85819 54.10117 147.78507
#
# Poissons Ratio (x) = -0.22045 0.07252
# Poissons Ratio (y) = -0.15426 -0.01167
# Poissons Ratio (z) = 0.01858 -0.00427
#
# Static dielectric constant tensor:
#      x y z
#    x 1.902620 0.067560 0.012460 
#    y 0.067560 2.108760 0.021340 
#    z 0.012460 0.021340 1.964270 
# 
# From -- ./inp_files/257779.got.cif
#   From: 2010.05.17/outbox.cif.g08.bks.cpg/sg2_129_cif.got.tgz:257779.got - 2010.06.03 11:33:40.
