data_PCOD9073739
_publ_section_title
;
Structure prediction by ZEFSAII (Michael W. Deem and Ramdas Pophale) SiO2 
 PCOD9073739
Probable space group: P -1
;
_chemical_formula_sum "Si O2"
_cell_formula_units_Z 12
_cell_length_a 15.000000
_cell_length_b 9.000000
_cell_length_c 18.000000
_cell_angle_alpha 40.000000
_cell_angle_beta 160.000000
_cell_angle_gamma 130.000000
_cell_volume 500.334326
_symmetry_space_group_name_H-M "P -1"
_symmetry_group_IT_number 2
_symmetry_cell_setting 'triclinic'
loop_
_space_group_symop_operation_xyz
x,y,z
-x,-y,-z
loop_
_atom_site_type_symbol
_atom_site_label
_atom_site_fract_x
_atom_site_fract_y
_atom_site_fract_z
Si Si1 0.877846 0.927840 0.623229
Si Si2 0.253803 0.749899 0.430012
Si Si3 0.039515 0.371131 0.336785
Si Si4 0.568658 0.978567 0.974436
Si Si5 0.788534 0.757247 0.762529
Si Si6 0.389765 0.540719 0.783409
O O1 0.929050 0.701675 0.696054
O O2 0.680590 0.902713 0.544678
O O3 0.738174 0.199468 0.374108
O O4 0.186711 0.917335 0.892515
O O5 0.113971 0.607052 0.323714
O O6 0.555470 0.724291 0.644522
O O7 0.293473 0.621232 0.591799
O O8 0.088488 0.043895 0.184230
O O9 0.723127 0.428485 0.090202
O O10 0.276671 0.138391 0.648821
O O11 0.691225 0.687081 0.164626
O O12 0.500000 0.000000 0.000000
O O13 0.000000 0.500000 0.000000
#
# Coordination Sequence:
#
# PCOD9073739 Si02
#       6
#     2   2   2   2   2   2
#     4  11  26  42  65  99 129 167 217 265 314 379
#     4  10  23  42  66  92 129 170 207 262 318 376
#     4  12  23  41  66  98 128 169 211 264 320 374
#     4  12  23  43  68  91 133 173 210 262 319 377
#     4  10  21  43  67  90 126 169 212 258 319 378
#     4  11  24  43  65  97 132 170 215 257 317 380
#
# _framework density 23.983962999999999
#
# number of rings (size 3 to 8) (size 9 to 14) (size 15 to 20)
#    0.000    1.000    3.333    3.000    0.000    5.333 
#    0.000   13.333    0.000    0.000    0.000    0.000 
#    0.000    0.000    0.000    0.000    0.000    0.000 
#
# Total GULP energy -67058.362744 kJ/mol
# GULP energy per Si atom -5588.196895 kJ/mol
# Density = 2.392937 g / cm^3
# Si number density = 23.983963 Si / 1000 Ang^3
#
#
#
# Elastic Constant Matrix: (Units=GPa)
#
#
# Indices 1 2 3 4 5 6 
#
# 1 70.8348 49.7164 20.8190 17.2482 17.8772 8.1217
# 2 49.7164 182.7204 16.9520 -24.0921 -4.8647 -22.8793
# 3 20.8190 16.9520 67.4665 -14.2440 8.0186 -11.8737
# 4 17.2482 -24.0921 -14.2440 38.0106 -4.9216 6.7217
# 5 17.8772 -4.8647 8.0186 -4.9216 18.4699 -9.6795
# 6 8.1217 -22.8793 -11.8737 6.7217 -9.6795 27.1015
#
#
#
# Elastic Compliance Matrix: (Units=1/GPa)
#
#
# Indices 1 2 3 4 5 6 
#
# 1 -0.032718 0.019545 0.012527 0.031986 0.064472 0.046887
# 2 0.019545 -0.004531 -0.007986 -0.015158 -0.031521 -0.020680
# 3 0.012527 -0.007986 0.012436 -0.007419 -0.028648 -0.013439
# 4 0.031986 -0.015158 -0.007419 0.000269 -0.055519 -0.045528
# 5 0.064472 -0.031521 -0.028648 -0.055519 -0.052104 -0.063322
# 6 0.046887 -0.020680 -0.013439 -0.045528 -0.063322 -0.011822
#
#
# Mechanical properties :
#
#
# Convention : Reuss Voigt Hill
#
# Bulk Modulus (GPa) = 42.80966 55.11074 48.96020
# Shear Modulus (GPa) = -38.80285 32.28535 -3.25875
#
# Velocity S-wave (km/s) = -4.02663 3.67293 -1.16691
# Velocity P-wave (km/s) = 1.93141 6.40432 4.31769
#
# Compressibility (1/GPa) = 0.02335922
#
# Stress axis : x y z
#
# Youngs Moduli (GPa) = -30.56414 -220.68048 80.40884
#
# Poissons Ratio (x) = 4.31316 -1.00731
# Poissons Ratio (y) = 0.59737 0.64215
# Poissons Ratio (z) = 0.38289 -1.76236
#
# Static dielectric constant tensor:
#      x y z
#    x 1.968940 -0.075330 -0.037700 
#    y -0.075330 2.070930 -0.025090 
#    z -0.037700 -0.025090 1.892970 
# 
# From -- ./inp_files/23815.got.cif
#   From: 2010.05.17/outbox.ucp.g08.bks.cvg/sg2_12_cif.got.tgz:23815.got - 2010.06.11 11:32:03.
