data_PCOD9073154
_publ_section_title
;
Structure prediction by ZEFSAII (Michael W. Deem and Ramdas Pophale) SiO2 
 PCOD9073154
Probable space group: P -1
;
_chemical_formula_sum "Si O2"
_cell_formula_units_Z 16
_cell_length_a 9.000000
_cell_length_b 27.000000
_cell_length_c 9.000000
_cell_angle_alpha 40.000000
_cell_angle_beta 70.000000
_cell_angle_gamma 40.000000
_cell_volume 727.930595
_symmetry_space_group_name_H-M "P -1"
_symmetry_group_IT_number 2
_symmetry_cell_setting 'triclinic'
loop_
_space_group_symop_operation_xyz
x,y,z
-x,-y,-z
loop_
_atom_site_type_symbol
_atom_site_label
_atom_site_fract_x
_atom_site_fract_y
_atom_site_fract_z
Si Si1 0.004341 0.424390 0.776194
Si Si2 0.191513 0.002104 0.256436
Si Si3 0.252879 0.611231 0.205869
Si Si4 0.223525 0.377292 0.359546
Si Si5 0.615034 0.593374 0.037716
Si Si6 0.622147 0.924916 0.788928
Si Si7 0.299205 0.924741 0.065638
Si Si8 0.392907 0.793692 0.892394
O O1 0.795199 0.445879 0.738501
O O2 0.903456 0.496543 0.804197
O O3 0.000000 0.500000 0.500000
O O4 0.336016 0.264877 0.019482
O O5 0.316772 0.025257 0.244136
O O6 0.842509 0.140489 0.062827
O O7 0.326063 0.941562 0.187847
O O8 0.257071 0.898901 0.565366
O O9 0.500000 0.500000 0.500000
O O10 0.379776 0.624523 0.021872
O O11 0.942396 0.759220 0.038549
O O12 0.371337 0.347096 0.229160
O O13 0.460666 0.235131 0.692809
O O14 0.949007 0.433821 0.298540
O O15 0.527311 0.665465 0.059092
O O16 0.500000 0.000000 0.500000
O O17 0.382653 0.964440 0.847324
O O18 0.000000 0.000000 0.000000
#
# Coordination Sequence:
#
# PCOD9073154 Si02
#       8
#     2   2   2   2   2   2   2   2
#     4  11  24  41  65  98 137 174 231 284 348 410
#     4  11  24  43  74  96 143 185 235 283 354 421
#     4  12  25  43  71 100 136 181 232 288 347 411
#     4  10  23  43  67  97 134 176 223 286 337 414
#     4  10  20  43  71  96 129 174 229 282 345 402
#     4  12  28  47  71 107 145 185 237 296 351 423
#     4  12  28  44  69 105 144 187 234 286 353 423
#     4  10  21  42  70 101 130 185 231 283 350 418
#
# _framework density 21.980117
#
# number of rings (size 3 to 8) (size 9 to 14) (size 15 to 20)
#    0.000    1.000    2.500    4.125    8.750    0.500 
#    0.000    1.250    0.000    0.000    0.000    0.000 
#    0.000    0.000    0.000    0.000    0.000    0.000 
#
# Total GULP energy -89268.743058 kJ/mol
# GULP energy per Si atom -5579.296441 kJ/mol
# Density = 2.193009 g / cm^3
# Si number density = 21.980117 Si / 1000 Ang^3
#
#
#
# Elastic Constant Matrix: (Units=GPa)
#
#
# Indices 1 2 3 4 5 6 
#
# 1 157.0889 48.1302 27.9634 2.3578 1.7844 -19.2145
# 2 48.1302 109.8796 41.4185 10.3899 -2.6362 -20.4413
# 3 27.9634 41.4185 64.0264 5.9372 5.9888 -7.5137
# 4 2.3578 10.3899 5.9372 24.8048 -2.3589 -2.1887
# 5 1.7844 -2.6362 5.9888 -2.3589 24.3872 7.8675
# 6 -19.2145 -20.4413 -7.5137 -2.1887 7.8675 42.7717
#
#
#
# Elastic Compliance Matrix: (Units=1/GPa)
#
#
# Indices 1 2 3 4 5 6 
#
# 1 0.007662 -0.002497 -0.001431 0.000751 -0.001130 0.002243
# 2 -0.002497 0.014063 -0.007442 -0.003351 0.001996 0.003753
# 3 -0.001431 -0.007442 0.022001 -0.002574 -0.006592 0.000746
# 4 0.000751 -0.003351 -0.002574 0.042655 0.004455 -0.000353
# 5 -0.001130 0.001996 -0.006592 0.004455 0.046254 -0.008992
# 6 0.002243 0.003753 0.000746 -0.000353 -0.008992 0.027948
#
#
# Mechanical properties :
#
#
# Convention : Reuss Voigt Hill
#
# Bulk Modulus (GPa) = 47.65551 62.89101 55.27326
# Shear Modulus (GPa) = 26.27159 32.62493 29.44826
#
# Velocity S-wave (km/s) = 3.46098 3.85683 3.66426
# Velocity P-wave (km/s) = 6.13999 6.96479 6.56535
#
# Compressibility (1/GPa) = 0.02098393
#
# Stress axis : x y z
#
# Youngs Moduli (GPa) = 130.51909 71.10896 45.45285
#
# Poissons Ratio (x) = 0.17758 0.06506
# Poissons Ratio (y) = 0.32594 0.33826
# Poissons Ratio (z) = 0.18683 0.52920
#
# Static dielectric constant tensor:
#      x y z
#    x 1.853880 0.018390 0.041260 
#    y 0.018390 1.850820 -0.059630 
#    z 0.041260 -0.059630 1.922030 
# 
# From -- ./inp_files/227700.got.cif
#   From: 2010.05.17/outbox.ucp.g08.bks.cvg/sg2_114_cif.got.tgz:227700.got - 2010.06.11 11:32:03.
