data_PCOD9073754
_publ_section_title
;
Structure prediction by ZEFSAII (Michael W. Deem and Ramdas Pophale) SiO2 
 PCOD9073754
Probable space group: P -1
;
_chemical_formula_sum "Si O2"
_cell_formula_units_Z 13
_cell_length_a 9.000000
_cell_length_b 15.000000
_cell_length_c 18.000000
_cell_angle_alpha 160.000000
_cell_angle_beta 120.000000
_cell_angle_gamma 50.000000
_cell_volume 584.336138
_symmetry_space_group_name_H-M "P -1"
_symmetry_group_IT_number 2
_symmetry_cell_setting 'triclinic'
loop_
_space_group_symop_operation_xyz
x,y,z
-x,-y,-z
loop_
_atom_site_type_symbol
_atom_site_label
_atom_site_fract_x
_atom_site_fract_y
_atom_site_fract_z
Si Si1 0.268286 0.165125 0.657111
Si Si2 0.918564 0.939924 0.006917
Si Si3 0.395270 0.477709 0.137405
Si Si4 0.739118 0.257159 0.936075
Si Si5 0.457752 0.316214 0.197622
Si Si6 0.980750 0.295323 0.545842
Si Si7 0.000000 0.500000 0.000000
O O1 0.153690 0.290948 0.805133
O O2 0.097666 0.260472 0.624394
O O3 0.410418 0.778829 0.389412
O O4 0.356590 0.376645 0.826338
O O5 0.925478 0.620205 0.747613
O O6 0.071813 0.858318 0.049472
O O7 0.684443 0.251189 0.211607
O O8 0.000000 0.000000 0.000000
O O9 0.426624 0.323629 0.106450
O O10 0.567267 0.261493 0.947247
O O11 0.170393 0.578551 0.131427
O O12 0.858372 0.011554 0.705011
O O13 0.247649 0.623945 0.424354
O O14 0.500000 0.000000 0.000000
#
# Coordination Sequence:
#
# PCOD9073754 Si02
#       7
#     2   2   2   2   2   2   1
#     4  11  25  44  70 101 145 181 233 292 349 420
#     4  10  21  43  69 101 139 185 235 289 346 412
#     4  12  25  46  71 105 145 183 234 292 349 425
#     4  11  25  44  72 106 140 187 234 290 358 413
#     4  10  22  45  71  97 144 183 229 294 344 410
#     4  10  23  44  69 100 145 179 233 293 342 425
#     4  12  26  42  72 102 136 188 236 278 358 414
#
# _framework density 22.247468999999999
#
# number of rings (size 3 to 8) (size 9 to 14) (size 15 to 20)
#    0.000    1.231    3.077    1.846    2.154    6.154 
#    0.000    0.000    0.000    0.000    0.000    0.000 
#    0.000    0.000    0.000    0.000    0.000    0.000 
#
# Total GULP energy -72390.653366 kJ/mol
# GULP energy per Si atom -5568.511797 kJ/mol
# Density = 2.219683 g / cm^3
# Si number density = 22.247469 Si / 1000 Ang^3
#
#
#
# Elastic Constant Matrix: (Units=GPa)
#
#
# Indices 1 2 3 4 5 6 
#
# 1 147.8387 30.8419 35.8210 2.1338 -32.1986 1.1888
# 2 30.8419 71.0992 33.2008 0.2530 -6.8344 17.8430
# 3 35.8210 33.2008 82.4416 -7.2144 -14.7683 17.0023
# 4 2.1338 0.2530 -7.2144 27.7001 6.8407 -1.1125
# 5 -32.1986 -6.8344 -14.7683 6.8407 37.2437 -5.3937
# 6 1.1888 17.8430 17.0023 -1.1125 -5.3937 35.4603
#
#
#
# Elastic Compliance Matrix: (Units=1/GPa)
#
#
# Indices 1 2 3 4 5 6 
#
# 1 0.009811 -0.003181 -0.002580 -0.003227 0.007993 0.003623
# 2 -0.003181 0.019691 -0.005485 -0.001124 -0.002197 -0.007541
# 3 -0.002580 -0.005485 0.017215 0.004006 0.002136 -0.004957
# 4 -0.003227 -0.001124 0.004006 0.039538 -0.008866 -0.001355
# 5 0.007993 -0.002197 0.002136 -0.008866 0.036571 0.005098
# 6 0.003623 -0.007541 -0.004957 -0.001355 0.005098 0.034983
#
#
# Mechanical properties :
#
#
# Convention : Reuss Voigt Hill
#
# Bulk Modulus (GPa) = 41.27619 55.67855 48.47737
# Shear Modulus (GPa) = 26.54282 33.51520 30.02901
#
# Velocity S-wave (km/s) = 3.45783 3.88554 3.67791
# Velocity P-wave (km/s) = 5.87670 6.72392 6.31454
#
# Compressibility (1/GPa) = 0.02422704
#
# Stress axis : x y z
#
# Youngs Moduli (GPa) = 101.92704 50.78452 58.08900
#
# Poissons Ratio (x) = 0.16153 0.14985
# Poissons Ratio (y) = 0.32419 0.31859
# Poissons Ratio (z) = 0.26294 0.27853
#
# Static dielectric constant tensor:
#      x y z
#    x 1.853340 -0.023930 0.035960 
#    y -0.023930 1.822700 0.037260 
#    z 0.035960 0.037260 1.825700 
# 
# From -- ./inp_files/36204.got.cif
#   From: 2010.05.17/outbox.ucp.g08.bks.cvg/sg2_19_cif.got.tgz:36204.got - 2010.06.11 11:32:03.
