data_PCOD9073710
_publ_section_title
;
Structure prediction by ZEFSAII (Michael W. Deem and Ramdas Pophale) SiO2 
 PCOD9073710
Probable space group: P -1
;
_chemical_formula_sum "Si O2"
_cell_formula_units_Z 14
_cell_length_a 9.000000
_cell_length_b 12.000000
_cell_length_c 9.000000
_cell_angle_alpha 60.000000
_cell_angle_beta 100.000000
_cell_angle_gamma 130.000000
_cell_volume 628.643806
_symmetry_space_group_name_H-M "P -1"
_symmetry_group_IT_number 2
_symmetry_cell_setting 'triclinic'
loop_
_space_group_symop_operation_xyz
x,y,z
-x,-y,-z
loop_
_atom_site_type_symbol
_atom_site_label
_atom_site_fract_x
_atom_site_fract_y
_atom_site_fract_z
Si Si1 0.132639 0.538684 0.711972
Si Si2 0.269857 0.782651 0.294983
Si Si3 0.709910 0.619088 0.036072
Si Si4 0.039564 0.719239 0.781616
Si Si5 0.915991 0.857055 0.452858
Si Si6 0.307630 0.063859 0.772998
Si Si7 0.792248 0.963684 0.894489
O O1 0.220860 0.684432 0.506652
O O2 0.274433 0.491940 0.774513
O O3 0.101476 0.611691 0.805332
O O4 0.921612 0.359054 0.744536
O O5 0.465056 0.834060 0.218371
O O6 0.317343 0.960595 0.208462
O O7 0.500000 0.500000 0.000000
O O8 0.729320 0.778092 0.989933
O O9 0.877195 0.662665 0.918302
O O10 0.939281 0.731073 0.612004
O O11 0.225059 0.905769 0.754658
O O12 0.713015 0.812166 0.399351
O O13 0.000000 0.000000 0.500000
O O14 0.041500 0.930833 0.274378
O O15 0.182694 0.001203 0.946928
#
# Coordination Sequence:
#
# PCOD9073710 Si02
#       7
#     2   2   2   2   2   2   2
#     4  11  27  49  68 107 148 184 230 302 351 420
#     4  11  27  45  75 103 143 189 237 286 363 414
#     4  12  29  43  73 106 144 185 236 293 357 415
#     4  11  24  47  72 102 145 186 235 290 358 415
#     4  10  21  42  71 103 135 182 236 287 343 417
#     4  11  25  41  76 106 137 188 239 291 345 427
#     4  12  24  46  70 104 141 184 238 286 350 422
#
# _framework density 22.270163
#
# number of rings (size 3 to 8) (size 9 to 14) (size 15 to 20)
#    0.000    0.857    4.286    2.143    8.000    0.571 
#    0.000    1.429    0.000    0.000    0.000    0.000 
#    0.000    0.000    0.000    0.000    0.000    0.000 
#
# Total GULP energy -77994.094804 kJ/mol
# GULP energy per Si atom -5571.006772 kJ/mol
# Density = 2.221948 g / cm^3
# Si number density = 22.270163 Si / 1000 Ang^3
#
#
#
# Elastic Constant Matrix: (Units=GPa)
#
#
# Indices 1 2 3 4 5 6 
#
# 1 106.3897 53.9175 31.8002 3.1700 26.7431 -16.0932
# 2 53.9175 90.6639 20.8023 -2.0031 13.0961 -23.0873
# 3 31.8002 20.8023 94.4630 6.7198 19.0689 -11.2581
# 4 3.1700 -2.0031 6.7198 21.0485 -15.7984 7.1396
# 5 26.7431 13.0961 19.0689 -15.7984 49.2350 -1.4735
# 6 -16.0932 -23.0873 -11.2581 7.1396 -1.4735 49.9672
#
#
#
# Elastic Compliance Matrix: (Units=1/GPa)
#
#
# Indices 1 2 3 4 5 6 
#
# 1 0.017211 -0.007997 -0.000573 -0.012420 -0.010890 0.003172
# 2 -0.007997 0.017129 -0.000849 0.002176 0.000961 0.004865
# 3 -0.000573 -0.000849 0.014137 -0.012548 -0.008841 0.004141
# 4 -0.012420 0.002176 -0.012548 0.088737 0.038981 -0.017351
# 5 -0.010890 0.000961 -0.008841 0.038981 0.041621 -0.009398
# 6 0.003172 0.004865 0.004141 -0.017351 -0.009398 0.026418
#
#
# Mechanical properties :
#
#
# Convention : Reuss Voigt Hill
#
# Bulk Modulus (GPa) = 33.74029 56.06183 44.90106
# Shear Modulus (GPa) = 21.37032 36.38326 28.87679
#
# Velocity S-wave (km/s) = 3.10109 4.04632 3.60482
# Velocity P-wave (km/s) = 5.29204 6.85991 6.12634
#
# Compressibility (1/GPa) = 0.02963815
#
# Stress axis : x y z
#
# Youngs Moduli (GPa) = 58.10240 58.38182 70.73832
#
# Poissons Ratio (x) = 0.46691 0.04053
# Poissons Ratio (y) = 0.46467 0.06004
# Poissons Ratio (z) = 0.03329 0.04955
#
# Static dielectric constant tensor:
#      x y z
#    x 1.860610 0.026460 0.062750 
#    y 0.026460 1.800170 -0.002290 
#    z 0.062750 -0.002290 1.925900 
# 
# From -- ./inp_files/185159.got.cif
#   From: 2010.05.17/outbox.ucp.g08.bks.cvg/sg2_93_cif.got.tgz:185159.got - 2010.06.11 11:32:03.
