data_PCOD9073870
_publ_section_title
;
Structure prediction by ZEFSAII (Michael W. Deem and Ramdas Pophale) SiO2 
 PCOD9073870
Probable space group: P -1
;
_chemical_formula_sum "Si O2"
_cell_formula_units_Z 16
_cell_length_a 8.563270
_cell_length_b 7.090871
_cell_length_c 19.019338
_cell_angle_alpha 47.141913
_cell_angle_beta 40.499816
_cell_angle_gamma 50.971466
_cell_volume 534.232338
_symmetry_space_group_name_H-M "P -1"
_symmetry_group_IT_number 2
_symmetry_cell_setting 'triclinic'
loop_
_space_group_symop_operation_xyz
x,y,z
-x,-y,-z
loop_
_atom_site_type_symbol
_atom_site_label
_atom_site_fract_x
_atom_site_fract_y
_atom_site_fract_z
Si Si1 0.786725 0.847336 0.096624
Si Si2 0.656190 0.664632 0.336178
Si Si3 0.413910 0.341110 0.422841
Si Si4 0.974140 0.142766 0.586418
Si Si5 0.689111 0.446950 0.110576
Si Si6 0.233654 0.210985 0.336058
Si Si7 0.356371 0.140237 0.083777
Si Si8 0.858300 0.006606 0.264906
O O1 0.765994 0.689626 0.215170
O O2 0.764430 0.640866 0.093863
O O3 0.540840 0.076428 0.102046
O O4 0.000000 0.000000 0.000000
O O5 0.545263 0.407451 0.431953
O O6 0.265422 0.626553 0.372677
O O7 0.842814 0.715664 0.318562
O O8 0.613781 0.192338 0.336857
O O9 0.428252 0.923926 0.353615
O O10 0.204601 0.175774 0.546639
O O11 0.920808 0.859536 0.659454
O O12 0.886879 0.970891 0.792772
O O13 0.405119 0.416468 0.216446
O O14 0.850546 0.162203 0.152471
O O15 0.726062 0.560134 0.992229
O O16 0.065572 0.238763 0.455556
O O17 0.500000 0.000000 0.000000
#
# Coordination Sequence:
#
# PCOD9073870 Si02
#       8
#     2   2   2   2   2   2   2   2
#     4  11  22  39  61  88 125 162 210 264 312 368
#     4  10  18  33  57  87 127 160 208 253 310 357
#     4  10  18  31  58  92 131 164 207 261 304 368
#     4   9  16  30  52  94 130 157 217 253 306 363
#     4  10  19  38  59  88 128 172 209 251 310 369
#     4   9  17  30  55  87 126 166 208 257 302 369
#     4  10  23  39  61  88 127 173 207 256 311 375
#     4  11  20  38  62  90 130 173 206 251 309 371
#
# _framework density 29.949517
#
# number of rings (size 3 to 8) (size 9 to 14) (size 15 to 20)
#    0.000    2.000    3.750    1.875    0.000    1.000 
#    0.000    5.625    5.500    0.000    0.000   26.250 
#    3.750    0.125    0.000    0.000    0.000    0.000 
#
# Total GULP energy -89733.215167 kJ/mol
# GULP energy per Si atom -5608.325948 kJ/mol
# Density = 2.988135 g / cm^3
# Si number density = 29.949517 Si / 1000 Ang^3
#
#
#
# Elastic Constant Matrix: (Units=GPa)
#
#
# Indices 1 2 3 4 5 6 
#
# 1 231.5272 55.9530 70.8316 -12.5066 -53.4458 30.3479
# 2 55.9530 135.6502 47.5259 -4.6139 -20.0119 42.3901
# 3 70.8316 47.5259 145.9924 -8.8700 -57.4516 13.8565
# 4 -12.5066 -4.6139 -8.8700 53.7442 1.0551 -5.8611
# 5 -53.4458 -20.0119 -57.4516 1.0551 80.9962 -15.4740
# 6 30.3479 42.3901 13.8565 -5.8611 -15.4740 66.9070
#
#
#
# Elastic Compliance Matrix: (Units=1/GPa)
#
#
# Indices 1 2 3 4 5 6 
#
# 1 0.005731 -0.001240 -0.001308 0.000865 0.002360 -0.000921
# 2 -0.001240 0.010482 -0.002807 -0.000463 -0.001331 -0.005845
# 3 -0.001308 -0.002807 0.010854 0.001308 0.006456 0.001732
# 4 0.000865 -0.000463 0.001308 0.019135 0.001448 0.001642
# 5 0.002360 -0.001331 0.006456 0.001448 0.018686 0.002884
# 6 -0.000921 -0.005845 0.001732 0.001642 0.002884 0.019520
#
#
# Mechanical properties :
#
#
# Convention : Reuss Voigt Hill
#
# Bulk Modulus (GPa) = 61.14277 95.75454 78.44866
# Shear Modulus (GPa) = 49.71631 62.92011 56.31821
#
# Velocity S-wave (km/s) = 4.07873 4.58850 4.34111
# Velocity P-wave (km/s) = 6.53001 7.75331 7.16781
#
# Compressibility (1/GPa) = 0.01635516
#
# Stress axis : x y z
#
# Youngs Moduli (GPa) = 174.47734 95.40526 92.13282
#
# Poissons Ratio (x) = 0.11832 0.12053
# Poissons Ratio (y) = 0.21639 0.25866
# Poissons Ratio (z) = 0.22825 0.26785
#
# Static dielectric constant tensor:
#      x y z
#    x 2.485690 -0.046510 0.030800 
#    y -0.046510 2.393000 -0.008020 
#    z 0.030800 -0.008020 2.438730 
# 
# From -- ./inp_files/586588.got.cif
#   From: 2010.05.17/outbox.cif.g08.bks.cpg/sg2_294_cif.got.tgz:586588.got - 2010.06.03 11:33:40.
