data_PCOD9073148
_publ_section_title
;
Structure prediction by ZEFSAII (Michael W. Deem and Ramdas Pophale) SiO2 
 PCOD9073148
Probable space group: P -1
;
_chemical_formula_sum "Si O2"
_cell_formula_units_Z 16
_cell_length_a 18.000000
_cell_length_b 12.000000
_cell_length_c 9.000000
_cell_angle_alpha 150.000000
_cell_angle_beta 50.000000
_cell_angle_gamma 130.000000
_cell_volume 725.531033
_symmetry_space_group_name_H-M "P -1"
_symmetry_group_IT_number 2
_symmetry_cell_setting 'triclinic'
loop_
_space_group_symop_operation_xyz
x,y,z
-x,-y,-z
loop_
_atom_site_type_symbol
_atom_site_label
_atom_site_fract_x
_atom_site_fract_y
_atom_site_fract_z
Si Si1 0.986570 0.465574 0.153167
Si Si2 0.482448 0.279467 0.163867
Si Si3 0.717441 0.878204 0.612976
Si Si4 0.799697 0.069303 0.026899
Si Si5 0.817729 0.555366 0.937040
Si Si6 0.401132 0.091702 0.764234
Si Si7 0.908126 0.829308 0.848492
Si Si8 0.680671 0.101372 0.634245
O O1 0.887277 0.282332 0.118413
O O2 0.963799 0.692781 0.509685
O O3 0.083534 0.420296 0.060892
O O4 0.000000 0.500000 0.000000
O O5 0.500000 0.500000 0.500000
O O6 0.393023 0.120647 0.187339
O O7 0.436441 0.294691 0.073902
O O8 0.581532 0.186735 0.906118
O O9 0.737848 0.653458 0.249344
O O10 0.736532 0.053660 0.655579
O O11 0.784272 0.927635 0.729553
O O12 0.688022 0.083850 0.236818
O O13 0.837979 0.939928 0.963257
O O14 0.848678 0.683800 0.891272
O O15 0.761771 0.297452 0.676947
O O16 0.500000 0.000000 0.500000
O O17 0.357462 0.108291 0.673923
O O18 0.000000 0.000000 0.000000
#
# Coordination Sequence:
#
# PCOD9073148 Si02
#       8
#     2   2   2   2   2   2   2   2
#     4  12  27  44  67  98 134 180 228 277 340 402
#     4  10  20  43  67  99 140 178 222 280 333 407
#     4  11  24  41  71 101 132 183 224 279 346 395
#     4  11  24  45  68  96 142 173 229 284 331 405
#     4  12  25  40  70  99 133 176 230 278 337 403
#     4   9  21  40  70  97 132 177 218 274 337 391
#     4  12  27  44  69  96 134 181 225 280 340 396
#     4  11  22  41  70  98 139 175 228 280 334 403
#
# _framework density 22.052813
#
# number of rings (size 3 to 8) (size 9 to 14) (size 15 to 20)
#    0.000    1.000    2.500    3.750    5.250    1.000 
#    0.000    0.625   13.750    0.000    0.000    0.000 
#    0.000    0.000    0.000    0.000    0.000    0.000 
#
# Total GULP energy -89204.162738 kJ/mol
# GULP energy per Si atom -5575.260171 kJ/mol
# Density = 2.200262 g / cm^3
# Si number density = 22.052813 Si / 1000 Ang^3
#
#
#
# Elastic Constant Matrix: (Units=GPa)
#
#
# Indices 1 2 3 4 5 6 
#
# 1 134.9089 67.5380 50.3467 -6.0788 23.9798 -18.4365
# 2 67.5380 101.1364 58.2591 -18.4344 2.3646 9.0783
# 3 50.3467 58.2591 86.2564 -22.6036 35.6398 -29.7159
# 4 -6.0788 -18.4344 -22.6036 29.3196 1.9403 4.4172
# 5 23.9798 2.3646 35.6398 1.9403 42.0444 -9.7304
# 6 -18.4365 9.0783 -29.7159 4.4172 -9.7304 17.3607
#
#
#
# Elastic Compliance Matrix: (Units=1/GPa)
#
#
# Indices 1 2 3 4 5 6 
#
# 1 0.008938 0.002218 -0.014487 -0.006362 0.004499 -0.012324
# 2 0.002218 -0.006670 0.024128 0.010144 -0.013211 0.037157
# 3 -0.014487 0.024128 -0.014850 0.007984 0.007229 -0.051399
# 4 -0.006362 0.010144 0.007984 0.048391 -0.009676 -0.016131
# 5 0.004499 -0.013211 0.007229 -0.009676 0.025759 0.040960
# 6 -0.012324 0.037157 -0.051399 -0.016131 0.040960 -0.035834
#
#
# Mechanical properties :
#
#
# Convention : Reuss Voigt Hill
#
# Bulk Modulus (GPa) = 89.79143 74.95437 82.37290
# Shear Modulus (GPa) = 872.79285 27.48880 450.14083
#
# Velocity S-wave (km/s) = 19.91565 3.53441 14.30254
# Velocity P-wave (km/s) = 23.86732 7.12169 17.61203
#
# Compressibility (1/GPa) = 0.01113692
#
# Stress axis : x y z
#
# Youngs Moduli (GPa) = 111.88329 -149.93010 -67.34032
#
# Poissons Ratio (x) = 0.33251 -0.97554
# Poissons Ratio (y) = -0.24813 1.62480
# Poissons Ratio (z) = 1.62081 3.61755
#
# Static dielectric constant tensor:
#      x y z
#    x 1.734470 0.031230 0.045540 
#    y 0.031230 1.836250 0.069150 
#    z 0.045540 0.069150 1.857740 
# 
# From -- ./inp_files/138522.got.cif
#   From: 2010.05.17/outbox.ucp.g08.bks.cvg/sg2_70_cif.got.tgz:138522.got - 2010.06.11 11:32:03.
