data_PCOD9073990
_publ_section_title
;
Structure prediction by ZEFSAII (Michael W. Deem and Ramdas Pophale) SiO2 
 PCOD9073990
Probable space group: P -1
;
_chemical_formula_sum "Si O2"
_cell_formula_units_Z 14
_cell_length_a 12.000000
_cell_length_b 9.000000
_cell_length_c 9.000000
_cell_angle_alpha 70.000000
_cell_angle_beta 120.000000
_cell_angle_gamma 130.000000
_cell_volume 644.526612
_symmetry_space_group_name_H-M "P -1"
_symmetry_group_IT_number 2
_symmetry_cell_setting 'triclinic'
loop_
_space_group_symop_operation_xyz
x,y,z
-x,-y,-z
loop_
_atom_site_type_symbol
_atom_site_label
_atom_site_fract_x
_atom_site_fract_y
_atom_site_fract_z
Si Si1 0.905692 0.523527 0.296617
Si Si2 0.640115 0.938530 0.797926
Si Si3 0.679572 0.619602 0.015895
Si Si4 0.632657 0.833183 0.490785
Si Si5 0.126083 0.627263 0.164458
Si Si6 0.374968 0.886104 0.821682
Si Si7 0.300613 0.450377 0.296920
O O1 0.795932 0.602421 0.206874
O O2 0.791795 0.319898 0.201176
O O3 0.000000 0.500000 0.500000
O O4 0.045229 0.664543 0.229847
O O5 0.628356 0.917293 0.618820
O O6 0.465249 0.836893 0.781222
O O7 0.727866 0.155120 0.846541
O O8 0.718755 0.832921 0.945227
O O9 0.500000 0.500000 0.000000
O O10 0.688801 0.549261 0.878144
O O11 0.466640 0.634592 0.404998
O O12 0.740447 0.755847 0.609420
O O13 0.664597 0.978268 0.332234
O O14 0.185947 0.494508 0.280938
O O15 0.000000 0.500000 0.000000
O O16 0.500000 0.000000 0.000000
#
# Coordination Sequence:
#
# PCOD9073990 Si02
#       7
#     2   2   2   2   2   2   2
#     4  12  27  42  66 104 147 175 221 300 358 394
#     4  11  24  41  75  96 129 187 239 279 333 421
#     4  11  23  45  70 105 139 181 236 286 344 418
#     4  10  22  40  69 101 128 167 243 281 326 405
#     4  12  24  46  67  95 139 181 226 277 353 414
#     4  12  23  43  69 100 136 186 235 281 343 421
#     4  10  22  41  69  99 132 179 221 289 338 411
#
# _framework density 21.721367999999998
#
# number of rings (size 3 to 8) (size 9 to 14) (size 15 to 20)
#    0.000    0.857    4.286    3.000    2.000    1.714 
#    2.571    0.714    0.000    0.000    0.000    0.000 
#    0.000    0.000    0.000    0.000    0.000    0.000 
#
# Total GULP energy -78019.764649 kJ/mol
# GULP energy per Si atom -5572.840332 kJ/mol
# Density = 2.167193 g / cm^3
# Si number density = 21.721368 Si / 1000 Ang^3
#
#
#
# Elastic Constant Matrix: (Units=GPa)
#
#
# Indices 1 2 3 4 5 6 
#
# 1 84.1323 10.5263 15.9436 -15.3873 21.9179 -5.7041
# 2 10.5263 58.9700 30.0747 -7.6360 0.4415 -19.2478
# 3 15.9436 30.0747 115.3576 -12.5643 18.1171 -11.8010
# 4 -15.3873 -7.6360 -12.5643 36.7947 -14.0895 2.2365
# 5 21.9179 0.4415 18.1171 -14.0895 32.7809 -7.0830
# 6 -5.7041 -19.2478 -11.8010 2.2365 -7.0830 34.6874
#
#
#
# Elastic Compliance Matrix: (Units=1/GPa)
#
#
# Indices 1 2 3 4 5 6 
#
# 1 0.014968 -0.002794 0.000269 0.002243 -0.009384 -0.001058
# 2 -0.002794 0.025363 -0.005856 0.005041 0.009803 0.013299
# 3 0.000269 -0.005856 0.011102 0.000340 -0.006248 -0.000726
# 4 0.002243 0.005041 0.000340 0.034344 0.013848 0.003895
# 5 -0.009384 0.009803 -0.006248 0.013848 0.048377 0.010756
# 6 -0.001058 0.013299 -0.000726 0.003895 0.010756 0.037733
#
#
# Mechanical properties :
#
#
# Convention : Reuss Voigt Hill
#
# Bulk Modulus (GPa) = 28.84208 41.28324 35.06266
# Shear Modulus (GPa) = 24.97441 34.31363 29.64402
#
# Velocity S-wave (km/s) = 3.39449 3.97888 3.69825
# Velocity P-wave (km/s) = 5.35448 6.33685 5.86627
#
# Compressibility (1/GPa) = 0.03467156
#
# Stress axis : x y z
#
# Youngs Moduli (GPa) = 66.81130 39.42698 90.07149
#
# Poissons Ratio (x) = 0.11015 -0.02427
# Poissons Ratio (y) = 0.18666 0.52750
# Poissons Ratio (z) = -0.01800 0.23090
#
# Static dielectric constant tensor:
#      x y z
#    x 1.754860 -0.024600 0.004850 
#    y -0.024600 1.771020 -0.068390 
#    z 0.004850 -0.068390 1.848280 
# 
# From -- ./inp_files/184483.got.cif
#   From: 2010.05.17/outbox.ucp.g08.bks.cvg/sg2_93_cif.got.tgz:184483.got - 2010.06.11 11:32:03.
