data_PCOD9073405
_publ_section_title
;
Structure prediction by ZEFSAII (Michael W. Deem and Ramdas Pophale) SiO2 
 PCOD9073405
Probable space group: P -1
;
_chemical_formula_sum "Si O2"
_cell_formula_units_Z 16
_cell_length_a 15.000000
_cell_length_b 9.000000
_cell_length_c 15.000000
_cell_angle_alpha 140.000000
_cell_angle_beta 40.000000
_cell_angle_gamma 130.000000
_cell_volume 828.970839
_symmetry_space_group_name_H-M "P -1"
_symmetry_group_IT_number 2
_symmetry_cell_setting 'triclinic'
loop_
_space_group_symop_operation_xyz
x,y,z
-x,-y,-z
loop_
_atom_site_type_symbol
_atom_site_label
_atom_site_fract_x
_atom_site_fract_y
_atom_site_fract_z
Si Si1 0.572601 0.631892 0.177402
Si Si2 0.000877 0.932929 0.106460
Si Si3 0.459618 0.107988 0.988146
Si Si4 0.804309 0.278226 0.006833
Si Si5 0.375449 0.861140 0.306604
Si Si6 0.096409 0.476865 0.327331
Si Si7 0.107794 0.461322 0.119383
Si Si8 0.697318 0.768782 0.328564
O O1 0.505259 0.791608 0.232747
O O2 0.585667 0.730059 0.314143
O O3 0.475444 0.383139 0.125307
O O4 0.733022 0.599204 0.015425
O O5 0.837773 0.921360 0.252210
O O6 0.988127 0.773591 0.951940
O O7 0.079878 0.196248 0.185533
O O8 0.073145 0.773469 0.046394
O O9 0.566654 0.091436 0.816215
O O10 0.311173 0.952712 0.009460
O O11 0.500000 0.000000 0.000000
O O12 0.734983 0.506756 0.195267
O O13 0.866548 0.351362 0.894675
O O14 0.245573 0.644774 0.307357
O O15 0.338300 0.090783 0.492219
O O16 0.053849 0.558300 0.297805
O O17 0.000000 0.500000 0.500000
#
# Coordination Sequence:
#
# PCOD9073405 Si02
#       8
#     2   2   2   2   2   2   2   2
#     4  10  21  39  63  89 118 158 201 239 296 350
#     4  10  21  40  68  85 117 158 205 241 291 358
#     4  12  21  41  64  88 120 159 201 244 290 355
#     4  10  21  40  68  86 115 159 207 237 292 359
#     4  12  24  38  63  87 127 154 195 249 299 349
#     4  12  23  40  60  92 122 155 194 250 304 343
#     4  10  21  40  64  88 121 155 199 247 290 350
#     4  10  21  41  61  88 125 154 193 253 296 344
#
# _framework density 19.301041000000001
#
# number of rings (size 3 to 8) (size 9 to 14) (size 15 to 20)
#    0.000    1.500    5.000    3.375    1.750    0.500 
#    0.000    0.625    5.500    0.000    0.000    0.000 
#    0.000    0.000    0.000    0.000    0.000    0.000 
#
# Total GULP energy -89115.969942 kJ/mol
# GULP energy per Si atom -5569.748121 kJ/mol
# Density = 1.925711 g / cm^3
# Si number density = 19.301041 Si / 1000 Ang^3
#
#
#
# Elastic Constant Matrix: (Units=GPa)
#
#
# Indices 1 2 3 4 5 6 
#
# 1 112.5827 36.4232 51.7382 -2.0732 28.9819 1.7538
# 2 36.4232 115.0421 28.5455 1.7557 18.5547 13.6393
# 3 51.7382 28.5455 62.4171 -1.6913 40.2208 -9.5267
# 4 -2.0732 1.7557 -1.6913 33.9593 -1.3042 8.2495
# 5 28.9819 18.5547 40.2208 -1.3042 34.1356 5.9797
# 6 1.7538 13.6393 -9.5267 8.2495 5.9797 38.0511
#
#
#
# Elastic Compliance Matrix: (Units=1/GPa)
#
#
# Indices 1 2 3 4 5 6 
#
# 1 0.019479 0.000879 -0.045075 0.005258 0.039779 -0.019889
# 2 0.000879 0.011917 -0.020747 0.002338 0.019604 -0.013094
# 3 -0.045075 -0.020747 0.272884 -0.031326 -0.296158 0.131167
# 4 0.005258 0.002338 -0.031326 0.034879 0.036397 -0.022205
# 5 0.039779 0.019604 -0.296158 0.036397 0.361072 -0.147641
# 6 -0.019889 -0.013094 0.131167 -0.022205 -0.147641 0.092746
#
#
# Mechanical properties :
#
#
# Convention : Reuss Voigt Hill
#
# Bulk Modulus (GPa) = 5.73410 58.16173 31.94792
# Shear Modulus (GPa) = 5.09688 32.78486 18.94087
#
# Velocity S-wave (km/s) = 1.62679 4.12589 3.13603
# Velocity P-wave (km/s) = 2.55067 7.27301 5.44989
#
# Compressibility (1/GPa) = 0.17439526
#
# Stress axis : x y z
#
# Youngs Moduli (GPa) = 51.33825 83.91480 3.66456
#
# Poissons Ratio (x) = -0.07379 0.16518
# Poissons Ratio (y) = -0.04514 0.07603
# Poissons Ratio (z) = 2.31405 1.74097
#
# Static dielectric constant tensor:
#      x y z
#    x 1.703400 -0.010030 0.014570 
#    y -0.010030 1.729740 0.008760 
#    z 0.014570 0.008760 1.689970 
# 
# From -- ./inp_files/529112.got.cif
#   From: 2010.05.17/outbox.ucp.g08.bks.cvg/sg2_265_cif.got.tgz:529112.got - 2010.06.11 11:32:03.
