data_PCOD9073125
_publ_section_title
;
Structure prediction by ZEFSAII (Michael W. Deem and Ramdas Pophale) SiO2 
 PCOD9073125
Probable space group: P -1
;
_chemical_formula_sum "Si O2"
_cell_formula_units_Z 14
_cell_length_a 9.000000
_cell_length_b 9.000000
_cell_length_c 24.000000
_cell_angle_alpha 40.000000
_cell_angle_beta 30.000000
_cell_angle_gamma 50.000000
_cell_volume 623.501542
_symmetry_space_group_name_H-M "P -1"
_symmetry_group_IT_number 2
_symmetry_cell_setting 'triclinic'
loop_
_space_group_symop_operation_xyz
x,y,z
-x,-y,-z
loop_
_atom_site_type_symbol
_atom_site_label
_atom_site_fract_x
_atom_site_fract_y
_atom_site_fract_z
Si Si1 0.650898 0.387005 0.377584
Si Si2 0.934834 0.786549 0.340534
Si Si3 0.273615 0.791333 0.114367
Si Si4 0.867380 0.951753 0.696721
Si Si5 0.284259 0.362097 0.390224
Si Si6 0.342021 0.603116 0.855592
Si Si7 0.716012 0.913666 0.208209
O O1 0.420616 0.229472 0.534575
O O2 0.512254 0.379284 0.362878
O O3 0.618453 0.650093 0.331377
O O4 0.977647 0.287569 0.299798
O O5 0.045636 0.770638 0.246611
O O6 0.056795 0.003194 0.275761
O O7 0.069236 0.573077 0.391869
O O8 0.463632 0.561910 0.120786
O O9 0.076091 0.874990 0.101832
O O10 0.500000 0.000000 0.000000
O O11 0.520791 0.007538 0.784669
O O12 0.063235 0.137581 0.540903
O O13 0.488919 0.384043 0.262280
O O14 0.325624 0.871015 0.800088
O O15 0.000000 0.500000 0.000000
#
# Coordination Sequence:
#
# PCOD9073125 Si02
#       7
#     2   2   2   2   2   2   2
#     4  11  22  39  67  99 129 164 210 261 319 373
#     4  10  20  42  67  93 131 174 204 253 322 384
#     4  11  25  44  66  89 125 175 215 254 317 381
#     4  11  22  39  67  99 129 164 210 261 319 373
#     4  10  20  42  67  93 131 174 204 253 322 384
#     4  11  25  44  66  89 125 175 215 254 317 381
#     4  12  24  43  63  97 133 155 216 277 305 371
#
# _framework density 22.453834000000001
#
# number of rings (size 3 to 8) (size 9 to 14) (size 15 to 20)
#    0.000    1.143    4.286    3.429    4.000    1.143 
#    0.000    2.857    0.000    3.429    0.000    0.000 
#    0.000    0.000    0.000    0.000    0.000    0.000 
#
# Total GULP energy -78034.203757 kJ/mol
# GULP energy per Si atom -5573.871697 kJ/mol
# Density = 2.240273 g / cm^3
# Si number density = 22.453834 Si / 1000 Ang^3
#
#
#
# Elastic Constant Matrix: (Units=GPa)
#
#
# Indices 1 2 3 4 5 6 
#
# 1 60.3435 37.3274 4.1502 -8.8763 -36.6430 -22.0215
# 2 37.3274 164.1061 11.6976 0.6532 -10.9516 -31.7841
# 3 4.1502 11.6976 -18.3003 -10.4725 -19.9824 7.5816
# 4 -8.8763 0.6532 -10.4725 24.8415 -8.7701 -2.5033
# 5 -36.6430 -10.9516 -19.9824 -8.7701 34.3832 7.8403
# 6 -22.0215 -31.7841 7.5816 -2.5033 7.8403 38.5265
#
#
#
# Elastic Compliance Matrix: (Units=1/GPa)
#
#
# Indices 1 2 3 4 5 6 
#
# 1 0.065391 -0.002397 -0.037780 0.027252 0.045877 0.035269
# 2 -0.002397 0.007182 0.003505 0.001244 0.001246 0.003693
# 3 -0.037780 0.003505 -0.000049 -0.030419 -0.044276 -0.011660
# 4 0.027252 0.001244 -0.030419 0.045860 0.018486 0.021807
# 5 0.045877 0.001246 -0.044276 0.018486 0.051261 0.026733
# 6 0.035269 0.003693 -0.011660 0.021807 0.026733 0.047434
#
#
# Mechanical properties :
#
#
# Convention : Reuss Voigt Hill
#
# Bulk Modulus (GPa) = -1219.69459 34.72218 -592.48621
# Shear Modulus (GPa) = 17.23252 29.74851 23.49051
#
# Velocity S-wave (km/s) = 2.77332 3.64383 3.23796
# Velocity P-wave (km/s) = 23.11115 5.76201 15.82600
#
# Compressibility (1/GPa) = -0.00081988
#
# Stress axis : x y z
#
# Youngs Moduli (GPa) = 15.29267 139.22953 -20290.81697
#
# Poissons Ratio (x) = 0.33369 -766.59197
# Poissons Ratio (y) = 0.03665 71.11966
# Poissons Ratio (z) = 0.57776 -0.48800
#
# Static dielectric constant tensor:
#      x y z
#    x 1.914880 0.017120 -0.063800 
#    y 0.017120 1.839920 -0.022240 
#    z -0.063800 -0.022240 1.861910 
# 
# From -- ./inp_files/242274.got.cif
#   From: 2010.05.17/outbox.ucp.g08.bks.cvg/sg2_122_cif.got.tgz:242274.got - 2010.06.11 11:32:03.
