data_PCOD9073393
_publ_section_title
;
Structure prediction by ZEFSAII (Michael W. Deem and Ramdas Pophale) SiO2 
 PCOD9073393
Probable space group: P -1
;
_chemical_formula_sum "Si O2"
_cell_formula_units_Z 16
_cell_length_a 9.000000
_cell_length_b 12.000000
_cell_length_c 18.000000
_cell_angle_alpha 140.000000
_cell_angle_beta 130.000000
_cell_angle_gamma 80.000000
_cell_volume 729.599496
_symmetry_space_group_name_H-M "P -1"
_symmetry_group_IT_number 2
_symmetry_cell_setting 'triclinic'
loop_
_space_group_symop_operation_xyz
x,y,z
-x,-y,-z
loop_
_atom_site_type_symbol
_atom_site_label
_atom_site_fract_x
_atom_site_fract_y
_atom_site_fract_z
Si Si1 0.086816 0.784029 0.254561
Si Si2 0.762196 0.750833 0.885834
Si Si3 0.086154 0.283478 0.241295
Si Si4 0.121262 0.952698 0.678908
Si Si5 0.029458 0.807552 0.409963
Si Si6 0.129601 0.723035 0.074545
Si Si7 0.199578 0.461715 0.531351
Si Si8 0.691339 0.282961 0.028776
O O1 0.192055 0.847545 0.407743
O O2 0.928669 0.515249 0.058381
O O3 0.931687 0.872667 0.255149
O O4 0.220870 0.854111 0.250725
O O5 0.761536 0.659754 0.757538
O O6 0.874196 0.680457 0.946104
O O7 0.476622 0.653103 0.753152
O O8 0.954948 0.023702 0.085141
O O9 0.214430 0.428797 0.431361
O O10 0.875720 0.297266 0.153209
O O11 0.107080 0.837310 0.537264
O O12 0.407986 0.102410 0.874146
O O13 0.920293 0.766349 0.577965
O O14 0.786807 0.538497 0.183852
O O15 0.000000 0.000000 0.500000
O O16 0.289591 0.807603 0.091463
O O17 0.000000 0.500000 0.500000
#
# Coordination Sequence:
#
# PCOD9073393 Si02
#       8
#     2   2   2   2   2   2   2   2
#     4   9  19  38  60  87 117 152 203 247 292 353
#     4  10  22  42  64  87 121 159 199 250 299 355
#     4  10  22  41  65  90 119 160 201 243 304 358
#     4  11  23  38  60  90 124 163 199 242 301 355
#     4   9  20  37  57  85 121 159 199 243 297 353
#     4   9  19  38  63  88 117 156 200 248 301 350
#     4  12  25  39  61  92 123 157 202 249 296 358
#     4  10  21  39  62  89 125 159 196 248 299 359
#
# _framework density 21.929839999999999
#
# number of rings (size 3 to 8) (size 9 to 14) (size 15 to 20)
#    0.000    2.000    0.000    2.625    0.000    9.500 
#    0.000   20.000    0.000    0.000    0.000    0.000 
#    0.000    0.000    0.000    0.000    0.000    0.000 
#
# Total GULP energy -89096.919534 kJ/mol
# GULP energy per Si atom -5568.557471 kJ/mol
# Density = 2.187993 g / cm^3
# Si number density = 21.929840 Si / 1000 Ang^3
#
#
#
# Elastic Constant Matrix: (Units=GPa)
#
#
# Indices 1 2 3 4 5 6 
#
# 1 61.0203 -6.5506 21.9536 -6.7766 -29.6046 3.6462
# 2 -6.5506 37.0329 -33.1171 18.1186 -10.3393 21.7774
# 3 21.9536 -33.1171 3.8724 15.3587 -16.6856 22.4641
# 4 -6.7766 18.1186 15.3587 -10.4108 0.7639 -30.0723
# 5 -29.6046 -10.3393 -16.6856 0.7639 50.5120 -6.7042
# 6 3.6462 21.7774 22.4641 -30.0723 -6.7042 24.0815
#
#
#
# Elastic Compliance Matrix: (Units=1/GPa)
#
#
# Indices 1 2 3 4 5 6 
#
# 1 0.025990 0.007387 -0.003322 0.000346 0.015266 -0.002835
# 2 0.007387 0.026551 0.023825 0.043359 0.018566 0.011961
# 3 -0.003322 0.023825 0.087274 0.096272 0.033914 0.027209
# 4 0.000346 0.043359 0.096272 0.100820 0.040428 0.008086
# 5 0.015266 0.018566 0.033914 0.040428 0.044756 0.012208
# 6 -0.002835 0.011961 0.027209 0.008086 0.012208 0.019253
#
#
# Mechanical properties :
#
#
# Convention : Reuss Voigt Hill
#
# Bulk Modulus (GPa) = 5.11265 7.38861 6.25063
# Shear Modulus (GPa) = 15.92037 20.81253 18.36645
#
# Velocity S-wave (km/s) = 2.69730 3.08401 2.89712
# Velocity P-wave (km/s) = 3.46944 4.00724 3.74800
#
# Compressibility (1/GPa) = 0.19559314
#
# Stress axis : x y z
#
# Youngs Moduli (GPa) = 38.47609 37.66379 11.45816
#
# Poissons Ratio (x) = -0.27821 0.03806
# Poissons Ratio (y) = -0.28421 -0.27299
# Poissons Ratio (z) = 0.12782 -0.89732
#
# Static dielectric constant tensor:
#      x y z
#    x 1.822110 0.042200 0.007890 
#    y 0.042200 1.883380 -0.009870 
#    z 0.007890 -0.009870 1.776930 
# 
# From -- ./inp_files/560055.got.cif
#   From: 2010.05.17/outbox.ucp.g08.bks.cvg/sg2_281_cif.got.tgz:560055.got - 2010.06.11 11:32:03.
