data_PCOD9073750
_publ_section_title
;
Structure prediction by ZEFSAII (Michael W. Deem and Ramdas Pophale) SiO2 
 PCOD9073750
Probable space group: P -1
;
_chemical_formula_sum "Si O2"
_cell_formula_units_Z 12
_cell_length_a 12.000000
_cell_length_b 9.000000
_cell_length_c 9.000000
_cell_angle_alpha 50.000000
_cell_angle_beta 70.000000
_cell_angle_gamma 40.000000
_cell_volume 455.749138
_symmetry_space_group_name_H-M "P -1"
_symmetry_group_IT_number 2
_symmetry_cell_setting 'triclinic'
loop_
_space_group_symop_operation_xyz
x,y,z
-x,-y,-z
loop_
_atom_site_type_symbol
_atom_site_label
_atom_site_fract_x
_atom_site_fract_y
_atom_site_fract_z
Si Si1 0.454501 0.107988 0.684930
Si Si2 0.106480 0.063409 0.776109
Si Si3 0.711793 0.407121 0.317101
Si Si4 0.945932 0.908488 0.764517
Si Si5 0.635805 0.195418 0.940070
Si Si6 0.786420 0.691037 0.610487
O O1 0.401668 0.343216 0.666721
O O2 0.332197 0.267943 0.489443
O O3 0.661944 0.859030 0.701429
O O4 0.405070 0.966798 0.874374
O O5 0.159881 0.167951 0.571495
O O6 0.966281 0.342493 0.772454
O O7 0.001114 0.028192 0.760909
O O8 0.277111 0.789454 0.974662
O O9 0.560211 0.493755 0.228987
O O10 0.848014 0.396327 0.186111
O O11 0.840338 0.097464 0.541250
O O12 0.791114 0.991821 0.874316
#
# Coordination Sequence:
#
# PCOD9073750 Si02
#       6
#     2   2   2   2   2   2
#     4  10  21  43  68  98 127 169 222 268 316 385
#     4  10  21  43  67  99 126 172 221 263 323 381
#     4  11  25  45  63  96 134 177 214 257 334 386
#     4  11  25  45  67  92 138 175 209 267 326 396
#     4  11  25  42  67 102 129 169 217 275 321 374
#     4   9  20  40  71  95 127 170 220 267 317 383
#
# _framework density 26.330275
#
# number of rings (size 3 to 8) (size 9 to 14) (size 15 to 20)
#    0.000    1.667    1.667    1.500    2.333    5.333 
#    3.000    0.000    0.000    0.000    0.000    0.000 
#    0.000    0.000    0.000    0.000    0.000    0.000 
#
# Total GULP energy -67188.689244 kJ/mol
# GULP energy per Si atom -5599.057437 kJ/mol
# Density = 2.627035 g / cm^3
# Si number density = 26.330275 Si / 1000 Ang^3
#
#
#
# Elastic Constant Matrix: (Units=GPa)
#
#
# Indices 1 2 3 4 5 6 
#
# 1 109.0970 56.4461 45.1508 -6.8973 25.0654 -26.0900
# 2 56.4461 195.5954 37.7796 28.0972 9.4246 -25.2472
# 3 45.1508 37.7796 97.4292 -1.4762 31.3169 -23.7246
# 4 -6.8973 28.0972 -1.4762 25.9593 -22.5954 -12.0089
# 5 25.0654 9.4246 31.3169 -22.5954 35.7734 -2.5964
# 6 -26.0900 -25.2472 -23.7246 -12.0089 -2.5964 46.8455
#
#
#
# Elastic Compliance Matrix: (Units=1/GPa)
#
#
# Indices 1 2 3 4 5 6 
#
# 1 0.017042 -0.008420 -0.008623 0.038814 0.023200 0.011822
# 2 -0.008420 0.017909 0.012161 -0.079528 -0.060613 -0.012625
# 3 -0.008623 0.012161 0.033090 -0.092131 -0.085035 -0.009821
# 4 0.038814 -0.079528 -0.092131 0.542381 0.423859 0.094628
# 5 0.023200 -0.060613 -0.085035 0.423859 0.374662 0.066611
# 6 0.011822 -0.012625 -0.009821 0.094628 0.066611 0.044103
#
#
# Mechanical properties :
#
#
# Convention : Reuss Voigt Hill
#
# Bulk Modulus (GPa) = 17.15939 75.65272 46.40606
# Shear Modulus (GPa) = 4.72422 39.23199 21.97810
#
# Velocity S-wave (km/s) = 1.34094 3.86423 2.89227
# Velocity P-wave (km/s) = 2.98808 6.97885 5.36810
#
# Compressibility (1/GPa) = 0.05827712
#
# Stress axis : x y z
#
# Youngs Moduli (GPa) = 58.67787 55.83919 30.22081
#
# Poissons Ratio (x) = 0.47017 0.26060
# Poissons Ratio (y) = 0.49407 -0.36753
# Poissons Ratio (z) = 0.50598 -0.67908
#
# Static dielectric constant tensor:
#      x y z
#    x 1.976450 -0.014400 0.032770 
#    y -0.014400 2.100170 0.018050 
#    z 0.032770 0.018050 2.104660 
# 
# From -- ./inp_files/236509.got.cif
#   From: 2010.05.17/outbox.ucp.g08.bks.cvg/sg2_119_cif.got.tgz:236509.got - 2010.06.11 11:32:03.
