data_PCOD9073051
_publ_section_title
;
Structure prediction by ZEFSAII (Michael W. Deem and Ramdas Pophale) SiO2 
 PCOD9073051
Probable space group: P -1
;
_chemical_formula_sum "Si O2"
_cell_formula_units_Z 14
_cell_length_a 21.246887
_cell_length_b 11.617283
_cell_length_c 13.033173
_cell_angle_alpha 32.766523
_cell_angle_beta 152.031223
_cell_angle_gamma 144.288201
_cell_volume 785.538705
_symmetry_space_group_name_H-M "P -1"
_symmetry_group_IT_number 2
_symmetry_cell_setting 'triclinic'
loop_
_space_group_symop_operation_xyz
x,y,z
-x,-y,-z
loop_
_atom_site_type_symbol
_atom_site_label
_atom_site_fract_x
_atom_site_fract_y
_atom_site_fract_z
Si Si1 0.532662 0.262117 0.220916
Si Si2 0.177964 0.877036 0.788920
Si Si3 0.432827 0.305656 0.626738
Si Si4 0.508245 0.106860 0.071458
Si Si5 0.811121 0.516780 0.772022
Si Si6 0.713522 0.141419 0.741704
Si Si7 0.042327 0.947075 0.746576
O O1 0.664219 0.240600 0.494217
O O2 0.406223 0.069414 0.232053
O O3 0.500000 0.500000 0.000000
O O4 0.546120 0.202226 0.166732
O O5 0.137696 0.995564 0.744852
O O6 0.340747 0.983749 0.920642
O O7 0.156422 0.625565 0.980300
O O8 0.065782 0.905570 0.522429
O O9 0.500000 0.500000 0.500000
O O10 0.528789 0.289034 0.875355
O O11 0.295591 0.352980 0.439468
O O12 0.414923 0.075648 0.713964
O O13 0.740627 0.336496 0.719783
O O14 0.943323 0.697594 0.783074
O O15 0.853930 0.059462 0.005949
#
# Coordination Sequence:
#
# PCOD9073051 Si02
#       7
#     2   2   2   2   2   2   2
#     4  11  22  35  56  78 118 152 180 223 267 336
#     4  10  18  31  52  81 117 135 175 225 274 335
#     4  11  21  34  57  78 114 145 182 237 275 320
#     4  11  21  36  53  84 111 143 188 225 275 324
#     4  11  19  34  57  87 113 143 179 226 287 328
#     4  10  21  35  53  86 117 144 181 219 277 340
#     4  10  20  32  55  82 119 144 168 234 282 329
#
# _framework density 17.822164000000001
#
# number of rings (size 3 to 8) (size 9 to 14) (size 15 to 20)
#    0.000    1.429    5.714    2.571    0.000    2.286 
#    0.000    0.000    0.000    0.857    0.000    3.000 
#    0.000    0.000    0.000    0.000    0.000    0.000 
#
# Total GULP energy -78032.619981 kJ/mol
# GULP energy per Si atom -5573.758570 kJ/mol
# Density = 1.778160 g / cm^3
# Si number density = 17.822164 Si / 1000 Ang^3
#
#
#
# Elastic Constant Matrix: (Units=GPa)
#
#
# Indices 1 2 3 4 5 6 
#
# 1 60.2740 28.2960 31.6180 -0.2505 -14.1902 -6.9562
# 2 28.2960 58.4837 54.5901 -3.2882 -9.1124 -7.1002
# 3 31.6180 54.5901 169.7706 -6.4237 -21.1728 -20.0884
# 4 -0.2505 -3.2882 -6.4237 26.0209 4.9973 -0.2668
# 5 -14.1902 -9.1124 -21.1728 4.9973 37.9357 -3.2442
# 6 -6.9562 -7.1002 -20.0884 -0.2668 -3.2442 30.7712
#
#
#
# Elastic Compliance Matrix: (Units=1/GPa)
#
#
# Indices 1 2 3 4 5 6 
#
# 1 0.023276 -0.009926 0.000085 -0.002314 0.006994 0.003744
# 2 -0.009926 0.028800 -0.007586 0.001921 -0.001340 -0.000676
# 3 0.000085 -0.007586 0.009376 0.000683 0.003762 0.004792
# 4 -0.002314 0.001921 0.000683 0.039831 -0.005256 0.000158
# 5 0.006994 -0.001340 0.003762 -0.005256 0.032051 0.007062
# 6 0.003744 -0.000676 0.004792 0.000158 0.007062 0.037063
#
#
# Mechanical properties :
#
#
# Convention : Reuss Voigt Hill
#
# Bulk Modulus (GPa) = 37.60007 57.50403 47.55205
# Shear Modulus (GPa) = 23.35171 30.54715 26.94943
#
# Velocity S-wave (km/s) = 3.62368 4.14454 3.89283
# Velocity P-wave (km/s) = 6.21701 7.43226 6.85163
#
# Compressibility (1/GPa) = 0.02659570
#
# Stress axis : x y z
#
# Youngs Moduli (GPa) = 42.96355 34.72239 106.65468
#
# Poissons Ratio (x) = 0.34466 -0.00904
# Poissons Ratio (y) = 0.42646 0.80913
# Poissons Ratio (z) = -0.00364 0.26342
#
# Static dielectric constant tensor:
#      x y z
#    x 1.646700 0.015050 -0.002130 
#    y 0.015050 1.595150 -0.002240 
#    z -0.002130 -0.002240 1.687550 
# 
# From -- ./inp_files/418125.got.cif
#   From: 2010.05.17/outbox.cif.g08.bks.cpg/sg2_210_cif.got.tgz:418125.got - 2010.06.03 11:33:40.
