data_PCOD9073116
_publ_section_title
;
Structure prediction by ZEFSAII (Michael W. Deem and Ramdas Pophale) SiO2 
 PCOD9073116
Probable space group: P -1
;
_chemical_formula_sum "Si O2"
_cell_formula_units_Z 14
_cell_length_a 15.000000
_cell_length_b 15.000000
_cell_length_c 15.000000
_cell_angle_alpha 140.000000
_cell_angle_beta 130.000000
_cell_angle_gamma 20.000000
_cell_volume 694.908786
_symmetry_space_group_name_H-M "P -1"
_symmetry_group_IT_number 2
_symmetry_cell_setting 'triclinic'
loop_
_space_group_symop_operation_xyz
x,y,z
-x,-y,-z
loop_
_atom_site_type_symbol
_atom_site_label
_atom_site_fract_x
_atom_site_fract_y
_atom_site_fract_z
Si Si1 0.068106 0.787362 0.599499
Si Si2 0.690169 0.194086 0.490566
Si Si3 0.990024 0.399679 0.834709
Si Si4 0.220133 0.336792 0.771102
Si Si5 0.955696 0.217871 0.889123
Si Si6 0.419643 0.376086 0.219238
Si Si7 0.877710 0.578593 0.575489
O O1 0.382406 0.474245 0.529306
O O2 0.058776 0.654162 0.546082
O O3 0.987302 0.018649 0.774921
O O4 0.874212 0.982676 0.536953
O O5 0.671631 0.380900 0.603468
O O6 0.818719 0.948845 0.312711
O O7 0.685446 0.653612 0.824802
O O8 0.104958 0.362264 0.796128
O O9 0.000000 0.500000 0.000000
O O10 0.037024 0.493013 0.688307
O O11 0.545255 0.959687 0.668313
O O12 0.165080 0.552908 0.935841
O O13 0.750456 0.447718 0.848389
O O14 0.258811 0.951578 0.852469
O O15 0.000000 0.500000 0.500000
#
# Coordination Sequence:
#
# PCOD9073116 Si02
#       7
#     2   2   2   2   2   2   2
#     4  10  20  42  65  88 121 166 210 260 312 375
#     4  10  21  39  59  87 127 171 213 250 298 363
#     4  12  23  38  61  95 137 168 214 244 314 367
#     4  12  25  43  65  96 133 162 206 270 317 363
#     4  10  22  40  62  91 130 167 206 254 314 368
#     4  10  22  37  59  89 128 176 214 241 293 380
#     4  12  25  46  71  94 119 164 217 267 324 378
#
# _framework density 20.146529000000001
#
# number of rings (size 3 to 8) (size 9 to 14) (size 15 to 20)
#    0.000    1.143    4.286    1.714    0.000    2.857 
#    0.000    5.714    0.000    0.000    0.000    0.000 
#    0.000    0.000    0.000    0.000    0.000    0.000 
#
# Total GULP energy -78320.735356 kJ/mol
# GULP energy per Si atom -5594.338240 kJ/mol
# Density = 2.010067 g / cm^3
# Si number density = 20.146529 Si / 1000 Ang^3
#
#
#
# Elastic Constant Matrix: (Units=GPa)
#
#
# Indices 1 2 3 4 5 6 
#
# 1 140.6240 46.4930 73.0195 -7.6360 1.1144 -3.7794
# 2 46.4930 141.7559 42.9638 -6.0916 -7.6689 -16.6079
# 3 73.0195 42.9638 174.3976 -10.7694 19.2631 0.7001
# 4 -7.6360 -6.0916 -10.7694 39.0256 -0.7445 3.2173
# 5 1.1144 -7.6689 19.2631 -0.7445 41.1995 -4.4224
# 6 -3.7794 -16.6079 0.7001 3.2173 -4.4224 24.0958
#
#
#
# Elastic Compliance Matrix: (Units=1/GPa)
#
#
# Indices 1 2 3 4 5 6 
#
# 1 0.009691 -0.001926 -0.003677 0.000567 0.001156 0.000436
# 2 -0.001926 0.009221 -0.001860 0.000060 0.003360 0.006716
# 3 -0.003677 -0.001860 0.008326 0.001459 -0.004447 -0.003112
# 4 0.000567 0.000060 0.001459 0.026429 -0.000590 -0.003549
# 5 0.001156 0.003360 -0.004447 -0.000590 0.027772 0.007802
# 6 0.000436 0.006716 -0.003112 -0.003549 0.007802 0.048195
#
#
# Mechanical properties :
#
#
# Convention : Reuss Voigt Hill
#
# Bulk Modulus (GPa) = 81.22558 86.85890 84.04224
# Shear Modulus (GPa) = 33.63322 40.48426 37.05874
#
# Velocity S-wave (km/s) = 4.09030 4.48760 4.29355
# Velocity P-wave (km/s) = 7.91911 8.37010 8.14773
#
# Compressibility (1/GPa) = 0.01231139
#
# Stress axis : x y z
#
# Youngs Moduli (GPa) = 103.19130 108.45018 120.11002
#
# Poissons Ratio (x) = 0.20886 0.44170
# Poissons Ratio (y) = 0.19873 0.22336
# Poissons Ratio (z) = 0.37948 0.20168
#
# Static dielectric constant tensor:
#      x y z
#    x 1.712480 0.021700 0.027670 
#    y 0.021700 1.767830 0.032540 
#    z 0.027670 0.032540 1.732280 
# 
# From -- ./inp_files/44717.got.cif
#   From: 2010.05.17/outbox.ucp.g08.bks.cvg/sg2_23_cif.got.tgz:44717.got - 2010.06.11 11:32:03.
