data_PCOD9073142
_publ_section_title
;
Structure prediction by ZEFSAII (Michael W. Deem and Ramdas Pophale) SiO2 
 PCOD9073142
Probable space group: P -1
;
_chemical_formula_sum "Si O2"
_cell_formula_units_Z 14
_cell_length_a 9.436239
_cell_length_b 13.903143
_cell_length_c 10.866041
_cell_angle_alpha 61.377239
_cell_angle_beta 59.499993
_cell_angle_gamma 27.970308
_cell_volume 574.414454
_symmetry_space_group_name_H-M "P -1"
_symmetry_group_IT_number 2
_symmetry_cell_setting 'triclinic'
loop_
_space_group_symop_operation_xyz
x,y,z
-x,-y,-z
loop_
_atom_site_type_symbol
_atom_site_label
_atom_site_fract_x
_atom_site_fract_y
_atom_site_fract_z
Si Si1 0.720290 0.980777 0.426545
Si Si2 0.548321 0.803017 0.835132
Si Si3 0.985120 0.116591 0.014972
Si Si4 0.843239 0.396200 0.374682
Si Si5 0.469353 0.211469 0.639508
Si Si6 0.924813 0.378901 0.891356
Si Si7 0.963604 0.214890 0.203927
O O1 0.690976 0.041794 0.265620
O O2 0.564601 0.147278 0.494674
O O3 0.500000 0.000000 0.500000
O O4 0.037655 0.755380 0.481054
O O5 0.356391 0.934896 0.961920
O O6 0.846017 0.712376 0.740067
O O7 0.661798 0.614706 0.890630
O O8 0.834469 0.313816 0.908963
O O9 0.863662 0.180704 0.168552
O O10 0.000000 0.000000 0.000000
O O11 0.746658 0.383441 0.303787
O O12 0.615091 0.618159 0.387134
O O13 0.176660 0.299750 0.747383
O O14 0.750458 0.000496 0.720089
O O15 0.034253 0.275342 0.041599
#
# Coordination Sequence:
#
# PCOD9073142 Si02
#       7
#     2   2   2   2   2   2   2
#     4   9  18  31  47  76 109 134 164 192 240 306
#     4  10  20  32  51  76 105 132 165 202 246 299
#     4  10  22  36  50  70 100 135 171 213 249 285
#     4   9  19  31  52  80 104 135 157 200 250 302
#     4  10  18  31  53  77 108 134 155 200 252 301
#     4   9  20  30  50  78 101 132 163 198 251 299
#     4   9  20  31  49  76 104 129 168 203 247 303
#
# _framework density 24.372647000000001
#
# number of rings (size 3 to 8) (size 9 to 14) (size 15 to 20)
#    0.857    1.714    0.000    3.000    4.000    8.000 
#    0.000    0.000    0.000    3.429    0.000    6.000 
#    0.000    0.000    0.000    0.000    0.000    0.000 
#
# Total GULP energy -78092.156971 kJ/mol
# GULP energy per Si atom -5578.011212 kJ/mol
# Density = 2.431717 g / cm^3
# Si number density = 24.372647 Si / 1000 Ang^3
#
#
#
# Elastic Constant Matrix: (Units=GPa)
#
#
# Indices 1 2 3 4 5 6 
#
# 1 79.2978 40.7505 34.9990 5.4313 7.7469 36.8763
# 2 40.7505 170.8959 36.5854 6.1015 9.7813 42.5322
# 3 34.9990 36.5854 82.0104 3.8671 10.9914 4.5585
# 4 5.4313 6.1015 3.8671 21.4320 4.2801 1.0770
# 5 7.7469 9.7813 10.9914 4.2801 32.8780 11.4577
# 6 36.8763 42.5322 4.5585 1.0770 11.4577 35.1266
#
#
#
# Elastic Compliance Matrix: (Units=1/GPa)
#
#
# Indices 1 2 3 4 5 6 
#
# 1 0.043041 0.007573 -0.020204 -0.009633 0.015276 -0.056420
# 2 0.007573 0.010901 -0.007451 -0.003691 0.005571 -0.021887
# 3 -0.020204 -0.007451 0.023886 0.003833 -0.012322 0.031034
# 4 -0.009633 -0.003691 0.003833 0.050666 -0.010015 0.015798
# 5 0.015276 0.005571 -0.012322 -0.010015 0.042712 -0.034809
# 6 -0.056420 -0.021887 0.031034 0.015798 -0.034809 0.121042
#
#
# Mechanical properties :
#
#
# Convention : Reuss Voigt Hill
#
# Bulk Modulus (GPa) = 26.55044 61.87490 44.21267
# Shear Modulus (GPa) = 14.49423 32.54527 23.51975
#
# Velocity S-wave (km/s) = 2.44128 3.65817 3.10982
# Velocity P-wave (km/s) = 4.34323 6.57914 5.57444
#
# Compressibility (1/GPa) = 0.03766415
#
# Stress axis : x y z
#
# Youngs Moduli (GPa) = 23.23377 91.73661 41.86638
#
# Poissons Ratio (x) = -0.69476 0.84586
# Poissons Ratio (y) = -0.17596 0.31195
# Poissons Ratio (z) = 0.46941 0.68354
#
# Static dielectric constant tensor:
#      x y z
#    x 2.103430 -0.018120 -0.049960 
#    y -0.018120 1.926530 0.007560 
#    z -0.049960 0.007560 1.949840 
# 
# From -- ./inp_files/429751.got.cif
#   From: 2010.05.17/outbox.cif.g08.bks.cpg/sg2_215_cif.got.tgz:429751.got - 2010.06.03 11:33:40.
