data_PCOD9073914
_publ_section_title
;
Structure prediction by ZEFSAII (Michael W. Deem and Ramdas Pophale) SiO2 
 PCOD9073914
Probable space group: P -1
;
_chemical_formula_sum "Si O2"
_cell_formula_units_Z 16
_cell_length_a 9.000000
_cell_length_b 9.000000
_cell_length_c 24.000000
_cell_angle_alpha 130.000000
_cell_angle_beta 40.000000
_cell_angle_gamma 100.000000
_cell_volume 729.599496
_symmetry_space_group_name_H-M "P -1"
_symmetry_group_IT_number 2
_symmetry_cell_setting 'triclinic'
loop_
_space_group_symop_operation_xyz
x,y,z
-x,-y,-z
loop_
_atom_site_type_symbol
_atom_site_label
_atom_site_fract_x
_atom_site_fract_y
_atom_site_fract_z
Si Si1 0.950276 0.343775 0.437408
Si Si2 0.987832 0.834979 0.418809
Si Si3 0.266874 0.759732 0.691611
Si Si4 0.406406 0.848535 0.243893
Si Si5 0.794328 0.081349 0.003194
Si Si6 0.641756 0.885598 0.303618
Si Si7 0.150945 0.327893 0.262855
Si Si8 0.933969 0.696739 0.969065
O O1 0.607298 0.532225 0.559619
O O2 0.000000 0.500000 0.500000
O O3 0.174988 0.217172 0.289460
O O4 0.077011 0.105757 0.381530
O O5 0.272685 0.709868 0.265028
O O6 0.043706 0.599953 0.375373
O O7 0.631030 0.004590 0.547720
O O8 0.000000 0.000000 0.500000
O O9 0.106863 0.654411 0.689007
O O10 0.269874 0.936722 0.688822
O O11 0.054812 0.929077 0.845485
O O12 0.523366 0.887988 0.276177
O O13 0.668828 0.759926 0.102281
O O14 0.847228 0.893627 0.992034
O O15 0.459701 0.194026 0.108331
O O16 0.829576 0.286120 0.062987
O O17 0.904706 0.586337 0.167427
#
# Coordination Sequence:
#
# PCOD9073914 Si02
#       8
#     2   2   2   2   2   2   2   2
#     4  12  22  42  70  97 131 170 229 272 322 395
#     4  10  22  39  65  96 127 170 221 271 328 389
#     4  12  26  43  69  98 139 179 217 273 343 401
#     4  11  21  40  64  98 125 172 216 282 326 378
#     4  11  24  43  67  98 132 179 228 274 329 394
#     4  11  22  40  63 101 135 168 219 276 338 389
#     4  12  25  46  67  97 139 178 220 274 339 401
#     4  11  23  40  69  99 132 168 230 287 321 383
#
# _framework density 21.929839999999999
#
# number of rings (size 3 to 8) (size 9 to 14) (size 15 to 20)
#    0.000    0.750    5.000    3.375    5.250    0.000 
#    0.000    2.500    0.000    0.000    0.000    0.000 
#    0.000    0.000    0.000    0.000    0.000    0.000 
#
# Total GULP energy -89089.058459 kJ/mol
# GULP energy per Si atom -5568.066154 kJ/mol
# Density = 2.187993 g / cm^3
# Si number density = 21.929840 Si / 1000 Ang^3
#
#
#
# Elastic Constant Matrix: (Units=GPa)
#
#
# Indices 1 2 3 4 5 6 
#
# 1 50.6355 31.6238 17.1021 2.0152 -18.9066 20.3342
# 2 31.6238 105.2517 31.3619 -13.4609 -23.6480 25.8522
# 3 17.1021 31.3619 93.4596 -23.5426 -30.5707 12.0057
# 4 2.0152 -13.4609 -23.5426 46.6537 3.8579 -9.8249
# 5 -18.9066 -23.6480 -30.5707 3.8579 26.4776 -10.0772
# 6 20.3342 25.8522 12.0057 -9.8249 -10.0772 24.6878
#
#
#
# Elastic Compliance Matrix: (Units=1/GPa)
#
#
# Indices 1 2 3 4 5 6 
#
# 1 0.038238 -0.002676 0.000519 -0.008952 0.017103 -0.025527
# 2 -0.002676 0.014441 -0.000699 0.001421 0.006394 -0.009403
# 3 0.000519 -0.000699 0.020133 0.008746 0.023005 0.003385
# 4 -0.008952 0.001421 0.008746 0.029481 0.006826 0.016151
# 5 0.017103 0.006394 0.023005 0.006826 0.083022 0.004634
# 6 -0.025527 -0.009403 0.003385 0.016151 0.004634 0.078051
#
#
# Mechanical properties :
#
#
# Convention : Reuss Voigt Hill
#
# Bulk Modulus (GPa) = 14.90289 45.50248 30.20268
# Shear Modulus (GPa) = 17.15594 30.84776 24.00185
#
# Velocity S-wave (km/s) = 2.80002 3.75461 3.31189
# Velocity P-wave (km/s) = 4.15499 6.29208 5.33171
#
# Compressibility (1/GPa) = 0.06710110
#
# Stress axis : x y z
#
# Youngs Moduli (GPa) = 26.15191 69.24589 49.67054
#
# Poissons Ratio (x) = 0.18530 -0.02580
# Poissons Ratio (y) = 0.06998 0.03472
# Poissons Ratio (z) = -0.01358 0.04840
#
# Static dielectric constant tensor:
#      x y z
#    x 1.650240 0.659030 -0.231370 
#    y 0.659030 -1.040930 0.915890 
#    z -0.231370 0.915890 1.590870 
# 
# From -- ./inp_files/307830.got.cif
#   From: 2010.05.17/outbox.ucp.g08.bks.cvg/sg2_154_cif.got.tgz:307830.got - 2010.06.11 11:32:03.
