data_PCOD9073958
_publ_section_title
;
Structure prediction by ZEFSAII (Michael W. Deem and Ramdas Pophale) SiO2 
 PCOD9073958
Probable space group: P -1
;
_chemical_formula_sum "Si O2"
_cell_formula_units_Z 16
_cell_length_a 9.000000
_cell_length_b 12.000000
_cell_length_c 15.000000
_cell_angle_alpha 150.000000
_cell_angle_beta 100.000000
_cell_angle_gamma 70.000000
_cell_volume 734.803614
_symmetry_space_group_name_H-M "P -1"
_symmetry_group_IT_number 2
_symmetry_cell_setting 'triclinic'
loop_
_space_group_symop_operation_xyz
x,y,z
-x,-y,-z
loop_
_atom_site_type_symbol
_atom_site_label
_atom_site_fract_x
_atom_site_fract_y
_atom_site_fract_z
Si Si1 0.544777 0.793106 0.644459
Si Si2 0.286091 0.276023 0.022206
Si Si3 0.099117 0.589155 0.919330
Si Si4 0.828568 0.216203 0.111290
Si Si5 0.327538 0.617308 0.117440
Si Si6 0.485513 0.353722 0.258490
Si Si7 0.099139 0.103195 0.503477
Si Si8 0.108291 0.347025 0.490354
O O1 0.494327 0.618056 0.452688
O O2 0.562571 0.691596 0.677627
O O3 0.711893 0.818986 0.647172
O O4 0.391648 0.039744 0.813891
O O5 0.318518 0.477141 0.108030
O O6 0.360483 0.301025 0.143196
O O7 0.099343 0.298384 0.023889
O O8 0.174337 0.730229 0.957205
O O9 0.135935 0.313540 0.703018
O O10 0.182606 0.601652 0.029537
O O11 0.669059 0.198273 0.129255
O O12 0.849140 0.450217 0.314637
O O13 0.000000 0.000000 0.000000
O O14 0.263858 0.889607 0.337530
O O15 0.500000 0.500000 0.000000
O O16 0.034309 0.227157 0.479974
O O17 0.000000 0.000000 0.500000
O O18 0.000000 0.500000 0.500000
#
# Coordination Sequence:
#
# PCOD9073958 Si02
#       8
#     2   2   2   2   2   2   2   2
#     4  10  23  42  65  98 142 175 232 297 345 421
#     4  12  24  40  69  96 133 186 233 291 342 422
#     4  11  26  45  67 105 139 182 246 283 357 426
#     4  10  22  40  64  98 135 178 224 290 352 418
#     4  12  27  46  72 102 137 187 239 291 356 424
#     4  10  23  41  63  98 135 183 228 279 365 412
#     4  11  25  47  71 100 145 190 232 297 354 419
#     4  10  24  40  67 103 134 180 236 288 357 419
#
# _framework density 21.774525000000001
#
# number of rings (size 3 to 8) (size 9 to 14) (size 15 to 20)
#    0.000    1.250    1.250    3.000    7.000    2.500 
#    0.000    0.000    0.000    0.000    0.000    0.000 
#    0.000    0.000    0.000    0.000    0.000    0.000 
#
# Total GULP energy -89144.480050 kJ/mol
# GULP energy per Si atom -5571.530003 kJ/mol
# Density = 2.172497 g / cm^3
# Si number density = 21.774525 Si / 1000 Ang^3
#
#
#
# Elastic Constant Matrix: (Units=GPa)
#
#
# Indices 1 2 3 4 5 6 
#
# 1 125.7192 25.9470 43.7365 -18.1047 -13.1594 -3.2814
# 2 25.9470 60.7966 2.0839 12.8877 -5.3690 26.8491
# 3 43.7365 2.0839 111.7165 20.3422 -33.4390 -10.0190
# 4 -18.1047 12.8877 20.3422 8.6324 12.5530 -10.6586
# 5 -13.1594 -5.3690 -33.4390 12.5530 32.7025 4.0911
# 6 -3.2814 26.8491 -10.0190 -10.6586 4.0911 40.1513
#
#
#
# Elastic Compliance Matrix: (Units=1/GPa)
#
#
# Indices 1 2 3 4 5 6 
#
# 1 0.006457 0.001727 0.001513 -0.009913 0.008705 -0.003768
# 2 0.001727 0.012545 -0.008650 0.019224 -0.012972 -0.003982
# 3 0.001513 -0.008650 0.007098 0.013257 -0.000044 0.011203
# 4 -0.009913 0.019224 0.013257 -0.023295 0.024040 -0.018991
# 5 0.008705 -0.012972 -0.000044 0.024040 0.020976 0.013619
# 6 -0.003768 -0.003982 0.011203 -0.018991 0.013619 0.023627
#
#
# Mechanical properties :
#
#
# Convention : Reuss Voigt Hill
#
# Bulk Modulus (GPa) = 65.44905 49.08522 57.26714
# Shear Modulus (GPa) = 78.96069 31.39489 55.17779
#
# Velocity S-wave (km/s) = 6.02840 3.80125 5.03940
# Velocity P-wave (km/s) = 8.86444 6.46973 7.76002
#
# Compressibility (1/GPa) = 0.01527906
#
# Stress axis : x y z
#
# Youngs Moduli (GPa) = 154.87713 79.71052 140.88243
#
# Poissons Ratio (x) = -0.13765 -0.21314
# Poissons Ratio (y) = -0.26746 1.21869
# Poissons Ratio (z) = -0.23431 0.68953
#
# Static dielectric constant tensor:
#      x y z
#    x 1.797090 0.052500 -0.069960 
#    y 0.052500 2.037440 0.040730 
#    z -0.069960 0.040730 1.960890 
# 
# From -- ./inp_files/501221.got.cif
#   From: 2010.05.17/outbox.ucp.g08.bks.cvg/sg2_251_cif.got.tgz:501221.got - 2010.06.11 11:32:03.
