data_PCOD9073392
_publ_section_title
;
Structure prediction by ZEFSAII (Michael W. Deem and Ramdas Pophale) SiO2 
 PCOD9073392
Probable space group: P -1
;
_chemical_formula_sum "Si O2"
_cell_formula_units_Z 12
_cell_length_a 9.000000
_cell_length_b 6.000000
_cell_length_c 15.000000
_cell_angle_alpha 100.000000
_cell_angle_beta 80.000000
_cell_angle_gamma 140.000000
_cell_volume 511.690960
_symmetry_space_group_name_H-M "P -1"
_symmetry_group_IT_number 2
_symmetry_cell_setting 'triclinic'
loop_
_space_group_symop_operation_xyz
x,y,z
-x,-y,-z
loop_
_atom_site_type_symbol
_atom_site_label
_atom_site_fract_x
_atom_site_fract_y
_atom_site_fract_z
Si Si1 0.315644 0.613516 0.032148
Si Si2 0.286493 0.433050 0.707403
Si Si3 0.606460 0.647466 0.139194
Si Si4 0.282161 0.624171 0.534167
Si Si5 0.047222 0.351137 0.363762
Si Si6 0.002125 0.543355 0.805018
O O1 0.413379 0.551306 0.093119
O O2 0.132372 0.565150 0.097144
O O3 0.259971 0.381574 0.939958
O O4 0.500000 0.000000 0.000000
O O5 0.462325 0.562747 0.777291
O O6 0.371087 0.603757 0.612887
O O7 0.113389 0.426584 0.764984
O O8 0.136436 0.045147 0.671264
O O9 0.778997 0.040953 0.178262
O O10 0.183468 0.402211 0.437767
O O11 0.085929 0.575347 0.584472
O O12 0.500000 0.000000 0.500000
O O13 0.151622 0.549648 0.271271
#
# Coordination Sequence:
#
# PCOD9073392 Si02
#       6
#     2   2   2   2   2   2
#     4  11  24  40  62  90 121 158 203 250 299 355
#     4  10  21  40  64  88 121 160 199 246 299 354
#     4  10  23  41  60  88 122 158 204 248 296 354
#     4  10  21  39  62  89 121 155 196 246 297 352
#     4   9  21  39  59  88 120 155 199 242 294 358
#     4  10  22  41  62  86 122 161 198 246 299 354
#
# _framework density 23.451654999999999
#
# number of rings (size 3 to 8) (size 9 to 14) (size 15 to 20)
#    0.000    2.000    0.000    2.000    0.000   14.000 
#    0.000    8.333    0.000    0.000    0.000    0.000 
#    0.000    0.000    0.000    0.000    0.000    0.000 
#
# Total GULP energy -66936.959206 kJ/mol
# GULP energy per Si atom -5578.079934 kJ/mol
# Density = 2.339828 g / cm^3
# Si number density = 23.451655 Si / 1000 Ang^3
#
#
#
# Elastic Constant Matrix: (Units=GPa)
#
#
# Indices 1 2 3 4 5 6 
#
# 1 11.5918 -17.8865 9.7490 -2.5858 40.7315 -9.8754
# 2 -17.8865 9.9612 9.0968 -2.1157 18.7628 -7.9444
# 3 9.7490 9.0968 118.1882 11.2055 52.8807 -6.6796
# 4 -2.5858 -2.1157 11.2055 43.9321 -11.1672 -0.7550
# 5 40.7315 18.7628 52.8807 -11.1672 47.5125 -5.1565
# 6 -9.8754 -7.9444 -6.6796 -0.7550 -5.1565 20.9601
#
#
#
# Elastic Compliance Matrix: (Units=1/GPa)
#
#
# Indices 1 2 3 4 5 6 
#
# 1 0.001444 -0.023078 -0.005326 0.003790 0.014023 -0.006177
# 2 -0.023078 0.029372 -0.011553 0.009010 0.023451 0.002672
# 3 -0.005326 -0.011553 0.013943 -0.006662 -0.008474 -0.004769
# 4 0.003790 0.009010 -0.006662 0.027162 0.007636 0.005935
# 5 0.014023 0.023451 -0.008474 0.007636 0.012750 0.016207
# 6 -0.006177 0.002672 -0.004769 0.005935 0.016207 0.048493
#
#
# Mechanical properties :
#
#
# Convention : Reuss Voigt Hill
#
# Bulk Modulus (GPa) = -28.44667 15.73998 -6.35334
# Shear Modulus (GPa) = 24.83113 31.73307 28.28210
#
# Velocity S-wave (km/s) = 3.25748 3.68248 3.47648
# Velocity P-wave (km/s) = 1.41139 4.98067 3.66054
#
# Compressibility (1/GPa) = -0.03515350
#
# Stress axis : x y z
#
# Youngs Moduli (GPa) = 692.29118 34.04552 71.71892
#
# Poissons Ratio (x) = 0.78571 0.38195
# Poissons Ratio (y) = 15.97677 0.82857
# Poissons Ratio (z) = 3.68695 0.39333
#
# Static dielectric constant tensor:
#      x y z
#    x 1.964060 0.009600 0.133810 
#    y 0.009600 1.898270 0.025870 
#    z 0.133810 0.025870 2.064720 
# 
# From -- ./inp_files/3300.got.cif
#   From: 2010.05.17/outbox.ucp.g08.bks.cvg/sg2_2_cif.got.tgz:3300.got - 2010.06.11 11:32:03.
