data_PCOD9073963
_publ_section_title
;
Structure prediction by ZEFSAII (Michael W. Deem and Ramdas Pophale) SiO2 
 PCOD9073963
Probable space group: P -1
;
_chemical_formula_sum "Si O2"
_cell_formula_units_Z 16
_cell_length_a 15.000000
_cell_length_b 9.000000
_cell_length_c 9.000000
_cell_angle_alpha 70.000000
_cell_angle_beta 80.000000
_cell_angle_gamma 40.000000
_cell_volume 725.993766
_symmetry_space_group_name_H-M "P -1"
_symmetry_group_IT_number 2
_symmetry_cell_setting 'triclinic'
loop_
_space_group_symop_operation_xyz
x,y,z
-x,-y,-z
loop_
_atom_site_type_symbol
_atom_site_label
_atom_site_fract_x
_atom_site_fract_y
_atom_site_fract_z
Si Si1 0.391418 0.036183 0.712265
Si Si2 0.914172 0.581498 0.352936
Si Si3 0.563796 0.693107 0.509631
Si Si4 0.317350 0.960893 0.288489
Si Si5 0.991645 0.780177 0.764740
Si Si6 0.122573 0.514594 0.130252
Si Si7 0.187943 0.746697 0.216652
Si Si8 0.381795 0.757059 0.031490
O O1 0.243939 0.192006 0.627041
O O2 0.403456 0.210693 0.651680
O O3 0.515037 0.825798 0.638041
O O4 0.378323 0.932524 0.889155
O O5 0.000000 0.500000 0.500000
O O6 0.926413 0.390782 0.343542
O O7 0.985614 0.607587 0.206926
O O8 0.702993 0.420583 0.620065
O O9 0.424827 0.793631 0.450537
O O10 0.165468 0.077648 0.275633
O O11 0.259712 0.218605 0.206686
O O12 0.405795 0.780103 0.184783
O O13 0.956596 0.002942 0.751336
O O14 0.077242 0.596898 0.943737
O O15 0.157920 0.629736 0.168268
O O16 0.251338 0.805041 0.073084
O O17 0.500000 0.500000 0.000000
#
# Coordination Sequence:
#
# PCOD9073963 Si02
#       8
#     2   2   2   2   2   2   2   2
#     4  11  22  41  65  92 130 170 219 264 312 396
#     4  11  21  39  64  95 127 172 221 262 316 388
#     4  11  23  42  66  96 131 175 214 258 340 390
#     4  10  22  40  67  93 131 172 218 266 321 402
#     4  10  22  40  65  95 129 170 219 267 325 381
#     4  11  21  42  69  93 125 179 219 265 321 386
#     4  11  23  43  70  97 138 167 214 273 334 387
#     4  11  23  42  60  97 130 164 216 268 322 377
#
# _framework density 22.038757
#
# number of rings (size 3 to 8) (size 9 to 14) (size 15 to 20)
#    0.000    1.250    1.250    7.875    0.000    2.500 
#    4.500    2.500    0.000    0.000    0.000    0.000 
#    0.000    0.000    0.000    0.000    0.000    0.000 
#
# Total GULP energy -89072.695376 kJ/mol
# GULP energy per Si atom -5567.043461 kJ/mol
# Density = 2.198860 g / cm^3
# Si number density = 22.038757 Si / 1000 Ang^3
#
#
#
# Elastic Constant Matrix: (Units=GPa)
#
#
# Indices 1 2 3 4 5 6 
#
# 1 75.3707 13.3337 14.0159 0.8830 3.7169 9.8625
# 2 13.3337 80.0736 23.0294 2.0046 -2.3088 13.1039
# 3 14.0159 23.0294 46.9140 -14.1167 13.4006 9.7252
# 4 0.8830 2.0046 -14.1167 29.8642 -1.3954 9.8963
# 5 3.7169 -2.3088 13.4006 -1.3954 41.9053 -0.6381
# 6 9.8625 13.1039 9.7252 9.8963 -0.6381 40.6785
#
#
#
# Elastic Compliance Matrix: (Units=1/GPa)
#
#
# Indices 1 2 3 4 5 6 
#
# 1 0.014431 -0.000942 -0.003886 -0.001584 -0.000171 -0.001883
# 2 -0.000942 0.015962 -0.010001 -0.005189 0.003970 -0.001198
# 3 -0.003886 -0.010001 0.040156 0.022898 -0.012456 -0.011203
# 4 -0.001584 -0.005189 0.022898 0.049583 -0.006054 -0.015576
# 5 -0.000171 0.003970 -0.012456 -0.006054 0.027934 0.003651
# 6 -0.001883 -0.001198 -0.011203 -0.015576 0.003651 0.031950
#
#
# Mechanical properties :
#
#
# Convention : Reuss Voigt Hill
#
# Bulk Modulus (GPa) = 24.45598 33.67959 29.06778
# Shear Modulus (GPa) = 22.39080 32.62155 27.50617
#
# Velocity S-wave (km/s) = 3.19089 3.85150 3.53665
# Velocity P-wave (km/s) = 4.96957 5.92401 5.46765
#
# Compressibility (1/GPa) = 0.04088980
#
# Stress axis : x y z
#
# Youngs Moduli (GPa) = 69.29746 62.64808 24.90260
#
# Poissons Ratio (x) = 0.05903 0.09678
# Poissons Ratio (y) = 0.06530 0.24905
# Poissons Ratio (z) = 0.26931 0.62655
#
# Static dielectric constant tensor:
#      x y z
#    x 1.810910 0.057420 -0.053920 
#    y 0.057420 1.855520 -0.028150 
#    z -0.053920 -0.028150 1.858060 
# 
# From -- ./inp_files/244396.got.cif
#   From: 2010.05.17/outbox.ucp.g08.bks.cvg/sg2_123_cif.got.tgz:244396.got - 2010.06.11 11:32:03.
