data_PCOD9073815
_publ_section_title
;
Structure prediction by ZEFSAII (Michael W. Deem and Ramdas Pophale) SiO2 
 PCOD9073815
Probable space group: P -1
;
_chemical_formula_sum "Si O2"
_cell_formula_units_Z 14
_cell_length_a 15.000000
_cell_length_b 9.000000
_cell_length_c 15.000000
_cell_angle_alpha 140.000000
_cell_angle_beta 150.000000
_cell_angle_gamma 40.000000
_cell_volume 616.747849
_symmetry_space_group_name_H-M "P -1"
_symmetry_group_IT_number 2
_symmetry_cell_setting 'triclinic'
loop_
_space_group_symop_operation_xyz
x,y,z
-x,-y,-z
loop_
_atom_site_type_symbol
_atom_site_label
_atom_site_fract_x
_atom_site_fract_y
_atom_site_fract_z
Si Si1 0.155517 0.737997 0.177231
Si Si2 0.343475 0.517965 0.052966
Si Si3 0.940841 0.759395 0.306763
Si Si4 0.719631 0.111373 0.144806
Si Si5 0.789148 0.580995 0.747732
Si Si6 0.535485 0.093069 0.785993
Si Si7 0.090156 0.210989 0.442123
O O1 0.274550 0.641827 0.146530
O O2 0.236872 0.586889 0.269459
O O3 0.114175 0.025384 0.293545
O O4 0.957521 0.687710 0.968791
O O5 0.550082 0.311932 0.140681
O O6 0.388921 0.719605 0.120329
O O7 0.177219 0.404063 0.821734
O O8 0.129855 0.581395 0.343820
O O9 0.784822 0.864083 0.142864
O O10 0.000000 0.000000 0.500000
O O11 0.922391 0.151491 0.324560
O O12 0.629785 0.086009 0.960925
O O13 0.611188 0.818472 0.686679
O O14 0.310113 0.164726 0.635705
O O15 0.000000 0.500000 0.500000
#
# Coordination Sequence:
#
# PCOD9073815 Si02
#       7
#     2   2   2   2   2   2   2
#     4  10  22  47  75 103 149 197 242 307 359 440
#     4  11  26  45  74 111 149 194 243 307 373 424
#     4  11  26  47  78 112 145 195 252 308 361 444
#     4  12  25  50  73 107 152 195 241 310 363 437
#     4  10  21  47  72 104 148 197 242 298 379 433
#     4  12  26  45  78 108 148 202 240 303 380 434
#     4  12  26  46  77 108 145 199 252 297 365 451
#
# _framework density 22.699714
#
# number of rings (size 3 to 8) (size 9 to 14) (size 15 to 20)
#    0.000    0.857    4.286    2.571    2.000    4.571 
#    2.571    0.000    0.000    0.000    0.000    0.000 
#    0.000    0.000    0.000    0.000    0.000    0.000 
#
# Total GULP energy -78141.754067 kJ/mol
# GULP energy per Si atom -5581.553862 kJ/mol
# Density = 2.264805 g / cm^3
# Si number density = 22.699714 Si / 1000 Ang^3
#
#
#
# Elastic Constant Matrix: (Units=GPa)
#
#
# Indices 1 2 3 4 5 6 
#
# 1 122.0696 50.8813 57.7393 0.8523 -0.2162 -48.8104
# 2 50.8813 163.3270 42.9038 7.8209 -1.2113 -47.0698
# 3 57.7393 42.9038 118.9395 14.7339 25.1715 0.1032
# 4 0.8523 7.8209 14.7339 46.4326 -11.3019 4.5394
# 5 -0.2162 -1.2113 25.1715 -11.3019 20.8275 -10.2138
# 6 -48.8104 -47.0698 0.1032 4.5394 -10.2138 35.2403
#
#
#
# Elastic Compliance Matrix: (Units=1/GPa)
#
#
# Indices 1 2 3 4 5 6 
#
# 1 -0.002508 -0.008477 0.011248 -0.006926 -0.028799 -0.022284
# 2 -0.008477 0.004676 0.006168 -0.005248 -0.014560 -0.009058
# 3 0.011248 0.006168 -0.004079 0.002311 0.021214 0.029680
# 4 -0.006926 -0.005248 0.002311 0.023756 0.000087 -0.019644
# 5 -0.028799 -0.014560 0.021214 0.000087 -0.009160 -0.062065
# 6 -0.022284 -0.009058 0.029680 -0.019644 -0.062065 -0.030132
#
#
# Mechanical properties :
#
#
# Convention : Reuss Voigt Hill
#
# Bulk Modulus (GPa) = 62.63533 78.59834 70.61683
# Shear Modulus (GPa) = -166.66719 37.35419 -64.65650
#
# Velocity S-wave (km/s) = -8.57799 4.06098 -5.34277
# Velocity P-wave (km/s) = 8.39383 7.52922 2.62367
#
# Compressibility (1/GPa) = 0.01596543
#
# Stress axis : x y z
#
# Youngs Moduli (GPa) = -398.77163 213.83669 -245.15732
#
# Poissons Ratio (x) = 1.81280 2.75744
# Poissons Ratio (y) = -3.38058 1.51205
# Poissons Ratio (z) = 4.48524 -1.31888
#
# Static dielectric constant tensor:
#      x y z
#    x 1.921570 0.052580 -0.017610 
#    y 0.052580 1.923780 0.058930 
#    z -0.017610 0.058930 1.893360 
# 
# From -- ./inp_files/530275.got.cif
#   From: 2010.05.17/outbox.ucp.g08.bks.cvg/sg2_266_cif.got.tgz:530275.got - 2010.06.11 11:32:03.
