data_PCOD9073556
_publ_section_title
;
Structure prediction by ZEFSAII (Michael W. Deem and Ramdas Pophale) SiO2 
 PCOD9073556
Probable space group: P -1
;
_chemical_formula_sum "Si O2"
_cell_formula_units_Z 16
_cell_length_a 24.000000
_cell_length_b 9.000000
_cell_length_c 9.000000
_cell_angle_alpha 80.000000
_cell_angle_beta 130.000000
_cell_angle_gamma 140.000000
_cell_volume 729.599496
_symmetry_space_group_name_H-M "P -1"
_symmetry_group_IT_number 2
_symmetry_cell_setting 'triclinic'
loop_
_space_group_symop_operation_xyz
x,y,z
-x,-y,-z
loop_
_atom_site_type_symbol
_atom_site_label
_atom_site_fract_x
_atom_site_fract_y
_atom_site_fract_z
Si Si1 0.578091 0.363390 0.451989
Si Si2 0.167493 0.832733 0.000796
Si Si3 0.149547 0.331794 0.631769
Si Si4 0.352187 0.471856 0.130041
Si Si5 0.635835 0.815458 0.452159
Si Si6 0.126173 0.162586 0.300020
Si Si7 0.852196 0.153204 0.515263
Si Si8 0.738847 0.176117 0.098593
O O1 0.602512 0.363372 0.666388
O O2 0.576716 0.542766 0.432709
O O3 0.720688 0.566448 0.572779
O O4 0.429624 0.072984 0.155209
O O5 0.225353 0.790468 0.017296
O O6 0.993495 0.504793 0.744341
O O7 0.243824 0.132005 0.036153
O O8 0.225968 0.911193 0.252542
O O9 0.137940 0.291760 0.441467
O O10 0.178471 0.548780 0.712283
O O11 0.273078 0.443025 0.888667
O O12 0.000000 0.000000 0.500000
O O13 0.501878 0.682861 0.277041
O O14 0.705529 0.933997 0.390288
O O15 0.112109 0.960909 0.372526
O O16 0.000000 0.000000 0.000000
O O17 0.801278 0.125264 0.273199
#
# Coordination Sequence:
#
# PCOD9073556 Si02
#       8
#     2   2   2   2   2   2   2   2
#     4  10  22  42  70  98 135 177 222 276 328 400
#     4  11  20  42  68  98 130 177 227 271 325 397
#     4  12  27  44  66  97 136 180 221 280 341 397
#     4  11  21  44  71  97 137 179 223 272 336 395
#     4  10  21  40  68 100 131 172 225 278 329 394
#     4  11  26  48  69  96 136 178 220 277 346 399
#     4  11  25  40  70  99 131 174 227 282 327 394
#     4  12  24  42  66 102 137 172 230 272 332 398
#
# _framework density 21.929839999999999
#
# number of rings (size 3 to 8) (size 9 to 14) (size 15 to 20)
#    0.000    1.000    2.500    4.500    1.750    5.000 
#    2.250    0.000    0.000    0.000    0.000    0.000 
#    0.000    0.000    0.000    0.000    0.000    0.000 
#
# Total GULP energy -89296.513354 kJ/mol
# GULP energy per Si atom -5581.032085 kJ/mol
# Density = 2.187993 g / cm^3
# Si number density = 21.929840 Si / 1000 Ang^3
#
#
#
# Elastic Constant Matrix: (Units=GPa)
#
#
# Indices 1 2 3 4 5 6 
#
# 1 76.9392 10.6068 15.7110 -2.8101 -10.2038 -11.5894
# 2 10.6068 31.9520 26.7272 9.3199 -0.2427 -11.8310
# 3 15.7110 26.7272 133.0576 5.3411 0.5514 -5.7462
# 4 -2.8101 9.3199 5.3411 14.2747 -6.9257 -1.0289
# 5 -10.2038 -0.2427 0.5514 -6.9257 45.5600 9.0660
# 6 -11.5894 -11.8310 -5.7462 -1.0289 9.0660 14.2690
#
#
#
# Elastic Compliance Matrix: (Units=1/GPa)
#
#
# Indices 1 2 3 4 5 6 
#
# 1 0.015609 -0.003717 -0.001098 0.008005 0.003171 0.007717
# 2 -0.003717 0.087651 -0.011355 -0.060123 -0.024561 0.076353
# 3 -0.001098 -0.011355 0.009449 0.003925 0.001618 -0.007246
# 4 0.008005 -0.060123 0.003925 0.120254 0.030096 -0.052219
# 5 0.003171 -0.024561 0.001618 0.030096 0.034413 -0.036832
# 6 0.007717 0.076353 -0.007246 -0.052219 -0.036832 0.156375
#
#
# Mechanical properties :
#
#
# Convention : Reuss Voigt Hill
#
# Bulk Modulus (GPa) = 12.44253 38.67097 25.55675
# Shear Modulus (GPa) = 10.35456 27.41432 18.88444
#
# Velocity S-wave (km/s) = 2.17530 3.53950 2.93768
# Velocity P-wave (km/s) = 3.46343 5.86313 4.81517
#
# Compressibility (1/GPa) = 0.08036953
#
# Stress axis : x y z
#
# Youngs Moduli (GPa) = 64.06534 11.40892 105.83327
#
# Poissons Ratio (x) = 0.04241 0.11617
# Poissons Ratio (y) = 0.23813 1.20173
# Poissons Ratio (z) = 0.07032 0.12955
#
# Static dielectric constant tensor:
#      x y z
#    x 1.810900 0.043000 -0.022550 
#    y 0.043000 1.889960 -0.028480 
#    z -0.022550 -0.028480 1.845080 
# 
# From -- ./inp_files/352211.got.cif
#   From: 2010.05.17/outbox.ucp.g08.bks.cvg/sg2_177_cif.got.tgz:352211.got - 2010.06.11 11:32:03.
