data_PCOD9073321
_publ_section_title
;
Structure prediction by ZEFSAII (Michael W. Deem and Ramdas Pophale) SiO2 
 PCOD9073321
Probable space group: P -1
;
_chemical_formula_sum "Si O2"
_cell_formula_units_Z 14
_cell_length_a 12.000000
_cell_length_b 15.000000
_cell_length_c 9.000000
_cell_angle_alpha 50.000000
_cell_angle_beta 120.000000
_cell_angle_gamma 150.000000
_cell_volume 613.666794
_symmetry_space_group_name_H-M "P -1"
_symmetry_group_IT_number 2
_symmetry_cell_setting 'triclinic'
loop_
_space_group_symop_operation_xyz
x,y,z
-x,-y,-z
loop_
_atom_site_type_symbol
_atom_site_label
_atom_site_fract_x
_atom_site_fract_y
_atom_site_fract_z
Si Si1 0.037856 0.281344 0.214504
Si Si2 0.424127 0.573869 0.907973
Si Si3 0.579109 0.900860 0.781225
Si Si4 0.669146 0.907034 0.164871
Si Si5 0.763676 0.719120 0.403532
Si Si6 0.272413 0.533985 0.525725
Si Si7 0.865703 0.298120 0.357405
O O1 0.979109 0.338054 0.235363
O O2 0.091703 0.212291 0.431450
O O3 0.826237 0.102371 0.161527
O O4 0.246353 0.442875 0.066173
O O5 0.621800 0.802485 0.856519
O O6 0.342225 0.573139 0.700694
O O7 0.500000 0.500000 0.000000
O O8 0.316259 0.738202 0.754737
O O9 0.722155 0.092307 0.567862
O O10 0.613337 0.930261 0.949267
O O11 0.787777 0.873797 0.230609
O O12 0.467094 0.717597 0.343275
O O13 0.500000 0.500000 0.500000
O O14 0.807076 0.655653 0.373017
O O15 0.070363 0.472182 0.420015
#
# Coordination Sequence:
#
# PCOD9073321 Si02
#       7
#     2   2   2   2   2   2   2
#     4  11  23  39  63  92 128 164 206 253 310 376
#     4  12  24  40  64  97 127 163 205 256 316 374
#     4  11  24  43  66  89 126 164 212 262 309 371
#     4  11  21  37  62  93 124 166 206 257 313 367
#     4   9  18  36  58  87 124 161 201 250 305 364
#     4  10  21  38  61  90 128 163 209 258 308 371
#     4  10  24  45  64  90 121 168 215 259 310 364
#
# _framework density 22.813683000000001
#
# number of rings (size 3 to 8) (size 9 to 14) (size 15 to 20)
#    0.000    1.429    0.000    7.286    0.000    5.714 
#    0.000    5.000    0.000    0.000    0.000    0.000 
#    0.000    0.000    0.000    0.000    0.000    0.000 
#
# Total GULP energy -78207.408762 kJ/mol
# GULP energy per Si atom -5586.243483 kJ/mol
# Density = 2.276176 g / cm^3
# Si number density = 22.813683 Si / 1000 Ang^3
#
#
#
# Elastic Constant Matrix: (Units=GPa)
#
#
# Indices 1 2 3 4 5 6 
#
# 1 76.2535 8.0351 37.8596 6.2246 -14.9491 5.8016
# 2 8.0351 58.2945 27.7045 33.8095 -2.5013 -8.9874
# 3 37.8596 27.7045 107.7616 20.5599 -21.7771 -12.3599
# 4 6.2246 33.8095 20.5599 47.0799 -4.0735 -6.0289
# 5 -14.9491 -2.5013 -21.7771 -4.0735 35.7661 8.9911
# 6 5.8016 -8.9874 -12.3599 -6.0289 8.9911 29.8640
#
#
#
# Elastic Compliance Matrix: (Units=1/GPa)
#
#
# Indices 1 2 3 4 5 6 
#
# 1 0.017803 -0.000795 -0.005816 0.000262 0.005837 -0.007809
# 2 -0.000795 0.031859 -0.004264 -0.020632 -0.004337 0.005118
# 3 -0.005816 -0.004264 0.014093 -0.001407 0.004690 0.003983
# 4 0.000262 -0.020632 -0.001407 0.036808 0.002006 -0.000016
# 5 0.005837 -0.004337 0.004690 0.002006 0.035922 -0.010908
# 6 -0.007809 0.005118 0.003983 -0.000016 -0.010908 0.041472
#
#
# Mechanical properties :
#
#
# Convention : Reuss Voigt Hill
#
# Bulk Modulus (GPa) = 23.80817 43.27867 33.54342
# Shear Modulus (GPa) = 23.39619 33.78938 28.59278
#
# Velocity S-wave (km/s) = 3.20587 3.85268 3.54406
# Velocity P-wave (km/s) = 4.91549 6.22917 5.61091
#
# Compressibility (1/GPa) = 0.04200239
#
# Stress axis : x y z
#
# Youngs Moduli (GPa) = 56.17088 31.38786 70.95939
#
# Poissons Ratio (x) = 0.02497 0.41272
# Poissons Ratio (y) = 0.04468 0.30261
# Poissons Ratio (z) = 0.32671 0.13385
#
# Static dielectric constant tensor:
#      x y z
#    x 1.887070 0.042110 -0.001130 
#    y 0.042110 1.897500 -0.029580 
#    z -0.001130 -0.029580 1.871670 
# 
# From -- ./inp_files/202414.got.cif
#   From: 2010.05.17/outbox.ucp.g08.bks.cvg/sg2_102_cif.got.tgz:202414.got - 2010.06.11 11:32:03.
