data_PCOD9073856
_publ_section_title
;
Structure prediction by ZEFSAII (Michael W. Deem and Ramdas Pophale) SiO2 
 PCOD9073856
Probable space group: P -1
;
_chemical_formula_sum "Si O2"
_cell_formula_units_Z 14
_cell_length_a 15.000000
_cell_length_b 15.000000
_cell_length_c 9.000000
_cell_angle_alpha 60.000000
_cell_angle_beta 80.000000
_cell_angle_gamma 30.000000
_cell_volume 702.152635
_symmetry_space_group_name_H-M "P -1"
_symmetry_group_IT_number 2
_symmetry_cell_setting 'triclinic'
loop_
_space_group_symop_operation_xyz
x,y,z
-x,-y,-z
loop_
_atom_site_type_symbol
_atom_site_label
_atom_site_fract_x
_atom_site_fract_y
_atom_site_fract_z
Si Si1 0.017737 0.625272 0.397144
Si Si2 0.364823 0.116430 0.791930
Si Si3 0.742399 0.636399 0.878558
Si Si4 0.138362 0.989423 0.830355
Si Si5 0.669582 0.370398 0.688338
Si Si6 0.134523 0.258530 0.318602
Si Si7 0.508897 0.280482 0.295648
O O1 0.854147 0.727300 0.257098
O O2 0.958138 0.667983 0.552008
O O3 0.267496 0.321013 0.572723
O O4 0.957999 0.805294 0.241914
O O5 0.522273 0.888205 0.828697
O O6 0.500000 0.000000 0.000000
O O7 0.790707 0.699041 0.738382
O O8 0.683373 0.591472 0.841431
O O9 0.948859 0.420259 0.115250
O O10 0.322760 0.831462 0.778626
O O11 0.261732 0.793491 0.082998
O O12 0.903103 0.171851 0.712099
O O13 0.500000 0.500000 0.500000
O O14 0.573569 0.557720 0.679919
O O15 0.337099 0.970207 0.475206
#
# Coordination Sequence:
#
# PCOD9073856 Si02
#       7
#     2   2   2   2   2   2   2
#     4  10  22  38  61  92 129 172 216 262 317 389
#     4  11  21  35  60  93 131 174 211 256 314 385
#     4  11  22  39  60  95 138 172 216 257 323 385
#     4  10  24  47  68  98 129 166 226 274 332 404
#     4  11  27  47  72  99 125 167 225 286 345 389
#     4  10  22  38  59  97 131 173 218 256 308 398
#     4  11  24  45  71  94 135 179 212 276 335 387
#
# _framework density 19.938685
#
# number of rings (size 3 to 8) (size 9 to 14) (size 15 to 20)
#    0.000    1.429    4.286    0.857    2.000    7.429 
#    0.000    0.000    0.000    0.000    0.000    0.000 
#    0.000    0.000    0.000    0.000    0.000    0.000 
#
# Total GULP energy -78002.414413 kJ/mol
# GULP energy per Si atom -5571.601030 kJ/mol
# Density = 1.989330 g / cm^3
# Si number density = 19.938685 Si / 1000 Ang^3
#
#
#
# Elastic Constant Matrix: (Units=GPa)
#
#
# Indices 1 2 3 4 5 6 
#
# 1 160.1956 48.7212 74.8348 -0.2850 17.5080 6.7984
# 2 48.7212 85.9742 34.4451 3.3357 6.1530 6.6500
# 3 74.8348 34.4451 133.0012 -14.4085 18.9958 8.1919
# 4 -0.2850 3.3357 -14.4085 23.6787 2.1102 -0.3644
# 5 17.5080 6.1530 18.9958 2.1102 49.9017 -1.6576
# 6 6.7984 6.6500 8.1919 -0.3644 -1.6576 49.3366
#
#
#
# Elastic Compliance Matrix: (Units=1/GPa)
#
#
# Indices 1 2 3 4 5 6 
#
# 1 0.009519 -0.003408 -0.004528 -0.002064 -0.001113 -0.000153
# 2 -0.003408 0.014660 -0.002240 -0.003518 0.000351 -0.001149
# 3 -0.004528 -0.002240 0.012001 0.007820 -0.003071 -0.001112
# 4 -0.002064 -0.003518 0.007820 0.047800 -0.003851 -0.000316
# 5 -0.001113 0.000351 -0.003071 -0.003851 0.021762 0.001319
# 6 -0.000153 -0.001149 -0.001112 -0.000316 0.001319 0.020672
#
#
# Mechanical properties :
#
#
# Convention : Reuss Voigt Hill
#
# Bulk Modulus (GPa) = 63.18065 77.24148 70.21106
# Shear Modulus (GPa) = 32.88555 39.32805 36.10680
#
# Velocity S-wave (km/s) = 4.06561 4.44604 4.26007
# Velocity P-wave (km/s) = 7.33452 8.07341 7.71282
#
# Compressibility (1/GPa) = 0.01582763
#
# Stress axis : x y z
#
# Youngs Moduli (GPa) = 105.05391 68.21087 83.32658
#
# Poissons Ratio (x) = 0.23250 0.37733
# Poissons Ratio (y) = 0.35807 0.18661
# Poissons Ratio (z) = 0.47572 0.15276
#
# Static dielectric constant tensor:
#      x y z
#    x 1.737740 -0.039570 -0.010460 
#    y -0.039570 1.788320 -0.006310 
#    z -0.010460 -0.006310 1.726470 
# 
# From -- ./inp_files/312689.got.cif
#   From: 2010.05.17/outbox.ucp.g08.bks.cvg/sg2_157_cif.got.tgz:312689.got - 2010.06.11 11:32:03.
