data_PCOD9073895
_publ_section_title
;
Structure prediction by ZEFSAII (Michael W. Deem and Ramdas Pophale) SiO2 
 PCOD9073895
Probable space group: P -1
;
_chemical_formula_sum "Si O2"
_cell_formula_units_Z 16
_cell_length_a 12.000000
_cell_length_b 21.000000
_cell_length_c 18.000000
_cell_angle_alpha 20.000000
_cell_angle_beta 150.000000
_cell_angle_gamma 140.000000
_cell_volume 744.844803
_symmetry_space_group_name_H-M "P -1"
_symmetry_group_IT_number 2
_symmetry_cell_setting 'triclinic'
loop_
_space_group_symop_operation_xyz
x,y,z
-x,-y,-z
loop_
_atom_site_type_symbol
_atom_site_label
_atom_site_fract_x
_atom_site_fract_y
_atom_site_fract_z
Si Si1 0.644279 0.521338 0.487723
Si Si2 0.478148 0.877674 0.844038
Si Si3 0.733858 0.713510 0.683489
Si Si4 0.845376 0.221575 0.806418
Si Si5 0.609291 0.851741 0.790566
Si Si6 0.636228 0.412172 0.317469
Si Si7 0.239064 0.625013 0.038267
Si Si8 0.092579 0.224031 0.700330
O O1 0.500000 0.500000 0.500000
O O2 0.731189 0.330229 0.696279
O O3 0.842498 0.633522 0.479239
O O4 0.439240 0.653769 0.174366
O O5 0.512491 0.954762 0.698418
O O6 0.280352 0.765469 0.843727
O O7 0.381387 0.060583 0.640617
O O8 0.740143 0.766235 0.143255
O O9 0.604253 0.640319 0.755138
O O10 0.004169 0.680887 0.885780
O O11 0.722201 0.585719 0.743821
O O12 0.744597 0.345072 0.537451
O O13 0.114705 0.201353 0.991571
O O14 0.838925 0.999906 0.038124
O O15 0.500000 0.000000 0.500000
O O16 0.574418 0.636914 0.012831
O O17 0.830269 0.295065 0.500536
#
# Coordination Sequence:
#
# PCOD9073895 Si02
#       8
#     2   2   2   2   2   2   2   2
#     4  11  24  42  63  94 140 180 219 264 329 396
#     4  11  20  40  66  95 127 167 218 276 323 385
#     4  11  21  37  66  97 124 161 223 275 323 373
#     4  12  22  44  72 101 129 171 232 278 316 400
#     4  12  26  41  63 102 140 171 207 276 354 395
#     4  12  20  43  73  98 126 169 226 281 321 386
#     4  10  22  39  62  93 128 173 220 271 314 383
#     4  11  22  40  76 103 116 171 239 275 323 379
#
# _framework density 21.480985
#
# number of rings (size 3 to 8) (size 9 to 14) (size 15 to 20)
#    0.000    0.750    6.250    2.625    0.000    1.500 
#    2.250    1.250    0.000    0.000    0.000    0.000 
#    0.000    0.000    0.000    0.000    0.000    0.000 
#
# Total GULP energy -89089.881444 kJ/mol
# GULP energy per Si atom -5568.117590 kJ/mol
# Density = 2.143209 g / cm^3
# Si number density = 21.480985 Si / 1000 Ang^3
#
#
#
# Elastic Constant Matrix: (Units=GPa)
#
#
# Indices 1 2 3 4 5 6 
#
# 1 151.1271 26.5570 34.6576 -4.4644 27.8107 32.8214
# 2 26.5570 66.1656 38.8609 -22.7158 10.1619 18.2331
# 3 34.6576 38.8609 98.9629 -30.8874 11.7515 0.7344
# 4 -4.4644 -22.7158 -30.8874 41.1971 3.6575 17.2814
# 5 27.8107 10.1619 11.7515 3.6575 37.8599 13.5892
# 6 32.8214 18.2331 0.7344 17.2814 13.5892 33.8039
#
#
#
# Elastic Compliance Matrix: (Units=1/GPa)
#
#
# Indices 1 2 3 4 5 6 
#
# 1 0.010918 0.006062 -0.002367 0.010520 -0.003550 -0.017770
# 2 0.006062 0.045494 -0.006137 0.043070 -0.000168 -0.052241
# 3 -0.002367 -0.006137 0.016078 0.007566 -0.003313 0.002723
# 4 0.010520 0.043070 0.007566 0.087518 -0.002300 -0.077427
# 5 -0.003550 -0.000168 -0.003313 -0.002300 0.033422 -0.008650
# 6 -0.017770 -0.052241 0.002723 -0.077427 -0.008650 0.118014
#
#
# Mechanical properties :
#
#
# Convention : Reuss Voigt Hill
#
# Bulk Modulus (GPa) = 14.79173 57.37850 36.08512
# Shear Modulus (GPa) = 14.75522 36.98417 25.86969
#
# Velocity S-wave (km/s) = 2.62371 4.15386 3.47408
# Velocity P-wave (km/s) = 4.00992 7.05516 5.73824
#
# Compressibility (1/GPa) = 0.06760535
#
# Stress axis : x y z
#
# Youngs Moduli (GPa) = 91.59295 21.98115 62.19550
#
# Poissons Ratio (x) = -0.13325 0.14721
# Poissons Ratio (y) = -0.55524 0.38171
# Poissons Ratio (z) = 0.21680 0.13490
#
# Static dielectric constant tensor:
#      x y z
#    x 2.266560 0.267730 -0.321990 
#    y 0.267730 2.031610 -0.188740 
#    z -0.321990 -0.188740 2.036250 
# 
# From -- ./inp_files/570710.got.cif
#   From: 2010.05.17/outbox.ucp.g08.bks.cvg/sg2_286_cif.got.tgz:570710.got - 2010.06.11 11:32:03.
