data_PCOD9073355
_publ_section_title
;
Structure prediction by ZEFSAII (Michael W. Deem and Ramdas Pophale) SiO2 
 PCOD9073355
Probable space group: P -1
;
_chemical_formula_sum "Si O2"
_cell_formula_units_Z 10
_cell_length_a 12.000000
_cell_length_b 15.000000
_cell_length_c 9.000000
_cell_angle_alpha 130.000000
_cell_angle_beta 130.000000
_cell_angle_gamma 20.000000
_cell_volume 419.772810
_symmetry_space_group_name_H-M "P -1"
_symmetry_group_IT_number 2
_symmetry_cell_setting 'triclinic'
loop_
_space_group_symop_operation_xyz
x,y,z
-x,-y,-z
loop_
_atom_site_type_symbol
_atom_site_label
_atom_site_fract_x
_atom_site_fract_y
_atom_site_fract_z
Si Si1 0.699428 0.588990 0.981993
Si Si2 0.265120 0.172051 0.837912
Si Si3 0.465320 0.383990 0.525328
Si Si4 0.873534 0.130775 0.297619
Si Si5 0.815797 0.652863 0.654000
O O1 0.713129 0.711023 0.066936
O O2 0.945427 0.420880 0.149323
O O3 0.334770 0.805524 0.920117
O O4 0.924895 0.362087 0.808399
O O5 0.451491 0.963580 0.653505
O O6 0.500000 0.000000 0.000000
O O7 0.687292 0.236862 0.408996
O O8 0.236201 0.662732 0.631419
O O9 0.249782 0.419783 0.389296
O O10 0.744155 0.171098 0.666895
O O11 0.000000 0.500000 0.500000
#
# Coordination Sequence:
#
# PCOD9073355 Si02
#       5
#     2   2   2   2   2
#     4  10  21  38  65  95 118 171 218 270 318 377
#     4   9  19  35  64  90 123 153 224 264 312 372
#     4  10  23  39  63  99 131 166 212 274 332 379
#     4  10  22  39  67  96 131 161 217 279 329 377
#     4  11  25  42  62  92 133 176 215 261 322 395
#
# _framework density 23.822410000000001
#
# number of rings (size 3 to 8) (size 9 to 14) (size 15 to 20)
#    0.000    2.000    0.000    3.600   16.800    0.800 
#    0.000    2.000    0.000    0.000    0.000    0.000 
#    0.000    0.000    0.000    0.000    0.000    0.000 
#
# Total GULP energy -55691.283439 kJ/mol
# GULP energy per Si atom -5569.128344 kJ/mol
# Density = 2.376819 g / cm^3
# Si number density = 23.822410 Si / 1000 Ang^3
#
#
#
# Elastic Constant Matrix: (Units=GPa)
#
#
# Indices 1 2 3 4 5 6 
#
# 1 29.9463 14.0896 15.0883 8.3571 24.4944 -5.5108
# 2 14.0896 122.0773 48.2698 -25.0437 5.3612 -4.7359
# 3 15.0883 48.2698 70.1775 -12.4086 15.7684 -22.5134
# 4 8.3571 -25.0437 -12.4086 43.5155 -20.1912 11.1773
# 5 24.4944 5.3612 15.7684 -20.1912 35.3745 2.5645
# 6 -5.5108 -4.7359 -22.5134 11.1773 2.5645 19.0124
#
#
#
# Elastic Compliance Matrix: (Units=1/GPa)
#
#
# Indices 1 2 3 4 5 6 
#
# 1 -0.003028 0.013600 -0.027206 0.028680 0.032224 -0.050913
# 2 0.013600 0.007354 -0.003658 -0.008014 -0.014059 0.008050
# 3 -0.027206 -0.003658 0.024304 0.015734 0.016927 0.008449
# 4 0.028680 -0.008014 0.015734 -0.005355 -0.031055 0.032285
# 5 0.032224 -0.014059 0.016927 -0.031055 -0.020585 0.046916
# 6 -0.050913 0.008050 0.008449 0.032285 0.046916 0.024542
#
#
# Mechanical properties :
#
#
# Convention : Reuss Voigt Hill
#
# Bulk Modulus (GPa) = -169.56890 41.89964 -63.83463
# Shear Modulus (GPa) = 83.62134 29.23071 56.42602
#
# Velocity S-wave (km/s) = 5.93112 3.50669 4.87212
# Velocity P-wave (km/s) = 4.94274 5.83287 2.18994
#
# Compressibility (1/GPa) = -0.00589731
#
# Stress axis : x y z
#
# Youngs Moduli (GPa) = -330.25737 135.98262 41.14535
#
# Poissons Ratio (x) = -1.84938 1.11940
# Poissons Ratio (y) = 4.49153 0.15050
# Poissons Ratio (z) = -8.98500 0.49739
#
# Static dielectric constant tensor:
#      x y z
#    x 1.892320 -0.036000 -0.064320 
#    y -0.036000 2.478220 0.083060 
#    z -0.064320 0.083060 2.130780 
# 
# From -- ./inp_files/15488.got.cif
#   From: 2010.05.17/outbox.ucp.g08.bks.cvg/sg2_8_cif.got.tgz:15488.got - 2010.06.11 11:32:03.
