data_PCOD9073757
_publ_section_title
;
Structure prediction by ZEFSAII (Michael W. Deem and Ramdas Pophale) SiO2 
 PCOD9073757
Probable space group: P -1
;
_chemical_formula_sum "Si O2"
_cell_formula_units_Z 16
_cell_length_a 10.402240
_cell_length_b 10.036457
_cell_length_c 12.560361
_cell_angle_alpha 94.336986
_cell_angle_beta 39.231901
_cell_angle_gamma 68.414027
_cell_volume 609.220806
_symmetry_space_group_name_H-M "P -1"
_symmetry_group_IT_number 2
_symmetry_cell_setting 'triclinic'
loop_
_space_group_symop_operation_xyz
x,y,z
-x,-y,-z
loop_
_atom_site_type_symbol
_atom_site_label
_atom_site_fract_x
_atom_site_fract_y
_atom_site_fract_z
Si Si1 0.409646 0.837448 0.290721
Si Si2 0.742951 0.919903 0.213652
Si Si3 0.142613 0.154937 0.331219
Si Si4 0.916725 0.946211 0.305880
Si Si5 0.200362 0.611015 0.245486
Si Si6 0.905583 0.480155 0.381523
Si Si7 0.429041 0.820562 0.840628
Si Si8 0.055495 0.546564 0.076990
O O1 0.563438 0.886663 0.265186
O O2 0.630252 0.627679 0.109061
O O3 0.289696 0.953923 0.266464
O O4 0.182997 0.904855 0.530501
O O5 0.687277 0.028542 0.365136
O O6 0.757181 0.021648 0.118648
O O7 0.994769 0.724739 0.091808
O O8 0.371569 0.160499 0.229522
O O9 0.879255 0.288719 0.586051
O O10 0.038930 0.273563 0.296287
O O11 0.979765 0.780662 0.318822
O O12 0.209299 0.861503 0.066495
O O13 0.121668 0.491174 0.293235
O O14 0.500000 0.500000 0.000000
O O15 0.625583 0.630850 0.637173
O O16 0.883988 0.546506 0.279244
O O17 0.000000 0.500000 0.000000
#
# Coordination Sequence:
#
# PCOD9073757 Si02
#       8
#     2   2   2   2   2   2   2   2
#     4   9  21  36  59  78 115 149 190 231 274 339
#     4  10  20  36  55  82 110 149 194 231 278 326
#     4   9  19  35  55  85 113 146 183 233 285 331
#     4  11  19  33  57  86 111 147 185 238 283 325
#     4  10  18  31  56  88 116 139 182 239 283 330
#     4  11  20  35  58  84 116 149 184 233 282 336
#     4  10  21  33  57  89 117 138 184 242 285 329
#     4  10  22  38  58  79 112 157 192 223 277 338
#
# _framework density 26.263057
#
# number of rings (size 3 to 8) (size 9 to 14) (size 15 to 20)
#    0.000    2.000    1.250    4.500    3.500    0.500 
#    0.000    0.625    5.500    6.750    0.000    0.000 
#    0.000    0.000    0.000    0.000    0.000    0.000 
#
# Total GULP energy -89321.398210 kJ/mol
# GULP energy per Si atom -5582.587388 kJ/mol
# Density = 2.620328 g / cm^3
# Si number density = 26.263057 Si / 1000 Ang^3
#
#
#
# Elastic Constant Matrix: (Units=GPa)
#
#
# Indices 1 2 3 4 5 6 
#
# 1 72.5965 -3.8532 13.7566 -2.1412 3.4101 -17.6646
# 2 -3.8532 214.1898 50.8284 16.4655 5.7503 -34.1491
# 3 13.7566 50.8284 144.5915 2.4258 -11.5208 -10.7935
# 4 -2.1412 16.4655 2.4258 33.7934 -4.7638 2.9358
# 5 3.4101 5.7503 -11.5208 -4.7638 34.8372 -8.9492
# 6 -17.6646 -34.1491 -10.7935 2.9358 -8.9492 21.8695
#
#
#
# Elastic Compliance Matrix: (Units=1/GPa)
#
#
# Indices 1 2 3 4 5 6 
#
# 1 0.019991 0.004703 -0.001497 -0.002649 0.002621 0.024180
# 2 0.004703 0.008238 -0.001905 -0.004873 0.001219 0.016875
# 3 -0.001497 -0.001905 0.008084 0.000648 0.003521 0.001160
# 4 -0.002649 -0.004873 0.000648 0.033224 0.002518 -0.012858
# 5 0.002621 0.001219 0.003521 0.002518 0.034807 0.019663
# 6 0.024180 0.016875 0.001160 -0.012858 0.019663 0.101952
#
#
# Mechanical properties :
#
#
# Convention : Reuss Voigt Hill
#
# Bulk Modulus (GPa) = 25.69653 61.42682 43.56167
# Shear Modulus (GPa) = 23.07713 42.80975 32.94344
#
# Velocity S-wave (km/s) = 2.96749 4.04175 3.54554
# Velocity P-wave (km/s) = 4.64186 6.72464 5.77788
#
# Compressibility (1/GPa) = 0.03891577
#
# Stress axis : x y z
#
# Youngs Moduli (GPa) = 50.02369 121.39289 123.69577
#
# Poissons Ratio (x) = -0.57095 0.18517
# Poissons Ratio (y) = -0.23528 0.23561
# Poissons Ratio (z) = 0.07488 0.23122
#
# Static dielectric constant tensor:
#      x y z
#    x 2.183550 0.073670 0.024320 
#    y 0.073670 2.087380 0.012650 
#    z 0.024320 0.012650 2.176750 
# 
# From -- ./inp_files/452649.got.cif
#   From: 2010.05.17/outbox.cif.g08.bks.cpg/sg2_227_cif.got.tgz:452649.got - 2010.06.03 11:33:40.
