data_PCOD9073676
_publ_section_title
;
Structure prediction by ZEFSAII (Michael W. Deem and Ramdas Pophale) SiO2 
 PCOD9073676
Probable space group: P -1
;
_chemical_formula_sum "Si O2"
_cell_formula_units_Z 14
_cell_length_a 15.000000
_cell_length_b 15.000000
_cell_length_c 12.000000
_cell_angle_alpha 40.000000
_cell_angle_beta 30.000000
_cell_angle_gamma 30.000000
_cell_volume 673.608475
_symmetry_space_group_name_H-M "P -1"
_symmetry_group_IT_number 2
_symmetry_cell_setting 'triclinic'
loop_
_space_group_symop_operation_xyz
x,y,z
-x,-y,-z
loop_
_atom_site_type_symbol
_atom_site_label
_atom_site_fract_x
_atom_site_fract_y
_atom_site_fract_z
Si Si1 0.768574 0.392191 0.512917
Si Si2 0.391871 0.805720 0.565231
Si Si3 0.045471 0.713435 0.033533
Si Si4 0.711704 0.868026 0.769653
Si Si5 0.242884 0.952054 0.828690
Si Si6 0.948586 0.685880 0.908459
Si Si7 0.539574 0.698489 0.966891
O O1 0.621992 0.602804 0.491547
O O2 0.633304 0.325266 0.765522
O O3 0.015322 0.280726 0.413049
O O4 0.834366 0.344661 0.356589
O O5 0.195009 0.782479 0.788334
O O6 0.362052 0.944851 0.375709
O O7 0.379588 0.878680 0.633214
O O8 0.218213 0.510381 0.092534
O O9 0.951044 0.714555 0.011015
O O10 0.848861 0.860734 0.192635
O O11 0.581314 0.811726 0.894113
O O12 0.261112 0.165360 0.091360
O O13 0.409573 0.802256 0.889776
O O14 0.000000 0.000000 0.000000
O O15 0.000000 0.500000 0.000000
#
# Coordination Sequence:
#
# PCOD9073676 Si02
#       7
#     2   2   2   2   2   2   2
#     4   9  22  41  66  91 135 163 219 265 319 379
#     4  10  22  41  64  97 127 174 221 267 321 385
#     4  10  21  42  66  96 133 173 215 265 330 379
#     4  10  23  42  64  99 135 163 220 266 325 383
#     4  10  23  41  67  96 135 165 223 270 316 384
#     4  10  21  44  67  93 139 166 211 277 316 386
#     4  11  22  41  68  96 126 181 213 256 338 383
#
# _framework density 20.783586
#
# number of rings (size 3 to 8) (size 9 to 14) (size 15 to 20)
#    0.857    1.143    1.429    1.714    0.000   12.000 
#    2.571    2.857    0.000    0.000    0.000    0.000 
#    0.000    0.000    0.000    0.000    0.000    0.000 
#
# Total GULP energy -78027.345553 kJ/mol
# GULP energy per Si atom -5573.381825 kJ/mol
# Density = 2.073628 g / cm^3
# Si number density = 20.783586 Si / 1000 Ang^3
#
#
#
# Elastic Constant Matrix: (Units=GPa)
#
#
# Indices 1 2 3 4 5 6 
#
# 1 171.9043 46.1191 18.8076 -6.9624 5.8918 -3.6743
# 2 46.1191 117.8700 24.0230 -15.6134 0.8760 -17.9128
# 3 18.8076 24.0230 48.1521 -9.1742 -9.1480 -2.6006
# 4 -6.9624 -15.6134 -9.1742 41.0412 2.0035 6.9867
# 5 5.8918 0.8760 -9.1480 2.0035 37.4262 -0.6179
# 6 -3.6743 -17.9128 -2.6006 6.9867 -0.6179 49.2778
#
#
#
# Elastic Compliance Matrix: (Units=1/GPa)
#
#
# Indices 1 2 3 4 5 6 
#
# 1 0.006668 -0.002310 -0.001746 0.000009 -0.001430 -0.000454
# 2 -0.002310 0.011058 -0.004173 0.002372 -0.000988 0.003278
# 3 -0.001746 -0.004173 0.025390 0.003606 0.006373 -0.000739
# 4 0.000009 0.002372 0.003606 0.026571 -0.000643 -0.002722
# 5 -0.001430 -0.000988 0.006373 -0.000643 0.028565 0.000320
# 6 -0.000454 0.003278 -0.000739 -0.002722 0.000320 0.021802
#
#
# Mechanical properties :
#
#
# Convention : Reuss Voigt Hill
#
# Bulk Modulus (GPa) = 37.51497 57.31398 47.41447
# Shear Modulus (GPa) = 34.38836 42.14749 38.26792
#
# Velocity S-wave (km/s) = 4.07208 4.50813 4.29564
# Velocity P-wave (km/s) = 6.34024 7.39825 6.88958
#
# Compressibility (1/GPa) = 0.02665603
#
# Stress axis : x y z
#
# Youngs Moduli (GPa) = 149.97646 90.43085 39.38610
#
# Poissons Ratio (x) = 0.20891 0.06878
# Poissons Ratio (y) = 0.34646 0.16437
# Poissons Ratio (z) = 0.26191 0.37739
#
# Static dielectric constant tensor:
#      x y z
#    x 1.728360 -0.017890 -0.002640 
#    y -0.017890 1.780760 0.041840 
#    z -0.002640 0.041840 1.830000 
# 
# From -- ./inp_files/453585.got.cif
#   From: 2010.05.17/outbox.ucp.g08.bks.cvg/sg2_227_cif.got.tgz:453585.got - 2010.06.11 11:32:03.
