data_PCOD9073384
_publ_section_title
;
Structure prediction by ZEFSAII (Michael W. Deem and Ramdas Pophale) SiO2 
 PCOD9073384
Probable space group: P -1
;
_chemical_formula_sum "Si O2"
_cell_formula_units_Z 16
_cell_length_a 15.420314
_cell_length_b 11.744946
_cell_length_c 8.174022
_cell_angle_alpha 120.887671
_cell_angle_beta 133.679449
_cell_angle_gamma 41.016838
_cell_volume 702.553663
_symmetry_space_group_name_H-M "P -1"
_symmetry_group_IT_number 2
_symmetry_cell_setting 'triclinic'
loop_
_space_group_symop_operation_xyz
x,y,z
-x,-y,-z
loop_
_atom_site_type_symbol
_atom_site_label
_atom_site_fract_x
_atom_site_fract_y
_atom_site_fract_z
Si Si1 0.280568 0.251794 0.261656
Si Si2 0.582340 0.105090 0.657839
Si Si3 0.226182 0.930591 0.670486
Si Si4 0.274789 0.613807 0.642278
Si Si5 0.633156 0.363143 0.879952
Si Si6 0.985627 0.721755 0.153885
Si Si7 0.509431 0.126401 0.209928
Si Si8 0.098772 0.864229 0.169939
O O1 0.391821 0.253800 0.533975
O O2 0.337664 0.267172 0.170912
O O3 0.356186 0.051674 0.258068
O O4 0.099798 0.343904 0.087038
O O5 0.657189 0.193902 0.847452
O O6 0.604201 0.053043 0.454146
O O7 0.211327 0.808303 0.668112
O O8 0.402681 0.834477 0.766202
O O9 0.131462 0.958150 0.407139
O O10 0.143958 0.116388 0.778836
O O11 0.448085 0.496455 0.701567
O O12 0.147746 0.606768 0.386261
O O13 0.311358 0.581459 0.859871
O O14 0.737769 0.305318 0.815027
O O15 0.017318 0.801790 0.108729
O O16 0.500000 0.000000 0.000000
O O17 0.000000 0.000000 0.000000
#
# Coordination Sequence:
#
# PCOD9073384 Si02
#       8
#     2   2   2   2   2   2   2   2
#     4   9  18  33  53  81 111 136 177 225 276 319
#     4   9  18  34  55  80 107 140 182 224 266 324
#     4  11  19  34  52  84 112 136 183 227 270 318
#     4  10  24  37  55  77 110 154 179 232 274 324
#     4  11  21  40  56  76 109 148 195 217 273 335
#     4  11  21  34  52  83 117 139 180 233 280 317
#     4  10  18  31  54  83 106 142 174 224 276 319
#     4  11  20  31  54  80 106 141 174 225 275 321
#
# _framework density 22.774061
#
# number of rings (size 3 to 8) (size 9 to 14) (size 15 to 20)
#    0.750    1.000    2.500    4.500    0.000    2.000 
#    0.000    0.625    0.000    0.000    0.000    4.375 
#    0.000    0.000    0.000    0.000    0.000    0.000 
#
# Total GULP energy -89148.981316 kJ/mol
# GULP energy per Si atom -5571.811332 kJ/mol
# Density = 2.272223 g / cm^3
# Si number density = 22.774061 Si / 1000 Ang^3
#
#
#
# Elastic Constant Matrix: (Units=GPa)
#
#
# Indices 1 2 3 4 5 6 
#
# 1 90.1413 3.1296 28.3661 0.2237 25.1804 -15.8341
# 2 3.1296 35.0973 12.9114 -11.4941 -9.2005 -10.7119
# 3 28.3661 12.9114 165.5546 2.0563 9.8484 -5.5481
# 4 0.2237 -11.4941 2.0563 40.5135 -0.6429 -1.4795
# 5 25.1804 -9.2005 9.8484 -0.6429 33.9824 4.1679
# 6 -15.8341 -10.7119 -5.5481 -1.4795 4.1679 24.3671
#
#
#
# Elastic Compliance Matrix: (Units=1/GPa)
#
#
# Indices 1 2 3 4 5 6 
#
# 1 0.018216 -0.000691 -0.001725 0.000055 -0.014863 0.013686
# 2 -0.000691 0.041807 -0.003424 0.012800 0.011099 0.016029
# 3 -0.001725 -0.003424 0.006678 -0.001359 -0.001495 -0.000933
# 4 0.000055 0.012800 -0.001359 0.028677 0.003566 0.006485
# 5 -0.014863 0.011099 -0.001495 0.003566 0.045502 -0.012685
# 6 0.013686 0.016029 -0.000933 0.006485 -0.012685 0.059330
#
#
# Mechanical properties :
#
#
# Convention : Reuss Voigt Hill
#
# Bulk Modulus (GPa) = 18.17493 42.17861 30.17677
# Shear Modulus (GPa) = 21.71741 36.19834 28.95788
#
# Velocity S-wave (km/s) = 3.09140 3.99112 3.56972
# Velocity P-wave (km/s) = 4.55414 6.30868 5.50180
#
# Compressibility (1/GPa) = 0.05502084
#
# Stress axis : x y z
#
# Youngs Moduli (GPa) = 54.89577 23.91930 149.75617
#
# Poissons Ratio (x) = 0.01652 0.25836
# Poissons Ratio (y) = 0.03791 0.51281
# Poissons Ratio (z) = 0.09471 0.08191
#
# Static dielectric constant tensor:
#      x y z
#    x 1.858970 -0.002350 0.034720 
#    y -0.002350 1.963080 -0.027980 
#    z 0.034720 -0.027980 1.875340 
# 
# From -- ./inp_files/313744.got.cif
#   From: 2010.05.17/outbox.cif.g08.bks.cpg/sg2_157_cif.got.tgz:313744.got - 2010.06.03 11:33:40.
