data_PCOD9073344
_publ_section_title
;
Structure prediction by ZEFSAII (Michael W. Deem and Ramdas Pophale) SiO2 
 PCOD9073344
Probable space group: P -1
;
_chemical_formula_sum "Si O2"
_cell_formula_units_Z 14
_cell_length_a 9.000000
_cell_length_b 9.000000
_cell_length_c 12.000000
_cell_angle_alpha 70.000000
_cell_angle_beta 60.000000
_cell_angle_gamma 100.000000
_cell_volume 716.567311
_symmetry_space_group_name_H-M "P -1"
_symmetry_group_IT_number 2
_symmetry_cell_setting 'triclinic'
loop_
_space_group_symop_operation_xyz
x,y,z
-x,-y,-z
loop_
_atom_site_type_symbol
_atom_site_label
_atom_site_fract_x
_atom_site_fract_y
_atom_site_fract_z
Si Si1 0.210185 0.145189 0.415985
Si Si2 0.580348 0.479992 0.852758
Si Si3 0.491966 0.989747 0.267919
Si Si4 0.687123 0.587733 0.245610
Si Si5 0.587079 0.766312 0.453303
Si Si6 0.316103 0.832452 0.150976
Si Si7 0.912670 0.138385 0.962637
O O1 0.258285 0.336308 0.298463
O O2 0.251954 0.161628 0.529691
O O3 0.377527 0.103866 0.309005
O O4 0.000000 0.000000 0.500000
O O5 0.419175 0.414278 0.831175
O O6 0.666691 0.337723 0.858756
O O7 0.500000 0.500000 0.000000
O O8 0.516871 0.903622 0.394751
O O9 0.352761 0.847835 0.266566
O O10 0.708387 0.086794 0.113293
O O11 0.648874 0.696529 0.334623
O O12 0.586467 0.391848 0.380889
O O13 0.913373 0.676707 0.121208
O O14 0.142010 0.854173 0.149615
O O15 0.500000 0.000000 0.000000
O O16 0.000000 0.000000 0.000000
#
# Coordination Sequence:
#
# PCOD9073344 Si02
#       7
#     2   2   2   2   2   2   2
#     4  11  27  43  65  98 137 181 219 272 334 388
#     4  11  22  44  67  95 135 172 219 282 327 387
#     4  11  22  42  65  96 131 172 224 270 321 397
#     4  10  21  39  65  97 126 177 212 270 332 390
#     4  10  21  42  64  91 138 170 221 264 325 398
#     4  10  21  38  63  97 129 166 218 271 328 389
#     4  11  21  37  64  97 125 166 216 269 325 387
#
# _framework density 19.537592
#
# number of rings (size 3 to 8) (size 9 to 14) (size 15 to 20)
#    0.000    1.429    2.857    3.000    2.000    2.286 
#    0.000    7.857    0.000    0.000    0.000    0.000 
#    0.000    0.000    0.000    0.000    0.000    0.000 
#
# Total GULP energy -78076.026409 kJ/mol
# GULP energy per Si atom -5576.859029 kJ/mol
# Density = 1.949312 g / cm^3
# Si number density = 19.537592 Si / 1000 Ang^3
#
#
#
# Elastic Constant Matrix: (Units=GPa)
#
#
# Indices 1 2 3 4 5 6 
#
# 1 151.6549 46.7627 60.2812 -14.2968 4.8205 23.7791
# 2 46.7627 101.3397 37.1855 -3.2205 3.3355 3.8309
# 3 60.2812 37.1855 84.8243 -3.3956 6.4729 7.5023
# 4 -14.2968 -3.2205 -3.3956 43.1689 6.6086 2.7889
# 5 4.8205 3.3355 6.4729 6.6086 47.7876 1.4686
# 6 23.7791 3.8309 7.5023 2.7889 1.4686 49.3220
#
#
#
# Elastic Compliance Matrix: (Units=1/GPa)
#
#
# Indices 1 2 3 4 5 6 
#
# 1 0.010723 -0.002469 -0.006003 0.003232 -0.000413 -0.004235
# 2 -0.002469 0.012341 -0.003729 -0.000228 -0.000101 0.000815
# 3 -0.006003 -0.003729 0.017723 -0.000686 -0.001458 0.000570
# 4 0.003232 -0.000228 -0.000686 0.024888 -0.003575 -0.002737
# 5 -0.000413 -0.000101 -0.001458 -0.003575 0.021667 -0.000014
# 6 -0.004235 0.000815 0.000570 -0.002737 -0.000014 0.022322
#
#
# Mechanical properties :
#
#
# Convention : Reuss Voigt Hill
#
# Bulk Modulus (GPa) = 61.02856 69.58641 65.30748
# Shear Modulus (GPa) = 35.83542 40.96166 38.39854
#
# Velocity S-wave (km/s) = 4.28738 4.58378 4.43806
# Velocity P-wave (km/s) = 7.47082 7.98178 7.73052
#
# Compressibility (1/GPa) = 0.01638577
#
# Stress axis : x y z
#
# Youngs Moduli (GPa) = 93.25629 81.03289 56.42442
#
# Poissons Ratio (x) = 0.20008 0.33869
# Poissons Ratio (y) = 0.23026 0.21039
# Poissons Ratio (z) = 0.55978 0.30215
#
# Static dielectric constant tensor:
#      x y z
#    x 1.693170 -0.004640 0.033380 
#    y -0.004640 1.749280 0.016180 
#    z 0.033380 0.016180 1.714090 
# 
# From -- ./inp_files/279680.got.cif
#   From: 2010.05.17/outbox.ucp.g08.bks.cvg/sg2_140_cif.got.tgz:279680.got - 2010.06.11 11:32:03.
