data_PCOD9073550
_publ_section_title
;
Structure prediction by ZEFSAII (Michael W. Deem and Ramdas Pophale) SiO2 
 PCOD9073550
Probable space group: P -1
;
_chemical_formula_sum "Si O2"
_cell_formula_units_Z 16
_cell_length_a 11.736573
_cell_length_b 9.348109
_cell_length_c 12.187840
_cell_angle_alpha 108.210385
_cell_angle_beta 145.288643
_cell_angle_gamma 74.087615
_cell_volume 722.944552
_symmetry_space_group_name_H-M "P -1"
_symmetry_group_IT_number 2
_symmetry_cell_setting 'triclinic'
loop_
_space_group_symop_operation_xyz
x,y,z
-x,-y,-z
loop_
_atom_site_type_symbol
_atom_site_label
_atom_site_fract_x
_atom_site_fract_y
_atom_site_fract_z
Si Si1 0.639028 0.304538 0.337969
Si Si2 0.842865 0.769545 0.822769
Si Si3 0.728341 0.278133 0.843439
Si Si4 0.283392 0.358903 0.529391
Si Si5 0.957490 0.832132 0.348890
Si Si6 0.577685 0.141426 0.467651
Si Si7 0.142750 0.104425 0.484186
Si Si8 0.198498 0.365096 0.000865
O O1 0.715250 0.466155 0.403257
O O2 0.595296 0.276685 0.425940
O O3 0.414253 0.295759 0.114504
O O4 0.818418 0.187681 0.426897
O O5 0.756304 0.656950 0.635967
O O6 0.656736 0.889816 0.706763
O O7 0.857126 0.702977 0.941235
O O8 0.067626 0.805067 0.972494
O O9 0.505310 0.291775 0.721245
O O10 0.683124 0.201501 0.673049
O O11 0.786733 0.455570 0.929904
O O12 0.122772 0.258584 0.438528
O O13 0.816486 0.847945 0.346156
O O14 0.940796 0.692695 0.220044
O O15 0.964694 0.985499 0.321333
O O16 0.688370 0.996825 0.468596
#
# Coordination Sequence:
#
# PCOD9073550 Si02
#       8
#     2   2   2   2   2   2   2   2
#     4   9  18  35  58  85 108 142 190 233 276 320
#     4  10  18  31  55  83 111 145 180 221 276 331
#     4  10  19  33  57  87 116 146 182 230 283 330
#     4  10  21  36  55  85 120 142 178 236 285 328
#     4  10  21  41  62  76 108 154 194 227 268 335
#     4   9  19  36  55  80 117 151 186 223 267 336
#     4  10  22  41  57  78 115 155 185 226 280 329
#     4  10  19  34  59  89 111 141 191 235 272 323
#
# _framework density 22.131713000000001
#
# number of rings (size 3 to 8) (size 9 to 14) (size 15 to 20)
#    0.000    2.250    0.000    3.375    0.000    5.500 
#    0.000   23.125    0.000    0.000    0.000    0.000 
#    0.000    0.000    0.000    0.000    0.000    0.000 
#
# Total GULP energy -89079.708994 kJ/mol
# GULP energy per Si atom -5567.481812 kJ/mol
# Density = 2.208134 g / cm^3
# Si number density = 22.131713 Si / 1000 Ang^3
#
#
#
# Elastic Constant Matrix: (Units=GPa)
#
#
# Indices 1 2 3 4 5 6 
#
# 1 43.8316 30.9166 19.8356 11.8518 -5.0157 -4.8982
# 2 30.9166 69.9574 7.8736 16.8696 -5.4759 18.2924
# 3 19.8356 7.8736 74.9415 3.5207 15.9092 -10.5074
# 4 11.8518 16.8696 3.5207 15.1399 -6.7577 3.2042
# 5 -5.0157 -5.4759 15.9092 -6.7577 28.3476 -5.5267
# 6 -4.8982 18.2924 -10.5074 3.2042 -5.5267 25.1162
#
#
#
# Elastic Compliance Matrix: (Units=1/GPa)
#
#
# Indices 1 2 3 4 5 6 
#
# 1 0.054134 -0.027390 -0.009439 -0.010316 0.013122 0.030761
# 2 -0.027390 0.038602 0.001480 -0.019118 -0.009094 -0.032399
# 3 -0.009439 0.001480 0.019013 -0.004947 -0.012673 0.002878
# 4 -0.010316 -0.019118 -0.004947 0.106529 0.022905 0.001292
# 5 0.013122 -0.009094 -0.012673 0.022905 0.050779 0.012132
# 6 0.030761 -0.032399 0.002878 0.001292 0.012132 0.073119
#
#
# Mechanical properties :
#
#
# Convention : Reuss Voigt Hill
#
# Bulk Modulus (GPa) = 24.35952 33.99799 29.17876
# Shear Modulus (GPa) = 11.72172 22.39438 17.05805
#
# Velocity S-wave (km/s) = 2.30388 3.18444 2.77925
# Velocity P-wave (km/s) = 4.25531 5.37735 4.84889
#
# Compressibility (1/GPa) = 0.04105171
#
# Stress axis : x y z
#
# Youngs Moduli (GPa) = 18.47265 25.90518 52.59638
#
# Poissons Ratio (x) = 0.70954 0.49645
# Poissons Ratio (y) = 0.50596 -0.07784
# Poissons Ratio (z) = 0.17436 -0.03834
#
# Static dielectric constant tensor:
#      x y z
#    x 1.866760 0.003750 0.060930 
#    y 0.003750 1.827420 -0.032820 
#    z 0.060930 -0.032820 1.831010 
# 
# From -- ./inp_files/417693.got.cif
#   From: 2010.05.17/outbox.cif.g08.bks.cpg/sg2_209_cif.got.tgz:417693.got - 2010.06.03 11:33:40.
