data_PCOD9073061
_publ_section_title
;
Structure prediction by ZEFSAII (Michael W. Deem and Ramdas Pophale) SiO2 
 PCOD9073061
Probable space group: P -1
;
_chemical_formula_sum "Si O2"
_cell_formula_units_Z 14
_cell_length_a 9.000000
_cell_length_b 27.000000
_cell_length_c 9.000000
_cell_angle_alpha 140.000000
_cell_angle_beta 50.000000
_cell_angle_gamma 150.000000
_cell_volume 701.439234
_symmetry_space_group_name_H-M "P -1"
_symmetry_group_IT_number 2
_symmetry_cell_setting 'triclinic'
loop_
_space_group_symop_operation_xyz
x,y,z
-x,-y,-z
loop_
_atom_site_type_symbol
_atom_site_label
_atom_site_fract_x
_atom_site_fract_y
_atom_site_fract_z
Si Si1 0.539183 0.866237 0.890517
Si Si2 0.579687 0.442088 0.248046
Si Si3 0.859997 0.128115 0.718544
Si Si4 0.818541 0.954728 0.222955
Si Si5 0.577657 0.602499 0.101083
Si Si6 0.236607 0.646238 0.404654
Si Si7 0.341161 0.213600 0.824936
O O1 0.290286 0.735460 0.680691
O O2 0.399611 0.906259 0.108823
O O3 0.670455 0.878421 0.992193
O O4 0.827560 0.953973 0.801587
O O5 0.500000 0.500000 0.500000
O O6 0.908041 0.526322 0.291334
O O7 0.535734 0.438346 0.090363
O O8 0.392600 0.309002 0.100374
O O9 0.082564 0.261266 0.813000
O O10 0.046745 0.138635 0.746591
O O11 0.775892 0.034074 0.444813
O O12 0.676702 0.866014 0.245481
O O13 0.392684 0.619878 0.320372
O O14 0.500000 0.500000 0.000000
O O15 0.404314 0.714435 0.298372
#
# Coordination Sequence:
#
# PCOD9073061 Si02
#       7
#     2   2   2   2   2   2   2
#     4  11  23  39  64  85 123 160 197 250 299 351
#     4  10  21  40  59  91 121 157 202 247 295 364
#     4  10  21  41  61  88 123 155 199 248 300 354
#     4  11  23  42  59  89 123 156 204 246 300 352
#     4  10  21  38  63  90 121 156 199 248 303 355
#     4  10  20  41  62  85 123 159 198 249 303 352
#     4  10  21  39  63  86 121 157 198 248 298 357
#
# _framework density 19.958963000000001
#
# number of rings (size 3 to 8) (size 9 to 14) (size 15 to 20)
#    0.000    2.000    2.857    4.286    0.000    4.000 
#    2.571    2.143    0.000    0.000    0.000    0.000 
#    0.000    0.000    0.000    0.000    0.000    0.000 
#
# Total GULP energy -78036.953547 kJ/mol
# GULP energy per Si atom -5574.068111 kJ/mol
# Density = 1.991354 g / cm^3
# Si number density = 19.958963 Si / 1000 Ang^3
#
#
#
# Elastic Constant Matrix: (Units=GPa)
#
#
# Indices 1 2 3 4 5 6 
#
# 1 28.2271 34.4348 7.8352 6.1231 -5.8202 -15.3348
# 2 34.4348 40.0780 27.2708 6.9885 -15.5713 -18.4958
# 3 7.8352 27.2708 125.9055 14.1633 -7.2414 -5.0188
# 4 6.1231 6.9885 14.1633 27.4465 12.0661 -12.6724
# 5 -5.8202 -15.5713 -7.2414 12.0661 31.2648 2.4390
# 6 -15.3348 -18.4958 -5.0188 -12.6724 2.4390 28.2195
#
#
#
# Elastic Compliance Matrix: (Units=1/GPa)
#
#
# Indices 1 2 3 4 5 6 
#
# 1 -0.142247 0.172172 -0.022171 -0.018691 0.059941 0.018030
# 2 0.172172 -0.152277 0.018312 0.014445 -0.045705 0.007448
# 3 -0.022171 0.018312 0.006931 -0.009986 0.010782 -0.004230
# 4 -0.018691 0.014445 -0.009986 0.068153 -0.027280 0.030498
# 5 0.059941 -0.045705 0.010782 -0.027280 0.034238 -0.010675
# 6 0.018030 0.007448 -0.004230 0.030498 -0.010675 0.063982
#
#
# Mechanical properties :
#
#
# Convention : Reuss Voigt Hill
#
# Bulk Modulus (GPa) = 20.39463 37.03247 28.71355
# Shear Modulus (GPa) = -11.32501 25.69746 7.18623
#
# Velocity S-wave (km/s) = -2.38463 3.59209 1.89956
# Velocity P-wave (km/s) = 1.63049 5.98320 4.38504
#
# Compressibility (1/GPa) = 0.04903252
#
# Stress axis : x y z
#
# Youngs Moduli (GPa) = -7.03004 -6.56697 144.28476
#
# Poissons Ratio (x) = 1.13065 3.19897
# Poissons Ratio (y) = 1.21038 -2.64210
# Poissons Ratio (z) = -0.15586 0.12025
#
# Static dielectric constant tensor:
#      x y z
#    x 1.719910 0.051250 -0.015430 
#    y 0.051250 1.726570 -0.005850 
#    z -0.015430 -0.005850 1.811260 
# 
# From -- ./inp_files/178334.got.cif
#   From: 2010.05.17/outbox.ucp.g08.bks.cvg/sg2_90_cif.got.tgz:178334.got - 2010.06.11 11:32:03.
