data_PCOD9073735
_publ_section_title
;
Structure prediction by ZEFSAII (Michael W. Deem and Ramdas Pophale) SiO2 
 PCOD9073735
Probable space group: P -1
;
_chemical_formula_sum "Si O2"
_cell_formula_units_Z 16
_cell_length_a 9.707587
_cell_length_b 10.523744
_cell_length_c 20.631760
_cell_angle_alpha 147.792517
_cell_angle_beta 141.898356
_cell_angle_gamma 45.293159
_cell_volume 688.645914
_symmetry_space_group_name_H-M "P -1"
_symmetry_group_IT_number 2
_symmetry_cell_setting 'triclinic'
loop_
_space_group_symop_operation_xyz
x,y,z
-x,-y,-z
loop_
_atom_site_type_symbol
_atom_site_label
_atom_site_fract_x
_atom_site_fract_y
_atom_site_fract_z
Si Si1 0.553441 0.860102 0.393609
Si Si2 0.048490 0.625862 0.507075
Si Si3 0.742045 0.528603 0.161299
Si Si4 0.275342 0.951908 0.589409
Si Si5 0.459007 0.386687 0.120475
Si Si6 0.265642 0.960874 0.094905
Si Si7 0.223467 0.414977 0.356015
Si Si8 0.625742 0.065906 0.168246
O O1 0.579909 0.017582 0.408382
O O2 0.386154 0.655451 0.234932
O O3 0.809898 0.736738 0.440195
O O4 0.500000 0.000000 0.500000
O O5 0.150816 0.425372 0.408271
O O6 0.206736 0.826968 0.673185
O O7 0.000000 0.500000 0.500000
O O8 0.691133 0.813288 0.253004
O O9 0.615921 0.451719 0.146515
O O10 0.004033 0.480107 0.256837
O O11 0.695213 0.327837 0.004866
O O12 0.326646 0.669802 0.501770
O O13 0.000000 0.000000 0.500000
O O14 0.575208 0.243402 0.164104
O O15 0.304669 0.198259 0.950891
O O16 0.309511 0.149587 0.248259
O O17 0.402093 0.037982 0.115619
O O18 0.000000 0.000000 0.000000
#
# Coordination Sequence:
#
# PCOD9073735 Si02
#       8
#     2   2   2   2   2   2   2   2
#     4  11  22  37  61  89 122 162 208 249 298 365
#     4  12  22  38  60  89 127 157 196 260 316 353
#     4   8  14  31  52  78 111 147 198 239 288 350
#     4   9  16  32  57  82 110 156 204 237 288 366
#     4   9  17  36  56  85 109 160 200 236 294 376
#     4   9  19  32  53  85 116 146 201 254 290 352
#     4  10  18  31  56  86 116 151 200 250 297 354
#     4  10  20  33  60  84 118 157 200 243 309 362
#
# _framework density 23.234000999999999
#
# number of rings (size 3 to 8) (size 9 to 14) (size 15 to 20)
#    0.000    2.250    5.000    0.000    1.750    0.500 
#    0.000    0.625    0.000    8.250    0.000    0.000 
#    0.000    0.000    0.000    0.000    0.000    0.000 
#
# Total GULP energy -89174.027886 kJ/mol
# GULP energy per Si atom -5573.376743 kJ/mol
# Density = 2.318112 g / cm^3
# Si number density = 23.234001 Si / 1000 Ang^3
#
#
#
# Elastic Constant Matrix: (Units=GPa)
#
#
# Indices 1 2 3 4 5 6 
#
# 1 82.2226 28.8122 54.4710 32.0102 -17.2972 15.3850
# 2 28.8122 85.6432 35.5837 32.3872 -7.2520 -5.8128
# 3 54.4710 35.5837 241.0040 28.4670 -27.4290 -20.8110
# 4 32.0102 32.3872 28.4670 47.9465 -9.5271 -4.9938
# 5 -17.2972 -7.2520 -27.4290 -9.5271 49.6827 6.9810
# 6 15.3850 -5.8128 -20.8110 -4.9938 6.9810 27.7422
#
#
#
# Elastic Compliance Matrix: (Units=1/GPa)
#
#
# Indices 1 2 3 4 5 6 
#
# 1 0.029409 -0.002723 -0.005809 -0.015595 0.007280 -0.025877
# 2 -0.002723 0.016252 -0.000602 -0.008675 -0.001016 0.003157
# 3 -0.005809 -0.000602 0.006094 0.001573 0.000455 0.007835
# 4 -0.015595 -0.008675 0.001573 0.037609 -0.000717 0.014961
# 5 0.007280 -0.001016 0.000455 -0.000717 0.024045 -0.010089
# 6 -0.025877 0.003157 0.007835 0.014961 -0.010089 0.062168
#
#
# Mechanical properties :
#
#
# Convention : Reuss Voigt Hill
#
# Bulk Modulus (GPa) = 29.86310 71.84485 50.85398
# Shear Modulus (GPa) = 24.38946 44.40781 34.39864
#
# Velocity S-wave (km/s) = 3.24347 4.37662 3.85194
# Velocity P-wave (km/s) = 5.18728 7.51859 6.45899
#
# Compressibility (1/GPa) = 0.03348614
#
# Stress axis : x y z
#
# Youngs Moduli (GPa) = 34.00320 61.53241 164.10631
#
# Poissons Ratio (x) = 0.16754 0.95327
# Poissons Ratio (y) = 0.09259 0.09885
# Poissons Ratio (z) = 0.19752 0.03706
#
# Static dielectric constant tensor:
#      x y z
#    x 1.964970 -0.013820 -0.016400 
#    y -0.013820 1.881010 0.035230 
#    z -0.016400 0.035230 1.956890 
# 
# From -- ./inp_files/312901.got.cif
#   From: 2010.05.17/outbox.cif.g08.bks.cpg/sg2_157_cif.got.tgz:312901.got - 2010.06.03 11:33:40.
