data_PCOD9073359
_publ_section_title
;
Structure prediction by ZEFSAII (Michael W. Deem and Ramdas Pophale) SiO2 
 PCOD9073359
Probable space group: P -1
;
_chemical_formula_sum "Si O2"
_cell_formula_units_Z 16
_cell_length_a 12.000000
_cell_length_b 6.000000
_cell_length_c 27.000000
_cell_angle_alpha 60.000000
_cell_angle_beta 30.000000
_cell_angle_gamma 50.000000
_cell_volume 736.400153
_symmetry_space_group_name_H-M "P -1"
_symmetry_group_IT_number 2
_symmetry_cell_setting 'triclinic'
loop_
_space_group_symop_operation_xyz
x,y,z
-x,-y,-z
loop_
_atom_site_type_symbol
_atom_site_label
_atom_site_fract_x
_atom_site_fract_y
_atom_site_fract_z
Si Si1 0.609697 0.859740 0.280524
Si Si2 0.624238 0.828472 0.760043
Si Si3 0.806098 0.324422 0.930864
Si Si4 0.514978 0.903525 0.429438
Si Si5 0.114619 0.761749 0.626550
Si Si6 0.838447 0.217907 0.280783
Si Si7 0.873347 0.840640 0.029545
Si Si8 0.343824 0.656700 0.122408
O O1 0.525571 0.906848 0.365057
O O2 0.674289 0.524406 0.281650
O O3 0.892535 0.812966 0.171451
O O4 0.427747 0.114975 0.284718
O O5 0.655204 0.532942 0.809050
O O6 0.867571 0.852529 0.679728
O O7 0.375103 0.092464 0.851239
O O8 0.714217 0.443410 0.897558
O O9 0.633749 0.583996 0.007536
O O10 0.783140 0.048950 0.992480
O O11 0.236520 0.970481 0.545499
O O12 0.690030 0.579999 0.421480
O O13 0.644773 0.090829 0.375974
O O14 0.076419 0.745190 0.701426
O O15 0.105870 0.981815 0.180712
O O16 0.000000 0.500000 0.000000
O O17 0.000000 0.000000 0.000000
#
# Coordination Sequence:
#
# PCOD9073359 Si02
#       8
#     2   2   2   2   2   2   2   2
#     4  11  23  39  66  92 134 171 218 270 349 405
#     4  11  23  43  61 100 135 173 222 275 344 409
#     4  10  21  41  64  94 131 179 219 272 332 412
#     4  10  21  43  67  91 126 172 219 280 339 407
#     4  10  22  41  67  94 127 168 222 277 340 404
#     4  11  21  40  67  95 123 171 226 281 335 402
#     4  11  25  43  68 100 141 187 228 278 348 416
#     4  10  21  38  66  91 129 165 225 275 322 406
#
# _framework density 21.727318
#
# number of rings (size 3 to 8) (size 9 to 14) (size 15 to 20)
#    0.000    1.500    3.750    1.125    1.750    3.000 
#    2.250    0.625    0.000    0.000    0.000    0.000 
#    0.000    0.000    0.000    0.000    0.000    0.000 
#
# Total GULP energy -89111.172994 kJ/mol
# GULP energy per Si atom -5569.448312 kJ/mol
# Density = 2.167787 g / cm^3
# Si number density = 21.727318 Si / 1000 Ang^3
#
#
#
# Elastic Constant Matrix: (Units=GPa)
#
#
# Indices 1 2 3 4 5 6 
#
# 1 105.3842 35.6032 26.9807 -1.6974 -3.9608 -36.0813
# 2 35.6032 56.3270 1.6738 -15.7900 -3.1882 -10.4786
# 3 26.9807 1.6738 73.7720 -1.9247 2.5088 -10.5957
# 4 -1.6974 -15.7900 -1.9247 14.7858 -15.6387 12.3955
# 5 -3.9608 -3.1882 2.5088 -15.6387 18.7560 3.1733
# 6 -36.0813 -10.4786 -10.5957 12.3955 3.1733 27.6551
#
#
#
# Elastic Compliance Matrix: (Units=1/GPa)
#
#
# Indices 1 2 3 4 5 6 
#
# 1 0.012346 0.000266 -0.004407 0.022684 0.021844 0.001846
# 2 0.000266 0.013375 0.002448 -0.023307 -0.020674 0.019172
# 3 -0.004407 0.002448 0.015402 0.000080 -0.002738 0.001357
# 4 0.022684 -0.023307 0.000080 -0.055466 -0.054206 0.051876
# 5 0.021844 -0.020674 -0.002738 -0.054206 0.002197 0.043661
# 6 0.001846 0.019172 0.001357 0.051876 0.043661 0.018090
#
#
# Mechanical properties :
#
#
# Convention : Reuss Voigt Hill
#
# Bulk Modulus (GPa) = 26.49961 40.44428 33.47194
# Shear Modulus (GPa) = 228.21452 23.65441 125.93447
#
# Velocity S-wave (km/s) = 10.25981 3.30312 7.62149
# Velocity P-wave (km/s) = 12.35211 5.76215 9.63787
#
# Compressibility (1/GPa) = 0.03773641
#
# Stress axis : x y z
#
# Youngs Moduli (GPa) = 80.99920 74.76432 64.92812
#
# Poissons Ratio (x) = -0.01990 0.28615
# Poissons Ratio (y) = -0.02156 -0.15893
# Poissons Ratio (z) = 0.35698 -0.18301
#
# Static dielectric constant tensor:
#      x y z
#    x 1.843840 0.035290 -0.023220 
#    y 0.035290 1.854940 -0.004150 
#    z -0.023220 -0.004150 1.891720 
# 
# From -- ./inp_files/615299.got.cif
#   From: 2010.05.17/outbox.ucp.g08.bks.cvg/sg2_308_cif.got.tgz:615299.got - 2010.06.11 11:32:03.
