data_PCOD9073888
_publ_section_title
;
Structure prediction by ZEFSAII (Michael W. Deem and Ramdas Pophale) SiO2 
 PCOD9073888
Probable space group: P -1
;
_chemical_formula_sum "Si O2"
_cell_formula_units_Z 16
_cell_length_a 12.000000
_cell_length_b 15.000000
_cell_length_c 12.000000
_cell_angle_alpha 100.000000
_cell_angle_beta 120.000000
_cell_angle_gamma 30.000000
_cell_volume 748.962810
_symmetry_space_group_name_H-M "P -1"
_symmetry_group_IT_number 2
_symmetry_cell_setting 'triclinic'
loop_
_space_group_symop_operation_xyz
x,y,z
-x,-y,-z
loop_
_atom_site_type_symbol
_atom_site_label
_atom_site_fract_x
_atom_site_fract_y
_atom_site_fract_z
Si Si1 0.298559 0.612582 0.070715
Si Si2 0.831872 0.562134 0.764883
Si Si3 0.300553 0.911951 0.392348
Si Si4 0.941354 0.668895 0.959875
Si Si5 0.592432 0.711507 0.249929
Si Si6 0.740833 0.818925 0.266917
Si Si7 0.749350 0.197268 0.065036
Si Si8 0.913399 0.325165 0.380846
O O1 0.460845 0.436751 0.028664
O O2 0.578932 0.484484 0.249491
O O3 0.135557 0.799428 0.963888
O O4 0.057494 0.698484 0.023563
O O5 0.522025 0.755337 0.575615
O O6 0.937727 0.600167 0.838029
O O7 0.071560 0.336029 0.780525
O O8 0.823504 0.532649 0.880699
O O9 0.494105 0.778008 0.345573
O O10 0.019485 0.019272 0.255081
O O11 0.139379 0.114012 0.375707
O O12 0.570271 0.921635 0.856576
O O13 0.669429 0.765602 0.273127
O O14 0.854852 0.461779 0.327348
O O15 0.358464 0.820455 0.061103
O O16 0.945511 0.744769 0.442319
#
# Coordination Sequence:
#
# PCOD9073888 Si02
#       8
#     2   2   2   2   2   2   2   2
#     4   9  19  40  64  89 123 163 198 244 306 365
#     4  11  25  42  64  87 122 160 211 261 291 353
#     4  11  21  38  61  92 126 162 194 250 310 354
#     4  11  24  45  66  85 117 167 212 250 303 351
#     4  11  22  36  64  93 127 159 199 241 308 371
#     4  12  23  41  64  93 121 162 204 253 303 361
#     4   9  19  37  62  93 128 155 193 249 305 368
#     4  10  22  39  60  93 131 153 193 252 304 361
#
# _framework density 21.362876
#
# number of rings (size 3 to 8) (size 9 to 14) (size 15 to 20)
#    0.000    1.500    2.500    3.375    0.000    2.500 
#    0.000    3.125    2.750    0.000    0.000    0.000 
#    0.000    0.000    0.000    0.000    0.000    0.000 
#
# Total GULP energy -89157.052040 kJ/mol
# GULP energy per Si atom -5572.315753 kJ/mol
# Density = 2.131425 g / cm^3
# Si number density = 21.362876 Si / 1000 Ang^3
#
#
#
# Elastic Constant Matrix: (Units=GPa)
#
#
# Indices 1 2 3 4 5 6 
#
# 1 23.1637 -12.9969 31.8375 1.0328 20.2812 14.4651
# 2 -12.9969 106.3481 37.0642 13.3024 10.8651 11.0482
# 3 31.8375 37.0642 193.7356 16.4426 11.1793 11.6007
# 4 1.0328 13.3024 16.4426 38.5594 15.7188 6.9134
# 5 20.2812 10.8651 11.1793 15.7188 17.5707 12.2322
# 6 14.4651 11.0482 11.6007 6.9134 12.2322 18.8549
#
#
#
# Elastic Compliance Matrix: (Units=1/GPa)
#
#
# Indices 1 2 3 4 5 6 
#
# 1 -0.043060 -0.011841 0.007586 -0.031956 0.087626 -0.009825
# 2 -0.011841 0.007457 0.000492 -0.010544 0.022637 -0.006408
# 3 0.007586 0.000492 0.004381 0.003995 -0.015088 -0.000480
# 4 -0.031956 -0.010544 0.003995 0.020846 0.014368 0.011271
# 5 0.087626 0.022637 -0.015088 0.014368 -0.015032 -0.066722
# 6 -0.009825 -0.006408 -0.000480 0.011271 -0.066722 0.103778
#
#
# Mechanical properties :
#
#
# Convention : Reuss Voigt Hill
#
# Bulk Modulus (GPa) = -25.80683 48.33967 11.26642
# Shear Modulus (GPa) = 68.51259 32.81985 50.66622
#
# Velocity S-wave (km/s) = 5.66926 3.92382 4.87529
# Velocity P-wave (km/s) = 5.54505 6.57309 6.08083
#
# Compressibility (1/GPa) = -0.03874944
#
# Stress axis : x y z
#
# Youngs Moduli (GPa) = -23.22319 134.11118 228.24342
#
# Poissons Ratio (x) = 1.58797 -1.73138
# Poissons Ratio (y) = -0.27498 -0.11221
# Poissons Ratio (z) = 0.17616 -0.06593
#
# Static dielectric constant tensor:
#      x y z
#    x 1.836230 -0.092010 0.009130 
#    y -0.092010 1.819620 -0.058990 
#    z 0.009130 -0.058990 1.812310 
# 
# From -- ./inp_files/434143.got.cif
#   From: 2010.05.17/outbox.ucp.g08.bks.cvg/sg2_218_cif.got.tgz:434143.got - 2010.06.11 11:32:03.
