data_PCOD9073245
_publ_section_title
;
Structure prediction by ZEFSAII (Michael W. Deem and Ramdas Pophale) SiO2 
 PCOD9073245
Probable space group: P -1
;
_chemical_formula_sum "Si O2"
_cell_formula_units_Z 14
_cell_length_a 6.000000
_cell_length_b 21.000000
_cell_length_c 6.000000
_cell_angle_alpha 80.000000
_cell_angle_beta 100.000000
_cell_angle_gamma 60.000000
_cell_volume 613.962737
_symmetry_space_group_name_H-M "P -1"
_symmetry_group_IT_number 2
_symmetry_cell_setting 'triclinic'
loop_
_space_group_symop_operation_xyz
x,y,z
-x,-y,-z
loop_
_atom_site_type_symbol
_atom_site_label
_atom_site_fract_x
_atom_site_fract_y
_atom_site_fract_z
Si Si1 0.755080 0.833447 0.295757
Si Si2 0.131663 0.601015 0.799543
Si Si3 0.396447 0.248311 0.317924
Si Si4 0.794028 0.955806 0.485712
Si Si5 0.279303 0.691397 0.416985
Si Si6 0.277791 0.895190 0.859020
Si Si7 0.431309 0.457426 0.701198
O O1 0.717273 0.791325 0.522861
O O2 0.842983 0.890428 0.359251
O O3 0.990162 0.762595 0.231002
O O4 0.455656 0.883191 0.110137
O O5 0.208843 0.645074 0.607981
O O6 0.154482 0.527744 0.722727
O O7 0.850402 0.664627 0.823985
O O8 0.349416 0.569213 0.050796
O O9 0.600171 0.264008 0.472781
O O10 0.542824 0.186781 0.185876
O O11 0.979266 0.913877 0.762331
O O12 0.500000 0.000000 0.500000
O O13 0.784965 0.026508 0.318315
O O14 0.503495 0.623766 0.336079
O O15 0.500000 0.500000 0.500000
#
# Coordination Sequence:
#
# PCOD9073245 Si02
#       7
#     2   2   2   2   2   2   2
#     4  11  23  41  62  89 121 161 201 249 301 354
#     4   9  20  37  60  84 121 156 197 248 293 347
#     4  11  22  39  59  91 120 156 206 244 296 366
#     4  11  23  43  62  88 122 156 204 254 297 361
#     4  10  21  37  60  86 122 155 199 246 296 354
#     4  11  24  40  63  88 121 160 202 248 305 357
#     4   9  18  38  60  86 118 160 196 244 295 349
#
# _framework density 22.802686999999999
#
# number of rings (size 3 to 8) (size 9 to 14) (size 15 to 20)
#    0.000    1.714    2.857    1.286    0.000    3.429 
#    0.000    6.429    0.000    0.000    0.000    0.000 
#    0.000    0.000    0.000    0.000    0.000    0.000 
#
# Total GULP energy -77965.113485 kJ/mol
# GULP energy per Si atom -5568.936678 kJ/mol
# Density = 2.275079 g / cm^3
# Si number density = 22.802687 Si / 1000 Ang^3
#
#
#
# Elastic Constant Matrix: (Units=GPa)
#
#
# Indices 1 2 3 4 5 6 
#
# 1 16.4818 2.4401 -30.8379 -11.9311 16.6519 -22.5408
# 2 2.4401 88.6454 -59.0804 -24.4807 -4.6915 -25.0440
# 3 -30.8379 -59.0804 -28.7977 -40.2717 6.7681 -28.4791
# 4 -11.9311 -24.4807 -40.2717 24.8956 -11.9103 15.1427
# 5 16.6519 -4.6915 6.7681 -11.9103 19.6221 -9.8076
# 6 -22.5408 -25.0440 -28.4791 15.1427 -9.8076 31.2033
#
#
#
# Elastic Compliance Matrix: (Units=1/GPa)
#
#
# Indices 1 2 3 4 5 6 
#
# 1 1.675801 -0.444081 -0.205459 -1.299431 -1.895605 0.701419
# 2 -0.444081 0.123716 0.047831 0.339225 0.503826 -0.184111
# 3 -0.205459 0.047831 0.023092 0.147213 0.221875 -0.090658
# 4 -1.299431 0.339225 0.147213 1.047545 1.481657 -0.574726
# 5 -1.895605 0.503826 0.221875 1.481657 2.209544 -0.787025
# 6 0.701419 -0.184111 -0.090658 -0.574726 -0.787025 0.339769
#
#
# Mechanical properties :
#
#
# Convention : Reuss Voigt Hill
#
# Bulk Modulus (GPa) = 1.61501 -10.95853 -4.67176
# Shear Modulus (GPa) = 0.73214 26.06469 13.39842
#
# Velocity S-wave (km/s) = 0.56725 3.38458 2.42664
# Velocity P-wave (km/s) = 1.06716 3.23381 2.40794
#
# Compressibility (1/GPa) = 0.61919162
#
# Stress axis : x y z
#
# Youngs Moduli (GPa) = 0.59673 8.08304 43.30443
#
# Poissons Ratio (x) = 3.58953 8.89729
# Poissons Ratio (y) = 0.26500 -2.07132
# Poissons Ratio (z) = 0.12260 -0.38662
#
# Static dielectric constant tensor:
#      x y z
#    x 1.989520 -0.072160 0.038690 
#    y -0.072160 1.795990 0.013080 
#    z 0.038690 0.013080 1.863790 
# 
# From -- ./inp_files/7495.got.cif
#   From: 2010.05.17/outbox.ucp.g08.bks.cvg/sg2_4_cif.got.tgz:7495.got - 2010.06.11 11:32:03.
