data_PCOD9073918
_publ_section_title
;
Structure prediction by ZEFSAII (Michael W. Deem and Ramdas Pophale) SiO2 
 PCOD9073918
Probable space group: P -1
;
_chemical_formula_sum "Si O2"
_cell_formula_units_Z 10
_cell_length_a 9.000000
_cell_length_b 12.000000
_cell_length_c 9.000000
_cell_angle_alpha 50.000000
_cell_angle_beta 50.000000
_cell_angle_gamma 80.000000
_cell_volume 520.713542
_symmetry_space_group_name_H-M "P -1"
_symmetry_group_IT_number 2
_symmetry_cell_setting 'triclinic'
loop_
_space_group_symop_operation_xyz
x,y,z
-x,-y,-z
loop_
_atom_site_type_symbol
_atom_site_label
_atom_site_fract_x
_atom_site_fract_y
_atom_site_fract_z
Si Si1 0.657699 0.410053 0.794194
Si Si2 0.732047 0.493125 0.342241
Si Si3 0.590546 0.919516 0.633375
Si Si4 0.881332 0.251902 0.305361
Si Si5 0.782735 0.678180 0.721040
O O1 0.758986 0.452334 0.531558
O O2 0.781274 0.547422 0.716090
O O3 0.602122 0.227043 0.035042
O O4 0.418821 0.407393 0.963981
O O5 0.500000 0.500000 0.500000
O O6 0.743229 0.354206 0.346146
O O7 0.934838 0.650220 0.018617
O O8 0.727030 0.821920 0.569857
O O9 0.500000 0.000000 0.500000
O O10 0.739387 0.070125 0.507233
O O11 0.010267 0.255371 0.369092
#
# Coordination Sequence:
#
# PCOD9073918 Si02
#       5
#     2   2   2   2   2
#     4   9  21  40  67  87 132 167 204 258 320 367
#     4  11  23  39  66  97 126 166 214 258 314 380
#     4  10  22  39  66  95 131 163 207 270 313 360
#     4  11  24  39  69  93 127 167 213 260 315 371
#     4   9  20  41  67  89 125 169 209 253 311 383
#
# _framework density 19.204416999999999
#
# number of rings (size 3 to 8) (size 9 to 14) (size 15 to 20)
#    1.200    0.800    2.000    0.600    8.400    1.600 
#    0.000    1.000    0.000    0.000    0.000    0.000 
#    0.000    0.000    0.000    0.000    0.000    0.000 
#
# Total GULP energy -55678.030131 kJ/mol
# GULP energy per Si atom -5567.803013 kJ/mol
# Density = 1.916071 g / cm^3
# Si number density = 19.204417 Si / 1000 Ang^3
#
#
#
# Elastic Constant Matrix: (Units=GPa)
#
#
# Indices 1 2 3 4 5 6 
#
# 1 117.7614 55.5332 49.5242 -16.5413 -4.6658 0.5481
# 2 55.5332 134.7256 84.0098 -22.7862 -5.0511 11.2405
# 3 49.5242 84.0098 109.3994 -10.0335 21.7412 7.8307
# 4 -16.5413 -22.7862 -10.0335 47.8309 0.4975 -10.5485
# 5 -4.6658 -5.0511 21.7412 0.4975 31.0085 -3.1116
# 6 0.5481 11.2405 7.8307 -10.5485 -3.1116 42.3046
#
#
#
# Elastic Compliance Matrix: (Units=1/GPa)
#
#
# Indices 1 2 3 4 5 6 
#
# 1 0.011991 -0.000606 -0.006074 0.003036 0.006150 0.002339
# 2 -0.000606 0.020520 -0.018166 0.005702 0.015948 0.000513
# 3 -0.006074 -0.018166 0.030795 -0.004889 -0.025779 -0.003910
# 4 0.003036 0.005702 -0.004889 0.024903 0.005009 0.005928
# 5 0.006150 0.015948 -0.025779 0.005009 0.054339 0.005700
# 6 0.002339 0.000513 -0.003910 0.005928 0.005700 0.026093
#
#
# Mechanical properties :
#
#
# Convention : Reuss Voigt Hill
#
# Bulk Modulus (GPa) = 73.45879 82.22453 77.84166
# Shear Modulus (GPa) = 22.43447 35.75007 29.09227
#
# Velocity S-wave (km/s) = 3.42159 4.31925 3.89636
# Velocity P-wave (km/s) = 7.34464 8.23304 7.80150
#
# Compressibility (1/GPa) = 0.01361308
#
# Stress axis : x y z
#
# Youngs Moduli (GPa) = 83.39350 48.73371 32.47269
#
# Poissons Ratio (x) = 0.02955 0.19724
# Poissons Ratio (y) = 0.05057 0.58990
# Poissons Ratio (z) = 0.50654 0.88530
#
# Static dielectric constant tensor:
#      x y z
#    x 1.762130 -0.015060 0.006450 
#    y -0.015060 1.650180 0.002870 
#    z 0.006450 0.002870 1.658810 
# 
# From -- ./inp_files/147909.got.cif
#   From: 2010.05.17/outbox.ucp.g08.bks.cvg/sg2_74_cif.got.tgz:147909.got - 2010.06.11 11:32:03.
