data_PCOD9073365
_publ_section_title
;
Structure prediction by ZEFSAII (Michael W. Deem and Ramdas Pophale) SiO2 
 PCOD9073365
Probable space group: P -1
;
_chemical_formula_sum "Si O2"
_cell_formula_units_Z 16
_cell_length_a 15.000000
_cell_length_b 15.000000
_cell_length_c 9.000000
_cell_angle_alpha 140.000000
_cell_angle_beta 80.000000
_cell_angle_gamma 130.000000
_cell_volume 759.999475
_symmetry_space_group_name_H-M "P -1"
_symmetry_group_IT_number 2
_symmetry_cell_setting 'triclinic'
loop_
_space_group_symop_operation_xyz
x,y,z
-x,-y,-z
loop_
_atom_site_type_symbol
_atom_site_label
_atom_site_fract_x
_atom_site_fract_y
_atom_site_fract_z
Si Si1 0.837258 0.308862 0.721966
Si Si2 0.164964 0.387670 0.842233
Si Si3 0.326197 0.491234 0.225602
Si Si4 0.682871 0.907254 0.645463
Si Si5 0.054828 0.539034 0.697177
Si Si6 0.796002 0.953254 0.363634
Si Si7 0.131218 0.332839 0.318768
Si Si8 0.818973 0.838172 0.677378
O O1 0.904265 0.397852 0.651554
O O2 0.758472 0.062319 0.452714
O O3 0.772528 0.375729 0.884476
O O4 0.000000 0.500000 0.000000
O O5 0.214420 0.325746 0.639015
O O6 0.223755 0.410269 0.012900
O O7 0.980339 0.166026 0.592478
O O8 0.506271 0.726246 0.449350
O O9 0.275592 0.528932 0.421959
O O10 0.278924 0.270603 0.982340
O O11 0.733065 0.877736 0.452169
O O12 0.708538 0.833634 0.682502
O O13 0.798463 0.181611 0.958790
O O14 0.093308 0.421103 0.542723
O O15 0.000000 0.500000 0.500000
O O16 0.169601 0.240111 0.278522
O O17 0.985930 0.117260 0.981364
#
# Coordination Sequence:
#
# PCOD9073365 Si02
#       8
#     2   2   2   2   2   2   2   2
#     4  10  21  38  67  96 118 159 213 262 306 351
#     4  11  20  40  68  97 118 159 216 262 299 369
#     4  12  25  40  65  93 129 167 207 251 324 369
#     4  12  25  42  62  94 131 167 201 261 318 373
#     4  12  23  41  67  92 127 162 208 259 308 370
#     4  11  21  40  68  93 122 162 214 261 301 368
#     4  11  24  40  64  95 122 168 209 259 301 376
#     4  11  23  40  65  95 125 158 217 259 308 360
#
# _framework density 21.052645999999999
#
# number of rings (size 3 to 8) (size 9 to 14) (size 15 to 20)
#    0.000    0.750    6.250    3.750    1.750    1.000 
#    0.000    1.875    0.000    0.000    0.000    0.000 
#    0.000    0.000    0.000    0.000    0.000    0.000 
#
# Total GULP energy -89186.794927 kJ/mol
# GULP energy per Si atom -5574.174683 kJ/mol
# Density = 2.100473 g / cm^3
# Si number density = 21.052646 Si / 1000 Ang^3
#
#
#
# Elastic Constant Matrix: (Units=GPa)
#
#
# Indices 1 2 3 4 5 6 
#
# 1 58.5319 -5.5317 29.6840 12.3597 -26.2331 -18.6305
# 2 -5.5317 13.8078 14.3737 -5.8869 10.2897 -17.7216
# 3 29.6840 14.3737 67.6840 9.1138 -20.9754 0.8196
# 4 12.3597 -5.8869 9.1138 29.1036 -2.6662 -4.5520
# 5 -26.2331 10.2897 -20.9754 -2.6662 37.1176 4.9891
# 6 -18.6305 -17.7216 0.8196 -4.5520 4.9891 16.6538
#
#
#
# Elastic Compliance Matrix: (Units=1/GPa)
#
#
# Indices 1 2 3 4 5 6 
#
# 1 0.027820 -0.020760 0.002312 -0.014810 0.026055 -0.002936
# 2 -0.020760 -0.017611 0.015764 -0.006425 0.004832 -0.045944
# 3 0.002312 0.015764 0.010049 0.002124 0.000501 0.019297
# 4 -0.014810 -0.006425 0.002124 0.036423 -0.003175 -0.012603
# 5 0.026055 0.004832 0.000501 -0.003175 0.041243 0.021041
# 6 -0.002936 -0.045944 0.019297 -0.012603 0.021041 -0.002826
#
#
# Mechanical properties :
#
#
# Convention : Reuss Voigt Hill
#
# Bulk Modulus (GPa) = 67.16677 24.11953 45.64315
# Shear Modulus (GPa) = 47.42491 23.34151 35.38321
#
# Velocity S-wave (km/s) = 4.75139 3.33336 4.10408
# Velocity P-wave (km/s) = 7.87873 5.12803 6.64722
#
# Compressibility (1/GPa) = 0.01488831
#
# Stress axis : x y z
#
# Youngs Moduli (GPa) = 35.94504 -56.78271 99.51570
#
# Poissons Ratio (x) = -1.17883 -0.23007
# Poissons Ratio (y) = 0.74623 -1.56874
# Poissons Ratio (z) = -0.08310 0.89511
#
# Static dielectric constant tensor:
#      x y z
#    x 1.817230 -0.042880 -0.037240 
#    y -0.042880 1.798570 -0.019730 
#    z -0.037240 -0.019730 1.752740 
# 
# From -- ./inp_files/177883.got.cif
#   From: 2010.05.17/outbox.ucp.g08.bks.cvg/sg2_89_cif.got.tgz:177883.got - 2010.06.11 11:32:03.
