data_PCOD9073419
_publ_section_title
;
Structure prediction by ZEFSAII (Michael W. Deem and Ramdas Pophale) SiO2 
 PCOD9073419
Probable space group: P -1
;
_chemical_formula_sum "Si O2"
_cell_formula_units_Z 14
_cell_length_a 6.000000
_cell_length_b 15.000000
_cell_length_c 9.000000
_cell_angle_alpha 90.000000
_cell_angle_beta 110.000000
_cell_angle_gamma 60.000000
_cell_volume 644.457818
_symmetry_space_group_name_H-M "P -1"
_symmetry_group_IT_number 2
_symmetry_cell_setting 'triclinic'
loop_
_space_group_symop_operation_xyz
x,y,z
-x,-y,-z
loop_
_atom_site_type_symbol
_atom_site_label
_atom_site_fract_x
_atom_site_fract_y
_atom_site_fract_z
Si Si1 0.319756 0.979854 0.089268
Si Si2 0.302887 0.248761 0.674303
Si Si3 0.597373 0.667063 0.916079
Si Si4 0.913021 0.316915 0.821846
Si Si5 0.343719 0.445483 0.791098
Si Si6 0.980075 0.192487 0.113818
Si Si7 0.179583 0.327340 0.328283
O O1 0.501177 0.863881 0.201993
O O2 0.237916 0.074897 0.184283
O O3 0.500000 0.000000 0.000000
O O4 0.000000 0.000000 0.000000
O O5 0.330524 0.346071 0.731589
O O6 0.324149 0.254742 0.503538
O O7 0.999293 0.283329 0.672850
O O8 0.315869 0.778275 0.887363
O O9 0.633987 0.656653 0.748870
O O10 0.599240 0.577872 0.018261
O O11 0.857565 0.668126 0.044248
O O12 0.620057 0.424044 0.773377
O O13 0.926009 0.225991 0.927403
O O14 0.072393 0.555397 0.690304
O O15 0.045696 0.270931 0.211183
#
# Coordination Sequence:
#
# PCOD9073419 Si02
#       7
#     2   2   2   2   2   2   2
#     4  12  25  46  78 101 129 179 233 288 334 408
#     4  11  24  40  63  97 129 171 221 279 340 398
#     4   9  20  38  60  89 126 169 217 266 323 399
#     4   9  18  37  62  86 121 163 225 263 313 397
#     4  10  21  39  64  91 126 180 225 266 326 404
#     4  10  22  40  64  94 125 171 224 271 333 398
#     4  11  24  39  60  95 139 169 212 280 343 400
#
# _framework density 21.723687000000002
#
# number of rings (size 3 to 8) (size 9 to 14) (size 15 to 20)
#    0.000    1.714    1.429    3.429    2.000    9.714 
#    0.000    0.714    0.000    0.000    0.000    0.000 
#    0.000    0.000    0.000    0.000    0.000    0.000 
#
# Total GULP energy -77936.596171 kJ/mol
# GULP energy per Si atom -5566.899726 kJ/mol
# Density = 2.167424 g / cm^3
# Si number density = 21.723687 Si / 1000 Ang^3
#
#
#
# Elastic Constant Matrix: (Units=GPa)
#
#
# Indices 1 2 3 4 5 6 
#
# 1 108.3887 29.8405 25.6091 -9.6933 -12.8802 -19.1064
# 2 29.8405 105.7019 -2.8060 -32.4682 16.6031 -3.1771
# 3 25.6091 -2.8060 63.1323 -21.4583 -18.3239 4.3057
# 4 -9.6933 -32.4682 -21.4583 20.4312 7.9407 2.7638
# 5 -12.8802 16.6031 -18.3239 7.9407 15.1745 -1.6756
# 6 -19.1064 -3.1771 4.3057 2.7638 -1.6756 33.4614
#
#
#
# Elastic Compliance Matrix: (Units=1/GPa)
#
#
# Indices 1 2 3 4 5 6 
#
# 1 0.005976 0.011193 0.002882 0.031377 -0.020058 0.000508
# 2 0.011193 -0.019661 -0.012560 -0.059869 0.048668 0.013523
# 3 0.002882 -0.012560 0.025099 -0.013154 0.053490 0.000988
# 4 0.031377 -0.059869 -0.013154 -0.100294 0.131918 0.028814
# 5 -0.020058 0.048668 0.053490 0.131918 -0.011597 -0.025192
# 6 0.000508 0.013523 0.000988 0.028814 -0.025192 0.027691
#
#
# Mechanical properties :
#
#
# Convention : Reuss Voigt Hill
#
# Bulk Modulus (GPa) = 69.23250 42.50114 55.86682
# Shear Modulus (GPa) = -70.42028 28.78538 -20.81745
#
# Velocity S-wave (km/s) = -5.69971 3.64410 -3.09897
# Velocity P-wave (km/s) = 3.37296 6.10842 3.60111
#
# Compressibility (1/GPa) = 0.01444408
#
# Stress axis : x y z
#
# Youngs Moduli (GPa) = 167.34801 -50.86294 39.84208
#
# Poissons Ratio (x) = 0.56932 -0.11482
# Poissons Ratio (y) = -1.87317 0.50042
# Poissons Ratio (z) = -0.48227 -0.63884
#
# Static dielectric constant tensor:
#      x y z
#    x 2.004930 0.018250 -0.013180 
#    y 0.018250 1.835860 0.054440 
#    z -0.013180 0.054440 1.847300 
# 
# From -- ./inp_files/90389.got.cif
#   From: 2010.05.17/outbox.ucp.g08.bks.cvg/sg2_46_cif.got.tgz:90389.got - 2010.06.11 11:32:03.
