data_PCOD9073640
_publ_section_title
;
Structure prediction by ZEFSAII (Michael W. Deem and Ramdas Pophale) SiO2 
 PCOD9073640
Probable space group: P -1
;
_chemical_formula_sum "Si O2"
_cell_formula_units_Z 16
_cell_length_a 19.359221
_cell_length_b 8.904317
_cell_length_c 6.200086
_cell_angle_alpha 69.821245
_cell_angle_beta 130.586252
_cell_angle_gamma 95.624864
_cell_volume 749.763473
_symmetry_space_group_name_H-M "P -1"
_symmetry_group_IT_number 2
_symmetry_cell_setting 'triclinic'
loop_
_space_group_symop_operation_xyz
x,y,z
-x,-y,-z
loop_
_atom_site_type_symbol
_atom_site_label
_atom_site_fract_x
_atom_site_fract_y
_atom_site_fract_z
Si Si1 0.201194 0.736726 0.445753
Si Si2 0.901656 0.478839 0.897016
Si Si3 0.548899 0.231113 0.547969
Si Si4 0.356990 0.529677 0.599609
Si Si5 0.427557 0.046569 0.635622
Si Si6 0.269603 0.286267 0.787785
Si Si7 0.787439 0.527401 0.028955
Si Si8 0.705374 0.034098 0.255522
O O1 0.298538 0.677727 0.547063
O O2 0.198723 0.613459 0.697462
O O3 0.207252 0.902628 0.496482
O O4 0.124386 0.694867 0.144236
O O5 0.881142 0.512270 0.090247
O O6 0.821886 0.612800 0.560776
O O7 0.000000 0.500000 0.000000
O O8 0.557650 0.402397 0.368265
O O9 0.457312 0.203020 0.503897
O O10 0.561595 0.094942 0.452128
O O11 0.632294 0.178935 0.919304
O O12 0.353603 0.371468 0.821544
O O13 0.291676 0.499971 0.283642
O O14 0.335898 0.048336 0.584087
O O15 0.500000 0.000000 0.000000
O O16 0.249086 0.314423 0.982851
O O17 0.279135 0.102732 0.826878
#
# Coordination Sequence:
#
# PCOD9073640 Si02
#       8
#     2   2   2   2   2   2   2   2
#     4   9  17  29  54  78  99 139 177 214 258 304
#     4   9  19  36  57  79 104 138 178 211 255 324
#     4  10  18  31  56  76 100 146 184 217 264 303
#     4   9  16  32  52  76  97 139 185 215 246 317
#     4   9  20  32  50  79 108 140 180 219 261 309
#     4   9  21  31  51  80 109 137 170 219 274 298
#     4   8  16  33  50  76  96 136 173 206 256 316
#     4  11  19  33  51  81 111 133 176 230 260 310
#
# _framework density 21.340063000000001
#
# number of rings (size 3 to 8) (size 9 to 14) (size 15 to 20)
#    0.000    3.250    2.500    0.000    0.000    4.000 
#    0.000    1.250    0.000    9.000    0.000    0.000 
#    0.000    0.000    0.000    0.000    0.000    0.000 
#
# Total GULP energy -89131.921245 kJ/mol
# GULP energy per Si atom -5570.745078 kJ/mol
# Density = 2.129149 g / cm^3
# Si number density = 21.340063 Si / 1000 Ang^3
#
#
#
# Elastic Constant Matrix: (Units=GPa)
#
#
# Indices 1 2 3 4 5 6 
#
# 1 129.3929 44.5207 35.5642 15.9403 -21.8278 11.8669
# 2 44.5207 97.9357 14.7240 22.7623 -4.5598 7.3185
# 3 35.5642 14.7240 52.6947 -0.7094 -22.3992 3.4807
# 4 15.9403 22.7623 -0.7094 32.1149 -2.4267 -7.1132
# 5 -21.8278 -4.5598 -22.3992 -2.4267 36.3533 9.5269
# 6 11.8669 7.3185 3.4807 -7.1132 9.5269 25.0996
#
#
#
# Elastic Compliance Matrix: (Units=1/GPa)
#
#
# Indices 1 2 3 4 5 6 
#
# 1 0.012426 -0.002718 -0.004536 -0.005741 0.006147 -0.008414
# 2 -0.002718 0.014535 -0.002193 -0.010227 -0.000431 -0.005384
# 3 -0.004536 -0.002193 0.030940 0.004268 0.018243 -0.007222
# 4 -0.005741 -0.010227 0.004268 0.045343 -0.004196 0.019547
# 5 0.006147 -0.000431 0.018243 -0.004196 0.048647 -0.024964
# 6 -0.008414 -0.005384 -0.007222 0.019547 -0.024964 0.061405
#
#
# Mechanical properties :
#
#
# Convention : Reuss Voigt Hill
#
# Bulk Modulus (GPa) = 25.63490 52.18236 38.90863
# Shear Modulus (GPa) = 20.39223 31.06118 25.72670
#
# Velocity S-wave (km/s) = 3.09461 3.81928 3.47588
# Velocity P-wave (km/s) = 4.98071 6.62986 5.86355
#
# Compressibility (1/GPa) = 0.03900933
#
# Stress axis : x y z
#
# Youngs Moduli (GPa) = 80.47704 68.79972 32.32042
#
# Poissons Ratio (x) = 0.18697 0.14659
# Poissons Ratio (y) = 0.21871 0.07087
# Poissons Ratio (z) = 0.36501 0.15086
#
# Static dielectric constant tensor:
#      x y z
#    x 1.811950 -0.015140 -0.015190 
#    y -0.015140 1.877940 -0.002330 
#    z -0.015190 -0.002330 1.816880 
# 
# From -- ./inp_files/50095.got.cif
#   From: 2010.05.17/outbox.cif.g08.bks.cpg/sg2_26_cif.got.tgz:50095.got - 2010.06.03 11:33:40.
