data_PCOD9073701
_publ_section_title
;
Structure prediction by ZEFSAII (Michael W. Deem and Ramdas Pophale) SiO2 
 PCOD9073701
Probable space group: P -1
;
_chemical_formula_sum "Si O2"
_cell_formula_units_Z 12
_cell_length_a 24.000000
_cell_length_b 27.000000
_cell_length_c 9.000000
_cell_angle_alpha 150.000000
_cell_angle_beta 30.000000
_cell_angle_gamma 170.000000
_cell_volume 500.510623
_symmetry_space_group_name_H-M "P -1"
_symmetry_group_IT_number 2
_symmetry_cell_setting 'triclinic'
loop_
_space_group_symop_operation_xyz
x,y,z
-x,-y,-z
loop_
_atom_site_type_symbol
_atom_site_label
_atom_site_fract_x
_atom_site_fract_y
_atom_site_fract_z
Si Si1 0.564396 0.823145 0.890092
Si Si2 0.177746 0.300153 0.906280
Si Si3 0.370198 0.771410 0.506155
Si Si4 0.334951 0.412565 0.299446
Si Si5 0.758870 0.287662 0.860623
Si Si6 0.282047 0.088483 0.756520
O O1 0.412601 0.592290 0.596059
O O2 0.412152 0.738645 0.176756
O O3 0.463380 0.810803 0.954781
O O4 0.942143 0.116368 0.829533
O O5 0.485402 0.483073 0.698443
O O6 0.378657 0.570170 0.157728
O O7 0.933363 0.067087 0.001404
O O8 0.605134 0.927689 0.502822
O O9 0.009685 0.470178 0.622130
O O10 0.509081 0.992801 0.712918
O O11 0.500000 0.500000 0.000000
O O12 0.950351 0.083911 0.295465
O O13 0.000000 0.500000 0.000000
#
# Coordination Sequence:
#
# PCOD9073701 Si02
#       6
#     2   2   2   2   2   2
#     4  11  24  44  74 107 143 190 236 294 357 418
#     4  10  22  42  65  99 137 181 232 286 345 411
#     4  11  24  46  70 105 143 182 234 291 350 424
#     4  10  22  44  70 104 143 187 237 292 350 419
#     4  12  26  46  71 105 142 185 234 291 354 425
#     4  10  21  42  69  98 137 183 227 284 347 413
#
# _framework density 23.975515000000001
#
# number of rings (size 3 to 8) (size 9 to 14) (size 15 to 20)
#    0.000    1.333    0.000    5.500    0.000    4.000 
#    0.000   30.000    0.000    0.000    0.000    0.000 
#    0.000    0.000    0.000    0.000    0.000    0.000 
#
# Total GULP energy -67079.804088 kJ/mol
# GULP energy per Si atom -5589.983674 kJ/mol
# Density = 2.392095 g / cm^3
# Si number density = 23.975515 Si / 1000 Ang^3
#
#
#
# Elastic Constant Matrix: (Units=GPa)
#
#
# Indices 1 2 3 4 5 6 
#
# 1 152.6085 12.0712 25.2910 2.5026 -33.3651 31.6775
# 2 12.0712 56.5114 -9.6328 7.5181 9.4528 13.5938
# 3 25.2910 -9.6328 78.1141 12.3497 -5.7539 -6.4294
# 4 2.5026 7.5181 12.3497 36.1717 2.8057 0.4146
# 5 -33.3651 9.4528 -5.7539 2.8057 44.8380 1.3671
# 6 31.6775 13.5938 -6.4294 0.4146 1.3671 63.7862
#
#
#
# Elastic Compliance Matrix: (Units=1/GPa)
#
#
# Indices 1 2 3 4 5 6 
#
# 1 0.010088 -0.002960 -0.003554 0.000583 0.007788 -0.004908
# 2 -0.002960 0.021204 0.003728 -0.004996 -0.005805 -0.002516
# 3 -0.003554 0.003728 0.015447 -0.005742 -0.001168 0.002590
# 4 0.000583 -0.004996 -0.005742 0.030695 -0.001171 0.000022
# 5 0.007788 -0.005805 -0.001168 -0.001171 0.029347 -0.003369
# 6 -0.004908 -0.002516 0.002590 0.000022 -0.003369 0.018984
#
#
# Mechanical properties :
#
#
# Convention : Reuss Voigt Hill
#
# Bulk Modulus (GPa) = 24.29037 38.07696 31.18367
# Shear Modulus (GPa) = 34.46880 46.25950 40.36415
#
# Velocity S-wave (km/s) = 3.79577 4.39731 4.10757
# Velocity P-wave (km/s) = 5.41884 6.45739 5.96078
#
# Compressibility (1/GPa) = 0.04116858
#
# Stress axis : x y z
#
# Youngs Moduli (GPa) = 99.13219 47.16006 64.73734
#
# Poissons Ratio (x) = 0.13960 0.23005
# Poissons Ratio (y) = 0.29344 -0.24137
# Poissons Ratio (z) = 0.35227 -0.17583
#
# Static dielectric constant tensor:
#      x y z
#    x 1.951620 0.019220 -0.023660 
#    y 0.019220 1.896790 -0.036370 
#    z -0.023660 -0.036370 1.961580 
# 
# From -- ./inp_files/355664.got.cif
#   From: 2010.05.17/outbox.ucp.g08.bks.cvg/sg2_178_cif.got.tgz:355664.got - 2010.06.11 11:32:03.
