data_PCOD9073681
_publ_section_title
;
Structure prediction by ZEFSAII (Michael W. Deem and Ramdas Pophale) SiO2 
 PCOD9073681
Probable space group: P -1
;
_chemical_formula_sum "Si O2"
_cell_formula_units_Z 14
_cell_length_a 12.000000
_cell_length_b 24.000000
_cell_length_c 9.000000
_cell_angle_alpha 140.000000
_cell_angle_beta 120.000000
_cell_angle_gamma 30.000000
_cell_volume 717.332707
_symmetry_space_group_name_H-M "P -1"
_symmetry_group_IT_number 2
_symmetry_cell_setting 'triclinic'
loop_
_space_group_symop_operation_xyz
x,y,z
-x,-y,-z
loop_
_atom_site_type_symbol
_atom_site_label
_atom_site_fract_x
_atom_site_fract_y
_atom_site_fract_z
Si Si1 0.477350 0.864560 0.779722
Si Si2 0.554599 0.611690 0.811290
Si Si3 0.112306 0.736322 0.817809
Si Si4 0.613911 0.489914 0.187661
Si Si5 0.059448 0.373047 0.202350
Si Si6 0.696203 0.184909 0.212316
Si Si7 0.818406 0.567544 0.146489
O O1 0.674169 0.804589 0.895093
O O2 0.389059 0.833176 0.755028
O O3 0.633738 0.738182 0.477503
O O4 0.198181 0.074170 0.997341
O O5 0.280486 0.720080 0.840984
O O6 0.777685 0.413139 0.501601
O O7 0.495786 0.715810 0.854710
O O8 0.635814 0.606616 0.012139
O O9 0.231041 0.661762 0.908369
O O10 0.376458 0.677771 0.492548
O O11 0.828427 0.439311 0.203932
O O12 0.500000 0.500000 0.000000
O O13 0.000000 0.500000 0.500000
O O14 0.028315 0.406144 0.073233
O O15 0.000000 0.000000 0.000000
O O16 0.000000 0.500000 0.000000
#
# Coordination Sequence:
#
# PCOD9073681 Si02
#       7
#     2   2   2   2   2   2   2
#     4  11  23  42  66  95 125 172 221 258 315 393
#     4  10  22  41  63  95 130 164 210 266 326 372
#     4  10  23  39  65  94 131 166 208 268 325 379
#     4  11  23  41  67  96 132 169 213 266 326 375
#     4  10  21  42  67  90 127 174 214 259 321 385
#     4  11  21  40  68  95 128 171 214 260 321 389
#     4  11  23  39  67  91 124 165 219 266 310 375
#
# _framework density 19.516746000000001
#
# number of rings (size 3 to 8) (size 9 to 14) (size 15 to 20)
#    0.000    1.429    4.286    1.714    6.000    2.286 
#    0.000    0.714    0.000    0.000    0.000    0.000 
#    0.000    0.000    0.000    0.000    0.000    0.000 
#
# Total GULP energy -77949.418418 kJ/mol
# GULP energy per Si atom -5567.815601 kJ/mol
# Density = 1.947232 g / cm^3
# Si number density = 19.516746 Si / 1000 Ang^3
#
#
#
# Elastic Constant Matrix: (Units=GPa)
#
#
# Indices 1 2 3 4 5 6 
#
# 1 86.6941 32.4655 32.4244 -0.5943 -21.2257 -3.6438
# 2 32.4655 187.2282 95.4371 -6.5729 -5.4703 -9.8579
# 3 32.4244 95.4371 111.1378 5.2611 -21.7266 -11.2849
# 4 -0.5943 -6.5729 5.2611 51.8099 -5.2223 -4.0795
# 5 -21.2257 -5.4703 -21.7266 -5.2223 28.6300 -0.1069
# 6 -3.6438 -9.8579 -11.2849 -4.0795 -0.1069 41.7820
#
#
#
# Elastic Compliance Matrix: (Units=1/GPa)
#
#
# Indices 1 2 3 4 5 6 
#
# 1 0.015120 -0.001859 -0.000730 0.001136 0.010510 0.000820
# 2 -0.001859 0.010580 -0.009930 0.001649 -0.006593 -0.000204
# 3 -0.000730 -0.009930 0.020657 -0.001826 0.012916 0.003027
# 4 0.001136 0.001649 -0.001826 0.020214 0.003466 0.001977
# 5 0.010510 -0.006593 0.012916 0.003466 0.051907 0.003321
# 6 0.000820 -0.000204 0.003027 0.001977 0.003321 0.024976
#
#
# Mechanical properties :
#
#
# Convention : Reuss Voigt Hill
#
# Bulk Modulus (GPa) = 46.91150 78.41268 62.66209
# Shear Modulus (GPa) = 28.47384 39.42660 33.95022
#
# Velocity S-wave (km/s) = 3.82376 4.49947 4.17531
# Velocity P-wave (km/s) = 6.60178 8.20110 7.44451
#
# Compressibility (1/GPa) = 0.02131673
#
# Stress axis : x y z
#
# Youngs Moduli (GPa) = 66.13851 94.51875 48.40931
#
# Poissons Ratio (x) = 0.17575 0.03535
# Poissons Ratio (y) = 0.12298 0.48073
# Poissons Ratio (z) = 0.04830 0.93861
#
# Static dielectric constant tensor:
#      x y z
#    x 1.927330 0.074660 0.002750 
#    y 0.074660 1.713090 0.019950 
#    z 0.002750 0.019950 1.674870 
# 
# From -- ./inp_files/182769.got.cif
#   From: 2010.05.17/outbox.ucp.g08.bks.cvg/sg2_92_cif.got.tgz:182769.got - 2010.06.11 11:32:03.
