data_PCOD9073788
_publ_section_title
;
Structure prediction by ZEFSAII (Michael W. Deem and Ramdas Pophale) SiO2 
 PCOD9073788
Probable space group: P -1
;
_chemical_formula_sum "Si O2"
_cell_formula_units_Z 14
_cell_length_a 12.000000
_cell_length_b 9.000000
_cell_length_c 9.000000
_cell_angle_alpha 70.000000
_cell_angle_beta 120.000000
_cell_angle_gamma 70.000000
_cell_volume 614.029152
_symmetry_space_group_name_H-M "P -1"
_symmetry_group_IT_number 2
_symmetry_cell_setting 'triclinic'
loop_
_space_group_symop_operation_xyz
x,y,z
-x,-y,-z
loop_
_atom_site_type_symbol
_atom_site_label
_atom_site_fract_x
_atom_site_fract_y
_atom_site_fract_z
Si Si1 0.103610 0.265938 0.478774
Si Si2 0.465501 0.144781 0.727130
Si Si3 0.823979 0.723826 0.132242
Si Si4 0.507502 0.353523 0.429734
Si Si5 0.037462 0.078598 0.856598
Si Si6 0.785344 0.132519 0.458388
Si Si7 0.638727 0.279015 0.985426
O O1 0.284313 0.206419 0.587225
O O2 0.123147 0.261217 0.671561
O O3 0.928191 0.486016 0.251398
O O4 0.106602 0.096806 0.453600
O O5 0.464442 0.237383 0.539103
O O6 0.504376 0.247883 0.849094
O O7 0.625113 0.901398 0.923924
O O8 0.919030 0.787637 0.085551
O O9 0.500000 0.500000 0.500000
O O10 0.670638 0.179263 0.506199
O O11 0.404801 0.514171 0.174517
O O12 0.897560 0.177998 0.599809
O O13 0.201695 0.892715 0.945879
O O14 0.000000 0.000000 0.000000
O O15 0.680222 0.252906 0.197350
#
# Coordination Sequence:
#
# PCOD9073788 Si02
#       7
#     2   2   2   2   2   2   2
#     4  11  24  41  69 101 139 182 225 278 339 411
#     4  10  21  44  69  93 143 183 221 278 343 408
#     4  10  23  43  67 101 136 185 226 267 351 410
#     4  10  23  42  64  98 130 176 227 276 351 399
#     4  11  23  42  70  95 137 179 220 289 342 398
#     4  12  23  42  67 103 135 167 238 286 328 410
#     4  10  22  40  67 103 128 178 232 276 339 398
#
# _framework density 22.800219999999999
#
# number of rings (size 3 to 8) (size 9 to 14) (size 15 to 20)
#    0.000    1.429    2.857    3.857    6.000    0.571 
#    2.571    2.857    0.000    0.000    0.000    0.000 
#    0.000    0.000    0.000    0.000    0.000    0.000 
#
# Total GULP energy -78008.298286 kJ/mol
# GULP energy per Si atom -5572.021306 kJ/mol
# Density = 2.274833 g / cm^3
# Si number density = 22.800220 Si / 1000 Ang^3
#
#
#
# Elastic Constant Matrix: (Units=GPa)
#
#
# Indices 1 2 3 4 5 6 
#
# 1 67.9593 7.0403 18.0055 -0.9441 -13.6936 -3.6470
# 2 7.0403 59.9246 29.8777 -13.2443 -9.1984 -22.7729
# 3 18.0055 29.8777 87.0329 -15.9575 -7.2168 5.7911
# 4 -0.9441 -13.2443 -15.9575 49.1845 1.2363 -3.4662
# 5 -13.6936 -9.1984 -7.2168 1.2363 31.8852 8.4916
# 6 -3.6470 -22.7729 5.7911 -3.4662 8.4916 16.1267
#
#
#
# Elastic Compliance Matrix: (Units=1/GPa)
#
#
# Indices 1 2 3 4 5 6 
#
# 1 0.017556 0.011276 -0.008305 0.002134 0.003042 0.021732
# 2 0.011276 0.187872 -0.084561 0.048316 -0.051360 0.335643
# 3 -0.008305 -0.084561 0.051619 -0.017951 0.026383 -0.157576
# 4 0.002134 0.048316 -0.017951 0.034281 -0.014557 0.090190
# 5 0.003042 -0.051360 0.026383 -0.014557 0.054523 -0.113150
# 6 0.021732 0.335643 -0.157576 0.090190 -0.113150 0.676443
#
#
# Mechanical properties :
#
#
# Convention : Reuss Voigt Hill
#
# Bulk Modulus (GPa) = 10.65358 36.08488 23.36923
# Shear Modulus (GPa) = 4.10926 30.10549 17.10738
#
# Velocity S-wave (km/s) = 1.34395 3.63768 2.74216
# Velocity P-wave (km/s) = 2.66289 5.78831 4.50530
#
# Compressibility (1/GPa) = 0.09386519
#
# Stress axis : x y z
#
# Youngs Moduli (GPa) = 56.96070 5.32277 19.37281
#
# Poissons Ratio (x) = -0.06002 0.16090
# Poissons Ratio (y) = -0.64228 1.63819
# Poissons Ratio (z) = 0.47309 0.45010
#
# Static dielectric constant tensor:
#      x y z
#    x 1.999370 0.062080 -0.006100 
#    y 0.062080 1.856650 -0.074150 
#    z -0.006100 -0.074150 1.927070 
# 
# From -- ./inp_files/183840.got.cif
#   From: 2010.05.17/outbox.ucp.g08.bks.cvg/sg2_92_cif.got.tgz:183840.got - 2010.06.11 11:32:03.
