data_PCOD9073494
_publ_section_title
;
Structure prediction by ZEFSAII (Michael W. Deem and Ramdas Pophale) SiO2 
 PCOD9073494
Probable space group: P -1
;
_chemical_formula_sum "Si O2"
_cell_formula_units_Z 16
_cell_length_a 10.038268
_cell_length_b 16.417633
_cell_length_c 9.117803
_cell_angle_alpha 146.441693
_cell_angle_beta 65.724785
_cell_angle_gamma 121.360608
_cell_volume 708.485400
_symmetry_space_group_name_H-M "P -1"
_symmetry_group_IT_number 2
_symmetry_cell_setting 'triclinic'
loop_
_space_group_symop_operation_xyz
x,y,z
-x,-y,-z
loop_
_atom_site_type_symbol
_atom_site_label
_atom_site_fract_x
_atom_site_fract_y
_atom_site_fract_z
Si Si1 0.744429 0.243642 0.781170
Si Si2 0.175362 0.465923 0.621510
Si Si3 0.437181 0.915104 0.124588
Si Si4 0.732257 0.224788 0.415837
Si Si5 0.227386 0.289709 0.586753
Si Si6 0.869665 0.085742 0.909379
Si Si7 0.417017 0.618125 0.509177
Si Si8 0.028738 0.327054 0.974924
O O1 0.603614 0.108903 0.721738
O O2 0.760553 0.260063 0.626625
O O3 0.901380 0.234933 0.769703
O O4 0.737858 0.400759 0.095887
O O5 0.146265 0.316956 0.513623
O O6 0.295057 0.480818 0.456688
O O7 0.033538 0.529539 0.738882
O O8 0.279570 0.905669 0.099515
O O9 0.573746 0.072244 0.258475
O O10 0.469473 0.767676 0.820398
O O11 0.687996 0.349673 0.524699
O O12 0.859442 0.167566 0.191304
O O13 0.415155 0.372851 0.610089
O O14 0.182345 0.364264 0.865645
O O15 0.164235 0.099458 0.348094
O O16 0.013305 0.206139 0.933208
#
# Coordination Sequence:
#
# PCOD9073494 Si02
#       8
#     2   2   2   2   2   2   2   2
#     4   8  19  31  51  72 101 146 167 197 249 327
#     4   9  20  37  51  76 103 138 172 204 252 305
#     4   9  15  31  50  76 103 131 175 206 254 297
#     4  11  15  31  55  75 102 135 172 207 258 300
#     4  12  19  31  58  80 100 130 176 217 249 290
#     4  10  18  31  55  80  98 128 175 219 245 290
#     4  10  18  31  55  80  98 128 175 219 245 290
#     4   9  20  37  51  76 103 138 172 204 252 305
#
# _framework density 22.583389
#
# number of rings (size 3 to 8) (size 9 to 14) (size 15 to 20)
#    0.750    1.500    5.000    2.250    0.000    0.000 
#    0.000    1.250    0.000    6.000    0.000    0.000 
#    0.000    0.000    0.000    0.000    0.000    0.000 
#
# Total GULP energy -89156.489171 kJ/mol
# GULP energy per Si atom -5572.280573 kJ/mol
# Density = 2.253199 g / cm^3
# Si number density = 22.583389 Si / 1000 Ang^3
#
#
#
# Elastic Constant Matrix: (Units=GPa)
#
#
# Indices 1 2 3 4 5 6 
#
# 1 48.4229 24.0099 24.8525 -20.9813 -9.8377 9.4731
# 2 24.0099 160.1973 39.5636 -37.2074 -23.0589 3.7396
# 3 24.8525 39.5636 54.6842 -22.3488 -9.5246 2.9657
# 4 -20.9813 -37.2074 -22.3488 35.8682 -4.1700 -2.4930
# 5 -9.8377 -23.0589 -9.5246 -4.1700 37.8571 -15.1895
# 6 9.4731 3.7396 2.9657 -2.4930 -15.1895 24.6853
#
#
#
# Elastic Compliance Matrix: (Units=1/GPa)
#
#
# Indices 1 2 3 4 5 6 
#
# 1 0.034165 0.002292 -0.008277 0.017700 0.007778 -0.005890
# 2 0.002292 0.010683 -0.002149 0.012613 0.010043 0.005214
# 3 -0.008277 -0.002149 0.029942 0.012933 0.007945 0.006100
# 4 0.017700 0.012613 0.012933 0.063542 0.027877 0.013314
# 5 0.007778 0.010043 0.007945 0.027877 0.051203 0.028861
# 6 -0.005890 0.005214 0.006100 0.013314 0.028861 0.060351
#
#
# Mechanical properties :
#
#
# Convention : Reuss Voigt Hill
#
# Bulk Modulus (GPa) = 17.08799 48.90627 32.99713
# Shear Modulus (GPa) = 17.50312 31.34069 24.42190
#
# Velocity S-wave (km/s) = 2.78698 3.72933 3.29205
# Velocity P-wave (km/s) = 4.23549 6.34403 5.39380
#
# Compressibility (1/GPa) = 0.05852062
#
# Stress axis : x y z
#
# Youngs Moduli (GPa) = 29.26976 93.60537 33.39796
#
# Poissons Ratio (x) = -0.21451 0.27644
# Poissons Ratio (y) = -0.06708 0.07178
# Poissons Ratio (z) = 0.24227 0.20117
#
# Static dielectric constant tensor:
#      x y z
#    x 1.878610 0.019760 0.001360 
#    y 0.019760 1.916120 -0.002130 
#    z 0.001360 -0.002130 1.873610 
# 
# From -- ./inp_files/274588.got.cif
#   From: 2010.05.17/outbox.cif.g08.bks.cpg/sg2_138_cif.got.tgz:274588.got - 2010.06.03 11:33:40.
