data_PCOD9073597
_publ_section_title
;
Structure prediction by ZEFSAII (Michael W. Deem and Ramdas Pophale) SiO2 
 PCOD9073597
Probable space group: P -1
;
_chemical_formula_sum "Si O2"
_cell_formula_units_Z 12
_cell_length_a 6.000000
_cell_length_b 12.000000
_cell_length_c 12.000000
_cell_angle_alpha 130.000000
_cell_angle_beta 70.000000
_cell_angle_gamma 80.000000
_cell_volume 520.799820
_symmetry_space_group_name_H-M "P -1"
_symmetry_group_IT_number 2
_symmetry_cell_setting 'triclinic'
loop_
_space_group_symop_operation_xyz
x,y,z
-x,-y,-z
loop_
_atom_site_type_symbol
_atom_site_label
_atom_site_fract_x
_atom_site_fract_y
_atom_site_fract_z
Si Si1 0.861617 0.438357 0.718359
Si Si2 0.090724 0.847755 0.629637
Si Si3 0.152672 0.305919 0.801846
Si Si4 0.814141 0.732563 0.779962
Si Si5 0.647760 0.221268 0.842156
Si Si6 0.280024 0.964403 0.868901
O O1 0.807623 0.297385 0.579854
O O2 0.918472 0.541986 0.681625
O O3 0.131168 0.337722 0.691630
O O4 0.585499 0.601153 0.935502
O O5 0.270387 0.910963 0.708436
O O6 0.020746 0.757512 0.683113
O O7 0.812812 0.028549 0.747399
O O8 0.455239 0.216818 0.765476
O O9 0.924474 0.243361 0.803586
O O10 0.000000 0.500000 0.000000
O O11 0.538254 0.814812 0.801221
O O12 0.738568 0.856965 0.982461
O O13 0.000000 0.000000 0.000000
#
# Coordination Sequence:
#
# PCOD9073597 Si02
#       6
#     2   2   2   2   2   2
#     4  11  23  44  69 101 138 180 232 291 347 413
#     4  11  25  41  68 105 134 182 232 288 350 414
#     4  10  24  47  73 102 136 190 235 285 352 412
#     4  10  21  41  64  99 137 181 225 282 352 422
#     4  11  25  48  73  99 144 183 237 289 346 418
#     4   9  19  38  62  92 133 178 222 271 348 406
#
# _framework density 23.041482999999999
#
# number of rings (size 3 to 8) (size 9 to 14) (size 15 to 20)
#    0.000    1.667    0.000    5.500    7.000    2.000 
#   15.000    0.000    0.000    0.000    0.000    0.000 
#    0.000    0.000    0.000    0.000    0.000    0.000 
#
# Total GULP energy -66841.571931 kJ/mol
# GULP energy per Si atom -5570.130994 kJ/mol
# Density = 2.298904 g / cm^3
# Si number density = 23.041483 Si / 1000 Ang^3
#
#
#
# Elastic Constant Matrix: (Units=GPa)
#
#
# Indices 1 2 3 4 5 6 
#
# 1 158.7929 36.9019 38.6350 -2.0562 41.8530 -25.4811
# 2 36.9019 104.3104 33.9516 13.0385 16.0006 -5.5660
# 3 38.6350 33.9516 110.7965 13.2113 37.8614 -14.7432
# 4 -2.0562 13.0385 13.2113 28.1738 2.8130 6.9768
# 5 41.8530 16.0006 37.8614 2.8130 51.0561 -16.8454
# 6 -25.4811 -5.5660 -14.7432 6.9768 -16.8454 47.0975
#
#
#
# Elastic Compliance Matrix: (Units=1/GPa)
#
#
# Indices 1 2 3 4 5 6 
#
# 1 0.008744 -0.002232 -0.000408 0.001912 -0.005593 0.002056
# 2 -0.002232 0.011674 -0.002294 -0.004557 0.000188 0.000196
# 3 -0.000408 -0.002294 0.013430 -0.004829 -0.008139 0.001516
# 4 0.001912 -0.004557 -0.004829 0.042073 -0.001437 -0.007762
# 5 -0.005593 0.000188 -0.008139 -0.001437 0.032274 0.006205
# 6 0.002056 0.000196 0.001516 -0.007762 0.006205 0.026212
#
#
# Mechanical properties :
#
#
# Convention : Reuss Voigt Hill
#
# Bulk Modulus (GPa) = 41.70158 65.87522 53.78840
# Shear Modulus (GPa) = 32.83679 42.89289 37.86484
#
# Velocity S-wave (km/s) = 3.77917 4.31925 4.05820
# Velocity P-wave (km/s) = 6.09759 7.31618 6.73450
#
# Compressibility (1/GPa) = 0.02397991
#
# Stress axis : x y z
#
# Youngs Moduli (GPa) = 114.36031 85.65845 74.46230
#
# Poissons Ratio (x) = 0.19118 0.03042
# Poissons Ratio (y) = 0.25524 0.17080
# Poissons Ratio (z) = 0.04672 0.19648
#
# Static dielectric constant tensor:
#      x y z
#    x 1.944910 0.050050 0.006200 
#    y 0.050050 1.923180 -0.069910 
#    z 0.006200 -0.069910 1.916710 
# 
# From -- ./inp_files/59676.got.cif
#   From: 2010.05.17/outbox.ucp.g08.bks.cvg/sg2_30_cif.got.tgz:59676.got - 2010.06.11 11:32:03.
