data_PCOD9073028
_publ_section_title
;
Structure prediction by ZEFSAII (Michael W. Deem and Ramdas Pophale) SiO2 
 PCOD9073028
Probable space group: P -1
;
_chemical_formula_sum "Si O2"
_cell_formula_units_Z 16
_cell_length_a 8.465294
_cell_length_b 11.488529
_cell_length_c 9.179474
_cell_angle_alpha 117.733036
_cell_angle_beta 81.930175
_cell_angle_gamma 85.415273
_cell_volume 771.538794
_symmetry_space_group_name_H-M "P -1"
_symmetry_group_IT_number 2
_symmetry_cell_setting 'triclinic'
loop_
_space_group_symop_operation_xyz
x,y,z
-x,-y,-z
loop_
_atom_site_type_symbol
_atom_site_label
_atom_site_fract_x
_atom_site_fract_y
_atom_site_fract_z
Si Si1 0.100540 0.940247 0.149559
Si Si2 0.198230 0.157643 0.776373
Si Si3 0.268284 0.911782 0.409169
Si Si4 0.322050 0.053273 0.000024
Si Si5 0.239031 0.301843 0.370138
Si Si6 0.912644 0.225461 0.430342
Si Si7 0.580464 0.719940 0.357846
Si Si8 0.628386 0.446368 0.574477
O O1 0.233749 0.928996 0.253946
O O2 0.982281 0.832689 0.127836
O O3 0.200897 0.950219 0.996188
O O4 0.983485 0.082638 0.268924
O O5 0.269841 0.281887 0.772811
O O6 0.215864 0.052241 0.579197
O O7 0.309709 0.091847 0.855873
O O8 0.147715 0.814886 0.427738
O O9 0.446723 0.845445 0.398291
O O10 0.266116 0.183612 0.181272
O O11 0.500000 0.000000 0.000000
O O12 0.354872 0.269866 0.478787
O O13 0.270559 0.433701 0.358700
O O14 0.057590 0.309063 0.457318
O O15 0.752930 0.313989 0.435931
O O16 0.479047 0.597675 0.305487
O O17 0.500000 0.500000 0.500000
#
# Coordination Sequence:
#
# PCOD9073028 Si02
#       8
#     2   2   2   2   2   2   2   2
#     4  10  20  34  52  80 107 135 171 212 258 308
#     4  11  19  31  49  73 104 137 166 206 253 306
#     4  10  18  31  52  80 106 133 169 214 258 304
#     4  11  22  34  50  76 108 141 170 205 258 315
#     4  10  19  35  53  77 105 137 173 215 256 302
#     4   9  17  30  52  78 103 131 168 215 260 300
#     4  10  19  32  53  78 102 133 176 218 256 299
#     4   9  19  33  52  78 101 131 176 221 259 296
#
# _framework density 20.737777000000001
#
# number of rings (size 3 to 8) (size 9 to 14) (size 15 to 20)
#    0.000    2.000    0.000    6.375    0.000    1.000 
#    0.000    0.625    0.000    0.000    0.000   39.375 
#    0.000    0.000    0.000    0.000    0.000    0.000 
#
# Total GULP energy -89186.873912 kJ/mol
# GULP energy per Si atom -5574.179620 kJ/mol
# Density = 2.069058 g / cm^3
# Si number density = 20.737777 Si / 1000 Ang^3
#
#
#
# Elastic Constant Matrix: (Units=GPa)
#
#
# Indices 1 2 3 4 5 6 
#
# 1 99.9222 43.5032 10.9215 -12.0999 -9.7533 10.6767
# 2 43.5032 98.9943 22.9945 -28.3232 -13.9700 21.6044
# 3 10.9215 22.9945 31.8057 -23.5117 3.7012 7.2056
# 4 -12.0999 -28.3232 -23.5117 26.0050 -2.3654 -12.1189
# 5 -9.7533 -13.9700 3.7012 -2.3654 31.9214 -17.0431
# 6 10.6767 21.6044 7.2056 -12.1189 -17.0431 57.1771
#
#
#
# Elastic Compliance Matrix: (Units=1/GPa)
#
#
# Indices 1 2 3 4 5 6 
#
# 1 0.012469 -0.005209 -0.001477 -0.000999 0.001690 0.000118
# 2 -0.005209 0.019085 0.003698 0.022744 0.008338 0.000602
# 3 -0.001477 0.003698 0.098080 0.095262 0.000518 0.006864
# 4 -0.000999 0.022744 0.095262 0.160013 0.021013 0.019766
# 5 0.001690 0.008338 0.000518 0.021013 0.044576 0.014209
# 6 0.000118 0.000602 0.006864 0.019766 0.014209 0.024800
#
#
# Mechanical properties :
#
#
# Convention : Reuss Voigt Hill
#
# Bulk Modulus (GPa) = 8.08698 42.84008 25.46353
# Shear Modulus (GPa) = 12.30865 33.24089 22.77477
#
# Velocity S-wave (km/s) = 2.43891 4.00799 3.31754
# Velocity P-wave (km/s) = 3.44080 6.49010 5.19425
#
# Compressibility (1/GPa) = 0.12365553
#
# Stress axis : x y z
#
# Youngs Moduli (GPa) = 80.20136 52.39835 10.19575
#
# Poissons Ratio (x) = 0.27296 0.01506
# Poissons Ratio (y) = 0.41779 -0.03770
# Poissons Ratio (z) = 0.11847 -0.19375
#
# Static dielectric constant tensor:
#      x y z
#    x 1.821570 0.055780 -0.018910 
#    y 0.055780 1.793790 -0.022190 
#    z -0.018910 -0.022190 1.717000 
# 
# From -- ./inp_files/189202.got.cif
#   From: 2010.05.17/outbox.cif.g08.bks.cpg/sg2_95_cif.got.tgz:189202.got - 2010.06.03 11:33:40.
