data_PCOD9073131
_publ_section_title
;
Structure prediction by ZEFSAII (Michael W. Deem and Ramdas Pophale) SiO2 
 PCOD9073131
Probable space group: P -1
;
_chemical_formula_sum "Si O2"
_cell_formula_units_Z 15
_cell_length_a 9.000000
_cell_length_b 21.000000
_cell_length_c 6.000000
_cell_angle_alpha 120.000000
_cell_angle_beta 110.000000
_cell_angle_gamma 40.000000
_cell_volume 629.549538
_symmetry_space_group_name_H-M "P -1"
_symmetry_group_IT_number 2
_symmetry_cell_setting 'triclinic'
loop_
_space_group_symop_operation_xyz
x,y,z
-x,-y,-z
loop_
_atom_site_type_symbol
_atom_site_label
_atom_site_fract_x
_atom_site_fract_y
_atom_site_fract_z
Si Si1 0.797814 0.639169 0.533453
Si Si2 0.507821 0.368687 0.839658
Si Si3 0.000000 0.000000 0.000000
Si Si4 0.842590 0.205534 0.071162
Si Si5 0.536321 0.110396 0.208574
Si Si6 0.006662 0.588084 0.053347
Si Si7 0.954265 0.260296 0.622309
Si Si8 0.288681 0.067857 0.742627
O O1 0.597521 0.645724 0.435081
O O2 0.666841 0.761346 0.663904
O O3 0.922293 0.585745 0.253710
O O4 0.924177 0.593646 0.763689
O O5 0.735815 0.331969 0.804526
O O6 0.611151 0.283435 0.940923
O O7 0.287620 0.488989 0.022121
O O8 0.123909 0.881204 0.934982
O O9 0.220774 0.939894 0.835789
O O10 0.848998 0.273240 0.355616
O O11 0.069509 0.138579 0.918866
O O12 0.582627 0.053097 0.367544
O O13 0.455084 0.075343 0.929891
O O14 0.937747 0.696715 0.227160
O O15 0.156715 0.132454 0.561033
#
# Coordination Sequence:
#
# PCOD9073131 Si02
#       8
#     2   2   1   2   2   2   2   2
#     4  12  27  48  74 105 146 190 243 294 367 424
#     4  11  27  44  71 103 146 187 242 300 358 421
#     4  10  22  40  72 104 142 182 232 292 360 430
#     4  10  23  41  68 102 143 185 236 292 357 422
#     4  10  20  42  69  98 144 178 237 285 363 418
#     4  12  28  48  74 106 143 194 244 298 356 427
#     4  11  23  43  72 102 145 187 246 292 360 422
#     4   9  20  41  62 103 135 185 228 293 346 432
#
# _framework density 23.826560000000001
#
# number of rings (size 3 to 8) (size 9 to 14) (size 15 to 20)
#    0.000    1.333    1.333    2.800    7.467    1.600 
#    2.400    8.000    0.000    0.000    0.000    0.000 
#    0.000    0.000    0.000    0.000    0.000    0.000 
#
# Total GULP energy -83527.506626 kJ/mol
# GULP energy per Si atom -5568.500442 kJ/mol
# Density = 2.377233 g / cm^3
# Si number density = 23.826560 Si / 1000 Ang^3
#
#
#
# Elastic Constant Matrix: (Units=GPa)
#
#
# Indices 1 2 3 4 5 6 
#
# 1 75.0496 24.1216 23.6054 -12.2825 -24.2284 9.9470
# 2 24.1216 133.3423 43.8386 -12.4114 -5.4333 -0.0542
# 3 23.6054 43.8386 84.7565 -10.0237 -13.5275 5.4738
# 4 -12.2825 -12.4114 -10.0237 31.1235 -11.0074 -0.1093
# 5 -24.2284 -5.4333 -13.5275 -11.0074 27.3279 6.0074
# 6 9.9470 -0.0542 5.4738 -0.1093 6.0074 26.0116
#
#
#
# Elastic Compliance Matrix: (Units=1/GPa)
#
#
# Indices 1 2 3 4 5 6 
#
# 1 0.046516 -0.004056 0.007706 0.043720 0.069621 -0.035313
# 2 -0.004056 0.009562 -0.005154 -0.001450 -0.005702 0.003967
# 3 0.007706 -0.005154 0.018800 0.015518 0.024092 -0.012413
# 4 0.043720 -0.001450 0.015518 0.085261 0.089348 -0.040264
# 5 0.069621 -0.005702 0.024092 0.089348 0.160113 -0.068308
# 6 -0.035313 0.003967 -0.012413 -0.040264 -0.068308 0.070175
#
#
# Mechanical properties :
#
#
# Convention : Reuss Voigt Hill
#
# Bulk Modulus (GPa) = 13.91413 52.91997 33.41705
# Shear Modulus (GPa) = 11.97914 30.33145 21.15529
#
# Velocity S-wave (km/s) = 2.24467 3.57180 2.98298
# Velocity P-wave (km/s) = 3.54549 6.26650 5.09115
#
# Compressibility (1/GPa) = 0.07186940
#
# Stress axis : x y z
#
# Youngs Moduli (GPa) = 21.49809 104.58122 53.19096
#
# Poissons Ratio (x) = 0.42421 -0.40988
# Poissons Ratio (y) = 0.08720 0.27414
# Poissons Ratio (z) = -0.16566 0.53900
#
# Static dielectric constant tensor:
#      x y z
#    x 1.933140 0.068560 -0.005770 
#    y 0.068560 1.929580 0.006770 
#    z -0.005770 0.006770 1.907550 
# 
# From -- ./inp_files/53799.got.cif
#   From: 2010.05.17/outbox.ucp.g08.bks.cvg/sg2_27_cif.got.tgz:53799.got - 2010.06.11 11:32:03.
