data_PCOD9073450
_publ_section_title
;
Structure prediction by ZEFSAII (Michael W. Deem and Ramdas Pophale) SiO2 
 PCOD9073450
Probable space group: P -1
;
_chemical_formula_sum "Si O2"
_cell_formula_units_Z 16
_cell_length_a 14.065441
_cell_length_b 14.479129
_cell_length_c 7.295631
_cell_angle_alpha 76.746938
_cell_angle_beta 76.058530
_cell_angle_gamma 26.916202
_cell_volume 652.434529
_symmetry_space_group_name_H-M "P -1"
_symmetry_group_IT_number 2
_symmetry_cell_setting 'triclinic'
loop_
_space_group_symop_operation_xyz
x,y,z
-x,-y,-z
loop_
_atom_site_type_symbol
_atom_site_label
_atom_site_fract_x
_atom_site_fract_y
_atom_site_fract_z
Si Si1 0.480072 0.847780 0.643863
Si Si2 0.127150 0.051157 0.144364
Si Si3 0.648495 0.753445 0.220119
Si Si4 0.585838 0.598544 0.258737
Si Si5 0.622567 0.531865 0.703374
Si Si6 0.720476 0.886976 0.048060
Si Si7 0.926352 0.920357 0.415523
Si Si8 0.770725 0.244399 0.177923
O O1 0.599261 0.789451 0.441991
O O2 0.619581 0.639005 0.741204
O O3 0.427411 0.964555 0.775622
O O4 0.258830 0.988886 0.617520
O O5 0.054351 0.117110 0.360281
O O6 0.991423 0.095747 0.064317
O O7 0.364998 0.810050 0.165958
O O8 0.121513 0.160656 0.013547
O O9 0.705303 0.597903 0.202620
O O10 0.796124 0.714704 0.115107
O O11 0.427558 0.970490 0.125214
O O12 0.555180 0.603514 0.487679
O O13 0.682338 0.420738 0.213186
O O14 0.442656 0.625310 0.844109
O O15 0.850917 0.290937 0.688016
O O16 0.862746 0.084318 0.343311
#
# Coordination Sequence:
#
# PCOD9073450 Si02
#       8
#     2   2   2   2   2   2   2   2
#     4  10  20  39  63  88 122 161 192 245 300 354
#     4  11  20  33  55  89 119 156 198 248 293 350
#     4   9  19  38  63  94 113 157 204 242 297 362
#     4  10  18  31  54  89 118 149 204 244 288 352
#     4  10  20  32  55  88 121 156 202 241 287 362
#     4  10  20  38  64  90 122 153 200 249 302 349
#     4  11  20  34  58  90 123 156 204 240 294 363
#     4  11  20  31  58  91 119 162 203 242 296 355
#
# _framework density 24.523534999999999
#
# number of rings (size 3 to 8) (size 9 to 14) (size 15 to 20)
#    0.000    1.750    6.250    1.875    0.000    0.000 
#    0.000    5.625    0.000   23.250    0.000    0.000 
#    0.000    0.000    0.000    0.000    0.000    0.000 
#
# Total GULP energy -89346.410643 kJ/mol
# GULP energy per Si atom -5584.150665 kJ/mol
# Density = 2.446772 g / cm^3
# Si number density = 24.523535 Si / 1000 Ang^3
#
#
#
# Elastic Constant Matrix: (Units=GPa)
#
#
# Indices 1 2 3 4 5 6 
#
# 1 111.4886 33.5638 43.1352 -12.3662 -29.5180 25.3102
# 2 33.5638 116.9795 20.8659 -12.6742 -3.0579 7.0945
# 3 43.1352 20.8659 101.6324 -23.7021 -6.9563 10.0121
# 4 -12.3662 -12.6742 -23.7021 -0.4669 20.7106 -10.8493
# 5 -29.5180 -3.0579 -6.9563 20.7106 41.4862 3.6629
# 6 25.3102 7.0945 10.0121 -10.8493 3.6629 28.4573
#
#
#
# Elastic Compliance Matrix: (Units=1/GPa)
#
#
# Indices 1 2 3 4 5 6 
#
# 1 0.013715 -0.001691 -0.001311 0.014439 0.002750 -0.006165
# 2 -0.001691 0.009062 -0.001826 -0.004119 0.001379 -0.001861
# 3 -0.001311 -0.001826 0.009590 -0.009285 0.005708 -0.006027
# 4 0.014439 -0.004119 -0.009285 -0.036838 0.029129 -0.026342
# 5 0.002750 0.001379 0.005708 0.029129 0.012159 0.004742
# 6 -0.006165 -0.001861 -0.006027 -0.026342 0.004742 0.032554
#
#
# Mechanical properties :
#
#
# Convention : Reuss Voigt Hill
#
# Bulk Modulus (GPa) = 44.03086 58.35891 51.19489
# Shear Modulus (GPa) = 87.00477 29.39770 58.20123
#
# Velocity S-wave (km/s) = 5.96281 3.46606 4.87692
# Velocity P-wave (km/s) = 8.08705 6.31402 7.25490
#
# Compressibility (1/GPa) = 0.02271134
#
# Stress axis : x y z
#
# Youngs Moduli (GPa) = 72.91271 110.35084 104.27887
#
# Poissons Ratio (x) = 0.18662 0.13670
# Poissons Ratio (y) = 0.12331 0.19037
# Poissons Ratio (z) = 0.09558 0.20146
#
# Static dielectric constant tensor:
#      x y z
#    x 1.985390 -0.033990 -0.019490 
#    y -0.033990 2.015630 0.035730 
#    z -0.019490 0.035730 1.965500 
# 
# From -- ./inp_files/312953.got.cif
#   From: 2010.05.17/outbox.cif.g08.bks.cpg/sg2_157_cif.got.tgz:312953.got - 2010.06.03 11:33:40.
