data_PCOD9073467
_publ_section_title
;
Structure prediction by ZEFSAII (Michael W. Deem and Ramdas Pophale) SiO2 
 PCOD9073467
Probable space group: P -1
;
_chemical_formula_sum "Si O2"
_cell_formula_units_Z 14
_cell_length_a 6.968294
_cell_length_b 8.140633
_cell_length_c 17.103799
_cell_angle_alpha 114.300351
_cell_angle_beta 44.611131
_cell_angle_gamma 122.455579
_cell_volume 574.248329
_symmetry_space_group_name_H-M "P -1"
_symmetry_group_IT_number 2
_symmetry_cell_setting 'triclinic'
loop_
_space_group_symop_operation_xyz
x,y,z
-x,-y,-z
loop_
_atom_site_type_symbol
_atom_site_label
_atom_site_fract_x
_atom_site_fract_y
_atom_site_fract_z
Si Si1 0.178373 0.025337 0.570911
Si Si2 0.741396 0.009037 0.815631
Si Si3 0.295764 0.691959 0.615795
Si Si4 0.384687 0.720127 0.986490
Si Si5 0.094707 0.305716 0.528779
Si Si6 0.225878 0.903111 0.827247
Si Si7 0.179951 0.285984 0.950840
O O1 0.516040 0.149263 0.472226
O O2 0.017450 0.144475 0.588449
O O3 0.057401 0.040223 0.694367
O O4 0.065659 0.811784 0.523232
O O5 0.504070 0.899238 0.796109
O O6 0.680906 0.200600 0.896067
O O7 0.655828 0.878963 0.893136
O O8 0.061056 0.500819 0.606130
O O9 0.550839 0.631843 0.571125
O O10 0.193473 0.791722 0.734402
O O11 0.099990 0.710197 0.016008
O O12 0.396424 0.508561 0.940397
O O13 0.281633 0.130592 0.848024
O O14 0.944784 0.801879 0.945265
#
# Coordination Sequence:
#
# PCOD9073467 Si02
#       7
#     2   2   2   2   2   2   2
#     4   9  15  28  46  75 105 126 164 212 249 299
#     4  10  18  31  55  74  99 133 169 209 246 301
#     4   9  16  27  46  77 106 125 160 215 261 292
#     4   9  20  35  50  71 102 138 170 195 255 314
#     4   8  15  25  43  74 107 125 158 206 261 299
#     4  10  18  32  54  77 101 124 170 219 253 286
#     4   9  20  35  50  74 101 134 167 210 252 303
#
# _framework density 24.379697
#
# number of rings (size 3 to 8) (size 9 to 14) (size 15 to 20)
#    0.857    2.000    1.429    0.000    2.000    0.571 
#    2.571    0.000    0.000    1.714    0.000    0.000 
#    0.000    0.000    0.000    0.000    0.000    0.000 
#
# Total GULP energy -78219.940473 kJ/mol
# GULP energy per Si atom -5587.138605 kJ/mol
# Density = 2.432421 g / cm^3
# Si number density = 24.379697 Si / 1000 Ang^3
#
#
#
# Elastic Constant Matrix: (Units=GPa)
#
#
# Indices 1 2 3 4 5 6 
#
# 1 64.0691 7.1073 22.8635 9.6318 4.8875 1.3564
# 2 7.1073 137.8007 77.2980 48.8591 18.0845 11.2453
# 3 22.8635 77.2980 195.0197 33.6913 14.2482 10.4085
# 4 9.6318 48.8591 33.6913 42.7687 5.9847 2.1835
# 5 4.8875 18.0845 14.2482 5.9847 27.5812 -0.4713
# 6 1.3564 11.2453 10.4085 2.1835 -0.4713 23.6553
#
#
#
# Elastic Compliance Matrix: (Units=1/GPa)
#
#
# Indices 1 2 3 4 5 6 
#
# 1 0.016893 0.002098 -0.001833 -0.004368 -0.002488 -0.000806
# 2 0.002098 0.015037 -0.003092 -0.014186 -0.005636 -0.004711
# 3 -0.001833 -0.003092 0.006940 -0.001316 -0.000971 -0.001376
# 4 -0.004368 -0.014186 -0.001316 0.041148 0.001892 0.003812
# 5 -0.002488 -0.005636 -0.000971 0.001892 0.040551 0.003883
# 6 -0.000806 -0.004711 -0.001376 0.003812 0.003883 0.044891
#
#
# Mechanical properties :
#
#
# Convention : Reuss Voigt Hill
#
# Bulk Modulus (GPa) = 30.10614 67.93636 49.02125
# Shear Modulus (GPa) = 27.44464 38.10908 32.77686
#
# Velocity S-wave (km/s) = 3.35881 3.95796 3.67063
# Velocity P-wave (km/s) = 5.23620 6.98668 6.17379
#
# Compressibility (1/GPa) = 0.03321581
#
# Stress axis : x y z
#
# Youngs Moduli (GPa) = 59.19641 66.50266 144.09674
#
# Poissons Ratio (x) = -0.13950 0.26406
# Poissons Ratio (y) = -0.12417 0.44556
# Poissons Ratio (z) = 0.10848 0.20563
#
# Static dielectric constant tensor:
#      x y z
#    x 2.107790 -0.055370 -0.034310 
#    y -0.055370 1.942720 0.007030 
#    z -0.034310 0.007030 1.912940 
# 
# From -- ./inp_files/555574.got.cif
#   From: 2010.05.17/outbox.cif.g08.bks.cpg/sg2_278_cif.got.tgz:555574.got - 2010.06.03 11:33:40.
