data_PCOD9073690
_publ_section_title
;
Structure prediction by ZEFSAII (Michael W. Deem and Ramdas Pophale) SiO2 
 PCOD9073690
Probable space group: P -1
;
_chemical_formula_sum "Si O2"
_cell_formula_units_Z 16
_cell_length_a 9.000000
_cell_length_b 15.000000
_cell_length_c 15.000000
_cell_angle_alpha 30.000000
_cell_angle_beta 90.000000
_cell_angle_gamma 70.000000
_cell_volume 738.562284
_symmetry_space_group_name_H-M "P -1"
_symmetry_group_IT_number 2
_symmetry_cell_setting 'triclinic'
loop_
_space_group_symop_operation_xyz
x,y,z
-x,-y,-z
loop_
_atom_site_type_symbol
_atom_site_label
_atom_site_fract_x
_atom_site_fract_y
_atom_site_fract_z
Si Si1 0.932042 0.431696 0.306712
Si Si2 0.829519 0.512749 0.533207
Si Si3 0.050978 0.171867 0.999725
Si Si4 0.859533 0.711364 0.745472
Si Si5 0.685164 0.387457 0.482082
Si Si6 0.376768 0.647221 0.120211
Si Si7 0.512326 0.176432 0.448459
Si Si8 0.379358 0.057479 0.714760
O O1 0.877923 0.688992 0.087008
O O2 0.795633 0.405639 0.384799
O O3 0.987993 0.337953 0.286705
O O4 0.149417 0.247428 0.514034
O O5 0.731360 0.467782 0.498236
O O6 0.651546 0.785117 0.338079
O O7 0.000000 0.500000 0.500000
O O8 0.956862 0.296292 0.794659
O O9 0.855066 0.233726 0.991641
O O10 0.225040 0.881727 0.264561
O O11 0.696089 0.708787 0.702457
O O12 0.709427 0.975349 0.563407
O O13 0.000000 0.500000 0.000000
O O14 0.453727 0.571408 0.288225
O O15 0.501512 0.390085 0.292502
O O16 0.417119 0.817601 0.941589
O O17 0.510192 0.046734 0.647144
#
# Coordination Sequence:
#
# PCOD9073690 Si02
#       8
#     2   2   2   2   2   2   2   2
#     4  10  21  45  65  93 132 174 214 270 331 389
#     4  11  20  44  68  96 131 183 220 266 327 384
#     4  11  22  45  66  91 140 174 213 279 323 383
#     4  10  22  41  75  92 124 177 222 262 333 399
#     4  12  26  38  69 102 128 177 229 261 330 390
#     4  12  24  40  68  99 133 173 216 272 328 389
#     4  10  23  46  62  98 133 170 214 274 333 387
#     4  10  21  42  68  87 140 175 211 269 332 375
#
# _framework density 21.663710999999999
#
# number of rings (size 3 to 8) (size 9 to 14) (size 15 to 20)
#    0.000    1.250    7.500    0.375    3.500    1.000 
#    0.000    7.500    0.000    0.000    0.000    0.000 
#    0.000    0.000    0.000    0.000    0.000    0.000 
#
# Total GULP energy -89360.899331 kJ/mol
# GULP energy per Si atom -5585.056208 kJ/mol
# Density = 2.161440 g / cm^3
# Si number density = 21.663711 Si / 1000 Ang^3
#
#
#
# Elastic Constant Matrix: (Units=GPa)
#
#
# Indices 1 2 3 4 5 6 
#
# 1 62.2161 38.8827 44.2176 -3.4474 -26.2613 0.6939
# 2 38.8827 111.5378 49.5759 2.7629 -23.6458 -5.3999
# 3 44.2176 49.5759 142.9814 -1.4893 -37.1922 19.7885
# 4 -3.4474 2.7629 -1.4893 19.1706 10.0332 -7.7081
# 5 -26.2613 -23.6458 -37.1922 10.0332 48.2664 3.8859
# 6 0.6939 -5.3999 19.7885 -7.7081 3.8859 33.2579
#
#
#
# Elastic Compliance Matrix: (Units=1/GPa)
#
#
# Indices 1 2 3 4 5 6 
#
# 1 0.025814 -0.005534 -0.004003 0.001034 0.008015 0.000248
# 2 -0.005534 0.012615 -0.002783 -0.002456 0.001286 0.003100
# 3 -0.004003 -0.002783 0.013057 -0.008639 0.009219 -0.011217
# 4 0.001034 -0.002456 -0.008639 0.075157 -0.024938 0.025053
# 5 0.008015 0.001286 0.009219 -0.024938 0.039270 -0.015812
# 6 0.000248 0.003100 -0.011217 0.025053 -0.015812 0.044894
#
#
# Mechanical properties :
#
#
# Convention : Reuss Voigt Hill
#
# Bulk Modulus (GPa) = 37.24877 64.67642 50.96259
# Shear Modulus (GPa) = 20.45863 32.40958 26.43410
#
# Velocity S-wave (km/s) = 3.07640 3.87205 3.49693
# Velocity P-wave (km/s) = 5.46355 7.06470 6.31507
#
# Compressibility (1/GPa) = 0.02684652
#
# Stress axis : x y z
#
# Youngs Moduli (GPa) = 38.73840 79.26945 76.58613
#
# Poissons Ratio (x) = 0.43870 0.30657
# Poissons Ratio (y) = 0.21439 0.21312
# Poissons Ratio (z) = 0.15507 0.22059
#
# Static dielectric constant tensor:
#      x y z
#    x 1.786510 -0.004030 0.019450 
#    y -0.004030 1.873510 -0.011130 
#    z 0.019450 -0.011130 1.778900 
# 
# From -- ./inp_files/505018.got.cif
#   From: 2010.05.17/outbox.ucp.g08.bks.cvg/sg2_253_cif.got.tgz:505018.got - 2010.06.11 11:32:03.
