data_PCOD9073766
_publ_section_title
;
Structure prediction by ZEFSAII (Michael W. Deem and Ramdas Pophale) SiO2 
 PCOD9073766
Probable space group: P -1
;
_chemical_formula_sum "Si O2"
_cell_formula_units_Z 16
_cell_length_a 15.000000
_cell_length_b 12.000000
_cell_length_c 9.000000
_cell_angle_alpha 120.000000
_cell_angle_beta 120.000000
_cell_angle_gamma 110.000000
_cell_volume 745.925389
_symmetry_space_group_name_H-M "P -1"
_symmetry_group_IT_number 2
_symmetry_cell_setting 'triclinic'
loop_
_space_group_symop_operation_xyz
x,y,z
-x,-y,-z
loop_
_atom_site_type_symbol
_atom_site_label
_atom_site_fract_x
_atom_site_fract_y
_atom_site_fract_z
Si Si1 0.422833 0.284076 0.738677
Si Si2 0.673992 0.721971 0.863139
Si Si3 0.260894 0.451133 0.994980
Si Si4 0.708424 0.995850 0.289868
Si Si5 0.825012 0.350388 0.455775
Si Si6 0.125137 0.008630 0.077779
Si Si7 0.923794 0.604826 0.458344
Si Si8 0.052500 0.404819 0.998820
O O1 0.411070 0.172946 0.790981
O O2 0.246074 0.117269 0.394075
O O3 0.500000 0.500000 0.000000
O O4 0.549286 0.354947 0.769228
O O5 0.500000 0.500000 0.500000
O O6 0.778198 0.843985 0.885073
O O7 0.753073 0.696137 0.025682
O O8 0.676782 0.859794 0.044608
O O9 0.152978 0.366254 0.698993
O O10 0.206635 0.509603 0.099539
O O11 0.702569 0.132222 0.299489
O O12 0.892538 0.171265 0.641530
O O13 0.787965 0.389370 0.297399
O O14 0.971107 0.394312 0.552489
O O15 0.885403 0.523504 0.732716
O O16 0.000000 0.000000 0.000000
O O17 0.041827 0.795972 0.801490
O O18 0.000000 0.500000 0.000000
#
# Coordination Sequence:
#
# PCOD9073766 Si02
#       8
#     2   2   2   2   2   2   2   2
#     4  12  25  45  65 103 149 179 226 290 358 424
#     4  12  25  45  69 103 147 181 224 294 368 424
#     4  12  24  44  71 103 144 183 227 294 363 408
#     4  11  22  44  72  95 137 184 233 285 349 419
#     4  10  22  44  68  99 138 178 241 293 333 405
#     4  12  26  42  69 109 137 183 235 290 354 426
#     4  11  23  42  73 100 135 182 241 290 343 413
#     4  10  21  43  71 102 130 184 241 284 337 412
#
# _framework density 21.449867000000001
#
# number of rings (size 3 to 8) (size 9 to 14) (size 15 to 20)
#    0.000    0.750    6.250    1.500    3.500    1.000 
#    0.000    3.125    2.750    0.000    0.000    0.000 
#    0.000    0.000    0.000    0.000    0.000    0.000 
#
# Total GULP energy -89169.545066 kJ/mol
# GULP energy per Si atom -5573.096567 kJ/mol
# Density = 2.140105 g / cm^3
# Si number density = 21.449867 Si / 1000 Ang^3
#
#
#
# Elastic Constant Matrix: (Units=GPa)
#
#
# Indices 1 2 3 4 5 6 
#
# 1 103.2679 19.1869 46.2488 10.5117 -12.9503 16.1725
# 2 19.1869 185.9184 28.9238 2.2386 0.9041 23.2527
# 3 46.2488 28.9238 108.3089 -5.6763 -30.1217 -10.3104
# 4 10.5117 2.2386 -5.6763 31.7044 -0.0708 3.4757
# 5 -12.9503 0.9041 -30.1217 -0.0708 31.0244 -5.5442
# 6 16.1725 23.2527 -10.3104 3.4757 -5.5442 24.6579
#
#
#
# Elastic Compliance Matrix: (Units=1/GPa)
#
#
# Indices 1 2 3 4 5 6 
#
# 1 0.018038 0.003100 -0.013624 -0.006276 -0.009688 -0.021744
# 2 0.003100 0.008065 -0.007327 -0.001344 -0.008642 -0.014456
# 3 -0.013624 -0.007327 0.028236 0.006535 0.027852 0.032993
# 4 -0.006276 -0.001344 0.006535 0.034426 0.004611 0.004300
# 5 -0.009688 -0.008642 0.027852 0.004611 0.062564 0.039567
# 6 -0.021744 -0.014456 0.032993 0.004300 0.039567 0.090535
#
#
# Mechanical properties :
#
#
# Convention : Reuss Voigt Hill
#
# Bulk Modulus (GPa) = 53.65463 65.13491 59.39477
# Shear Modulus (GPa) = 17.61940 37.68638 27.65289
#
# Velocity S-wave (km/s) = 2.86916 4.19615 3.59442
# Velocity P-wave (km/s) = 6.00369 7.34227 6.70646
#
# Compressibility (1/GPa) = 0.01863772
#
# Stress axis : x y z
#
# Youngs Moduli (GPa) = 55.43798 123.99370 35.41546
#
# Poissons Ratio (x) = -0.38440 0.48249
# Poissons Ratio (y) = -0.17187 0.25950
# Poissons Ratio (z) = 0.75526 0.90855
#
# Static dielectric constant tensor:
#      x y z
#    x 1.743650 0.006960 0.009650 
#    y 0.006960 1.940170 0.077520 
#    z 0.009650 0.077520 1.883620 
# 
# From -- ./inp_files/308377.got.cif
#   From: 2010.05.17/outbox.ucp.g08.bks.cvg/sg2_155_cif.got.tgz:308377.got - 2010.06.11 11:32:03.
