data_PCOD9073962
_publ_section_title
;
Structure prediction by ZEFSAII (Michael W. Deem and Ramdas Pophale) SiO2 
 PCOD9073962
Probable space group: P -1
;
_chemical_formula_sum "Si O2"
_cell_formula_units_Z 13
_cell_length_a 14.439753
_cell_length_b 13.098462
_cell_length_c 7.381284
_cell_angle_alpha 62.986834
_cell_angle_beta 79.515922
_cell_angle_gamma 26.907035
_cell_volume 468.866928
_symmetry_space_group_name_H-M "P -1"
_symmetry_group_IT_number 2
_symmetry_cell_setting 'triclinic'
loop_
_space_group_symop_operation_xyz
x,y,z
-x,-y,-z
loop_
_atom_site_type_symbol
_atom_site_label
_atom_site_fract_x
_atom_site_fract_y
_atom_site_fract_z
Si Si1 0.649602 0.707322 0.884334
Si Si2 0.065627 0.909300 0.337260
Si Si3 0.738092 0.562473 0.350449
Si Si4 0.091475 0.501045 0.348743
Si Si5 0.846014 0.945389 0.851175
Si Si6 0.500000 0.500000 0.000000
Si Si7 0.693949 0.041188 0.457705
O O1 0.439243 0.897286 0.677741
O O2 0.792061 0.648708 0.772938
O O3 0.586075 0.781501 0.057556
O O4 0.871317 0.364890 0.070975
O O5 0.228468 0.611711 0.505326
O O6 0.801371 0.192061 0.109101
O O7 0.000000 0.000000 0.500000
O O8 0.217823 0.850709 0.267401
O O9 0.703291 0.665930 0.468656
O O10 0.017771 0.286895 0.424663
O O11 0.000000 0.500000 0.500000
O O12 0.882075 0.831577 0.111232
O O13 0.697895 0.040211 0.677578
O O14 0.416373 0.712040 0.758224
#
# Coordination Sequence:
#
# PCOD9073962 Si02
#       7
#     2   2   2   2   2   1   2
#     4   9  19  38  56  82 113 146 186 233 281 332
#     4  11  15  30  54  85 115 147 178 222 282 339
#     4  10  21  35  61  87 110 151 189 228 284 345
#     4  10  22  43  60  77 113 154 193 241 284 322
#     4   9  19  33  55  81 116 149 178 231 281 329
#     4  10  14  22  54  82 108 158 172 210 280 336
#     4  10  17  33  58  83 118 146 186 224 282 342
#
# _framework density 27.726413000000001
#
# number of rings (size 3 to 8) (size 9 to 14) (size 15 to 20)
#    0.923    1.231    6.154    0.000    0.000    1.231 
#    2.769    1.538    0.000    2.769    0.000    0.000 
#    0.000    0.000    0.000    0.000    0.000    0.000 
#
# Total GULP energy -72409.776315 kJ/mol
# GULP energy per Si atom -5569.982793 kJ/mol
# Density = 2.766331 g / cm^3
# Si number density = 27.726413 Si / 1000 Ang^3
#
#
#
# Elastic Constant Matrix: (Units=GPa)
#
#
# Indices 1 2 3 4 5 6 
#
# 1 114.9340 14.8176 85.2837 8.2910 -20.1646 -1.4211
# 2 14.8176 78.0551 27.0677 6.4468 9.2295 1.0686
# 3 85.2837 27.0677 192.7617 26.7821 -9.5412 -3.7259
# 4 8.2910 6.4468 26.7821 44.0917 -10.4196 4.8217
# 5 -20.1646 9.2295 -9.5412 -10.4196 55.8919 -4.3484
# 6 -1.4211 1.0686 -3.7259 4.8217 -4.3484 27.5586
#
#
#
# Elastic Compliance Matrix: (Units=1/GPa)
#
#
# Indices 1 2 3 4 5 6 
#
# 1 0.014081 -0.001300 -0.006135 0.002351 0.004707 0.000278
# 2 -0.001300 0.014087 -0.001358 -0.001685 -0.003422 -0.001042
# 3 -0.006135 -0.001358 0.008668 -0.004360 -0.001207 0.001480
# 4 0.002351 -0.001685 -0.004360 0.026794 0.005043 -0.004295
# 5 0.004707 -0.003422 -0.001207 0.005043 0.021096 0.002659
# 6 0.000278 -0.001042 0.001480 -0.004295 0.002659 0.037712
#
#
# Mechanical properties :
#
#
# Convention : Reuss Voigt Hill
#
# Bulk Modulus (GPa) = 51.95361 71.12098 61.53729
# Shear Modulus (GPa) = 34.14338 42.74724 38.44531
#
# Velocity S-wave (km/s) = 3.51299 3.93077 3.72774
# Velocity P-wave (km/s) = 5.93578 6.80500 6.38520
#
# Compressibility (1/GPa) = 0.01924794
#
# Stress axis : x y z
#
# Youngs Moduli (GPa) = 71.01994 70.98527 115.37217
#
# Poissons Ratio (x) = 0.09228 0.70786
# Poissons Ratio (y) = 0.09232 0.15673
# Poissons Ratio (z) = 0.43574 0.09643
#
# Static dielectric constant tensor:
#      x y z
#    x 2.223670 -0.036840 0.044690 
#    y -0.036840 2.282830 0.045490 
#    z 0.044690 0.045490 2.128190 
# 
# From -- ./inp_files/309872.got.cif
#   From: 2010.05.17/outbox.cif.g08.bks.cpg/sg2_155_cif.got.tgz:309872.got - 2010.06.03 11:33:40.
