data_PCOD9073847
_publ_section_title
;
Structure prediction by ZEFSAII (Michael W. Deem and Ramdas Pophale) SiO2 
 PCOD9073847
Probable space group: P -1
;
_chemical_formula_sum "Si O2"
_cell_formula_units_Z 16
_cell_length_a 9.814963
_cell_length_b 11.414904
_cell_length_c 11.925215
_cell_angle_alpha 70.849106
_cell_angle_beta 49.465578
_cell_angle_gamma 77.061113
_cell_volume 959.126632
_symmetry_space_group_name_H-M "P -1"
_symmetry_group_IT_number 2
_symmetry_cell_setting 'triclinic'
loop_
_space_group_symop_operation_xyz
x,y,z
-x,-y,-z
loop_
_atom_site_type_symbol
_atom_site_label
_atom_site_fract_x
_atom_site_fract_y
_atom_site_fract_z
Si Si1 0.431798 0.151052 0.813423
Si Si2 0.098422 0.170375 0.379320
Si Si3 0.925150 0.383231 0.514337
Si Si4 0.434573 0.049577 0.355420
Si Si5 0.690049 0.169231 0.347561
Si Si6 0.810988 0.137220 0.725884
Si Si7 0.601924 0.372496 0.516010
Si Si8 0.081445 0.108509 0.148272
O O1 0.601832 0.125843 0.813164
O O2 0.479079 0.274546 0.679917
O O3 0.433306 0.034507 0.764520
O O4 0.246420 0.160330 0.974530
O O5 0.282086 0.112284 0.342622
O O6 0.082745 0.157006 0.260231
O O7 0.081637 0.312095 0.384393
O O8 0.926814 0.114291 0.555991
O O9 0.855474 0.281276 0.673877
O O10 0.766023 0.401739 0.503373
O O11 0.000000 0.500000 0.500000
O O12 0.537908 0.150417 0.341685
O O13 0.338635 0.949676 0.518419
O O14 0.668038 0.292472 0.396925
O O15 0.886650 0.149256 0.196287
O O16 0.882378 0.039505 0.808805
O O17 0.500000 0.500000 0.500000
#
# Coordination Sequence:
#
# PCOD9073847 Si02
#       8
#     2   2   2   2   2   2   2   2
#     4  10  21  33  54  83 111 137 172 221 266 327
#     4  10  18  31  58  79 105 135 178 221 258 319
#     4   9  19  33  55  80 101 132 183 224 248 300
#     4  10  19  33  51  82 110 135 180 214 270 307
#     4  10  20  34  54  76 108 144 176 222 253 320
#     4   9  18  31  54  83 106 136 175 215 261 321
#     4  10  21  38  56  76 103 142 186 216 258 313
#     4  12  18  33  57  81 111 140 168 217 286 310
#
# _framework density 16.681844999999999
#
# number of rings (size 3 to 8) (size 9 to 14) (size 15 to 20)
#    0.750    1.250    3.750    1.500    1.750    0.500 
#    2.250    0.625    0.000    3.000    0.000    0.000 
#    0.000    0.000    0.000    0.000    0.000    0.000 
#
# Total GULP energy -89092.225108 kJ/mol
# GULP energy per Si atom -5568.264069 kJ/mol
# Density = 1.664388 g / cm^3
# Si number density = 16.681845 Si / 1000 Ang^3
#
#
#
# Elastic Constant Matrix: (Units=GPa)
#
#
# Indices 1 2 3 4 5 6 
#
# 1 66.1498 50.3675 14.6450 -2.7037 -13.3745 3.0256
# 2 50.3675 116.5630 16.3377 -6.2194 -10.1599 5.4313
# 3 14.6450 16.3377 78.7143 7.5199 -23.5340 -0.4104
# 4 -2.7037 -6.2194 7.5199 10.9378 -5.4421 -2.0198
# 5 -13.3745 -10.1599 -23.5340 -5.4421 18.2296 0.4759
# 6 3.0256 5.4313 -0.4104 -2.0198 0.4759 33.3226
#
#
#
# Elastic Compliance Matrix: (Units=1/GPa)
#
#
# Indices 1 2 3 4 5 6 
#
# 1 0.026100 -0.009356 0.001947 0.009261 0.019226 -0.000534
# 2 -0.009356 0.013257 -0.001452 0.006328 0.000564 -0.000954
# 3 0.001947 -0.001452 0.020905 -0.001181 0.027258 -0.000144
# 4 0.009261 0.006328 -0.001181 0.121355 0.044898 0.004828
# 5 0.019226 0.000564 0.027258 0.044898 0.117881 -0.000464
# 6 -0.000534 -0.000954 -0.000144 0.004828 -0.000464 0.030511
#
#
# Mechanical properties :
#
#
# Convention : Reuss Voigt Hill
#
# Bulk Modulus (GPa) = 23.50753 47.12529 35.31641
# Shear Modulus (GPa) = 13.81552 24.50312 19.15932
#
# Velocity S-wave (km/s) = 2.88093 3.83672 3.39265
# Velocity P-wave (km/s) = 5.01883 6.92372 6.04676
#
# Compressibility (1/GPa) = 0.04253956
#
# Stress axis : x y z
#
# Youngs Moduli (GPa) = 38.31368 75.43435 47.83533
#
# Poissons Ratio (x) = 0.70578 -0.09312
# Poissons Ratio (y) = 0.35847 0.06944
# Poissons Ratio (z) = -0.07458 0.10951
#
# Static dielectric constant tensor:
#      x y z
#    x 1.562030 -0.002100 -0.001300 
#    y -0.002100 1.590720 0.000240 
#    z -0.001300 0.000240 1.562530 
# 
# From -- ./inp_files/389958.got.cif
#   From: 2010.05.17/outbox.cif.g08.bks.cpg/sg2_195_cif.got.tgz:389958.got - 2010.06.03 11:33:40.
