data_PCOD9073007
_publ_section_title
;
Structure prediction by ZEFSAII (Michael W. Deem and Ramdas Pophale) SiO2 
 PCOD9073007
Probable space group: P -1
;
_chemical_formula_sum "Si O2"
_cell_formula_units_Z 16
_cell_length_a 15.000000
_cell_length_b 9.000000
_cell_length_c 15.000000
_cell_angle_alpha 90.000000
_cell_angle_beta 140.000000
_cell_angle_gamma 60.000000
_cell_volume 817.999524
_symmetry_space_group_name_H-M "P -1"
_symmetry_group_IT_number 2
_symmetry_cell_setting 'triclinic'
loop_
_space_group_symop_operation_xyz
x,y,z
-x,-y,-z
loop_
_atom_site_type_symbol
_atom_site_label
_atom_site_fract_x
_atom_site_fract_y
_atom_site_fract_z
Si Si1 0.493141 0.949688 0.149534
Si Si2 0.858350 0.664734 0.802958
Si Si3 0.449196 0.792944 0.441537
Si Si4 0.714549 0.472066 0.377418
Si Si5 0.197942 0.154885 0.752603
Si Si6 0.591967 0.325749 0.149301
Si Si7 0.492260 0.546448 0.633084
Si Si8 0.700111 0.595793 0.931897
O O1 0.532025 0.754279 0.221695
O O2 0.699422 0.824105 0.244504
O O3 0.439917 0.131348 0.175815
O O4 0.299653 0.104973 0.927222
O O5 0.693064 0.669394 0.642639
O O6 0.707496 0.937568 0.702938
O O7 0.000000 0.500000 0.000000
O O8 0.047537 0.559955 0.878511
O O9 0.396545 0.751467 0.493740
O O10 0.425104 0.670045 0.357027
O O11 0.717825 0.345536 0.302862
O O12 0.677514 0.395598 0.432851
O O13 0.937860 0.376434 0.556355
O O14 0.267169 0.929739 0.778277
O O15 0.394689 0.413047 0.055084
O O16 0.500000 0.500000 0.000000
O O17 0.656202 0.511156 0.819521
#
# Coordination Sequence:
#
# PCOD9073007 Si02
#       8
#     2   2   2   2   2   2   2   2
#     4  10  22  39  60  87 129 157 212 260 292 377
#     4  11  23  43  70  93 122 168 210 256 321 370
#     4  10  24  45  65  91 130 159 209 265 307 382
#     4  11  22  37  64  90 121 167 209 254 313 367
#     4  10  21  39  58  89 121 168 207 250 312 362
#     4  10  20  40  61  87 131 161 205 258 307 370
#     4  10  23  44  60  95 129 159 208 262 313 372
#     4  10  23  41  63  93 126 165 208 256 313 370
#
# _framework density 19.559913999999999
#
# number of rings (size 3 to 8) (size 9 to 14) (size 15 to 20)
#    0.000    1.750    2.500    0.750    3.500    1.500 
#    0.000    0.000    0.000    0.000    0.000    0.000 
#    0.000    0.000    0.000    0.000    0.000    0.000 
#
# Total GULP energy -89112.559990 kJ/mol
# GULP energy per Si atom -5569.534999 kJ/mol
# Density = 1.951539 g / cm^3
# Si number density = 19.559914 Si / 1000 Ang^3
#
#
#
# Elastic Constant Matrix: (Units=GPa)
#
#
# Indices 1 2 3 4 5 6 
#
# 1 62.4442 17.5754 46.9796 5.1947 -5.7550 19.1972
# 2 17.5754 117.6260 25.7105 14.9747 -9.9048 21.3178
# 3 46.9796 25.7105 79.6354 1.9088 10.8240 1.4795
# 4 5.1947 14.9747 1.9088 24.3440 10.9217 -1.8461
# 5 -5.7550 -9.9048 10.8240 10.9217 28.5199 0.1285
# 6 19.1972 21.3178 1.4795 -1.8461 0.1285 32.6298
#
#
#
# Elastic Compliance Matrix: (Units=1/GPa)
#
#
# Indices 1 2 3 4 5 6 
#
# 1 0.224467 0.084801 -0.181482 -0.199431 0.220857 -0.191388
# 2 0.084801 0.046803 -0.074584 -0.090724 0.096788 -0.082601
# 3 -0.181482 -0.074584 0.162476 0.168940 -0.189597 0.158437
# 4 -0.199431 -0.090724 0.168940 0.243234 -0.229842 0.183610
# 5 0.220857 0.096788 -0.189597 -0.229842 0.274114 -0.198658
# 6 -0.191388 -0.082601 0.158437 0.183610 -0.198658 0.201198
#
#
# Mechanical properties :
#
#
# Convention : Reuss Voigt Hill
#
# Bulk Modulus (GPa) = 10.96278 48.91518 29.93898
# Shear Modulus (GPa) = 3.27820 28.39476 15.83648
#
# Velocity S-wave (km/s) = 1.29600 3.81423 2.84850
# Velocity P-wave (km/s) = 2.80292 6.66783 5.11450
#
# Compressibility (1/GPa) = 0.09121773
#
# Stress axis : x y z
#
# Youngs Moduli (GPa) = 4.45500 21.36595 6.15475
#
# Poissons Ratio (x) = -1.81186 1.11698
# Poissons Ratio (y) = -0.37779 0.45905
# Poissons Ratio (z) = 0.80850 1.59356
#
# Static dielectric constant tensor:
#      x y z
#    x 1.714440 -0.075690 -0.022510 
#    y -0.075690 1.760350 0.058340 
#    z -0.022510 0.058340 1.723480 
# 
# From -- ./inp_files/307337.got.cif
#   From: 2010.05.17/outbox.ucp.g08.bks.cvg/sg2_154_cif.got.tgz:307337.got - 2010.06.11 11:32:03.
