data_PCOD9073264
_publ_section_title
;
Structure prediction by ZEFSAII (Michael W. Deem and Ramdas Pophale) SiO2 
 PCOD9073264
Probable space group: P -1
;
_chemical_formula_sum "Si O2"
_cell_formula_units_Z 14
_cell_length_a 12.000000
_cell_length_b 12.000000
_cell_length_c 9.000000
_cell_angle_alpha 90.000000
_cell_angle_beta 140.000000
_cell_angle_gamma 110.000000
_cell_volume 705.336177
_symmetry_space_group_name_H-M "P -1"
_symmetry_group_IT_number 2
_symmetry_cell_setting 'triclinic'
loop_
_space_group_symop_operation_xyz
x,y,z
-x,-y,-z
loop_
_atom_site_type_symbol
_atom_site_label
_atom_site_fract_x
_atom_site_fract_y
_atom_site_fract_z
Si Si1 0.729861 0.391212 0.607860
Si Si2 0.362572 0.350377 0.797142
Si Si3 0.593231 0.296251 0.776865
Si Si4 0.759151 0.948037 0.771292
Si Si5 0.006740 0.326102 0.239996
Si Si6 0.289485 0.226165 0.031581
Si Si7 0.073958 0.780774 0.161327
O O1 0.711475 0.404475 0.766658
O O2 0.887834 0.519648 0.681067
O O3 0.506668 0.342544 0.316418
O O4 0.810384 0.292262 0.674856
O O5 0.498595 0.337713 0.809762
O O6 0.145982 0.315393 0.505558
O O7 0.500000 0.500000 0.000000
O O8 0.307932 0.247617 0.875273
O O9 0.403400 0.175528 0.493927
O O10 0.764328 0.267315 0.011879
O O11 0.721797 0.900590 0.904524
O O12 0.752624 0.070060 0.703074
O O13 0.000000 0.000000 0.000000
O O14 0.033105 0.274204 0.108120
O O15 0.096265 0.230087 0.899118
#
# Coordination Sequence:
#
# PCOD9073264 Si02
#       7
#     2   2   2   2   2   2   2
#     4  10  21  37  62  91 117 152 200 253 292 345
#     4  12  25  38  58  88 128 166 188 233 309 361
#     4  10  23  39  60  89 121 151 204 247 292 348
#     4   9  19  42  66  87 115 154 204 253 288 344
#     4  11  23  38  61  92 121 156 200 246 294 354
#     4  10  22  38  59  90 118 158 196 242 293 355
#     4  10  21  39  67  88 113 154 203 250 299 336
#
# _framework density 19.848690999999999
#
# number of rings (size 3 to 8) (size 9 to 14) (size 15 to 20)
#    0.000    1.714    1.429    4.286    4.000    8.000 
#    0.000    6.429    0.000    7.714    0.000    0.000 
#    0.000    0.000    0.000    0.000    0.000    0.000 
#
# Total GULP energy -78046.324688 kJ/mol
# GULP energy per Si atom -5574.737478 kJ/mol
# Density = 1.980351 g / cm^3
# Si number density = 19.848691 Si / 1000 Ang^3
#
#
#
# Elastic Constant Matrix: (Units=GPa)
#
#
# Indices 1 2 3 4 5 6 
#
# 1 79.7630 28.1495 24.8356 -30.3615 18.9866 -6.9964
# 2 28.1495 76.7683 4.3877 -9.6571 -0.6246 8.8940
# 3 24.8356 4.3877 92.4215 -26.3691 21.2538 6.3657
# 4 -30.3615 -9.6571 -26.3691 24.9665 9.3564 -2.4132
# 5 18.9866 -0.6246 21.2538 9.3564 24.6142 1.5420
# 6 -6.9964 8.8940 6.3657 -2.4132 1.5420 21.1842
#
#
#
# Elastic Compliance Matrix: (Units=1/GPa)
#
#
# Indices 1 2 3 4 5 6 
#
# 1 -0.006405 -0.001162 -0.018470 -0.041970 0.037036 -0.003554
# 2 -0.001162 0.015388 0.005272 0.012306 -0.007537 -0.006478
# 3 -0.018470 0.005272 0.005148 -0.023780 0.019853 -0.014015
# 4 -0.041970 0.012306 -0.023780 -0.063284 0.078831 -0.024829
# 5 0.037036 -0.007537 0.019853 0.078831 -0.036561 0.021072
# 6 -0.003554 -0.006478 -0.014015 -0.024829 0.021072 0.048600
#
#
# Mechanical properties :
#
#
# Convention : Reuss Voigt Hill
#
# Bulk Modulus (GPa) = -68.54304 40.41095 -14.06604
# Shear Modulus (GPa) = -377.19675 26.92496 -175.13590
#
# Velocity S-wave (km/s) = -13.80031 3.68708 -9.40357
# Velocity P-wave (km/s) = 16.98644 6.20724 11.18055
#
# Compressibility (1/GPa) = -0.01458937
#
# Stress axis : x y z
#
# Youngs Moduli (GPa) = -156.12786 64.98459 194.24724
#
# Poissons Ratio (x) = 0.07553 3.58784
# Poissons Ratio (y) = -0.18146 -1.02414
# Poissons Ratio (z) = -2.88376 -0.34262
#
# Static dielectric constant tensor:
#      x y z
#    x 1.682520 -0.011660 0.000420 
#    y -0.011660 1.806950 0.034760 
#    z 0.000420 0.034760 1.718340 
# 
# From -- ./inp_files/258742.got.cif
#   From: 2010.05.17/outbox.ucp.g08.bks.cvg/sg2_130_cif.got.tgz:258742.got - 2010.06.11 11:32:03.
