data_PCOD9073272
_publ_section_title
;
Structure prediction by ZEFSAII (Michael W. Deem and Ramdas Pophale) SiO2 
 PCOD9073272
Probable space group: P -1
;
_chemical_formula_sum "Si O2"
_cell_formula_units_Z 12
_cell_length_a 9.000000
_cell_length_b 9.000000
_cell_length_c 15.000000
_cell_angle_alpha 70.000000
_cell_angle_beta 30.000000
_cell_angle_gamma 70.000000
_cell_volume 568.141975
_symmetry_space_group_name_H-M "P -1"
_symmetry_group_IT_number 2
_symmetry_cell_setting 'triclinic'
loop_
_space_group_symop_operation_xyz
x,y,z
-x,-y,-z
loop_
_atom_site_type_symbol
_atom_site_label
_atom_site_fract_x
_atom_site_fract_y
_atom_site_fract_z
Si Si1 0.108681 0.351812 0.257600
Si Si2 0.321115 0.554041 0.942769
Si Si3 0.652874 0.860701 0.513343
Si Si4 0.710848 0.497027 0.586947
Si Si5 0.847401 0.951720 0.824177
Si Si6 0.121458 0.869109 0.894665
O O1 0.403567 0.377490 0.159189
O O2 0.093838 0.180779 0.255512
O O3 0.828163 0.392688 0.461930
O O4 0.148265 0.460830 0.126223
O O5 0.462098 0.464334 0.798245
O O6 0.110372 0.699076 0.980717
O O7 0.624358 0.673703 0.553639
O O8 0.472905 0.889563 0.692225
O O9 0.500000 0.000000 0.500000
O O10 0.992805 0.894439 0.321012
O O11 0.000000 0.500000 0.500000
O O12 0.969755 0.891100 0.870946
O O13 0.500000 0.000000 0.000000
O O14 0.000000 0.000000 0.000000
#
# Coordination Sequence:
#
# PCOD9073272 Si02
#       6
#     2   2   2   2   2   2
#     4  10  21  37  64  91 123 166 205 262 310 369
#     4   9  20  38  62  88 124 168 208 243 321 381
#     4   9  21  40  62  86 125 165 204 251 316 378
#     4   9  19  37  62  88 118 167 210 246 307 384
#     4  11  24  39  62  97 126 157 214 263 311 368
#     4  10  21  41  63  89 125 169 205 254 317 380
#
# _framework density 21.121480999999999
#
# number of rings (size 3 to 8) (size 9 to 14) (size 15 to 20)
#    0.000    2.333    0.000    1.000   11.667    0.667 
#    3.000   15.833    0.000    0.000    0.000    0.000 
#    0.000    0.000    0.000    0.000    0.000    0.000 
#
# Total GULP energy -66863.035135 kJ/mol
# GULP energy per Si atom -5571.919595 kJ/mol
# Density = 2.107341 g / cm^3
# Si number density = 21.121481 Si / 1000 Ang^3
#
#
#
# Elastic Constant Matrix: (Units=GPa)
#
#
# Indices 1 2 3 4 5 6 
#
# 1 78.5057 33.3084 40.5750 7.1347 29.8990 -0.5082
# 2 33.3084 57.5214 24.3658 25.5320 26.3062 1.0022
# 3 40.5750 24.3658 103.0487 22.4311 28.2482 8.9863
# 4 7.1347 25.5320 22.4311 44.6640 7.0242 15.1895
# 5 29.8990 26.3062 28.2482 7.0242 42.1605 8.8725
# 6 -0.5082 1.0022 8.9863 15.1895 8.8725 38.9428
#
#
#
# Elastic Compliance Matrix: (Units=1/GPa)
#
#
# Indices 1 2 3 4 5 6 
#
# 1 0.021919 -0.009562 -0.005796 0.005521 -0.006885 0.001285
# 2 -0.009562 0.041354 0.003861 -0.025073 -0.020012 0.012259
# 3 -0.005796 0.003861 0.014618 -0.007905 -0.007015 0.001133
# 4 0.005521 -0.025073 -0.007905 0.043666 0.013445 -0.017553
# 5 -0.006885 -0.020012 -0.007015 0.013445 0.046448 -0.013783
# 6 0.001285 0.012259 0.001133 -0.017553 -0.013783 0.035105
#
#
# Mechanical properties :
#
#
# Convention : Reuss Voigt Hill
#
# Bulk Modulus (GPa) = 18.21569 48.39715 33.30642
# Shear Modulus (GPa) = 20.45798 34.54188 27.49993
#
# Velocity S-wave (km/s) = 3.11559 4.04838 3.61222
# Velocity P-wave (km/s) = 4.64602 6.69448 5.76201
#
# Compressibility (1/GPa) = 0.05489772
#
# Stress axis : x y z
#
# Youngs Moduli (GPa) = 45.62194 24.18166 68.40770
#
# Poissons Ratio (x) = 0.23122 0.39651
# Poissons Ratio (y) = 0.43623 -0.26414
# Poissons Ratio (z) = 0.26444 -0.09337
#
# Static dielectric constant tensor:
#      x y z
#    x 1.767100 -0.027460 -0.049740 
#    y -0.027460 1.821680 -0.014290 
#    z -0.049740 -0.014290 1.822200 
# 
# From -- ./inp_files/152178.got.cif
#   From: 2010.05.17/outbox.ucp.g08.bks.cvg/sg2_77_cif.got.tgz:152178.got - 2010.06.11 11:32:03.
