data_PCOD9073348
_publ_section_title
;
Structure prediction by ZEFSAII (Michael W. Deem and Ramdas Pophale) SiO2 
 PCOD9073348
Probable space group: P -1
;
_chemical_formula_sum "Si O2"
_cell_formula_units_Z 16
_cell_length_a 12.000000
_cell_length_b 15.000000
_cell_length_c 9.000000
_cell_angle_alpha 30.000000
_cell_angle_beta 70.000000
_cell_angle_gamma 80.000000
_cell_volume 734.803614
_symmetry_space_group_name_H-M "P -1"
_symmetry_group_IT_number 2
_symmetry_cell_setting 'triclinic'
loop_
_space_group_symop_operation_xyz
x,y,z
-x,-y,-z
loop_
_atom_site_type_symbol
_atom_site_label
_atom_site_fract_x
_atom_site_fract_y
_atom_site_fract_z
Si Si1 0.520828 0.938662 0.416836
Si Si2 0.821285 0.555086 0.409602
Si Si3 0.676559 0.228637 0.732989
Si Si4 0.304841 0.653154 0.771050
Si Si5 0.748037 0.761579 0.597874
Si Si6 0.931847 0.960602 0.429603
Si Si7 0.901413 0.334262 0.956991
Si Si8 0.171679 0.073521 0.974685
O O1 0.400544 0.795721 0.620381
O O2 0.637444 0.855596 0.499488
O O3 0.500000 0.000000 0.500000
O O4 0.555870 0.106095 0.043379
O O5 0.736961 0.390832 0.587963
O O6 0.854645 0.467829 0.674216
O O7 0.781988 0.742371 0.204712
O O8 0.951507 0.609265 0.184543
O O9 0.657914 0.317726 0.457942
O O10 0.752031 0.078776 0.864933
O O11 0.306670 0.449834 0.106105
O O12 0.169061 0.672267 0.846636
O O13 0.821644 0.787940 0.682155
O O14 0.838868 0.848461 0.297118
O O15 0.000000 0.000000 0.500000
O O16 0.871627 0.132126 0.188971
O O17 0.041980 0.974072 0.246829
#
# Coordination Sequence:
#
# PCOD9073348 Si02
#       8
#     2   2   2   2   2   2   2   2
#     4  11  25  48  70  88 125 179 228 270 326 393
#     4  10  21  40  64 100 131 178 217 263 320 408
#     4  11  25  42  69  96 135 170 216 275 348 373
#     4  12  24  42  66 100 132 165 225 280 324 381
#     4  11  24  41  69  94 128 175 220 269 326 392
#     4  11  23  38  62 102 138 172 212 267 335 391
#     4  10  21  38  64  93 137 169 221 260 319 397
#     4  10  22  41  66  94 139 172 220 255 326 409
#
# _framework density 21.774525000000001
#
# number of rings (size 3 to 8) (size 9 to 14) (size 15 to 20)
#    0.000    1.250    1.250    4.875    5.250    0.500 
#    0.000    0.625    0.000    0.000    0.000    0.000 
#    0.000    0.000    0.000    0.000    0.000    0.000 
#
# Total GULP energy -89265.829248 kJ/mol
# GULP energy per Si atom -5579.114328 kJ/mol
# Density = 2.172497 g / cm^3
# Si number density = 21.774525 Si / 1000 Ang^3
#
#
#
# Elastic Constant Matrix: (Units=GPa)
#
#
# Indices 1 2 3 4 5 6 
#
# 1 9.8224 -3.5937 14.6167 -0.7161 0.8002 1.5321
# 2 -3.5937 38.5082 -1.6541 -0.1382 -9.6076 -19.4912
# 3 14.6167 -1.6541 61.1848 8.2507 -19.8372 -1.4188
# 4 -0.7161 -0.1382 8.2507 45.9736 7.3862 -7.7616
# 5 0.8002 -9.6076 -19.8372 7.3862 18.6392 -0.2671
# 6 1.5321 -19.4912 -1.4188 -7.7616 -0.2671 24.9113
#
#
#
# Elastic Compliance Matrix: (Units=1/GPa)
#
#
# Indices 1 2 3 4 5 6 
#
# 1 0.756472 -0.208889 -0.427125 0.161866 -0.661607 -0.190951
# 2 -0.208889 0.131830 0.144815 -0.050682 0.252720 0.111161
# 3 -0.427125 0.144815 0.280329 -0.104835 0.434700 0.127539
# 4 0.161866 -0.050682 -0.104835 0.064010 -0.170549 -0.037465
# 5 -0.661607 0.252720 0.434700 -0.170549 0.745670 0.218039
# 6 -0.190951 0.111161 0.127539 -0.037465 0.218039 0.136789
#
#
# Mechanical properties :
#
#
# Convention : Reuss Voigt Hill
#
# Bulk Modulus (GPa) = 5.36958 14.25035 9.80997
# Shear Modulus (GPa) = 1.58249 24.58124 13.08187
#
# Velocity S-wave (km/s) = 0.85343 3.36355 2.45376
# Velocity P-wave (km/s) = 1.85539 4.65224 3.54160
#
# Compressibility (1/GPa) = 0.18623425
#
# Stress axis : x y z
#
# Youngs Moduli (GPa) = 1.32193 7.58550 3.56724
#
# Poissons Ratio (x) = 1.58453 1.52366
# Poissons Ratio (y) = 0.27614 -0.51659
# Poissons Ratio (z) = 0.56463 -1.09849
#
# Static dielectric constant tensor:
#      x y z
#    x 1.865130 -0.065120 0.010890 
#    y -0.065120 1.826290 0.001680 
#    z 0.010890 0.001680 1.865170 
# 
# From -- ./inp_files/271343.got.cif
#   From: 2010.05.17/outbox.ucp.g08.bks.cvg/sg2_136_cif.got.tgz:271343.got - 2010.06.11 11:32:03.
