data_PCOD9073489
_publ_section_title
;
Structure prediction by ZEFSAII (Michael W. Deem and Ramdas Pophale) SiO2 
 PCOD9073489
Probable space group: P -1
;
_chemical_formula_sum "Si O2"
_cell_formula_units_Z 16
_cell_length_a 21.000000
_cell_length_b 9.000000
_cell_length_c 18.000000
_cell_angle_alpha 140.000000
_cell_angle_beta 20.000000
_cell_angle_gamma 140.000000
_cell_volume 731.217405
_symmetry_space_group_name_H-M "P -1"
_symmetry_group_IT_number 2
_symmetry_cell_setting 'triclinic'
loop_
_space_group_symop_operation_xyz
x,y,z
-x,-y,-z
loop_
_atom_site_type_symbol
_atom_site_label
_atom_site_fract_x
_atom_site_fract_y
_atom_site_fract_z
Si Si1 0.621101 0.948166 0.609500
Si Si2 0.904682 0.258900 0.129113
Si Si3 0.346533 0.803332 0.051234
Si Si4 0.714390 0.878979 0.895038
Si Si5 0.948606 0.955531 0.820528
Si Si6 0.572992 0.515123 0.591191
Si Si7 0.283969 0.118081 0.687514
Si Si8 0.004246 0.451114 0.565260
O O1 0.531482 0.684737 0.634647
O O2 0.642514 0.961124 0.502226
O O3 0.833338 0.964925 0.414318
O O4 0.507334 0.132813 0.841910
O O5 0.791440 0.473915 0.337424
O O6 0.819267 0.098107 0.231393
O O7 0.132791 0.287286 0.901735
O O8 0.883677 0.115635 0.017949
O O9 0.470386 0.616235 0.812413
O O10 0.176895 0.719615 0.264182
O O11 0.500000 0.000000 0.000000
O O12 0.260721 0.920350 0.119208
O O13 0.819816 0.941209 0.882773
O O14 0.807253 0.664208 0.678479
O O15 0.972032 0.700543 0.730125
O O16 0.455749 0.257597 0.600939
O O17 0.000000 0.500000 0.500000
#
# Coordination Sequence:
#
# PCOD9073489 Si02
#       8
#     2   2   2   2   2   2   2   2
#     4  10  23  39  63  99 131 170 217 268 311 404
#     4  10  22  40  65  96 129 172 208 269 320 394
#     4  11  26  47  65 100 131 167 228 276 320 396
#     4  10  23  42  69  90 131 176 214 271 333 372
#     4  10  22  43  65  97 139 164 225 263 326 390
#     4  11  23  39  66  88 132 168 212 265 330 379
#     4  10  21  40  62  96 134 163 217 260 326 385
#     4  10  23  43  69  94 129 174 215 270 329 384
#
# _framework density 21.881316999999999
#
# number of rings (size 3 to 8) (size 9 to 14) (size 15 to 20)
#    0.000    1.750    0.000    2.625    7.000    7.500 
#   11.250    0.000    0.000    0.000    0.000    0.000 
#    0.000    0.000    0.000    0.000    0.000    0.000 
#
# Total GULP energy -89165.634784 kJ/mol
# GULP energy per Si atom -5572.852174 kJ/mol
# Density = 2.183151 g / cm^3
# Si number density = 21.881317 Si / 1000 Ang^3
#
#
#
# Elastic Constant Matrix: (Units=GPa)
#
#
# Indices 1 2 3 4 5 6 
#
# 1 76.7491 15.3328 35.3933 1.1816 9.3014 -15.2476
# 2 15.3328 65.5964 36.1743 -0.7136 -0.4289 -15.6276
# 3 35.3933 36.1743 176.1178 20.5944 11.6141 -18.7568
# 4 1.1816 -0.7136 20.5944 41.0403 -13.0006 -1.4851
# 5 9.3014 -0.4289 11.6141 -13.0006 40.4408 2.0673
# 6 -15.2476 -15.6276 -18.7568 -1.4851 2.0673 22.9449
#
#
#
# Elastic Compliance Matrix: (Units=1/GPa)
#
#
# Indices 1 2 3 4 5 6 
#
# 1 0.016315 -0.000618 -0.001869 -0.000422 -0.003829 0.009211
# 2 -0.000618 0.019708 -0.003272 0.002916 0.001698 0.010373
# 3 -0.001869 -0.003272 0.007863 -0.004987 -0.003618 0.002960
# 4 -0.000422 0.002916 -0.004987 0.030504 0.011440 -0.001428
# 5 -0.003829 0.001698 -0.003618 0.011440 0.030668 -0.006368
# 6 0.009211 0.010373 0.002960 -0.001428 -0.006368 0.059669
#
#
# Mechanical properties :
#
#
# Convention : Reuss Voigt Hill
#
# Bulk Modulus (GPa) = 30.89519 54.69601 42.79560
# Shear Modulus (GPa) = 26.73306 36.32275 31.52790
#
# Velocity S-wave (km/s) = 3.49912 4.07872 3.79998
# Velocity P-wave (km/s) = 5.52043 6.87257 6.23327
#
# Compressibility (1/GPa) = 0.03236750
#
# Stress axis : x y z
#
# Youngs Moduli (GPa) = 61.29227 50.74188 127.18312
#
# Poissons Ratio (x) = 0.03137 0.23770
# Poissons Ratio (y) = 0.03789 0.41612
# Poissons Ratio (z) = 0.11455 0.16602
#
# Static dielectric constant tensor:
#      x y z
#    x 1.779800 0.021550 -0.016210 
#    y 0.021550 1.939120 -0.038480 
#    z -0.016210 -0.038480 1.817730 
# 
# From -- ./inp_files/226109.got.cif
#   From: 2010.05.17/outbox.ucp.g08.bks.cvg/sg2_114_cif.got.tgz:226109.got - 2010.06.11 11:32:03.
