data_PCOD9073020
_publ_section_title
;
Structure prediction by ZEFSAII (Michael W. Deem and Ramdas Pophale) SiO2 
 PCOD9073020
Probable space group: P -1
;
_chemical_formula_sum "Si O2"
_cell_formula_units_Z 16
_cell_length_a 24.000000
_cell_length_b 9.000000
_cell_length_c 9.000000
_cell_angle_alpha 100.000000
_cell_angle_beta 140.000000
_cell_angle_gamma 50.000000
_cell_volume 729.599496
_symmetry_space_group_name_H-M "P -1"
_symmetry_group_IT_number 2
_symmetry_cell_setting 'triclinic'
loop_
_space_group_symop_operation_xyz
x,y,z
-x,-y,-z
loop_
_atom_site_type_symbol
_atom_site_label
_atom_site_fract_x
_atom_site_fract_y
_atom_site_fract_z
Si Si1 0.753858 0.112849 0.511164
Si Si2 0.981095 0.965090 0.738299
Si Si3 0.976317 0.748299 0.166797
Si Si4 0.691297 0.485612 0.603758
Si Si5 0.596732 0.510601 0.742588
Si Si6 0.513347 0.957722 0.697343
Si Si7 0.764994 0.819368 0.301274
Si Si8 0.150066 0.048682 0.739156
O O1 0.854690 0.060434 0.589265
O O2 0.651403 0.387174 0.417515
O O3 0.691424 0.050583 0.295479
O O4 0.865743 0.898235 0.829178
O O5 0.957907 0.173282 0.690798
O O6 0.989808 0.845910 0.590815
O O7 0.134880 0.739539 0.097798
O O8 0.100905 0.447663 0.385086
O O9 0.878947 0.869901 0.136709
O O10 0.662118 0.484165 0.716734
O O11 0.612500 0.752543 0.447623
O O12 0.500000 0.500000 0.500000
O O13 0.518564 0.768582 0.699287
O O14 0.722496 0.257018 0.054364
O O15 0.500000 0.000000 0.500000
O O16 0.659606 0.834270 0.033410
O O17 0.816647 0.848613 0.270648
#
# Coordination Sequence:
#
# PCOD9073020 Si02
#       8
#     2   2   2   2   2   2   2   2
#     4  10  22  42  64  94 132 172 204 260 322 379
#     4  10  21  37  66  95 128 165 211 267 316 374
#     4  11  20  37  61  92 130 167 211 260 317 366
#     4  10  20  40  64  90 127 175 207 251 324 374
#     4  11  22  41  63  92 127 161 212 262 325 369
#     4  10  23  40  63  90 126 165 210 267 311 373
#     4  11  24  39  61  96 131 166 215 261 310 377
#     4  11  21  36  62  96 125 166 214 264 318 367
#
# _framework density 21.929839999999999
#
# number of rings (size 3 to 8) (size 9 to 14) (size 15 to 20)
#    0.000    1.500    2.500    4.875    3.500    0.500 
#    4.500    1.250    0.000    6.750    0.000    0.000 
#    0.000    0.000    0.000    0.000    0.000    0.000 
#
# Total GULP energy -89327.149432 kJ/mol
# GULP energy per Si atom -5582.946839 kJ/mol
# Density = 2.187993 g / cm^3
# Si number density = 21.929840 Si / 1000 Ang^3
#
#
#
# Elastic Constant Matrix: (Units=GPa)
#
#
# Indices 1 2 3 4 5 6 
#
# 1 48.8563 20.6842 5.5710 4.2663 -14.8466 14.7093
# 2 20.6842 169.0437 47.8769 -10.5266 -2.7569 32.8889
# 3 5.5710 47.8769 69.3695 9.2074 -4.6299 9.0905
# 4 4.2663 -10.5266 9.2074 48.2423 6.2316 -4.7308
# 5 -14.8466 -2.7569 -4.6299 6.2316 18.0644 7.5371
# 6 14.7093 32.8889 9.0905 -4.7308 7.5371 37.8029
#
#
#
# Elastic Compliance Matrix: (Units=1/GPa)
#
#
# Indices 1 2 3 4 5 6 
#
# 1 0.054650 -0.001982 0.009256 -0.019779 0.069723 -0.038142
# 2 -0.001982 0.008961 -0.005752 0.002789 -0.000534 -0.005187
# 3 0.009256 -0.005752 0.021314 -0.009462 0.019092 -0.008714
# 4 -0.019779 0.002789 -0.009462 0.031522 -0.037001 0.018867
# 5 0.069723 -0.000534 0.019092 -0.037001 0.158385 -0.067465
# 6 -0.038142 -0.005187 -0.008714 0.018867 -0.067465 0.063714
#
#
# Mechanical properties :
#
#
# Convention : Reuss Voigt Hill
#
# Bulk Modulus (GPa) = 11.36751 48.39265 29.88008
# Shear Modulus (GPa) = 13.70516 35.03109 24.36812
#
# Velocity S-wave (km/s) = 2.50262 4.00111 3.33706
# Velocity P-wave (km/s) = 3.68044 6.59242 5.33881
#
# Compressibility (1/GPa) = 0.08796999
#
# Stress axis : x y z
#
# Youngs Moduli (GPa) = 18.29816 111.59181 46.91769
#
# Poissons Ratio (x) = 0.22120 -0.43428
# Poissons Ratio (y) = 0.03627 0.26986
# Poissons Ratio (z) = -0.16937 0.64184
#
# Static dielectric constant tensor:
#      x y z
#    x 1.787270 -0.062710 -0.007870 
#    y -0.062710 1.850450 0.018830 
#    z -0.007870 0.018830 1.874850 
# 
# From -- ./inp_files/352279.got.cif
#   From: 2010.05.17/outbox.ucp.g08.bks.cvg/sg2_177_cif.got.tgz:352279.got - 2010.06.11 11:32:03.
