data_PCOD9073840
_publ_section_title
;
Structure prediction by ZEFSAII (Michael W. Deem and Ramdas Pophale) SiO2 
 PCOD9073840
Probable space group: P -1
;
_chemical_formula_sum "Si O2"
_cell_formula_units_Z 16
_cell_length_a 24.000000
_cell_length_b 6.000000
_cell_length_c 15.000000
_cell_angle_alpha 60.000000
_cell_angle_beta 150.000000
_cell_angle_gamma 100.000000
_cell_volume 748.962810
_symmetry_space_group_name_H-M "P -1"
_symmetry_group_IT_number 2
_symmetry_cell_setting 'triclinic'
loop_
_space_group_symop_operation_xyz
x,y,z
-x,-y,-z
loop_
_atom_site_type_symbol
_atom_site_label
_atom_site_fract_x
_atom_site_fract_y
_atom_site_fract_z
Si Si1 0.924467 0.111809 0.636310
Si Si2 0.842649 0.720380 0.702702
Si Si3 0.481972 0.640382 0.097994
Si Si4 0.522299 0.294211 0.714271
Si Si5 0.269966 0.385822 0.599674
Si Si6 0.237048 0.465020 0.206982
Si Si7 0.354769 0.347142 0.213691
Si Si8 0.713070 0.551098 0.110071
O O1 0.861367 0.407860 0.558344
O O2 0.858944 0.279991 0.415356
O O3 0.848556 0.959020 0.598409
O O4 0.090337 0.828490 0.933944
O O5 0.787717 0.577594 0.587427
O O6 0.765734 0.770396 0.680088
O O7 0.000000 0.500000 0.000000
O O8 0.515086 0.590954 0.258689
O O9 0.625557 0.513532 0.274122
O O10 0.400971 0.489720 0.999981
O O11 0.370796 0.015127 0.843460
O O12 0.380398 0.408933 0.445520
O O13 0.599851 0.424086 0.750469
O O14 0.643604 0.915631 0.965392
O O15 0.253533 0.376706 0.143174
O O16 0.500000 0.000000 0.500000
O O17 0.293326 0.437929 0.009592
#
# Coordination Sequence:
#
# PCOD9073840 Si02
#       8
#     2   2   2   2   2   2   2   2
#     4  11  25  42  66  97 139 173 212 271 333 396
#     4  10  23  42  62  94 137 174 211 259 331 408
#     4  10  22  36  65  97 130 170 220 269 321 384
#     4  11  22  43  69  97 126 169 228 274 324 391
#     4  11  21  38  63  97 131 174 218 263 325 389
#     4  11  24  45  63  94 134 175 216 271 331 386
#     4  11  25  44  71  97 125 171 228 278 325 387
#     4  11  23  42  69  98 132 172 220 279 327 382
#
# _framework density 21.362876
#
# number of rings (size 3 to 8) (size 9 to 14) (size 15 to 20)
#    0.000    1.250    5.000    0.375    1.750    3.000 
#    4.500    0.625    0.000    0.000    0.000    0.000 
#    0.000    0.000    0.000    0.000    0.000    0.000 
#
# Total GULP energy -89165.220063 kJ/mol
# GULP energy per Si atom -5572.826254 kJ/mol
# Density = 2.131425 g / cm^3
# Si number density = 21.362876 Si / 1000 Ang^3
#
#
#
# Elastic Constant Matrix: (Units=GPa)
#
#
# Indices 1 2 3 4 5 6 
#
# 1 114.6771 2.5048 22.6560 -4.2140 -23.6265 -10.0398
# 2 2.5048 25.9796 0.1897 -9.8206 -9.8683 11.2223
# 3 22.6560 0.1897 117.0432 -8.0837 -26.0637 -11.7868
# 4 -4.2140 -9.8206 -8.0837 30.0850 -4.3037 -3.7025
# 5 -23.6265 -9.8683 -26.0637 -4.3037 41.2645 -7.0417
# 6 -10.0398 11.2223 -11.7868 -3.7025 -7.0417 20.8254
#
#
#
# Elastic Compliance Matrix: (Units=1/GPa)
#
#
# Indices 1 2 3 4 5 6 
#
# 1 0.011539 -0.000296 0.001276 0.004528 0.009605 0.010497
# 2 -0.000296 0.061497 0.001929 0.019544 0.013683 -0.024089
# 3 0.001276 0.001929 0.012729 0.007459 0.012091 0.012195
# 4 0.004528 0.019544 0.007459 0.046188 0.018563 0.010361
# 5 0.009605 0.013683 0.012091 0.018563 0.046526 0.023133
# 6 0.010497 -0.024089 0.012195 0.010361 0.023133 0.082626
#
#
# Mechanical properties :
#
#
# Convention : Reuss Voigt Hill
#
# Bulk Modulus (GPa) = 10.91911 34.26678 22.59295
# Shear Modulus (GPa) = 17.49371 33.92495 25.70933
#
# Velocity S-wave (km/s) = 2.86472 3.98934 3.47285
# Velocity P-wave (km/s) = 4.00805 6.10695 5.16524
#
# Compressibility (1/GPa) = 0.09158256
#
# Stress axis : x y z
#
# Youngs Moduli (GPa) = 86.66287 16.26084 78.55798
#
# Poissons Ratio (x) = 0.00481 -0.10022
# Poissons Ratio (y) = 0.02565 -0.15151
# Poissons Ratio (z) = -0.11056 -0.03136
#
# Static dielectric constant tensor:
#      x y z
#    x 1.804040 -0.038000 -0.017090 
#    y -0.038000 1.809620 -0.040420 
#    z -0.017090 -0.040420 1.746000 
# 
# From -- ./inp_files/84241.got.cif
#   From: 2010.05.17/outbox.ucp.g08.bks.cvg/sg2_43_cif.got.tgz:84241.got - 2010.06.11 11:32:03.
