data_PCOD9073099
_publ_section_title
;
Structure prediction by ZEFSAII (Michael W. Deem and Ramdas Pophale) SiO2 
 PCOD9073099
Probable space group: P -1
;
_chemical_formula_sum "Si O2"
_cell_formula_units_Z 16
_cell_length_a 9.000000
_cell_length_b 24.000000
_cell_length_c 9.000000
_cell_angle_alpha 50.000000
_cell_angle_beta 100.000000
_cell_angle_gamma 140.000000
_cell_volume 729.599496
_symmetry_space_group_name_H-M "P -1"
_symmetry_group_IT_number 2
_symmetry_cell_setting 'triclinic'
loop_
_space_group_symop_operation_xyz
x,y,z
-x,-y,-z
loop_
_atom_site_type_symbol
_atom_site_label
_atom_site_fract_x
_atom_site_fract_y
_atom_site_fract_z
Si Si1 0.247797 0.319587 0.008586
Si Si2 0.255207 0.107540 0.979296
Si Si3 0.895563 0.030977 0.509283
Si Si4 0.873883 0.659703 0.572362
Si Si5 0.664691 0.695548 0.285407
Si Si6 0.779294 0.217833 0.277417
Si Si7 0.871297 0.350943 0.583923
Si Si8 0.986917 0.561444 0.228790
O O1 0.160343 0.202343 0.250756
O O2 0.953360 0.243290 0.137689
O O3 0.538167 0.484173 0.845571
O O4 0.314736 0.337562 0.812465
O O5 0.190146 0.022486 0.243521
O O6 0.262875 0.189960 0.918072
O O7 0.526268 0.214841 0.721136
O O8 0.000000 0.000000 0.000000
O O9 0.582641 0.929975 0.552236
O O10 0.000000 0.000000 0.500000
O O11 0.863657 0.734887 0.369819
O O12 0.092683 0.752521 0.592334
O O13 0.988555 0.655408 0.468234
O O14 0.340716 0.560338 0.546725
O O15 0.917391 0.356422 0.039909
O O16 0.037675 0.496853 0.334165
O O17 0.819017 0.325247 0.796515
#
# Coordination Sequence:
#
# PCOD9073099 Si02
#       8
#     2   2   2   2   2   2   2   2
#     4  12  25  46  72 101 142 188 225 281 350 415
#     4  11  26  46  72 100 135 185 230 288 340 409
#     4  12  28  49  70  97 143 186 233 277 352 418
#     4  12  26  42  72 109 139 176 234 291 342 401
#     4  11  23  45  72 101 136 180 229 282 342 413
#     4  12  27  45  67 106 142 183 225 289 347 407
#     4  10  22  40  69 100 130 176 230 285 334 401
#     4  10  20  41  69  96 132 174 231 275 342 403
#
# _framework density 21.929839999999999
#
# number of rings (size 3 to 8) (size 9 to 14) (size 15 to 20)
#    0.000    0.750    5.000    1.875    5.250    1.500 
#    0.000    1.250    0.000    0.000    0.000    0.000 
#    0.000    0.000    0.000    0.000    0.000    0.000 
#
# Total GULP energy -89194.007071 kJ/mol
# GULP energy per Si atom -5574.625442 kJ/mol
# Density = 2.187993 g / cm^3
# Si number density = 21.929840 Si / 1000 Ang^3
#
#
#
# Elastic Constant Matrix: (Units=GPa)
#
#
# Indices 1 2 3 4 5 6 
#
# 1 70.2558 -35.6864 18.3656 -8.9620 -3.2080 27.7185
# 2 -35.6864 -1.0467 44.0208 -11.6461 2.3617 60.5711
# 3 18.3656 44.0208 61.4746 8.4010 18.2666 -5.2416
# 4 -8.9620 -11.6461 8.4010 23.6000 13.1089 6.2587
# 5 -3.2080 2.3617 18.2666 13.1089 35.5978 3.8709
# 6 27.7185 60.5711 -5.2416 6.2587 3.8709 -5.0404
#
#
#
# Elastic Compliance Matrix: (Units=1/GPa)
#
#
# Indices 1 2 3 4 5 6 
#
# 1 0.009918 -0.004074 0.000306 -0.000055 0.000427 0.005523
# 2 -0.004074 0.003401 0.000689 -0.002873 -0.001320 0.013166
# 3 0.000306 0.000689 0.016869 0.002007 -0.008178 -0.011362
# 4 -0.000055 -0.002873 0.002007 0.048928 -0.019801 0.008639
# 5 0.000427 -0.001320 -0.008178 -0.019801 0.039617 0.000820
# 6 0.005523 0.013166 -0.011362 0.008639 0.000820 0.013368
#
#
# Mechanical properties :
#
#
# Convention : Reuss Voigt Hill
#
# Bulk Modulus (GPa) = 41.61469 20.45374 31.03422
# Shear Modulus (GPa) = 34.18404 17.76374 25.97389
#
# Velocity S-wave (km/s) = 3.95244 2.84918 3.44526
# Velocity P-wave (km/s) = 6.31241 4.49121 5.47802
#
# Compressibility (1/GPa) = 0.02402998
#
# Stress axis : x y z
#
# Youngs Moduli (GPa) = 100.82990 294.04684 59.28176
#
# Poissons Ratio (x) = 1.19796 -0.01815
# Poissons Ratio (y) = 0.41078 -0.04087
# Poissons Ratio (z) = -0.03086 -0.20271
#
# Static dielectric constant tensor:
#      x y z
#    x 2.277530 0.675820 -0.206580 
#    y 0.675820 2.740650 -0.336370 
#    z -0.206580 -0.336370 1.903590 
# 
# From -- ./inp_files/209369.got.cif
#   From: 2010.05.17/outbox.ucp.g08.bks.cvg/sg2_105_cif.got.tgz:209369.got - 2010.06.11 11:32:03.
