data_PCOD9073631
_publ_section_title
;
Structure prediction by ZEFSAII (Michael W. Deem and Ramdas Pophale) SiO2 
 PCOD9073631
Probable space group: P -1
;
_chemical_formula_sum "Si O2"
_cell_formula_units_Z 14
_cell_length_a 21.000000
_cell_length_b 12.000000
_cell_length_c 15.000000
_cell_angle_alpha 140.000000
_cell_angle_beta 20.000000
_cell_angle_gamma 150.000000
_cell_volume 620.704002
_symmetry_space_group_name_H-M "P -1"
_symmetry_group_IT_number 2
_symmetry_cell_setting 'triclinic'
loop_
_space_group_symop_operation_xyz
x,y,z
-x,-y,-z
loop_
_atom_site_type_symbol
_atom_site_label
_atom_site_fract_x
_atom_site_fract_y
_atom_site_fract_z
Si Si1 0.630870 0.467927 0.064399
Si Si2 0.151817 0.706556 0.036654
Si Si3 0.229038 0.780510 0.688981
Si Si4 0.974214 0.966208 0.851861
Si Si5 0.555731 0.678150 0.458134
Si Si6 0.943272 0.369552 0.690417
Si Si7 0.935032 0.952250 0.422714
O O1 0.612786 0.590247 0.246106
O O2 0.340680 0.240371 0.288749
O O3 0.774732 0.685235 0.939692
O O4 0.788516 0.390427 0.834980
O O5 0.100641 0.566575 0.796241
O O6 0.347669 0.696882 0.727699
O O7 0.226969 0.743082 0.065227
O O8 0.094426 0.874255 0.191688
O O9 0.176537 0.636778 0.579447
O O10 0.500000 0.000000 0.500000
O O11 0.104301 0.893016 0.921171
O O12 0.074503 0.065076 0.681813
O O13 0.204376 0.061452 0.669743
O O14 0.500000 0.500000 0.500000
O O15 0.011538 0.205936 0.489558
#
# Coordination Sequence:
#
# PCOD9073631 Si02
#       7
#     2   2   2   2   2   2   2
#     4  12  24  43  74 100 138 178 226 285 333 399
#     4  10  22  41  71  97 135 181 223 275 345 393
#     4  10  21  41  68 101 133 166 229 283 332 392
#     4  12  25  42  69 105 135 175 233 275 341 400
#     4  12  19  44  68 102 131 179 230 276 332 401
#     4  10  23  45  69  99 135 185 225 272 343 401
#     4  12  25  44  70 100 142 179 223 276 340 410
#
# _framework density 22.555033999999999
#
# number of rings (size 3 to 8) (size 9 to 14) (size 15 to 20)
#    0.857    0.000    5.714    2.143    0.000    4.000 
#    0.000    0.714    0.000    0.000    0.000    0.000 
#    0.000    0.000    0.000    0.000    0.000    0.000 
#
# Total GULP energy -78000.238374 kJ/mol
# GULP energy per Si atom -5571.445598 kJ/mol
# Density = 2.250370 g / cm^3
# Si number density = 22.555034 Si / 1000 Ang^3
#
#
#
# Elastic Constant Matrix: (Units=GPa)
#
#
# Indices 1 2 3 4 5 6 
#
# 1 48.1398 11.5917 17.1930 11.6839 -6.1292 -12.5972
# 2 11.5917 165.0915 42.1994 21.3104 -22.6966 -16.8771
# 3 17.1930 42.1994 78.8656 11.1622 -26.5658 -7.5624
# 4 11.6839 21.3104 11.1622 43.9680 -15.6395 -12.0626
# 5 -6.1292 -22.6966 -26.5658 -15.6395 27.7938 2.5868
# 6 -12.5972 -16.8771 -7.5624 -12.0626 2.5868 36.3614
#
#
#
# Elastic Compliance Matrix: (Units=1/GPa)
#
#
# Indices 1 2 3 4 5 6 
#
# 1 0.025035 0.000524 -0.005218 -0.004602 -0.002230 0.006463
# 2 0.000524 0.007534 -0.002881 -0.001540 0.002425 0.002396
# 3 -0.005218 -0.002881 0.021382 0.004666 0.019423 0.001468
# 4 -0.004602 -0.001540 0.004666 0.032845 0.019912 0.008141
# 5 -0.002230 0.002425 0.019423 0.019912 0.066655 0.006256
# 6 0.006463 0.002396 0.001468 0.008141 0.006256 0.033414
#
#
# Mechanical properties :
#
#
# Convention : Reuss Voigt Hill
#
# Bulk Modulus (GPa) = 25.77303 48.22945 37.00124
# Shear Modulus (GPa) = 23.26157 36.36549 29.81353
#
# Velocity S-wave (km/s) = 3.21491 4.01970 3.63962
# Velocity P-wave (km/s) = 5.02319 6.55541 5.83977
#
# Compressibility (1/GPa) = 0.03880025
#
# Stress axis : x y z
#
# Youngs Moduli (GPa) = 39.94480 132.73322 46.76846
#
# Poissons Ratio (x) = -0.06958 0.24405
# Poissons Ratio (y) = -0.02094 0.13475
# Poissons Ratio (z) = 0.20844 0.38242
#
# Static dielectric constant tensor:
#      x y z
#    x 1.925370 0.031630 0.009560 
#    y 0.031630 1.854710 -0.079200 
#    z 0.009560 -0.079200 2.000500 
# 
# From -- ./inp_files/523990.got.cif
#   From: 2010.05.17/outbox.ucp.g08.bks.cvg/sg2_262_cif.got.tgz:523990.got - 2010.06.11 11:32:03.
