data_PCOD9073336
_publ_section_title
;
Structure prediction by ZEFSAII (Michael W. Deem and Ramdas Pophale) SiO2 
 PCOD9073336
Probable space group: P -1
;
_chemical_formula_sum "Si O2"
_cell_formula_units_Z 16
_cell_length_a 27.000000
_cell_length_b 27.000000
_cell_length_c 12.000000
_cell_angle_alpha 30.000000
_cell_angle_beta 150.000000
_cell_angle_gamma 170.000000
_cell_volume 750.765935
_symmetry_space_group_name_H-M "P -1"
_symmetry_group_IT_number 2
_symmetry_cell_setting 'triclinic'
loop_
_space_group_symop_operation_xyz
x,y,z
-x,-y,-z
loop_
_atom_site_type_symbol
_atom_site_label
_atom_site_fract_x
_atom_site_fract_y
_atom_site_fract_z
Si Si1 0.718543 0.646986 0.233277
Si Si2 0.985184 0.695782 0.729099
Si Si3 0.804176 0.754397 0.935343
Si Si4 0.380900 0.934647 0.283124
Si Si5 0.525095 0.140924 0.787512
Si Si6 0.817840 0.507919 0.023458
Si Si7 0.552662 0.913015 0.519298
Si Si8 0.117365 0.353438 0.871921
O O1 0.903348 0.725430 0.467135
O O2 0.683167 0.601858 0.117507
O O3 0.435897 0.384938 0.271874
O O4 0.897116 0.912801 0.098309
O O5 0.825616 0.463098 0.794398
O O6 0.901149 0.621501 0.840188
O O7 0.312911 0.982160 0.778626
O O8 0.834127 0.705955 0.985214
O O9 0.474188 0.951720 0.328861
O O10 0.040013 0.624607 0.237936
O O11 0.500000 0.000000 0.500000
O O12 0.505730 0.163551 0.077877
O O13 0.451342 0.106597 0.583994
O O14 0.500000 0.000000 0.000000
O O15 0.852039 0.608201 0.007006
O O16 0.331032 0.631546 0.692120
O O17 0.829274 0.132782 0.694485
#
# Coordination Sequence:
#
# PCOD9073336 Si02
#       8
#     2   2   2   2   2   2   2   2
#     4  10  21  40  62  88 115 159 197 246 312 363
#     4  12  25  43  64  88 130 168 202 240 310 375
#     4  10  21  38  63  88 118 146 203 262 300 356
#     4  12  22  41  59  90 124 165 210 246 294 356
#     4  12  25  42  60  93 126 164 204 251 300 357
#     4  12  24  41  61  90 126 166 205 249 297 368
#     4  12  23  37  64  88 123 159 208 256 305 353
#     4  12  23  39  61  95 119 155 204 261 308 348
#
# _framework density 21.311568999999999
#
# number of rings (size 3 to 8) (size 9 to 14) (size 15 to 20)
#    0.000    0.500    2.500    7.500    0.000    2.000 
#    0.000    1.250    0.000    0.000    0.000    0.000 
#    0.000    0.000    0.000    0.000    0.000    0.000 
#
# Total GULP energy -89158.863779 kJ/mol
# GULP energy per Si atom -5572.428986 kJ/mol
# Density = 2.126306 g / cm^3
# Si number density = 21.311569 Si / 1000 Ang^3
#
#
#
# Elastic Constant Matrix: (Units=GPa)
#
#
# Indices 1 2 3 4 5 6 
#
# 1 183.0120 5.9203 27.7458 -10.3432 -0.8935 -14.8718
# 2 5.9203 98.7234 -4.7375 0.8164 3.9640 -2.3152
# 3 27.7458 -4.7375 33.8865 -8.2765 6.9346 -8.5043
# 4 -10.3432 0.8164 -8.2765 35.9821 -3.2456 14.1549
# 5 -0.8935 3.9640 6.9346 -3.2456 51.1133 -2.6235
# 6 -14.8718 -2.3152 -8.5043 14.1549 -2.6235 43.2282
#
#
#
# Elastic Compliance Matrix: (Units=1/GPa)
#
#
# Indices 1 2 3 4 5 6 
#
# 1 0.006378 -0.000644 -0.005151 0.000315 0.000937 0.001100
# 2 -0.000644 0.010346 0.002332 -0.000308 -0.001107 0.000825
# 3 -0.005151 0.002332 0.037221 0.005139 -0.004804 0.003701
# 4 0.000315 -0.000308 0.005139 0.032942 0.000930 -0.009628
# 5 0.000937 -0.001107 -0.004804 0.000930 0.020390 0.000251
# 6 0.001100 0.000825 0.003701 -0.009628 0.000251 0.027452
#
#
# Mechanical properties :
#
#
# Convention : Reuss Voigt Hill
#
# Bulk Modulus (GPa) = 21.26773 41.49769 31.38271
# Shear Modulus (GPa) = 31.78100 45.17761 38.47930
#
# Velocity S-wave (km/s) = 3.86587 4.60919 4.25380
# Velocity P-wave (km/s) = 5.47062 6.91667 6.23571
#
# Compressibility (1/GPa) = 0.04701959
#
# Stress axis : x y z
#
# Youngs Moduli (GPa) = 156.79924 96.65382 26.86679
#
# Poissons Ratio (x) = 0.06225 0.13838
# Poissons Ratio (y) = 0.10098 -0.06266
# Poissons Ratio (z) = 0.80761 -0.22542
#
# Static dielectric constant tensor:
#      x y z
#    x 1.725020 0.006180 -0.021310 
#    y 0.006180 1.801680 0.061080 
#    z -0.021310 0.061080 1.851540 
# 
# From -- ./inp_files/452715.got.cif
#   From: 2010.05.17/outbox.ucp.g08.bks.cvg/sg2_227_cif.got.tgz:452715.got - 2010.06.11 11:32:03.
