data_PCOD9073133
_publ_section_title
;
Structure prediction by ZEFSAII (Michael W. Deem and Ramdas Pophale) SiO2 
 PCOD9073133
Probable space group: P -1
;
_chemical_formula_sum "Si O2"
_cell_formula_units_Z 16
_cell_length_a 12.000000
_cell_length_b 15.000000
_cell_length_c 15.000000
_cell_angle_alpha 150.000000
_cell_angle_beta 40.000000
_cell_angle_gamma 120.000000
_cell_volume 747.221570
_symmetry_space_group_name_H-M "P -1"
_symmetry_group_IT_number 2
_symmetry_cell_setting 'triclinic'
loop_
_space_group_symop_operation_xyz
x,y,z
-x,-y,-z
loop_
_atom_site_type_symbol
_atom_site_label
_atom_site_fract_x
_atom_site_fract_y
_atom_site_fract_z
Si Si1 0.139864 0.223780 0.992714
Si Si2 0.676639 0.498506 0.947558
Si Si3 0.253547 0.833851 0.084508
Si Si4 0.127608 0.253097 0.229844
Si Si5 0.955355 0.066341 0.310263
Si Si6 0.710295 0.634774 0.603312
Si Si7 0.765423 0.516933 0.104012
Si Si8 0.790990 0.743149 0.450735
O O1 0.257656 0.341083 0.990620
O O2 0.198329 0.158403 0.004788
O O3 0.901309 0.402332 0.292049
O O4 0.159971 0.046787 0.758102
O O5 0.849409 0.262815 0.613434
O O6 0.500000 0.500000 0.000000
O O7 0.632644 0.545013 0.120854
O O8 0.224543 0.032845 0.332552
O O9 0.488781 0.674466 0.784789
O O10 0.186946 0.693393 0.056991
O O11 0.139944 0.907387 0.122586
O O12 0.267974 0.241707 0.217700
O O13 0.000000 0.500000 0.500000
O O14 0.009163 0.154727 0.265944
O O15 0.717169 0.714751 0.568738
O O16 0.699368 0.698601 0.377096
O O17 0.979997 0.448971 0.867330
#
# Coordination Sequence:
#
# PCOD9073133 Si02
#       8
#     2   2   2   2   2   2   2   2
#     4  11  24  44  72  99 139 183 235 285 343 416
#     4  12  27  48  68  94 141 186 237 293 340 403
#     4  12  25  40  72 104 143 182 225 285 350 415
#     4  10  20  42  70  94 135 181 221 278 350 405
#     4  12  24  44  71 100 137 183 232 287 355 410
#     4  11  22  45  69 102 143 180 223 290 349 406
#     4  11  25  43  68 101 134 184 234 280 346 410
#     4  11  22  43  68  95 138 182 225 280 346 411
#
# _framework density 21.412658
#
# number of rings (size 3 to 8) (size 9 to 14) (size 15 to 20)
#    0.000    0.750    6.250    1.875    3.500    2.500 
#    2.250    0.000    0.000    0.000    0.000    0.000 
#    0.000    0.000    0.000    0.000    0.000    0.000 
#
# Total GULP energy -89274.523386 kJ/mol
# GULP energy per Si atom -5579.657712 kJ/mol
# Density = 2.136392 g / cm^3
# Si number density = 21.412658 Si / 1000 Ang^3
#
#
#
# Elastic Constant Matrix: (Units=GPa)
#
#
# Indices 1 2 3 4 5 6 
#
# 1 170.1265 52.1739 23.9219 1.2941 38.6156 -13.0732
# 2 52.1739 93.6331 22.6267 9.6737 9.0028 -7.9082
# 3 23.9219 22.6267 28.5272 -0.1431 21.6038 0.7391
# 4 1.2941 9.6737 -0.1431 27.5560 7.7737 9.8805
# 5 38.6156 9.0028 21.6038 7.7737 56.5043 -2.2002
# 6 -13.0732 -7.9082 0.7391 9.8805 -2.2002 39.1835
#
#
#
# Elastic Compliance Matrix: (Units=1/GPa)
#
#
# Indices 1 2 3 4 5 6 
#
# 1 0.008513 -0.004555 0.000768 0.002461 -0.005687 0.000967
# 2 -0.004555 0.018129 -0.017178 -0.010647 0.008476 0.005624
# 3 0.000768 -0.017178 0.068794 0.017710 -0.026936 -0.010487
# 4 0.002461 -0.010647 0.017710 0.049329 -0.014123 -0.014894
# 5 -0.005687 0.008476 -0.026936 -0.014123 0.032698 0.005719
# 6 0.000967 0.005624 -0.010487 -0.014894 0.005719 0.031253
#
#
# Mechanical properties :
#
#
# Convention : Reuss Voigt Hill
#
# Bulk Modulus (GPa) = 18.68922 54.41462 36.55192
# Shear Modulus (GPa) = 18.62324 37.55306 28.08815
#
# Velocity S-wave (km/s) = 2.95232 4.19236 3.62574
# Velocity P-wave (km/s) = 4.51316 6.99300 5.88518
#
# Compressibility (1/GPa) = 0.05350679
#
# Stress axis : x y z
#
# Youngs Moduli (GPa) = 117.46259 55.15919 14.53616
#
# Poissons Ratio (x) = 0.25126 -0.01117
# Poissons Ratio (y) = 0.53507 0.24970
# Poissons Ratio (z) = -0.09022 0.94751
#
# Static dielectric constant tensor:
#      x y z
#    x 1.846730 0.025570 -0.041880 
#    y 0.025570 1.773270 -0.011250 
#    z -0.041880 -0.011250 1.819450 
# 
# From -- ./inp_files/522583.got.cif
#   From: 2010.05.17/outbox.ucp.g08.bks.cvg/sg2_262_cif.got.tgz:522583.got - 2010.06.11 11:32:03.
