data_PCOD9073377
_publ_section_title
;
Structure prediction by ZEFSAII (Michael W. Deem and Ramdas Pophale) SiO2 
 PCOD9073377
Probable space group: P -1
;
_chemical_formula_sum "Si O2"
_cell_formula_units_Z 16
_cell_length_a 12.000000
_cell_length_b 12.000000
_cell_length_c 12.000000
_cell_angle_alpha 40.000000
_cell_angle_beta 80.000000
_cell_angle_gamma 110.000000
_cell_volume 722.981415
_symmetry_space_group_name_H-M "P -1"
_symmetry_group_IT_number 2
_symmetry_cell_setting 'triclinic'
loop_
_space_group_symop_operation_xyz
x,y,z
-x,-y,-z
loop_
_atom_site_type_symbol
_atom_site_label
_atom_site_fract_x
_atom_site_fract_y
_atom_site_fract_z
Si Si1 0.248397 0.531815 0.987779
Si Si2 0.830513 0.203428 0.112636
Si Si3 0.929117 0.699061 0.389899
Si Si4 0.411899 0.586618 0.449241
Si Si5 0.577337 0.506007 0.870078
Si Si6 0.042018 0.989481 0.665625
Si Si7 0.227101 0.851316 0.096732
Si Si8 0.554099 0.352536 0.348559
O O1 0.141282 0.577969 0.003473
O O2 0.350462 0.644156 0.767423
O O3 0.382364 0.643737 0.980066
O O4 0.112794 0.220098 0.231448
O O5 0.955370 0.189084 0.130252
O O6 0.640146 0.936393 0.391357
O O7 0.821756 0.206673 0.979770
O O8 0.772795 0.625100 0.415792
O O9 0.978357 0.866858 0.362053
O O10 0.834462 0.406001 0.650884
O O11 0.104535 0.853926 0.175302
O O12 0.500000 0.500000 0.500000
O O13 0.378686 0.594469 0.578791
O O14 0.566751 0.878944 0.143355
O O15 0.767632 0.781412 0.591805
O O16 0.458963 0.457713 0.831955
O O17 0.500000 0.500000 0.000000
#
# Coordination Sequence:
#
# PCOD9073377 Si02
#       8
#     2   2   2   2   2   2   2   2
#     4  11  21  36  64  89 128 165 208 260 321 384
#     4  10  21  39  60  88 129 162 209 267 316 382
#     4  11  24  44  67  93 137 169 219 273 319 388
#     4  11  23  40  69  98 131 171 219 267 327 389
#     4   9  19  38  58  82 122 160 204 253 308 381
#     4  11  23  38  61  95 124 166 211 260 321 383
#     4  10  24  43  67  95 127 175 219 269 329 382
#     4   9  21  38  59  93 120 166 212 255 324 381
#
# _framework density 22.130583000000001
#
# number of rings (size 3 to 8) (size 9 to 14) (size 15 to 20)
#    0.000    1.750    0.000    4.500    3.500    1.000 
#    0.000    0.000   16.500    0.000    0.000    0.000 
#    0.000    0.000    0.000    0.000    0.000    0.000 
#
# Total GULP energy -89223.296846 kJ/mol
# GULP energy per Si atom -5576.456053 kJ/mol
# Density = 2.208021 g / cm^3
# Si number density = 22.130583 Si / 1000 Ang^3
#
#
#
# Elastic Constant Matrix: (Units=GPa)
#
#
# Indices 1 2 3 4 5 6 
#
# 1 78.9009 7.6048 0.4729 4.0869 -0.1243 -13.4123
# 2 7.6048 57.4543 18.9025 -4.8088 -2.3397 -17.6889
# 3 0.4729 18.9025 61.3449 21.0062 -9.5973 -9.2433
# 4 4.0869 -4.8088 21.0062 29.7225 -8.6834 -3.8786
# 5 -0.1243 -2.3397 -9.5973 -8.6834 24.1660 -3.2802
# 6 -13.4123 -17.6889 -9.2433 -3.8786 -3.2802 28.6110
#
#
#
# Elastic Compliance Matrix: (Units=1/GPa)
#
#
# Indices 1 2 3 4 5 6 
#
# 1 0.013966 -0.000648 0.002021 -0.002343 0.000863 0.006580
# 2 -0.000648 0.027538 -0.010493 0.015958 0.006433 0.016233
# 3 0.002021 -0.010493 0.026932 -0.020175 0.002539 0.000717
# 4 -0.002343 0.015958 -0.020175 0.056884 0.015555 0.011745
# 5 0.000863 0.006433 0.002539 0.015555 0.050382 0.013087
# 6 0.006580 0.016233 0.000717 0.011745 0.013087 0.051397
#
#
# Mechanical properties :
#
#
# Convention : Reuss Voigt Hill
#
# Bulk Modulus (GPa) = 19.92182 27.96229 23.94205
# Shear Modulus (GPa) = 19.07880 27.88122 23.48001
#
# Velocity S-wave (km/s) = 2.93934 3.55329 3.26080
# Velocity P-wave (km/s) = 4.53223 5.43112 5.00191
#
# Compressibility (1/GPa) = 0.05019623
#
# Stress axis : x y z
#
# Youngs Moduli (GPa) = 71.60362 36.31291 37.12991
#
# Poissons Ratio (x) = 0.02355 -0.07503
# Poissons Ratio (y) = 0.04643 0.38959
# Poissons Ratio (z) = -0.14470 0.38102
#
# Static dielectric constant tensor:
#      x y z
#    x 1.904620 0.058920 0.098830 
#    y 0.058920 1.851040 0.042240 
#    z 0.098830 0.042240 1.897200 
# 
# From -- ./inp_files/427391.got.cif
#   From: 2010.05.17/outbox.ucp.g08.bks.cvg/sg2_214_cif.got.tgz:427391.got - 2010.06.11 11:32:03.
