data_PCOD9073427
_publ_section_title
;
Structure prediction by ZEFSAII (Michael W. Deem and Ramdas Pophale) SiO2 
 PCOD9073427
Probable space group: P -1
;
_chemical_formula_sum "Si O2"
_cell_formula_units_Z 16
_cell_length_a 9.000000
_cell_length_b 18.000000
_cell_length_c 12.000000
_cell_angle_alpha 50.000000
_cell_angle_beta 100.000000
_cell_angle_gamma 140.000000
_cell_volume 729.599496
_symmetry_space_group_name_H-M "P -1"
_symmetry_group_IT_number 2
_symmetry_cell_setting 'triclinic'
loop_
_space_group_symop_operation_xyz
x,y,z
-x,-y,-z
loop_
_atom_site_type_symbol
_atom_site_label
_atom_site_fract_x
_atom_site_fract_y
_atom_site_fract_z
Si Si1 0.619937 0.953110 0.929656
Si Si2 0.307237 0.976570 0.879966
Si Si3 0.488097 0.846358 0.773886
Si Si4 0.241894 0.385666 0.489846
Si Si5 0.170848 0.233874 0.405050
Si Si6 0.031399 0.758836 0.841499
Si Si7 0.931266 0.410079 0.458886
Si Si8 0.332481 0.628862 0.750042
O O1 0.364154 0.892210 0.983283
O O2 0.487948 0.818832 0.934630
O O3 0.926237 0.166686 0.708945
O O4 0.720993 0.984816 0.041121
O O5 0.070512 0.847753 0.871093
O O6 0.614208 0.182630 0.664287
O O7 0.343090 0.875150 0.732488
O O8 0.339562 0.705007 0.785648
O O9 0.836247 0.029884 0.606384
O O10 0.500000 0.500000 0.500000
O O11 0.314861 0.378882 0.384888
O O12 0.180026 0.466983 0.405315
O O13 0.353238 0.238031 0.390942
O O14 0.112672 0.263562 0.257441
O O15 0.821565 0.553441 0.047852
O O16 0.855498 0.432405 0.319349
O O17 0.000000 0.500000 0.500000
#
# Coordination Sequence:
#
# PCOD9073427 Si02
#       8
#     2   2   2   2   2   2   2   2
#     4   8  18  35  63  90 115 169 198 254 296 379
#     4   9  19  37  63  88 124 157 215 240 310 375
#     4  10  21  40  65  92 127 160 211 261 320 361
#     4  10  21  39  65  91 126 166 209 253 305 383
#     4  11  23  42  64  90 126 173 213 248 317 381
#     4  11  23  40  68  93 122 171 214 257 307 381
#     4  11  24  39  64  96 125 164 207 261 319 366
#     4  12  25  40  64  96 131 159 208 272 315 362
#
# _framework density 21.929839999999999
#
# number of rings (size 3 to 8) (size 9 to 14) (size 15 to 20)
#    0.000    1.750    0.000    4.500    8.750    0.000 
#    0.000    0.000    2.750    3.000    0.000    0.000 
#    0.000    0.000    0.000    0.000    0.000    0.000 
#
# Total GULP energy -89162.430386 kJ/mol
# GULP energy per Si atom -5572.651899 kJ/mol
# Density = 2.187993 g / cm^3
# Si number density = 21.929840 Si / 1000 Ang^3
#
#
#
# Elastic Constant Matrix: (Units=GPa)
#
#
# Indices 1 2 3 4 5 6 
#
# 1 91.7993 46.1461 16.4377 20.4014 -9.9620 7.8233
# 2 46.1461 216.0435 34.5363 52.4107 7.9371 -19.4475
# 3 16.4377 34.5363 70.4990 22.5955 -7.0360 2.8048
# 4 20.4014 52.4107 22.5955 43.2859 -3.5226 -8.7744
# 5 -9.9620 7.9371 -7.0360 -3.5226 22.3595 2.6819
# 6 7.8233 -19.4475 2.8048 -8.7744 2.6819 45.3292
#
#
#
# Elastic Compliance Matrix: (Units=1/GPa)
#
#
# Indices 1 2 3 4 5 6 
#
# 1 0.014389 -0.002918 0.000222 -0.003750 0.007516 -0.004920
# 2 -0.002918 0.007680 -0.001543 -0.007019 -0.005964 0.002889
# 3 0.000222 -0.001543 0.018158 -0.008015 0.005542 -0.003703
# 4 -0.003750 -0.007019 -0.008015 0.038964 0.003783 0.005451
# 5 0.007516 -0.005964 0.005542 0.003783 0.053324 -0.006621
# 6 -0.004920 0.002889 -0.003703 0.005451 -0.006621 0.025825
#
#
# Mechanical properties :
#
#
# Convention : Reuss Voigt Hill
#
# Bulk Modulus (GPa) = 31.49612 63.62023 47.55818
# Shear Modulus (GPa) = 28.18480 40.94303 34.56392
#
# Velocity S-wave (km/s) = 3.58889 4.32557 3.97434
# Velocity P-wave (km/s) = 5.61845 7.34991 6.54172
#
# Compressibility (1/GPa) = 0.03174994
#
# Stress axis : x y z
#
# Youngs Moduli (GPa) = 69.49897 130.20112 55.07272
#
# Poissons Ratio (x) = 0.37995 -0.01225
# Poissons Ratio (y) = 0.20281 0.08496
# Poissons Ratio (z) = -0.01546 0.20087
#
# Static dielectric constant tensor:
#      x y z
#    x 1.814400 -0.002570 0.014490 
#    y -0.002570 1.901880 -0.048130 
#    z 0.014490 -0.048130 1.855670 
# 
# From -- ./inp_files/403018.got.cif
#   From: 2010.05.17/outbox.ucp.g08.bks.cvg/sg2_202_cif.got.tgz:403018.got - 2010.06.11 11:32:03.
