data_PCOD9073520
_publ_section_title
;
Structure prediction by ZEFSAII (Michael W. Deem and Ramdas Pophale) SiO2 
 PCOD9073520
Probable space group: P -1
;
_chemical_formula_sum "Si O2"
_cell_formula_units_Z 14
_cell_length_a 15.000000
_cell_length_b 9.000000
_cell_length_c 12.000000
_cell_angle_alpha 130.000000
_cell_angle_beta 150.000000
_cell_angle_gamma 60.000000
_cell_volume 613.666794
_symmetry_space_group_name_H-M "P -1"
_symmetry_group_IT_number 2
_symmetry_cell_setting 'triclinic'
loop_
_space_group_symop_operation_xyz
x,y,z
-x,-y,-z
loop_
_atom_site_type_symbol
_atom_site_label
_atom_site_fract_x
_atom_site_fract_y
_atom_site_fract_z
Si Si1 0.256089 0.622501 0.759191
Si Si2 0.351823 0.638144 0.435051
Si Si3 0.260606 0.576588 0.066580
Si Si4 0.320449 0.423230 0.502820
Si Si5 0.209817 0.000277 0.210294
Si Si6 0.386236 0.072407 0.680101
Si Si7 0.888578 0.725539 0.395759
O O1 0.251352 0.491245 0.578558
O O2 0.197980 0.461955 0.713575
O O3 0.101863 0.762224 0.660981
O O4 0.450370 0.750749 0.046113
O O5 0.500000 0.500000 0.500000
O O6 0.232975 0.624046 0.188909
O O7 0.252481 0.554535 0.397201
O O8 0.440360 0.860394 0.660367
O O9 0.462957 0.539954 0.242103
O O10 0.238740 0.789113 0.092547
O O11 0.141916 0.374890 0.805909
O O12 0.275841 0.196757 0.308453
O O13 0.313067 0.052091 0.464424
O O14 0.000000 0.000000 0.000000
O O15 0.225433 0.110088 0.607801
#
# Coordination Sequence:
#
# PCOD9073520 Si02
#       7
#     2   2   2   2   2   2   2
#     4  11  23  38  68 100 129 169 213 269 325 373
#     4   9  23  43  67  92 127 178 215 259 324 386
#     4  10  21  40  65  95 129 168 213 269 319 379
#     4  11  20  42  66  94 128 173 217 261 325 382
#     4  11  23  39  64  98 127 165 219 265 322 381
#     4  11  22  45  67  94 131 172 213 264 325 381
#     4  11  22  40  67 100 131 162 221 269 314 384
#
# _framework density 22.813683000000001
#
# number of rings (size 3 to 8) (size 9 to 14) (size 15 to 20)
#    0.000    1.429    2.857    2.571    2.000    2.857 
#    0.000    7.143    3.143    0.000    0.000    0.000 
#    0.000    0.000    0.000    0.000    0.000    0.000 
#
# Total GULP energy -78160.923050 kJ/mol
# GULP energy per Si atom -5582.923075 kJ/mol
# Density = 2.276176 g / cm^3
# Si number density = 22.813683 Si / 1000 Ang^3
#
#
#
# Elastic Constant Matrix: (Units=GPa)
#
#
# Indices 1 2 3 4 5 6 
#
# 1 40.9873 18.6530 8.6287 -6.5951 -11.3937 -18.1542
# 2 18.6530 87.1444 4.4736 14.5841 7.4982 -17.0733
# 3 8.6287 4.4736 44.3543 -5.4389 16.6934 -8.5400
# 4 -6.5951 14.5841 -5.4389 17.0806 -22.5548 1.5994
# 5 -11.3937 7.4982 16.6934 -22.5548 15.4481 -5.7810
# 6 -18.1542 -17.0733 -8.5400 1.5994 -5.7810 40.9446
#
#
#
# Elastic Compliance Matrix: (Units=1/GPa)
#
#
# Indices 1 2 3 4 5 6 
#
# 1 0.017194 0.002805 0.002438 -0.020969 -0.019156 0.007416
# 2 0.002805 0.010437 -0.004026 0.005238 0.011302 0.006147
# 3 0.002438 -0.004026 0.023901 0.016646 0.003829 0.004278
# 4 -0.020969 0.005238 0.016646 -0.000056 -0.039528 -0.009220
# 5 -0.019156 0.011302 0.003829 -0.039528 -0.018234 -0.004012
# 6 0.007416 0.006147 0.004278 -0.009220 -0.004012 0.030961
#
#
# Mechanical properties :
#
#
# Convention : Reuss Voigt Hill
#
# Bulk Modulus (GPa) = 18.53014 26.22186 22.37600
# Shear Modulus (GPa) = 62.69069 24.07670 43.38370
#
# Velocity S-wave (km/s) = 5.24777 3.25216 4.36552
# Velocity P-wave (km/s) = 6.69767 5.06171 5.93632
#
# Compressibility (1/GPa) = 0.05396612
#
# Stress axis : x y z
#
# Youngs Moduli (GPa) = 58.16068 95.81526 41.83913
#
# Poissons Ratio (x) = -0.26877 -0.10202
# Poissons Ratio (y) = -0.16314 0.16845
# Poissons Ratio (z) = -0.14181 0.38576
#
# Static dielectric constant tensor:
#      x y z
#    x 1.896110 0.084080 -0.044720 
#    y 0.084080 1.930720 -0.038730 
#    z -0.044720 -0.038730 2.056160 
# 
# From -- ./inp_files/261442.got.cif
#   From: 2010.05.17/outbox.ucp.g08.bks.cvg/sg2_131_cif.got.tgz:261442.got - 2010.06.11 11:32:03.
