data_PCOD9073306
_publ_section_title
;
Structure prediction by ZEFSAII (Michael W. Deem and Ramdas Pophale) SiO2 
 PCOD9073306
Probable space group: P -1
;
_chemical_formula_sum "Si O2"
_cell_formula_units_Z 14
_cell_length_a 18.757905
_cell_length_b 11.613432
_cell_length_c 7.643396
_cell_angle_alpha 106.291298
_cell_angle_beta 120.219373
_cell_angle_gamma 26.039900
_cell_volume 563.219694
_symmetry_space_group_name_H-M "P -1"
_symmetry_group_IT_number 2
_symmetry_cell_setting 'triclinic'
loop_
_space_group_symop_operation_xyz
x,y,z
-x,-y,-z
loop_
_atom_site_type_symbol
_atom_site_label
_atom_site_fract_x
_atom_site_fract_y
_atom_site_fract_z
Si Si1 0.647454 0.691576 0.752479
Si Si2 0.620829 0.001282 0.758793
Si Si3 0.950215 0.240666 0.193224
Si Si4 0.298980 0.792203 0.667012
Si Si5 0.358829 0.504320 0.887586
Si Si6 0.748718 0.752902 0.310370
Si Si7 0.071481 0.298772 0.766643
O O1 0.522501 0.786243 0.492890
O O2 0.674731 0.790303 0.759339
O O3 0.488096 0.917721 0.810916
O O4 0.858398 0.356500 0.934236
O O5 0.477342 0.232466 0.841447
O O6 0.824684 0.805344 0.966800
O O7 0.845321 0.272277 0.183762
O O8 0.851448 0.498088 0.247030
O O9 0.186620 0.930489 0.401002
O O10 0.336184 0.620159 0.741041
O O11 0.134135 0.080714 0.707651
O O12 0.499714 0.607741 0.851181
O O13 0.823662 0.760207 0.282306
O O14 0.841809 0.630429 0.571281
#
# Coordination Sequence:
#
# PCOD9073306 Si02
#       7
#     2   2   2   2   2   2   2
#     4  11  20  31  50  77 108 136 169 207 264 313
#     4  10  20  33  49  74 108 141 165 209 262 310
#     4  11  19  33  56  80 102 134 175 221 256 305
#     4   9  20  33  56  81 100 132 179 216 257 301
#     4  10  19  37  57  75 104 137 173 219 256 302
#     4  10  18  31  54  79 101 131 173 219 261 302
#     4   9  18  33  53  77 103 130 172 220 259 301
#
# _framework density 24.857084
#
# number of rings (size 3 to 8) (size 9 to 14) (size 15 to 20)
#    0.000    2.000    2.857    2.571    0.000    0.571 
#    0.000    0.714    0.000   13.714    0.000    0.000 
#    0.000    0.000    0.000    0.000    0.000    0.000 
#
# Total GULP energy -78179.388335 kJ/mol
# GULP energy per Si atom -5584.242024 kJ/mol
# Density = 2.480051 g / cm^3
# Si number density = 24.857084 Si / 1000 Ang^3
#
#
#
# Elastic Constant Matrix: (Units=GPa)
#
#
# Indices 1 2 3 4 5 6 
#
# 1 64.8333 9.5065 -11.5861 5.4160 -3.4599 5.3126
# 2 9.5065 24.5804 13.1721 -4.1625 -0.2471 6.1885
# 3 -11.5861 13.1721 192.8700 -19.4517 -14.5502 5.1835
# 4 5.4160 -4.1625 -19.4517 26.3673 -1.7167 1.3368
# 5 -3.4599 -0.2471 -14.5502 -1.7167 23.2809 -4.2044
# 6 5.3126 6.1885 5.1835 1.3368 -4.2044 20.0575
#
#
#
# Elastic Compliance Matrix: (Units=1/GPa)
#
#
# Indices 1 2 3 4 5 6 
#
# 1 0.017391 -0.007612 0.001486 -0.003400 0.002854 -0.001817
# 2 -0.007612 0.050064 -0.003068 0.007625 -0.004499 -0.014089
# 3 0.001486 -0.003068 0.006235 0.004113 0.004311 -0.000429
# 4 -0.003400 0.007625 0.004113 0.043383 0.004541 -0.004454
# 5 0.002854 -0.004499 0.004311 0.004541 0.048036 0.009285
# 6 -0.001817 -0.014089 -0.000429 -0.004454 0.009285 0.057039
#
#
# Mechanical properties :
#
#
# Convention : Reuss Voigt Hill
#
# Bulk Modulus (GPa) = 18.08263 33.82986 25.95625
# Shear Modulus (GPa) = 19.30724 32.02055 25.66390
#
# Velocity S-wave (km/s) = 2.79001 3.59302 3.21667
# Velocity P-wave (km/s) = 4.20349 5.55449 4.92553
#
# Compressibility (1/GPa) = 0.05530169
#
# Stress axis : x y z
#
# Youngs Moduli (GPa) = 57.50100 19.97444 160.38094
#
# Poissons Ratio (x) = 0.15204 -0.23829
# Poissons Ratio (y) = 0.43769 0.49208
# Poissons Ratio (z) = -0.08543 0.06129
#
# Static dielectric constant tensor:
#      x y z
#    x 1.935260 -0.024780 0.007790 
#    y -0.024780 1.964300 0.023440 
#    z 0.007790 0.023440 2.151880 
# 
# From -- ./inp_files/169532.got.cif
#   From: 2010.05.17/outbox.cif.g08.bks.cpg/sg2_85_cif.got.tgz:169532.got - 2010.06.03 11:33:40.
