data_PCOD9073407
_publ_section_title
;
Structure prediction by ZEFSAII (Michael W. Deem and Ramdas Pophale) SiO2 
 PCOD9073407
Probable space group: P -1
;
_chemical_formula_sum "Si O2"
_cell_formula_units_Z 14
_cell_length_a 12.000000
_cell_length_b 21.000000
_cell_length_c 9.000000
_cell_angle_alpha 30.000000
_cell_angle_beta 140.000000
_cell_angle_gamma 140.000000
_cell_volume 690.757590
_symmetry_space_group_name_H-M "P -1"
_symmetry_group_IT_number 2
_symmetry_cell_setting 'triclinic'
loop_
_space_group_symop_operation_xyz
x,y,z
-x,-y,-z
loop_
_atom_site_type_symbol
_atom_site_label
_atom_site_fract_x
_atom_site_fract_y
_atom_site_fract_z
Si Si1 0.260530 0.160366 0.624336
Si Si2 0.784527 0.783357 0.881252
Si Si3 0.876332 0.079579 0.527281
Si Si4 0.321068 0.935575 0.345197
Si Si5 0.636987 0.298591 0.343143
Si Si6 0.326112 0.729069 0.208008
Si Si7 0.972709 0.545371 0.548378
O O1 0.214141 0.166095 0.390816
O O2 0.467609 0.260913 0.649820
O O3 0.082173 0.168628 0.512146
O O4 0.285735 0.026448 0.992151
O O5 0.572207 0.699833 0.873789
O O6 0.841533 0.924117 0.750349
O O7 0.904312 0.678789 0.221508
O O8 0.838933 0.087835 0.648000
O O9 0.739571 0.148122 0.166943
O O10 0.351841 0.811585 0.541891
O O11 0.500000 0.000000 0.500000
O O12 0.668301 0.264517 0.617789
O O13 0.821147 0.421339 0.245220
O O14 0.185025 0.588680 0.288472
O O15 0.000000 0.500000 0.500000
#
# Coordination Sequence:
#
# PCOD9073407 Si02
#       7
#     2   2   2   2   2   2   2
#     4  11  22  36  60  91 122 158 205 252 307 355
#     4  11  22  38  66  96 122 157 208 258 305 368
#     4  12  23  39  65  93 126 162 206 254 309 366
#     4  12  22  40  62  89 133 163 202 255 312 359
#     4  10  21  39  63  90 124 162 203 252 308 359
#     4  10  22  40  64  93 124 158 205 258 306 365
#     4  10  22  40  63  94 126 159 202 255 312 366
#
# _framework density 20.267602
#
# number of rings (size 3 to 8) (size 9 to 14) (size 15 to 20)
#    0.000    1.143    2.857    4.286    0.000    8.571 
#    0.000    0.714    0.000    7.714    0.000    0.000 
#    0.000    0.000    0.000    0.000    0.000    0.000 
#
# Total GULP energy -78062.558070 kJ/mol
# GULP energy per Si atom -5575.897005 kJ/mol
# Density = 2.022147 g / cm^3
# Si number density = 20.267602 Si / 1000 Ang^3
#
#
#
# Elastic Constant Matrix: (Units=GPa)
#
#
# Indices 1 2 3 4 5 6 
#
# 1 139.2870 45.0375 10.1467 -4.8526 15.7785 28.0039
# 2 45.0375 97.2790 8.1691 -2.8433 7.3196 23.2577
# 3 10.1467 8.1691 57.7238 -4.7853 15.9466 0.4298
# 4 -4.8526 -2.8433 -4.7853 23.6186 5.0318 11.1351
# 5 15.7785 7.3196 15.9466 5.0318 27.9159 4.6364
# 6 28.0039 23.2577 0.4298 11.1351 4.6364 43.9726
#
#
#
# Elastic Compliance Matrix: (Units=1/GPa)
#
#
# Indices 1 2 3 4 5 6 
#
# 1 0.009989 -0.002715 0.000628 0.005738 -0.005361 -0.005819
# 2 -0.002715 0.013290 -0.000663 0.004103 -0.001281 -0.006198
# 3 0.000628 -0.000663 0.021803 0.007793 -0.013913 -0.000769
# 4 0.005738 0.004103 0.007793 0.057913 -0.016075 -0.018871
# 5 -0.005361 -0.001281 -0.013913 -0.016075 0.049522 0.003077
# 6 -0.005819 -0.006198 -0.000769 -0.018871 0.003077 0.034187
#
#
# Mechanical properties :
#
#
# Convention : Reuss Voigt Hill
#
# Bulk Modulus (GPa) = 25.26399 46.77738 36.02069
# Shear Modulus (GPa) = 24.34307 34.49719 29.42013
#
# Velocity S-wave (km/s) = 3.46942 4.13011 3.81410
# Velocity P-wave (km/s) = 5.34242 6.77301 6.09980
#
# Compressibility (1/GPa) = 0.03958202
#
# Stress axis : x y z
#
# Youngs Moduli (GPa) = 100.11374 75.24191 45.86609
#
# Poissons Ratio (x) = 0.20427 -0.02882
# Poissons Ratio (y) = 0.27179 0.03043
# Poissons Ratio (z) = -0.06291 0.04991
#
# Static dielectric constant tensor:
#      x y z
#    x 1.747270 0.066790 -0.008530 
#    y 0.066790 1.781300 0.001370 
#    z -0.008530 0.001370 1.719670 
# 
# From -- ./inp_files/280003.got.cif
#   From: 2010.05.17/outbox.ucp.g08.bks.cvg/sg2_141_cif.got.tgz:280003.got - 2010.06.11 11:32:03.
