data_PCOD9073763
_publ_section_title
;
Structure prediction by ZEFSAII (Michael W. Deem and Ramdas Pophale) SiO2 
 PCOD9073763
Probable space group: P -1
;
_chemical_formula_sum "Si O2"
_cell_formula_units_Z 16
_cell_length_a 15.000000
_cell_length_b 9.000000
_cell_length_c 9.000000
_cell_angle_alpha 90.000000
_cell_angle_beta 80.000000
_cell_angle_gamma 40.000000
_cell_volume 751.948787
_symmetry_space_group_name_H-M "P -1"
_symmetry_group_IT_number 2
_symmetry_cell_setting 'triclinic'
loop_
_space_group_symop_operation_xyz
x,y,z
-x,-y,-z
loop_
_atom_site_type_symbol
_atom_site_label
_atom_site_fract_x
_atom_site_fract_y
_atom_site_fract_z
Si Si1 0.928507 0.241310 0.658948
Si Si2 0.678475 0.525215 0.282726
Si Si3 0.146439 0.208477 0.126529
Si Si4 0.561919 0.007276 0.839666
Si Si5 0.900667 0.755035 0.211871
Si Si6 0.971099 0.210497 0.318945
Si Si7 0.384677 0.355914 0.348526
Si Si8 0.615605 0.278821 0.346609
O O1 0.761732 0.410220 0.691674
O O2 0.978056 0.277573 0.782165
O O3 0.954758 0.291880 0.493040
O O4 0.020944 0.974896 0.649374
O O5 0.563029 0.733878 0.199134
O O6 0.630028 0.618078 0.468211
O O7 0.684076 0.340218 0.258623
O O8 0.836888 0.396771 0.243916
O O9 0.115839 0.086668 0.204685
O O10 0.996911 0.485298 0.216091
O O11 0.290588 0.098262 0.152569
O O12 0.146286 0.198786 0.947166
O O13 0.592158 0.841322 0.709480
O O14 0.500000 0.000000 0.000000
O O15 0.755314 0.994344 0.343346
O O16 0.514766 0.302089 0.276031
O O17 0.500000 0.500000 0.500000
#
# Coordination Sequence:
#
# PCOD9073763 Si02
#       8
#     2   2   2   2   2   2   2   2
#     4  10  21  43  70  98 135 168 229 277 333 395
#     4  10  23  42  67  97 131 171 226 275 338 394
#     4  11  27  43  67 100 135 184 223 271 340 399
#     4  12  26  45  63  95 138 180 224 275 328 406
#     4  11  23  46  66  97 137 176 229 275 333 399
#     4  10  23  41  69 103 132 172 220 282 334 399
#     4  10  22  42  67  97 129 176 218 279 339 389
#     4  10  22  42  70 100 130 176 221 280 336 391
#
# _framework density 21.278044999999999
#
# number of rings (size 3 to 8) (size 9 to 14) (size 15 to 20)
#    0.000    1.500    2.500    1.125    8.750    2.000 
#    4.500    1.250    0.000    0.000    0.000    0.000 
#    0.000    0.000    0.000    0.000    0.000    0.000 
#
# Total GULP energy -89156.797819 kJ/mol
# GULP energy per Si atom -5572.299864 kJ/mol
# Density = 2.122962 g / cm^3
# Si number density = 21.278045 Si / 1000 Ang^3
#
#
#
# Elastic Constant Matrix: (Units=GPa)
#
#
# Indices 1 2 3 4 5 6 
#
# 1 164.3756 24.5809 30.4713 -21.9424 11.3395 -40.4206
# 2 24.5809 106.6496 12.7293 -8.5785 7.8402 -34.3038
# 3 30.4713 12.7293 17.5836 -6.9711 6.6538 -5.6226
# 4 -21.9424 -8.5785 -6.9711 24.7277 -11.1165 5.8571
# 5 11.3395 7.8402 6.6538 -11.1165 30.4136 0.6550
# 6 -40.4206 -34.3038 -5.6226 5.8571 0.6550 38.8618
#
#
#
# Elastic Compliance Matrix: (Units=1/GPa)
#
#
# Indices 1 2 3 4 5 6 
#
# 1 0.013005 0.004089 -0.019314 0.004034 -0.000499 0.013742
# 2 0.004089 0.015233 -0.011653 0.000454 -0.003081 0.015997
# 3 -0.019314 -0.011653 0.099401 0.006963 -0.008632 -0.016897
# 4 0.004034 0.000454 0.006963 0.054369 0.016790 -0.002873
# 5 -0.000499 -0.003081 -0.008632 0.016790 0.042052 -0.007726
# 6 0.013742 0.015997 -0.016897 -0.002873 -0.007726 0.052265
#
#
# Mechanical properties :
#
#
# Convention : Reuss Voigt Hill
#
# Bulk Modulus (GPa) = 13.53485 47.13017 30.33251
# Shear Modulus (GPa) = 14.09606 33.52243 23.80925
#
# Velocity S-wave (km/s) = 2.57664 3.97350 3.34871
# Velocity P-wave (km/s) = 3.90216 6.57642 5.40723
#
# Compressibility (1/GPa) = 0.07388336
#
# Stress axis : x y z
#
# Youngs Moduli (GPa) = 76.89595 65.64516 10.06025
#
# Poissons Ratio (x) = -0.26843 0.19430
# Poissons Ratio (y) = -0.31443 0.11723
# Poissons Ratio (z) = 1.48518 0.76495
#
# Static dielectric constant tensor:
#      x y z
#    x 1.780210 0.019310 -0.009700 
#    y 0.019310 1.851140 0.060820 
#    z -0.009700 0.060820 1.812130 
# 
# From -- ./inp_files/298520.got.cif
#   From: 2010.05.17/outbox.ucp.g08.bks.cvg/sg2_150_cif.got.tgz:298520.got - 2010.06.11 11:32:03.
