data_PCOD9073294
_publ_section_title
;
Structure prediction by ZEFSAII (Michael W. Deem and Ramdas Pophale) SiO2 
 PCOD9073294
Probable space group: P -1
;
_chemical_formula_sum "Si O2"
_cell_formula_units_Z 14
_cell_length_a 27.000000
_cell_length_b 27.000000
_cell_length_c 15.000000
_cell_angle_alpha 160.000000
_cell_angle_beta 20.000000
_cell_angle_gamma 170.000000
_cell_volume 630.401208
_symmetry_space_group_name_H-M "P -1"
_symmetry_group_IT_number 2
_symmetry_cell_setting 'triclinic'
loop_
_space_group_symop_operation_xyz
x,y,z
-x,-y,-z
loop_
_atom_site_type_symbol
_atom_site_label
_atom_site_fract_x
_atom_site_fract_y
_atom_site_fract_z
Si Si1 0.800874 0.126694 0.762055
Si Si2 0.715148 0.116952 0.522585
Si Si3 0.340213 0.561680 0.164141
Si Si4 0.156338 0.210552 0.675921
Si Si5 0.747411 0.377666 0.765620
Si Si6 0.799102 0.287259 0.865742
Si Si7 0.283983 0.329871 0.373728
O O1 0.787652 0.136056 0.693331
O O2 0.041114 0.228002 0.570043
O O3 0.901953 0.372260 0.040042
O O4 0.466732 0.831792 0.862412
O O5 0.617663 0.160321 0.692989
O O6 0.792624 0.253495 0.715903
O O7 0.994547 0.273513 0.275083
O O8 0.473372 0.785524 0.389077
O O9 0.423239 0.715431 0.190366
O O10 0.500872 0.548687 0.860692
O O11 0.476595 0.432893 0.548034
O O12 0.165276 0.391043 0.949829
O O13 0.000000 0.000000 0.500000
O O14 0.932370 0.979073 0.742183
O O15 0.000000 0.500000 0.500000
#
# Coordination Sequence:
#
# PCOD9073294 Si02
#       7
#     2   2   2   2   2   2   2
#     4  10  22  42  62  87 121 164 195 255 324 361
#     4  11  21  37  63  89 118 156 213 254 297 353
#     4  10  21  38  58  88 121 164 200 248 302 373
#     4  11  24  39  59  91 127 162 214 256 295 379
#     4   9  20  38  59  84 122 166 200 247 304 363
#     4  10  22  40  64  90 119 152 213 258 301 369
#     4  11  22  42  61  84 128 167 198 244 328 364
#
# _framework density 22.208079000000001
#
# number of rings (size 3 to 8) (size 9 to 14) (size 15 to 20)
#    0.000    1.714    0.000    5.143    2.000    3.429 
#   10.286    1.429    0.000    0.000    0.000    0.000 
#    0.000    0.000    0.000    0.000    0.000    0.000 
#
# Total GULP energy -77969.492508 kJ/mol
# GULP energy per Si atom -5569.249465 kJ/mol
# Density = 2.215753 g / cm^3
# Si number density = 22.208079 Si / 1000 Ang^3
#
#
#
# Elastic Constant Matrix: (Units=GPa)
#
#
# Indices 1 2 3 4 5 6 
#
# 1 61.0897 -4.9674 25.6427 -16.4665 -5.8651 13.8262
# 2 -4.9674 88.2011 12.4493 -8.4592 -12.8036 14.6608
# 3 25.6427 12.4493 83.9818 -7.3908 -20.8267 6.0858
# 4 -16.4665 -8.4592 -7.3908 36.8980 17.0761 -2.6962
# 5 -5.8651 -12.8036 -20.8267 17.0761 28.7598 -10.4229
# 6 13.8262 14.6608 6.0858 -2.6962 -10.4229 30.6854
#
#
#
# Elastic Compliance Matrix: (Units=1/GPa)
#
#
# Indices 1 2 3 4 5 6 
#
# 1 0.028617 0.005350 -0.010827 0.018342 -0.016821 -0.017405
# 2 0.005350 0.013765 -0.002805 0.004629 -0.000534 -0.008206
# 3 -0.010827 -0.002805 0.018892 -0.009908 0.019030 0.008065
# 4 0.018342 0.004629 -0.009908 0.050452 -0.037413 -0.016786
# 5 -0.016821 -0.000534 0.019030 -0.037413 0.076836 0.026872
# 6 -0.017405 -0.008206 0.008065 -0.016786 0.026872 0.050405
#
#
# Mechanical properties :
#
#
# Convention : Reuss Voigt Hill
#
# Bulk Modulus (GPa) = 22.36536 33.28020 27.82278
# Shear Modulus (GPa) = 18.48878 32.61183 25.55031
#
# Velocity S-wave (km/s) = 2.88848 3.83622 3.39558
# Velocity P-wave (km/s) = 4.60620 5.88559 5.28476
#
# Compressibility (1/GPa) = 0.04471201
#
# Stress axis : x y z
#
# Youngs Moduli (GPa) = 34.94368 72.64601 52.93295
#
# Poissons Ratio (x) = -0.38868 0.57311
# Poissons Ratio (y) = -0.18696 0.14846
# Poissons Ratio (z) = 0.37834 0.20375
#
# Static dielectric constant tensor:
#      x y z
#    x 1.884730 0.021860 0.026250 
#    y 0.021860 1.878580 0.056390 
#    z 0.026250 0.056390 1.884550 
# 
# From -- ./inp_files/533546.got.cif
#   From: 2010.05.17/outbox.ucp.g08.bks.cvg/sg2_267_cif.got.tgz:533546.got - 2010.06.11 11:32:03.
