data_PCOD9073021
_publ_section_title
;
Structure prediction by ZEFSAII (Michael W. Deem and Ramdas Pophale) SiO2 
 PCOD9073021
Probable space group: P -1
;
_chemical_formula_sum "Si O2"
_cell_formula_units_Z 16
_cell_length_a 14.911738
_cell_length_b 8.239157
_cell_length_c 8.239149
_cell_angle_alpha 120.269927
_cell_angle_beta 122.888702
_cell_angle_gamma 74.395241
_cell_volume 734.116925
_symmetry_space_group_name_H-M "P -1"
_symmetry_group_IT_number 2
_symmetry_cell_setting 'triclinic'
loop_
_space_group_symop_operation_xyz
x,y,z
-x,-y,-z
loop_
_atom_site_type_symbol
_atom_site_label
_atom_site_fract_x
_atom_site_fract_y
_atom_site_fract_z
Si Si1 0.884593 0.732349 0.051023
Si Si2 0.747181 0.505124 0.359574
Si Si3 0.252819 0.112394 0.257946
Si Si4 0.469231 0.046149 0.305991
Si Si5 0.692430 0.591548 0.983388
Si Si6 0.530770 0.336762 0.076921
Si Si7 0.307569 0.790964 0.399125
Si Si8 0.115405 0.666431 0.347760
O O1 0.790051 0.718309 0.081766
O O2 0.999999 0.755445 0.255445
O O3 0.848787 0.882517 0.956995
O O4 0.884831 0.530564 0.854263
O O5 0.755049 0.718288 0.536757
O O6 0.727575 0.508746 0.151101
O O7 0.848788 0.391791 0.466267
O O8 0.641875 0.413757 0.295326
O O9 0.358127 0.153450 0.271884
O O10 0.272421 0.923529 0.281174
O O11 0.576946 0.139751 0.390431
O O12 0.500000 0.000000 0.500000
O O13 0.448147 0.855040 0.093105
O O14 0.576944 0.686509 0.937186
O O15 0.677962 0.417368 0.760586
O O16 0.500000 0.500000 0.000000
O O17 0.209947 0.791719 0.428266
#
# Coordination Sequence:
#
# PCOD9073021 Si02
#       8
#     2   2   2   2   2   2   2   2
#     4   9  20  37  55  76 104 141 182 217 254 311
#     4  10  19  34  56  80 107 138 174 215 261 311
#     4  10  19  34  56  80 107 138 174 215 261 311
#     4  10  18  31  52  79 110 138 170 211 261 317
#     4  10  19  34  56  80 107 138 174 215 261 311
#     4  10  18  31  52  79 110 138 170 211 261 317
#     4  10  19  34  56  80 107 138 174 215 261 311
#     4   9  20  37  55  76 104 141 182 217 254 311
#
# _framework density 21.794892000000001
#
# number of rings (size 3 to 8) (size 9 to 14) (size 15 to 20)
#    0.000    2.250    0.000    6.750    0.000    2.000 
#    0.000   10.000    0.000   10.500    0.000    0.000 
#    0.000    0.000    0.000    0.000    0.000    0.000 
#
# Total GULP energy -89362.734029 kJ/mol
# GULP energy per Si atom -5585.170877 kJ/mol
# Density = 2.174529 g / cm^3
# Si number density = 21.794892 Si / 1000 Ang^3
#
#
#
# Elastic Constant Matrix: (Units=GPa)
#
#
# Indices 1 2 3 4 5 6 
#
# 1 53.3243 11.5629 8.3194 -13.0922 12.9143 -0.7694
# 2 11.5629 46.9139 15.5024 -14.8331 9.4857 -7.7204
# 3 8.3194 15.5024 58.3805 -13.8136 13.5706 -13.4201
# 4 -13.0922 -14.8331 -13.8136 36.9534 -15.5077 6.1195
# 5 12.9143 9.4857 13.5706 -15.5077 30.0021 -6.0127
# 6 -0.7694 -7.7204 -13.4201 6.1195 -6.0127 29.6850
#
#
#
# Elastic Compliance Matrix: (Units=1/GPa)
#
#
# Indices 1 2 3 4 5 6 
#
# 1 0.022080 -0.003099 -0.000396 0.004012 -0.006796 -0.002616
# 2 -0.003099 0.026342 -0.003894 0.007087 -0.000895 0.003368
# 3 -0.000396 -0.003894 0.021841 0.002966 -0.005517 0.007122
# 4 0.004012 0.007087 0.002966 0.038762 0.014367 -0.001793
# 5 -0.006796 -0.000895 -0.005517 0.014367 0.047202 0.003696
# 6 -0.002616 0.003368 0.007122 -0.001793 0.003696 0.038833
#
#
# Mechanical properties :
#
#
# Convention : Reuss Voigt Hill
#
# Bulk Modulus (GPa) = 18.02303 25.48755 21.75529
# Shear Modulus (GPa) = 21.89779 27.54370 24.72074
#
# Velocity S-wave (km/s) = 3.17317 3.55881 3.37151
# Velocity P-wave (km/s) = 4.65969 5.34850 5.01593
#
# Compressibility (1/GPa) = 0.05548458
#
# Stress axis : x y z
#
# Youngs Moduli (GPa) = 45.28959 37.96185 45.78562
#
# Poissons Ratio (x) = 0.11765 0.01813
# Poissons Ratio (y) = 0.14036 0.17830
# Poissons Ratio (z) = 0.01793 0.14783
#
# Static dielectric constant tensor:
#      x y z
#    x 1.780950 -0.029220 0.043900 
#    y -0.029220 1.691340 0.020050 
#    z 0.043900 0.020050 1.741650 
# 
# From -- ./inp_files/327877.got.cif
#   From: 2010.05.17/outbox.cif.g08.bks.cpg/sg2_164_cif.got.tgz:327877.got - 2010.06.03 11:33:40.
