data_PCOD9073827
_publ_section_title
;
Structure prediction by ZEFSAII (Michael W. Deem and Ramdas Pophale) SiO2 
 PCOD9073827
Probable space group: P -1
;
_chemical_formula_sum "Si O2"
_cell_formula_units_Z 16
_cell_length_a 12.000000
_cell_length_b 12.000000
_cell_length_c 12.000000
_cell_angle_alpha 50.000000
_cell_angle_beta 60.000000
_cell_angle_gamma 100.000000
_cell_volume 763.164900
_symmetry_space_group_name_H-M "P -1"
_symmetry_group_IT_number 2
_symmetry_cell_setting 'triclinic'
loop_
_space_group_symop_operation_xyz
x,y,z
-x,-y,-z
loop_
_atom_site_type_symbol
_atom_site_label
_atom_site_fract_x
_atom_site_fract_y
_atom_site_fract_z
Si Si1 0.269049 0.409433 0.714521
Si Si2 0.195549 0.753995 0.264439
Si Si3 0.956749 0.111568 0.598535
Si Si4 0.429773 0.847792 0.296154
Si Si5 0.390714 0.535604 0.099179
Si Si6 0.711586 0.011636 0.587847
Si Si7 0.112856 0.953287 0.739965
Si Si8 0.396965 0.407282 0.421022
O O1 0.401751 0.663010 0.471696
O O2 0.266029 0.341137 0.635296
O O3 0.391572 0.423802 0.736767
O O4 0.052578 0.252088 0.966913
O O5 0.321909 0.771143 0.280279
O O6 0.000000 0.500000 0.500000
O O7 0.136191 0.856513 0.285950
O O8 0.348043 0.916972 0.984940
O O9 0.165326 0.348684 0.305886
O O10 0.823988 0.002478 0.625794
O O11 0.008994 0.002474 0.698249
O O12 0.308550 0.848593 0.438057
O O13 0.405189 0.519660 0.236170
O O14 0.500000 0.500000 0.000000
O O15 0.496040 0.767072 0.855130
O O16 0.809210 0.083573 0.373183
O O17 0.295708 0.177082 0.569668
#
# Coordination Sequence:
#
# PCOD9073827 Si02
#       8
#     2   2   2   2   2   2   2   2
#     4  11  25  41  61  87 132 168 206 250 302 377
#     4  10  22  40  63  89 126 159 210 256 309 370
#     4  10  22  35  64  97 118 160 202 262 316 357
#     4  10  25  40  60  91 123 170 203 251 313 367
#     4  11  21  38  66  96 126 151 205 267 313 358
#     4  11  22  40  62  92 128 157 205 257 313 370
#     4  11  23  39  63  91 124 162 210 251 305 369
#     4  10  24  40  62  94 120 167 207 258 311 358
#
# _framework density 20.965325
#
# number of rings (size 3 to 8) (size 9 to 14) (size 15 to 20)
#    0.000    1.500    2.500    2.250   14.000    1.500 
#    0.000    0.625    0.000    0.000    0.000    0.000 
#    0.000    0.000    0.000    0.000    0.000    0.000 
#
# Total GULP energy -89356.929186 kJ/mol
# GULP energy per Si atom -5584.808074 kJ/mol
# Density = 2.091761 g / cm^3
# Si number density = 20.965325 Si / 1000 Ang^3
#
#
#
# Elastic Constant Matrix: (Units=GPa)
#
#
# Indices 1 2 3 4 5 6 
#
# 1 11.1899 4.8203 5.4253 4.4232 -11.4869 -1.9055
# 2 4.8203 99.7872 32.1854 26.1297 0.9202 11.1360
# 3 5.4253 32.1854 122.7168 18.5093 -19.2062 12.4770
# 4 4.4232 26.1297 18.5093 34.2097 -1.8094 0.7129
# 5 -11.4869 0.9202 -19.2062 -1.8094 23.1084 -1.0452
# 6 -1.9055 11.1360 12.4770 0.7129 -1.0452 16.9213
#
#
#
# Elastic Compliance Matrix: (Units=1/GPa)
#
#
# Indices 1 2 3 4 5 6 
#
# 1 0.236070 -0.015742 0.013171 -0.019552 0.129020 0.036025
# 2 -0.015742 0.015127 -0.002851 -0.008397 -0.011907 -0.010007
# 3 0.013171 -0.002851 0.012036 -0.005098 0.016071 -0.004308
# 4 -0.019552 -0.008397 -0.005098 0.040290 -0.010252 0.004753
# 5 0.129020 -0.011907 0.016071 -0.010252 0.121271 0.018438
# 6 0.036025 -0.010007 -0.004308 0.004753 0.018438 0.073855
#
#
# Mechanical properties :
#
#
# Convention : Reuss Voigt Hill
#
# Bulk Modulus (GPa) = 3.96214 35.39508 19.67861
# Shear Modulus (GPa) = 8.42286 27.59873 18.01080
#
# Velocity S-wave (km/s) = 2.00655 3.63216 2.93418
# Velocity P-wave (km/s) = 2.69486 5.87447 4.57010
#
# Compressibility (1/GPa) = 0.25238888
#
# Stress axis : x y z
#
# Youngs Moduli (GPa) = 4.23604 66.10789 83.08122
#
# Poissons Ratio (x) = 1.04067 -1.09426
# Poissons Ratio (y) = 0.06668 0.23686
# Poissons Ratio (z) = -0.05579 0.18847
#
# Static dielectric constant tensor:
#      x y z
#    x 1.771070 -0.025030 0.011500 
#    y -0.025030 1.794260 -0.015840 
#    z 0.011500 -0.015840 1.740820 
# 
# From -- ./inp_files/427540.got.cif
#   From: 2010.05.17/outbox.ucp.g08.bks.cvg/sg2_214_cif.got.tgz:427540.got - 2010.06.11 11:32:03.
