data_PCOD9073012
_publ_section_title
;
Structure prediction by ZEFSAII (Michael W. Deem and Ramdas Pophale) SiO2 
 PCOD9073012
Probable space group: P -1
;
_chemical_formula_sum "Si O2"
_cell_formula_units_Z 16
_cell_length_a 15.000000
_cell_length_b 15.000000
_cell_length_c 15.000000
_cell_angle_alpha 140.000000
_cell_angle_beta 20.000000
_cell_angle_gamma 140.000000
_cell_volume 725.414092
_symmetry_space_group_name_H-M "P -1"
_symmetry_group_IT_number 2
_symmetry_cell_setting 'triclinic'
loop_
_space_group_symop_operation_xyz
x,y,z
-x,-y,-z
loop_
_atom_site_type_symbol
_atom_site_label
_atom_site_fract_x
_atom_site_fract_y
_atom_site_fract_z
Si Si1 0.990328 0.261593 0.548265
Si Si2 0.538388 0.704552 0.007467
Si Si3 0.527647 0.407630 0.739627
Si Si4 0.268476 0.865605 0.605913
Si Si5 0.972059 0.446729 0.198462
Si Si6 0.852481 0.984970 0.996367
Si Si7 0.828006 0.947284 0.532104
Si Si8 0.779015 0.183076 0.050829
O O1 0.273801 0.261614 0.233359
O O2 0.994329 0.380981 0.714237
O O3 0.859815 0.099766 0.570647
O O4 0.775370 0.309363 0.722140
O O5 0.577071 0.544256 0.863222
O O6 0.628844 0.838951 0.089795
O O7 0.606887 0.272800 0.610124
O O8 0.740173 0.426441 0.474451
O O9 0.239709 0.406061 0.960390
O O10 0.100348 0.906652 0.712832
O O11 0.500000 0.000000 0.500000
O O12 0.110056 0.895752 0.868666
O O13 0.861892 0.339780 0.138503
O O14 0.798918 0.073186 0.028556
O O15 0.992419 0.843359 0.250633
O O16 0.514204 0.867208 0.758734
O O17 0.000000 0.000000 0.500000
#
# Coordination Sequence:
#
# PCOD9073012 Si02
#       8
#     2   2   2   2   2   2   2   2
#     4  10  20  40  62  92 122 159 200 257 305 368
#     4  10  21  37  64  86 115 168 211 245 302 372
#     4  10  21  39  58  88 126 159 209 262 299 345
#     4  11  25  37  57  88 131 161 204 274 299 343
#     4  10  21  38  65  90 120 165 211 245 304 372
#     4  11  23  38  59  89 121 164 213 244 311 357
#     4  12  25  42  66  99 127 154 202 265 311 364
#     4  12  23  41  68  92 122 169 211 243 307 389
#
# _framework density 22.056367999999999
#
# number of rings (size 3 to 8) (size 9 to 14) (size 15 to 20)
#    0.000    1.250    3.750    1.875    5.250    0.500 
#    0.000    1.875    0.000    0.000    0.000    0.000 
#    0.000    0.000    0.000    0.000    0.000    0.000 
#
# Total GULP energy -89085.820462 kJ/mol
# GULP energy per Si atom -5567.863779 kJ/mol
# Density = 2.200617 g / cm^3
# Si number density = 22.056368 Si / 1000 Ang^3
#
#
#
# Elastic Constant Matrix: (Units=GPa)
#
#
# Indices 1 2 3 4 5 6 
#
# 1 41.1996 -9.6409 12.9931 -1.5714 -17.1714 17.1627
# 2 -9.6409 88.8467 2.8139 22.1379 11.2409 31.4709
# 3 12.9931 2.8139 123.6520 3.5221 -12.9868 7.4977
# 4 -1.5714 22.1379 3.5221 38.8011 19.8838 -2.2334
# 5 -17.1714 11.2409 -12.9868 19.8838 29.7733 0.9404
# 6 17.1627 31.4709 7.4977 -2.2334 0.9404 29.5077
#
#
#
# Elastic Compliance Matrix: (Units=1/GPa)
#
#
# Indices 1 2 3 4 5 6 
#
# 1 -0.111755 -0.088204 -0.013162 0.119851 -0.122474 0.175392
# 2 -0.088204 -0.043680 -0.008086 0.075277 -0.091608 0.108560
# 3 -0.013162 -0.008086 0.007811 0.007699 -0.006749 0.015092
# 4 0.119851 0.075277 0.007699 -0.072119 0.097294 -0.160510
# 5 -0.122474 -0.091608 -0.006749 0.097294 -0.076082 0.180442
# 6 0.175392 0.108560 0.015092 -0.160510 0.180442 -0.205641
#
#
# Mechanical properties :
#
#
# Convention : Reuss Voigt Hill
#
# Bulk Modulus (GPa) = -2.72831 29.55893 13.41531
# Shear Modulus (GPa) = -12.35369 36.11855 11.88243
#
# Velocity S-wave (km/s) = -2.36920 4.05106 2.32357
# Velocity P-wave (km/s) = 2.95361 5.94240 3.64611
#
# Compressibility (1/GPa) = -0.36652733
#
# Stress axis : x y z
#
# Youngs Moduli (GPa) = -8.94812 -22.89396 128.02483
#
# Poissons Ratio (x) = -2.01934 1.68503
# Poissons Ratio (y) = -0.78926 1.03518
# Poissons Ratio (z) = -0.11777 -0.18512
#
# Static dielectric constant tensor:
#      x y z
#    x 1.778780 -0.064120 0.085500 
#    y -0.064120 1.870770 -0.089520 
#    z 0.085500 -0.089520 2.017280 
# 
# From -- ./inp_files/85353.got.cif
#   From: 2010.05.17/outbox.ucp.g08.bks.cvg/sg2_43_cif.got.tgz:85353.got - 2010.06.11 11:32:03.
