data_PCOD9073646
_publ_section_title
;
Structure prediction by ZEFSAII (Michael W. Deem and Ramdas Pophale) SiO2 
 PCOD9073646
Probable space group: P -1
;
_chemical_formula_sum "Si O2"
_cell_formula_units_Z 16
_cell_length_a 9.000000
_cell_length_b 12.000000
_cell_length_c 15.000000
_cell_angle_alpha 150.000000
_cell_angle_beta 110.000000
_cell_angle_gamma 70.000000
_cell_volume 757.522634
_symmetry_space_group_name_H-M "P -1"
_symmetry_group_IT_number 2
_symmetry_cell_setting 'triclinic'
loop_
_space_group_symop_operation_xyz
x,y,z
-x,-y,-z
loop_
_atom_site_type_symbol
_atom_site_label
_atom_site_fract_x
_atom_site_fract_y
_atom_site_fract_z
Si Si1 0.000638 0.508534 0.397164
Si Si2 0.295913 0.202656 0.545128
Si Si3 0.804078 0.941942 0.853670
Si Si4 0.711096 0.225274 0.865381
Si Si5 0.562322 0.652993 0.493916
Si Si6 0.760963 0.123071 0.344210
Si Si7 0.331044 0.254224 0.801345
Si Si8 0.655832 0.124699 0.130915
O O1 0.063340 0.249267 0.214336
O O2 0.107300 0.700632 0.516270
O O3 0.000000 0.500000 0.500000
O O4 0.835308 0.602363 0.382523
O O5 0.440040 0.254731 0.544726
O O6 0.321850 0.207157 0.659554
O O7 0.254833 0.958153 0.333370
O O8 0.682283 0.784212 0.669974
O O9 0.813966 0.122891 0.900574
O O10 0.743503 0.073400 0.020246
O O11 0.519658 0.231587 0.851473
O O12 0.733269 0.481327 0.021162
O O13 0.393926 0.716596 0.547666
O O14 0.613289 0.389585 0.320008
O O15 0.741712 0.037049 0.179171
O O16 0.759007 0.916701 0.272624
O O17 0.500000 0.000000 0.000000
#
# Coordination Sequence:
#
# PCOD9073646 Si02
#       8
#     2   2   2   2   2   2   2   2
#     4  12  24  46  69  93 137 173 216 277 338 386
#     4  11  23  44  70  93 129 184 214 262 331 393
#     4  11  21  42  68  96 128 168 216 271 334 384
#     4  10  21  41  69  98 130 164 217 280 313 383
#     4  11  21  41  66  99 128 166 222 281 318 379
#     4  12  24  41  64  99 137 171 219 277 318 391
#     4  11  23  42  65 102 132 174 221 264 321 389
#     4  12  21  35  63  99 130 167 212 277 337 373
#
# _framework density 21.121480999999999
#
# number of rings (size 3 to 8) (size 9 to 14) (size 15 to 20)
#    0.000    0.750    7.500    2.250    0.000    1.500 
#    4.500    2.500    0.000    0.000    0.000    0.000 
#    0.000    0.000    0.000    0.000    0.000    0.000 
#
# Total GULP energy -89330.443516 kJ/mol
# GULP energy per Si atom -5583.152720 kJ/mol
# Density = 2.107341 g / cm^3
# Si number density = 21.121481 Si / 1000 Ang^3
#
#
#
# Elastic Constant Matrix: (Units=GPa)
#
#
# Indices 1 2 3 4 5 6 
#
# 1 59.8730 22.9577 20.6006 10.0012 14.0597 9.3353
# 2 22.9577 155.2907 55.4980 13.8731 -5.7648 22.1209
# 3 20.6006 55.4980 127.8624 21.1569 -21.2175 13.6077
# 4 10.0012 13.8731 21.1569 55.0476 4.1516 -4.9916
# 5 14.0597 -5.7648 -21.2175 4.1516 32.4153 6.2709
# 6 9.3353 22.1209 13.6077 -4.9916 6.2709 42.0180
#
#
#
# Elastic Compliance Matrix: (Units=1/GPa)
#
#
# Indices 1 2 3 4 5 6 
#
# 1 0.022314 -0.001942 -0.004683 -0.000849 -0.012864 -0.000600
# 2 -0.001942 0.008266 -0.002442 -0.001227 0.001549 -0.003507
# 3 -0.004683 -0.002442 0.012701 -0.004631 0.011282 -0.004022
# 4 -0.000849 -0.001227 -0.004631 0.021454 -0.006769 0.005893
# 5 -0.012864 0.001549 0.011282 -0.006769 0.046774 -0.009396
# 6 -0.000600 -0.003507 -0.004022 0.005893 -0.009396 0.029183
#
#
# Mechanical properties :
#
#
# Convention : Reuss Voigt Hill
#
# Bulk Modulus (GPa) = 39.76222 60.12653 49.94438
# Shear Modulus (GPa) = 29.90300 42.16082 36.03191
#
# Velocity S-wave (km/s) = 3.76674 4.47263 4.13478
# Velocity P-wave (km/s) = 6.14688 7.42976 6.81856
#
# Compressibility (1/GPa) = 0.02514950
#
# Stress axis : x y z
#
# Youngs Moduli (GPa) = 44.81541 120.98090 78.73100
#
# Poissons Ratio (x) = 0.23489 0.36867
# Poissons Ratio (y) = 0.08701 0.19223
# Poissons Ratio (z) = 0.20985 0.29539
#
# Static dielectric constant tensor:
#      x y z
#    x 1.875290 -0.032530 -0.008250 
#    y -0.032530 1.753370 0.017220 
#    z -0.008250 0.017220 1.779200 
# 
# From -- ./inp_files/501258.got.cif
#   From: 2010.05.17/outbox.ucp.g08.bks.cvg/sg2_251_cif.got.tgz:501258.got - 2010.06.11 11:32:03.
