data_PCOD9073945
_publ_section_title
;
Structure prediction by ZEFSAII (Michael W. Deem and Ramdas Pophale) SiO2 
 PCOD9073945
Probable space group: P -1
;
_chemical_formula_sum "Si O2"
_cell_formula_units_Z 14
_cell_length_a 18.000000
_cell_length_b 9.000000
_cell_length_c 21.000000
_cell_angle_alpha 40.000000
_cell_angle_beta 20.000000
_cell_angle_gamma 50.000000
_cell_volume 700.468056
_symmetry_space_group_name_H-M "P -1"
_symmetry_group_IT_number 2
_symmetry_cell_setting 'triclinic'
loop_
_space_group_symop_operation_xyz
x,y,z
-x,-y,-z
loop_
_atom_site_type_symbol
_atom_site_label
_atom_site_fract_x
_atom_site_fract_y
_atom_site_fract_z
Si Si1 0.767989 0.636975 0.636062
Si Si2 0.791417 0.935467 0.112187
Si Si3 0.216746 0.745104 0.161462
Si Si4 0.666240 0.852279 0.387200
Si Si5 0.714397 0.405181 0.988370
Si Si6 0.502377 0.261692 0.717098
Si Si7 0.942565 0.079139 0.449468
O O1 0.660938 0.376556 0.845443
O O2 0.955356 0.639754 0.431881
O O3 0.888408 0.845981 0.522916
O O4 0.559825 0.689907 0.753168
O O5 0.690766 0.831658 0.296762
O O6 0.616824 0.801546 0.237894
O O7 0.807244 0.218898 0.010745
O O8 0.065216 0.979346 0.865093
O O9 0.238917 0.634355 0.111051
O O10 0.311686 0.042013 0.983450
O O11 0.571090 0.555848 0.580693
O O12 0.500000 0.000000 0.500000
O O13 0.833476 0.682545 0.824115
O O14 0.728212 0.180904 0.576239
O O15 0.000000 0.000000 0.500000
#
# Coordination Sequence:
#
# PCOD9073945 Si02
#       7
#     2   2   2   2   2   2   2
#     4  11  22  41  61  93 132 175 220 266 319 380
#     4  10  23  44  68  96 131 169 215 270 333 395
#     4  10  22  40  62  93 131 170 220 267 317 385
#     4  11  25  45  70  99 128 165 220 279 331 393
#     4  11  21  41  65  90 129 175 211 269 325 381
#     4  11  23  45  66  96 137 172 215 274 326 389
#     4  12  22  38  68  96 131 179 217 259 322 384
#
# _framework density 19.986636000000001
#
# number of rings (size 3 to 8) (size 9 to 14) (size 15 to 20)
#    0.000    1.143    5.714    1.714    0.000    4.000 
#    2.571    2.143    0.000    0.000    0.000    0.000 
#    0.000    0.000    0.000    0.000    0.000    0.000 
#
# Total GULP energy -78002.821361 kJ/mol
# GULP energy per Si atom -5571.630097 kJ/mol
# Density = 1.994115 g / cm^3
# Si number density = 19.986636 Si / 1000 Ang^3
#
#
#
# Elastic Constant Matrix: (Units=GPa)
#
#
# Indices 1 2 3 4 5 6 
#
# 1 25.8099 2.7953 23.2535 23.8483 -24.5906 -9.7813
# 2 2.7953 106.5659 36.8241 2.0564 -2.7990 -10.7569
# 3 23.2535 36.8241 78.8829 -5.6790 -5.0899 -3.4487
# 4 23.8483 2.0564 -5.6790 38.8888 -5.1726 -6.7920
# 5 -24.5906 -2.7990 -5.0899 -5.1726 36.7429 -6.9953
# 6 -9.7813 -10.7569 -3.4487 -6.7920 -6.9953 22.9697
#
#
#
# Elastic Compliance Matrix: (Units=1/GPa)
#
#
# Indices 1 2 3 4 5 6 
#
# 1 -0.067470 -0.011573 0.023318 0.033456 -0.044636 -0.034351
# 2 -0.011573 0.009731 -0.001215 0.005355 -0.006606 -0.000982
# 3 0.023318 -0.001215 0.007511 -0.008401 0.017935 0.013467
# 4 0.033456 0.005355 -0.008401 0.012374 0.028687 0.027889
# 5 -0.044636 -0.006606 0.017935 0.028687 0.001361 -0.010511
# 6 -0.034351 -0.000982 0.013467 0.027889 -0.010511 0.035515
#
#
# Mechanical properties :
#
#
# Convention : Reuss Voigt Hill
#
# Bulk Modulus (GPa) = -34.28583 37.44495 1.57956
# Shear Modulus (GPa) = -157.43167 29.61267 -63.90950
#
# Velocity S-wave (km/s) = -8.88479 3.85336 -5.66088
# Velocity P-wave (km/s) = 11.06545 6.21076 6.47575
#
# Compressibility (1/GPa) = -0.02916657
#
# Stress axis : x y z
#
# Youngs Moduli (GPa) = -14.82143 102.76169 133.13194
#
# Poissons Ratio (x) = 1.18930 -3.10442
# Poissons Ratio (y) = -0.17153 0.16171
# Poissons Ratio (z) = 0.34561 0.12482
#
# Static dielectric constant tensor:
#      x y z
#    x 1.749700 -0.063910 0.004220 
#    y -0.063910 1.728990 0.000390 
#    z 0.004220 0.000390 1.750280 
# 
# From -- ./inp_files/591132.got.cif
#   From: 2010.05.17/outbox.ucp.g08.bks.cvg/sg2_296_cif.got.tgz:591132.got - 2010.06.11 11:32:03.
