data_PCOD9073853
_publ_section_title
;
Structure prediction by ZEFSAII (Michael W. Deem and Ramdas Pophale) SiO2 
 PCOD9073853
Probable space group: P -1
;
_chemical_formula_sum "Si O2"
_cell_formula_units_Z 10
_cell_length_a 8.514120
_cell_length_b 5.741861
_cell_length_c 12.950493
_cell_angle_alpha 64.968250
_cell_angle_beta 71.260242
_cell_angle_gamma 116.132086
_cell_volume 402.421365
_symmetry_space_group_name_H-M "P -1"
_symmetry_group_IT_number 2
_symmetry_cell_setting 'triclinic'
loop_
_space_group_symop_operation_xyz
x,y,z
-x,-y,-z
loop_
_atom_site_type_symbol
_atom_site_label
_atom_site_fract_x
_atom_site_fract_y
_atom_site_fract_z
Si Si1 0.179840 0.340827 0.466054
Si Si2 0.763660 0.814567 0.026076
Si Si3 0.273614 0.804125 0.874033
Si Si4 0.679177 0.006559 0.404947
Si Si5 0.100592 0.709376 0.279914
O O1 0.344097 0.294774 0.481529
O O2 0.245916 0.656953 0.324695
O O3 0.051279 0.309806 0.599302
O O4 0.000000 0.000000 0.500000
O O5 0.792470 0.974861 0.878387
O O6 0.652767 0.419948 0.105859
O O7 0.657506 0.924802 0.100716
O O8 0.000000 0.000000 0.000000
O O9 0.330534 0.982165 0.717563
O O10 0.000000 0.500000 0.000000
O O11 0.927555 0.367594 0.311107
O O12 0.500000 0.000000 0.500000
#
# Coordination Sequence:
#
# PCOD9073853 Si02
#       5
#     2   2   2   2   2
#     4   9  20  35  54  81 114 148 195 235 283 339
#     4  10  18  31  58  82 110 142 199 239 277 327
#     4  10  19  34  55  84 112 148 194 235 280 339
#     4  11  22  35  56  87 120 148 183 239 296 343
#     4  10  19  35  58  86 107 153 194 240 277 341
#
# _framework density 24.849575000000002
#
# number of rings (size 3 to 8) (size 9 to 14) (size 15 to 20)
#    0.000    2.000    4.000    2.400    2.800    0.800 
#    0.000    0.000    0.000    2.400    0.000    0.000 
#    0.000    0.000    0.000    0.000    0.000    0.000 
#
# Total GULP energy -55940.965563 kJ/mol
# GULP energy per Si atom -5594.096556 kJ/mol
# Density = 2.479302 g / cm^3
# Si number density = 24.849575 Si / 1000 Ang^3
#
#
#
# Elastic Constant Matrix: (Units=GPa)
#
#
# Indices 1 2 3 4 5 6 
#
# 1 148.5421 54.6746 76.5830 -8.1272 38.7946 -41.3443
# 2 54.6746 188.2948 76.2515 -11.0053 29.5266 -37.7680
# 3 76.5830 76.2515 174.7542 -0.9962 44.7317 -31.6748
# 4 -8.1272 -11.0053 -0.9962 44.7809 -10.6056 4.2861
# 5 38.7946 29.5266 44.7317 -10.6056 54.0281 -2.4789
# 6 -41.3443 -37.7680 -31.6748 4.2861 -2.4789 53.6674
#
#
#
# Elastic Compliance Matrix: (Units=1/GPa)
#
#
# Indices 1 2 3 4 5 6 
#
# 1 0.011462 -0.000061 -0.002106 -0.000133 -0.006146 0.007271
# 2 -0.000061 0.007221 -0.001947 0.000904 -0.001943 0.003724
# 3 -0.002106 -0.001947 0.009319 -0.002178 -0.005455 0.002430
# 4 -0.000133 0.000904 -0.002178 0.024139 0.006033 -0.002401
# 5 -0.006146 -0.001943 -0.005455 0.006033 0.029297 -0.008450
# 6 0.007271 0.003724 0.002430 -0.002401 -0.008450 0.028091
#
#
# Mechanical properties :
#
#
# Convention : Reuss Voigt Hill
#
# Bulk Modulus (GPa) = 50.57047 102.95659 76.76353
# Shear Modulus (GPa) = 40.20970 50.76741 45.48855
#
# Velocity S-wave (km/s) = 4.02696 4.52485 4.28314
# Velocity P-wave (km/s) = 6.48202 8.29583 7.44438
#
# Compressibility (1/GPa) = 0.01977439
#
# Stress axis : x y z
#
# Youngs Moduli (GPa) = 87.24588 138.47911 107.30584
#
# Poissons Ratio (x) = 0.00844 0.22601
# Poissons Ratio (y) = 0.00532 0.20890
# Poissons Ratio (z) = 0.18376 0.26959
#
# Static dielectric constant tensor:
#      x y z
#    x 2.029650 0.068500 -0.059830 
#    y 0.068500 2.031060 -0.045590 
#    z -0.059830 -0.045590 1.884390 
# 
# From -- ./inp_files/371667.got.cif
#   From: 2010.05.17/outbox.cif.g08.bks.cpg/sg2_186_cif.got.tgz:371667.got - 2010.06.03 11:33:40.
