data_PCOD9073844
_publ_section_title
;
Structure prediction by ZEFSAII (Michael W. Deem and Ramdas Pophale) SiO2 
 PCOD9073844
Probable space group: P -1
;
_chemical_formula_sum "Si O2"
_cell_formula_units_Z 16
_cell_length_a 7.895773
_cell_length_b 10.423189
_cell_length_c 19.984501
_cell_angle_alpha 40.149983
_cell_angle_beta 62.628668
_cell_angle_gamma 85.495831
_cell_volume 827.939081
_symmetry_space_group_name_H-M "P -1"
_symmetry_group_IT_number 2
_symmetry_cell_setting 'triclinic'
loop_
_space_group_symop_operation_xyz
x,y,z
-x,-y,-z
loop_
_atom_site_type_symbol
_atom_site_label
_atom_site_fract_x
_atom_site_fract_y
_atom_site_fract_z
Si Si1 0.250679 0.622694 0.091151
Si Si2 0.940361 0.245319 0.630344
Si Si3 0.270808 0.229040 0.016226
Si Si4 0.440521 0.949812 0.804477
Si Si5 0.954337 0.828490 0.772129
Si Si6 0.006892 0.172915 0.872454
Si Si7 0.709135 0.692422 0.347986
Si Si8 0.780830 0.365730 0.137949
O O1 0.480954 0.708925 0.049738
O O2 0.176225 0.373314 0.175240
O O3 0.087488 0.666100 0.148866
O O4 0.293601 0.785993 0.954514
O O5 0.677342 0.108292 0.728683
O O6 0.000000 0.500000 0.500000
O O7 0.087008 0.274867 0.657264
O O8 0.000413 0.077737 0.642560
O O9 0.248745 0.434315 0.904071
O O10 0.179711 0.210865 0.116882
O O11 0.142371 0.003843 0.086846
O O12 0.332741 0.092589 0.736152
O O13 0.421388 0.781002 0.815311
O O14 0.163566 0.795469 0.762393
O O15 0.233919 0.328633 0.731104
O O16 0.000000 0.000000 0.000000
O O17 0.500000 0.500000 0.500000
O O18 0.000000 0.500000 0.000000
#
# Coordination Sequence:
#
# PCOD9073844 Si02
#       8
#     2   2   2   2   2   2   2   2
#     4  12  22  36  62 100 136 164 208 283 352 384
#     4  12  24  38  63 100 124 172 239 271 310 397
#     4  11  20  35  58  96 135 169 208 268 335 404
#     4  12  20  36  65  97 130 170 211 276 326 387
#     4  11  20  36  62  92 136 166 220 270 329 394
#     4  12  24  39  62  97 136 169 217 277 340 393
#     4  12  24  44  64  92 132 182 225 272 325 401
#     4  10  18  31  57  92 133 165 211 264 331 390
#
# _framework density 19.325092999999999
#
# number of rings (size 3 to 8) (size 9 to 14) (size 15 to 20)
#    0.000    0.500    8.750    3.000    0.000    0.000 
#    0.000    0.000    0.000    1.500    3.250    0.000 
#    0.000    0.000    0.000    0.000    0.000    0.000 
#
# Total GULP energy -89123.993667 kJ/mol
# GULP energy per Si atom -5570.249604 kJ/mol
# Density = 1.928111 g / cm^3
# Si number density = 19.325093 Si / 1000 Ang^3
#
#
#
# Elastic Constant Matrix: (Units=GPa)
#
#
# Indices 1 2 3 4 5 6 
#
# 1 104.3861 25.5597 37.0206 -5.5806 12.6923 -0.9079
# 2 25.5597 104.9010 45.8372 -17.6053 2.3960 -7.7603
# 3 37.0206 45.8372 89.5855 -16.2185 6.8799 -7.1444
# 4 -5.5806 -17.6053 -16.2185 28.8539 -11.5244 5.2656
# 5 12.6923 2.3960 6.8799 -11.5244 28.6576 -15.1121
# 6 -0.9079 -7.7603 -7.1444 5.2656 -15.1121 34.1697
#
#
#
# Elastic Compliance Matrix: (Units=1/GPa)
#
#
# Indices 1 2 3 4 5 6 
#
# 1 0.012341 -0.001718 -0.004592 -0.003618 -0.007720 -0.003879
# 2 -0.001718 0.013385 -0.005114 0.006431 0.005149 0.003211
# 3 -0.004592 -0.005114 0.016748 0.005771 0.001907 0.002173
# 4 -0.003618 0.006431 0.005771 0.048999 0.021855 0.004686
# 5 -0.007720 0.005149 0.001907 0.021855 0.058892 0.024041
# 6 -0.003879 0.003211 0.002173 0.004686 0.024041 0.040257
#
#
# Mechanical properties :
#
#
# Convention : Reuss Voigt Hill
#
# Bulk Modulus (GPa) = 50.95273 57.30083 54.12678
# Shear Modulus (GPa) = 22.72605 31.03326 26.87965
#
# Velocity S-wave (km/s) = 3.43299 4.01166 3.73355
# Velocity P-wave (km/s) = 6.49132 7.15355 6.83046
#
# Compressibility (1/GPa) = 0.01962603
#
# Stress axis : x y z
#
# Youngs Moduli (GPa) = 81.03302 74.70975 59.70791
#
# Poissons Ratio (x) = 0.12837 0.27418
# Poissons Ratio (y) = 0.13923 0.30533
# Poissons Ratio (z) = 0.37211 0.38204
#
# Static dielectric constant tensor:
#      x y z
#    x 1.738060 0.019170 0.015890 
#    y 0.019170 1.716790 -0.014140 
#    z 0.015890 -0.014140 1.734520 
# 
# From -- ./inp_files/269701.got.cif
#   From: 2010.05.17/outbox.cif.g08.bks.cpg/sg2_135_cif.got.tgz:269701.got - 2010.06.03 11:33:40.
