data_PCOD9073346
_publ_section_title
;
Structure prediction by ZEFSAII (Michael W. Deem and Ramdas Pophale) SiO2 
 PCOD9073346
Probable space group: P -1
;
_chemical_formula_sum "Si O2"
_cell_formula_units_Z 16
_cell_length_a 14.538567
_cell_length_b 24.678134
_cell_length_c 13.839704
_cell_angle_alpha 24.764833
_cell_angle_beta 139.196443
_cell_angle_gamma 153.990821
_cell_volume 863.588804
_symmetry_space_group_name_H-M "P -1"
_symmetry_group_IT_number 2
_symmetry_cell_setting 'triclinic'
loop_
_space_group_symop_operation_xyz
x,y,z
-x,-y,-z
loop_
_atom_site_type_symbol
_atom_site_label
_atom_site_fract_x
_atom_site_fract_y
_atom_site_fract_z
Si Si1 0.212614 0.530618 0.442822
Si Si2 0.735807 0.138281 0.011395
Si Si3 0.082021 0.502789 0.187828
Si Si4 0.371606 0.265725 0.664801
Si Si5 0.429515 0.817962 0.685168
Si Si6 0.555711 0.016505 0.262039
Si Si7 0.394230 0.581718 0.186074
Si Si8 0.124203 0.858018 0.080821
O O1 0.167302 0.648926 0.238739
O O2 0.099537 0.422855 0.424539
O O3 0.465989 0.682677 0.370534
O O4 0.103010 0.365410 0.702832
O O5 0.861107 0.148547 0.012303
O O6 0.679226 0.039828 0.230604
O O7 0.500000 0.000000 0.000000
O O8 0.154937 0.470565 0.206627
O O9 0.835899 0.378695 0.201040
O O10 0.272203 0.748201 0.949742
O O11 0.363924 0.412724 0.404545
O O12 0.467243 0.315700 0.768971
O O13 0.153328 0.025408 0.867907
O O14 0.500000 0.000000 0.500000
O O15 0.503635 0.888955 0.518220
O O16 0.504951 0.749407 0.920514
O O17 0.328885 0.922944 0.191349
#
# Coordination Sequence:
#
# PCOD9073346 Si02
#       8
#     2   2   2   2   2   2   2   2
#     4  10  18  31  54  80 106 133 169 216 261 306
#     4   9  17  31  53  78 109 131 163 220 270 297
#     4  10  19  35  49  75 108 133 168 217 258 298
#     4  10  20  38  48  73 115 135 171 211 251 316
#     4  12  21  33  56  77 102 136 178 216 253 304
#     4  10  19  33  50  80 107 130 167 221 261 300
#     4  10  21  36  51  73 107 146 168 208 260 303
#     4  11  17  33  54  80 105 135 173 213 264 305
#
# _framework density 18.527335999999998
#
# number of rings (size 3 to 8) (size 9 to 14) (size 15 to 20)
#    0.000    1.750    7.500    0.750    0.000    0.000 
#    2.250    1.875    0.000    0.750    0.000    4.375 
#    0.000    0.000    0.000    0.000    0.000    0.000 
#
# Total GULP energy -89069.403694 kJ/mol
# GULP energy per Si atom -5566.837731 kJ/mol
# Density = 1.848517 g / cm^3
# Si number density = 18.527336 Si / 1000 Ang^3
#
#
#
# Elastic Constant Matrix: (Units=GPa)
#
#
# Indices 1 2 3 4 5 6 
#
# 1 89.2298 6.7714 59.4265 7.5143 -19.5226 -23.2613
# 2 6.7714 20.2097 11.4874 -3.7585 -9.4918 -1.7435
# 3 59.4265 11.4874 125.1282 9.4711 -18.9477 -16.9181
# 4 7.5143 -3.7585 9.4711 16.1601 -9.3234 -4.7316
# 5 -19.5226 -9.4918 -18.9477 -9.3234 26.9744 -0.4490
# 6 -23.2613 -1.7435 -16.9181 -4.7316 -0.4490 16.8410
#
#
#
# Elastic Compliance Matrix: (Units=1/GPa)
#
#
# Indices 1 2 3 4 5 6 
#
# 1 0.033284 0.020316 -0.007588 0.029587 0.036963 0.049751
# 2 0.020316 0.098399 -0.006009 0.074485 0.071769 0.055052
# 3 -0.007588 -0.006009 0.012413 -0.005723 -0.000869 -0.000264
# 4 0.029587 0.074485 -0.005723 0.150485 0.097077 0.087697
# 5 0.036963 0.071769 -0.000869 0.097077 0.123489 0.088177
# 6 0.049751 0.055052 -0.000264 0.087697 0.088177 0.160521
#
#
# Mechanical properties :
#
#
# Convention : Reuss Voigt Hill
#
# Bulk Modulus (GPa) = 6.34786 43.32647 24.83716
# Shear Modulus (GPa) = 8.09502 22.45395 15.27449
#
# Velocity S-wave (km/s) = 2.09254 3.48506 2.87440
# Velocity P-wave (km/s) = 3.04499 6.29525 4.94480
#
# Compressibility (1/GPa) = 0.15753331
#
# Stress axis : x y z
#
# Youngs Moduli (GPa) = 30.04440 10.16275 80.56050
#
# Poissons Ratio (x) = -0.20646 0.61131
# Poissons Ratio (y) = -0.61037 0.48406
# Poissons Ratio (z) = 0.22798 0.06106
#
# Static dielectric constant tensor:
#      x y z
#    x 1.732560 -0.022220 -0.004270 
#    y -0.022220 1.688270 0.007500 
#    z -0.004270 0.007500 1.667510 
# 
# From -- ./inp_files/453923.got.cif
#   From: 2010.05.17/outbox.cif.g08.bks.cpg/sg2_227_cif.got.tgz:453923.got - 2010.06.03 11:33:40.
