data_PCOD9073715
_publ_section_title
;
Structure prediction by ZEFSAII (Michael W. Deem and Ramdas Pophale) SiO2 
 PCOD9073715
Probable space group: P -1
;
_chemical_formula_sum "Si O2"
_cell_formula_units_Z 16
_cell_length_a 9.410237
_cell_length_b 14.075189
_cell_length_c 15.414482
_cell_angle_alpha 145.937780
_cell_angle_beta 35.326198
_cell_angle_gamma 134.922292
_cell_volume 658.327140
_symmetry_space_group_name_H-M "P -1"
_symmetry_group_IT_number 2
_symmetry_cell_setting 'triclinic'
loop_
_space_group_symop_operation_xyz
x,y,z
-x,-y,-z
loop_
_atom_site_type_symbol
_atom_site_label
_atom_site_fract_x
_atom_site_fract_y
_atom_site_fract_z
Si Si1 0.762140 0.575938 0.639682
Si Si2 0.169217 0.047876 0.584788
Si Si3 0.688758 0.831294 0.578193
Si Si4 0.684236 0.384194 0.008472
Si Si5 0.535456 0.912030 0.008221
Si Si6 0.152070 0.480556 0.637732
Si Si7 0.098045 0.316752 0.963741
Si Si8 0.612673 0.282652 0.771769
O O1 0.533286 0.514598 0.768500
O O2 0.734830 0.510392 0.506409
O O3 0.000000 0.500000 0.500000
O O4 0.753763 0.783965 0.800791
O O5 0.277221 0.163517 0.538093
O O6 0.101156 0.148415 0.779501
O O7 0.359575 0.912491 0.411646
O O8 0.934810 0.934381 0.574963
O O9 0.701327 0.647377 0.475217
O O10 0.474130 0.942025 0.803952
O O11 0.906296 0.518808 0.972909
O O12 0.686167 0.232611 0.962175
O O13 0.602861 0.294085 0.890064
O O14 0.500000 0.000000 0.000000
O O15 0.869377 0.390422 0.698662
O O16 0.111185 0.653845 0.839905
O O17 0.365542 0.338784 0.894841
#
# Coordination Sequence:
#
# PCOD9073715 Si02
#       8
#     2   2   2   2   2   2   2   2
#     4  10  18  31  56  85 109 143 185 230 273 326
#     4  10  21  33  58  78 110 147 187 229 277 335
#     4  10  19  38  54  79 104 145 195 223 275 335
#     4   9  19  33  58  82 112 145 185 230 277 327
#     4  10  19  35  60  81 107 148 196 227 270 338
#     4  10  20  32  56  82 111 146 185 228 276 332
#     4  11  21  34  52  86 118 143 178 238 285 322
#     4  10  18  35  55  82 112 148 186 226 277 337
#
# _framework density 24.304023999999998
#
# number of rings (size 3 to 8) (size 9 to 14) (size 15 to 20)
#    0.750    1.250    2.500    3.375    1.750    0.500 
#    0.000    0.000    2.750    2.250    0.000    9.625 
#    0.000    0.000    0.000    0.000    0.000    0.000 
#
# Total GULP energy -89395.814296 kJ/mol
# GULP energy per Si atom -5587.238394 kJ/mol
# Density = 2.424871 g / cm^3
# Si number density = 24.304024 Si / 1000 Ang^3
#
#
#
# Elastic Constant Matrix: (Units=GPa)
#
#
# Indices 1 2 3 4 5 6 
#
# 1 76.5195 26.7364 42.5326 11.2930 -5.5813 -5.1220
# 2 26.7364 85.9160 23.8917 0.0576 3.9232 -10.4125
# 3 42.5326 23.8917 218.5298 10.0378 15.5807 -12.4316
# 4 11.2930 0.0576 10.0378 42.0142 -13.1223 -6.9874
# 5 -5.5813 3.9232 15.5807 -13.1223 41.4448 5.3828
# 6 -5.1220 -10.4125 -12.4316 -6.9874 5.3828 24.9987
#
#
#
# Elastic Compliance Matrix: (Units=1/GPa)
#
#
# Indices 1 2 3 4 5 6 
#
# 1 0.016956 -0.004780 -0.002935 -0.003152 0.003038 -0.001512
# 2 -0.004780 0.013961 -0.000197 0.001588 -0.002121 0.005638
# 3 -0.002935 -0.000197 0.005585 -0.001120 -0.003150 0.002459
# 4 -0.003152 0.001588 -0.001120 0.028383 0.008099 0.005648
# 5 0.003038 -0.002121 -0.003150 0.008099 0.029248 -0.005861
# 6 -0.001512 0.005638 0.002459 0.005648 -0.005861 0.046104
#
#
# Mechanical properties :
#
#
# Convention : Reuss Voigt Hill
#
# Bulk Modulus (GPa) = 48.36384 63.03187 55.69786
# Shear Modulus (GPa) = 30.68345 40.87851 35.78098
#
# Velocity S-wave (km/s) = 3.55700 4.10563 3.84112
# Velocity P-wave (km/s) = 6.06732 6.96175 6.52987
#
# Compressibility (1/GPa) = 0.02067660
#
# Stress axis : x y z
#
# Youngs Moduli (GPa) = 58.97624 71.62982 179.05713
#
# Poissons Ratio (x) = 0.34240 0.52559
# Poissons Ratio (y) = 0.28191 0.03527
# Poissons Ratio (z) = 0.17311 0.01411
#
# Static dielectric constant tensor:
#      x y z
#    x 1.960720 0.039590 -0.016490 
#    y 0.039590 1.977330 0.003620 
#    z -0.016490 0.003620 1.976920 
# 
# From -- ./inp_files/520997.got.cif
#   From: 2010.05.17/outbox.cif.g08.bks.cpg/sg2_261_cif.got.tgz:520997.got - 2010.06.03 11:33:40.
