data_PCOD9073322
_publ_section_title
;
Structure prediction by ZEFSAII (Michael W. Deem and Ramdas Pophale) SiO2 
 PCOD9073322
Probable space group: P -1
;
_chemical_formula_sum "Si O2"
_cell_formula_units_Z 16
_cell_length_a 25.240372
_cell_length_b 12.404303
_cell_length_c 17.840460
_cell_angle_alpha 27.653240
_cell_angle_beta 17.848496
_cell_angle_gamma 35.886160
_cell_volume 772.957531
_symmetry_space_group_name_H-M "P -1"
_symmetry_group_IT_number 2
_symmetry_cell_setting 'triclinic'
loop_
_space_group_symop_operation_xyz
x,y,z
-x,-y,-z
loop_
_atom_site_type_symbol
_atom_site_label
_atom_site_fract_x
_atom_site_fract_y
_atom_site_fract_z
Si Si1 0.953499 0.642831 0.638361
Si Si2 0.950518 0.000722 0.192030
Si Si3 0.224487 0.125983 0.958815
Si Si4 0.075747 0.275385 0.209121
Si Si5 0.761176 0.276432 0.006873
Si Si6 0.063177 0.396677 0.902738
Si Si7 0.519445 0.158610 0.268570
Si Si8 0.787386 0.695507 0.473709
O O1 0.120449 0.517198 0.498289
O O2 0.865353 0.610795 0.859648
O O3 0.040038 0.919977 0.334157
O O4 0.819759 0.503022 0.842476
O O5 0.925638 0.179103 0.181034
O O6 0.080964 0.160261 0.856444
O O7 0.794028 0.857894 0.439105
O O8 0.059466 0.815409 0.191522
O O9 0.216746 0.278669 0.950326
O O10 0.222181 0.282308 0.789806
O O11 0.378400 0.984213 0.836593
O O12 0.923473 0.394452 0.304982
O O13 0.000000 0.000000 0.500000
O O14 0.662260 0.297390 0.050250
O O15 0.624988 0.058402 0.365321
O O16 0.000000 0.500000 0.000000
O O17 0.405944 0.335123 0.281178
#
# Coordination Sequence:
#
# PCOD9073322 Si02
#       8
#     2   2   2   2   2   2   2   2
#     4  10  19  36  57  80 104 146 189 218 261 317
#     4   9  15  31  51  78  98 137 191 213 251 316
#     4  10  21  34  53  83 112 139 177 230 269 317
#     4   9  19  34  56  81 103 139 186 229 260 313
#     4   9  19  32  54  77 112 146 177 219 266 332
#     4  10  18  31  54  79 106 137 182 228 264 307
#     4  10  19  33  50  81 118 139 177 215 287 313
#     4   9  18  29  54  76 105 142 175 219 257 321
#
# _framework density 20.699714
#
# number of rings (size 3 to 8) (size 9 to 14) (size 15 to 20)
#    0.000    2.500    2.500    0.750    0.000    1.000 
#    0.000    0.625    0.000    0.000    0.000    7.875 
#    0.000    0.000    0.000    0.000    0.000    0.000 
#
# Total GULP energy -89112.345600 kJ/mol
# GULP energy per Si atom -5569.521600 kJ/mol
# Density = 2.065260 g / cm^3
# Si number density = 20.699714 Si / 1000 Ang^3
#
#
#
# Elastic Constant Matrix: (Units=GPa)
#
#
# Indices 1 2 3 4 5 6 
#
# 1 111.6009 42.2333 39.9332 -3.8943 -16.3442 17.3394
# 2 42.2333 68.6718 11.5198 -7.7987 -20.8911 16.0110
# 3 39.9332 11.5198 31.6016 -4.7442 -4.3198 -6.0072
# 4 -3.8943 -7.7987 -4.7442 21.3924 -0.4424 -4.2334
# 5 -16.3442 -20.8911 -4.3198 -0.4424 27.2629 -3.8638
# 6 17.3394 16.0110 -6.0072 -4.2334 -3.8638 46.5748
#
#
#
# Elastic Compliance Matrix: (Units=1/GPa)
#
#
# Indices 1 2 3 4 5 6 
#
# 1 0.025081 -0.007520 -0.031883 -0.007437 0.002495 -0.011334
# 2 -0.007520 0.024842 0.002998 0.007980 0.014649 -0.003413
# 3 -0.031883 0.002998 0.077449 0.016848 -0.001116 0.022267
# 4 -0.007437 0.007980 0.016848 0.053670 0.006273 0.007598
# 5 0.002495 0.014649 -0.001116 0.006273 0.049119 -0.001464
# 6 -0.011334 -0.003413 0.022267 0.007598 -0.001464 0.030305
#
#
# Mechanical properties :
#
#
# Convention : Reuss Voigt Hill
#
# Bulk Modulus (GPa) = 18.32709 44.36076 31.34393
# Shear Modulus (GPa) = 14.22626 26.92523 20.57574
#
# Velocity S-wave (km/s) = 2.62442 3.61051 3.15621
# Velocity P-wave (km/s) = 4.24929 6.23363 5.33454
#
# Compressibility (1/GPa) = 0.05456405
#
# Stress axis : x y z
#
# Youngs Moduli (GPa) = 39.87039 40.25414 12.91172
#
# Poissons Ratio (x) = 0.30270 0.41166
# Poissons Ratio (y) = 0.29981 -0.03871
# Poissons Ratio (z) = 1.27117 -0.12068
#
# Static dielectric constant tensor:
#      x y z
#    x 1.818060 -0.005480 0.051420 
#    y -0.005480 1.783520 -0.023490 
#    z 0.051420 -0.023490 1.745710 
# 
# From -- ./inp_files/226363.got.cif
#   From: 2010.05.17/outbox.cif.g08.bks.cpg/sg2_114_cif.got.tgz:226363.got - 2010.06.03 11:33:40.
