data_PCOD9073253
_publ_section_title
;
Structure prediction by ZEFSAII (Michael W. Deem and Ramdas Pophale) SiO2 
 PCOD9073253
Probable space group: P -1
;
_chemical_formula_sum "Si O2"
_cell_formula_units_Z 16
_cell_length_a 11.538811
_cell_length_b 14.711278
_cell_length_c 14.093273
_cell_angle_alpha 141.741171
_cell_angle_beta 29.722824
_cell_angle_gamma 120.267803
_cell_volume 598.644749
_symmetry_space_group_name_H-M "P -1"
_symmetry_group_IT_number 2
_symmetry_cell_setting 'triclinic'
loop_
_space_group_symop_operation_xyz
x,y,z
-x,-y,-z
loop_
_atom_site_type_symbol
_atom_site_label
_atom_site_fract_x
_atom_site_fract_y
_atom_site_fract_z
Si Si1 0.695866 0.538847 0.264624
Si Si2 0.692420 0.212953 0.389460
Si Si3 0.255837 0.796666 0.949711
Si Si4 0.330950 0.097657 0.603629
Si Si5 0.527494 0.663040 0.011501
Si Si6 0.900763 0.260519 0.462485
Si Si7 0.956655 0.659424 0.839158
Si Si8 0.579432 0.770531 0.869119
O O1 0.564692 0.584465 0.289458
O O2 0.470854 0.707045 0.632485
O O3 0.717208 0.369913 0.153077
O O4 0.000000 0.500000 0.000000
O O5 0.548237 0.105892 0.386505
O O6 0.813587 0.169636 0.374281
O O7 0.930076 0.219380 0.168274
O O8 0.379665 0.861181 0.994323
O O9 0.913343 0.927844 0.278101
O O10 0.500000 0.000000 0.500000
O O11 0.132369 0.300698 0.955435
O O12 0.279236 0.683781 0.267798
O O13 0.777405 0.448836 0.648914
O O14 0.691254 0.721926 0.009373
O O15 0.428780 0.767636 0.069283
O O16 0.227165 0.162854 0.179932
O O17 0.184605 0.444345 0.495009
#
# Coordination Sequence:
#
# PCOD9073253 Si02
#       8
#     2   2   2   2   2   2   2   2
#     4  11  21  34  60  91 117 153 189 238 316 359
#     4  12  20  37  62  86 120 154 198 240 294 350
#     4  11  22  38  55  85 126 152 187 247 296 355
#     4  12  27  42  58  81 115 166 215 247 275 332
#     4  10  18  31  53  91 125 146 181 226 305 370
#     4  10  19  29  53  89 120 151 178 229 296 369
#     4  11  19  36  59  87 119 150 190 248 292 348
#     4  11  20  32  57  91 125 144 179 233 315 367
#
# _framework density 26.727036999999999
#
# number of rings (size 3 to 8) (size 9 to 14) (size 15 to 20)
#    0.000    1.000    7.500    1.500    0.000    1.500 
#    0.000    0.000    0.000    1.500    0.000    0.000 
#    0.000    0.000    0.000    0.000    0.000    0.000 
#
# Total GULP energy -89408.445752 kJ/mol
# GULP energy per Si atom -5588.027859 kJ/mol
# Density = 2.666621 g / cm^3
# Si number density = 26.727037 Si / 1000 Ang^3
#
#
#
# Elastic Constant Matrix: (Units=GPa)
#
#
# Indices 1 2 3 4 5 6 
#
# 1 177.9266 34.7268 41.8635 -16.1547 -39.8952 8.7456
# 2 34.7268 98.5453 34.2212 -33.0305 -12.9148 -3.9189
# 3 41.8635 34.2212 75.8616 -21.4120 -18.9748 3.9740
# 4 -16.1547 -33.0305 -21.4120 49.9550 5.5392 -4.9564
# 5 -39.8952 -12.9148 -18.9748 5.5392 51.8213 -4.1926
# 6 8.7456 -3.9189 3.9740 -4.9564 -4.1926 44.2344
#
#
#
# Elastic Compliance Matrix: (Units=1/GPa)
#
#
# Indices 1 2 3 4 5 6 
#
# 1 0.007482 -0.001267 -0.002394 -0.000037 0.004495 -0.000955
# 2 -0.001267 0.014750 -0.003670 0.007971 0.000735 0.002850
# 3 -0.002394 -0.003670 0.018224 0.004162 0.003414 -0.000699
# 4 -0.000037 0.007971 0.004162 0.027312 0.000844 0.003480
# 5 0.004495 0.000735 0.003414 0.000844 0.024202 0.001258
# 6 -0.000955 0.002850 -0.000699 0.003480 0.001258 0.023620
#
#
# Mechanical properties :
#
#
# Convention : Reuss Voigt Hill
#
# Bulk Modulus (GPa) = 38.76763 63.77295 51.27029
# Shear Modulus (GPa) = 36.01003 45.30361 40.65682
#
# Velocity S-wave (km/s) = 3.67458 4.12156 3.90447
# Velocity P-wave (km/s) = 5.70437 6.82366 6.28897
#
# Compressibility (1/GPa) = 0.02579472
#
# Stress axis : x y z
#
# Youngs Moduli (GPa) = 133.65189 67.79644 54.87324
#
# Poissons Ratio (x) = 0.08588 0.13135
# Poissons Ratio (y) = 0.16930 0.20139
# Poissons Ratio (z) = 0.31993 0.24882
#
# Static dielectric constant tensor:
#      x y z
#    x 2.126770 0.063740 0.014320 
#    y 0.063740 2.085260 0.036940 
#    z 0.014320 0.036940 2.257040 
# 
# From -- ./inp_files/518209.got.cif
#   From: 2010.05.17/outbox.cif.g08.bks.cpg/sg2_260_cif.got.tgz:518209.got - 2010.06.03 11:33:40.
