data_PCOD9073425
_publ_section_title
;
Structure prediction by ZEFSAII (Michael W. Deem and Ramdas Pophale) SiO2 
 PCOD9073425
Probable space group: P -1
;
_chemical_formula_sum "Si O2"
_cell_formula_units_Z 16
_cell_length_a 12.000000
_cell_length_b 9.000000
_cell_length_c 18.000000
_cell_angle_alpha 130.000000
_cell_angle_beta 40.000000
_cell_angle_gamma 100.000000
_cell_volume 729.599496
_symmetry_space_group_name_H-M "P -1"
_symmetry_group_IT_number 2
_symmetry_cell_setting 'triclinic'
loop_
_space_group_symop_operation_xyz
x,y,z
-x,-y,-z
loop_
_atom_site_type_symbol
_atom_site_label
_atom_site_fract_x
_atom_site_fract_y
_atom_site_fract_z
Si Si1 0.003123 0.280257 0.553246
Si Si2 0.645383 0.213184 0.689042
Si Si3 0.779719 0.928080 0.765480
Si Si4 0.720705 0.410141 0.315784
Si Si5 0.180458 0.899324 0.980614
Si Si6 0.150782 0.719122 0.097827
Si Si7 0.288381 0.209115 0.082331
Si Si8 0.691898 0.868287 0.423612
O O1 0.784870 0.314216 0.648169
O O2 0.917251 0.493506 0.727400
O O3 0.203742 0.009111 0.399057
O O4 0.110372 0.277349 0.421298
O O5 0.643568 0.078483 0.573581
O O6 0.383864 0.448283 0.916603
O O7 0.893442 0.055430 0.758408
O O8 0.765406 0.834687 0.821953
O O9 0.520736 0.155561 0.948352
O O10 0.500000 0.500000 0.500000
O O11 0.707652 0.649733 0.386473
O O12 0.739261 0.294636 0.188903
O O13 0.933877 0.169540 0.175319
O O14 0.182571 0.777932 0.016891
O O15 0.323031 0.994249 0.946228
O O16 0.935564 0.736765 0.219932
O O17 0.500000 0.000000 0.500000
#
# Coordination Sequence:
#
# PCOD9073425 Si02
#       8
#     2   2   2   2   2   2   2   2
#     4  11  22  40  62  98 137 177 222 270 336 403
#     4  11  25  39  65  97 135 177 222 275 339 403
#     4  10  21  39  65  93 133 176 218 272 333 403
#     4  11  25  46  68  97 132 173 227 282 335 399
#     4  10  24  43  69  97 131 176 227 280 333 398
#     4  11  23  45  68  98 138 176 226 282 338 406
#     4  10  21  39  64  98 129 172 223 272 335 400
#     4  12  26  45  71 101 134 182 228 281 344 404
#
# _framework density 21.929839999999999
#
# number of rings (size 3 to 8) (size 9 to 14) (size 15 to 20)
#    0.000    1.250    2.500    2.625    0.000    8.500 
#    0.000    0.000    0.000    0.000    0.000    0.000 
#    0.000    0.000    0.000    0.000    0.000    0.000 
#
# Total GULP energy -89358.661161 kJ/mol
# GULP energy per Si atom -5584.916323 kJ/mol
# Density = 2.187993 g / cm^3
# Si number density = 21.929840 Si / 1000 Ang^3
#
#
#
# Elastic Constant Matrix: (Units=GPa)
#
#
# Indices 1 2 3 4 5 6 
#
# 1 89.6237 13.5043 22.5726 -2.4967 -19.9395 15.4465
# 2 13.5043 69.7925 31.2503 1.5640 -22.6595 21.3298
# 3 22.5726 31.2503 85.8318 10.1985 -31.9891 10.5496
# 4 -2.4967 1.5640 10.1985 19.7252 13.2405 -5.8315
# 5 -19.9395 -22.6595 -31.9891 13.2405 24.0329 7.4170
# 6 15.4465 21.3298 10.5496 -5.8315 7.4170 20.3513
#
#
#
# Elastic Compliance Matrix: (Units=1/GPa)
#
#
# Indices 1 2 3 4 5 6 
#
# 1 0.011537 -0.002445 -0.005856 0.009478 -0.006324 0.001862
# 2 -0.002445 0.014159 -0.012286 0.015788 -0.014744 0.003283
# 3 -0.005856 -0.012286 0.011337 0.005766 -0.009657 0.016617
# 4 0.009478 0.015788 0.005766 0.016426 0.031742 -0.033591
# 5 -0.006324 -0.014744 -0.009657 0.031742 -0.020826 0.041945
# 6 0.001862 0.003283 0.016617 -0.033591 0.041945 0.010757
#
#
# Mechanical properties :
#
#
# Convention : Reuss Voigt Hill
#
# Bulk Modulus (GPa) = -241.42537 42.21138 -99.60699
# Shear Modulus (GPa) = 60.10809 24.68327 42.39568
#
# Velocity S-wave (km/s) = 5.24107 3.35857 4.40163
# Velocity P-wave (km/s) = 8.58510 5.85919 4.43699
#
# Compressibility (1/GPa) = -0.00414207
#
# Stress axis : x y z
#
# Youngs Moduli (GPa) = 86.67709 70.62845 88.20488
#
# Poissons Ratio (x) = 0.17270 0.51652
# Poissons Ratio (y) = 0.21194 1.08372
# Poissons Ratio (z) = 0.50758 0.86777
#
# Static dielectric constant tensor:
#      x y z
#    x 1.841190 0.010400 0.008210 
#    y 0.010400 1.803520 0.014560 
#    z 0.008210 0.014560 1.781780 
# 
# From -- ./inp_files/482666.got.cif
#   From: 2010.05.17/outbox.ucp.g08.bks.cvg/sg2_242_cif.got.tgz:482666.got - 2010.06.11 11:32:03.
