data_PCOD9073063
_publ_section_title
;
Structure prediction by ZEFSAII (Michael W. Deem and Ramdas Pophale) SiO2 
 PCOD9073063
Probable space group: P -1
;
_chemical_formula_sum "Si O2"
_cell_formula_units_Z 14
_cell_length_a 24.000000
_cell_length_b 15.000000
_cell_length_c 9.000000
_cell_angle_alpha 40.000000
_cell_angle_beta 140.000000
_cell_angle_gamma 160.000000
_cell_volume 696.397529
_symmetry_space_group_name_H-M "P -1"
_symmetry_group_IT_number 2
_symmetry_cell_setting 'triclinic'
loop_
_space_group_symop_operation_xyz
x,y,z
-x,-y,-z
loop_
_atom_site_type_symbol
_atom_site_label
_atom_site_fract_x
_atom_site_fract_y
_atom_site_fract_z
Si Si1 0.304945 0.446802 0.010818
Si Si2 0.659967 0.835219 0.549272
Si Si3 0.927699 0.871373 0.326520
Si Si4 0.173004 0.529516 0.168415
Si Si5 0.177384 0.960101 0.044579
Si Si6 0.302843 0.491358 0.275992
Si Si7 0.683248 0.985251 0.055946
O O1 0.319612 0.301596 0.255915
O O2 0.288639 0.507077 0.053315
O O3 0.485132 0.730358 0.950426
O O4 0.147544 0.254852 0.829199
O O5 0.469873 0.626975 0.456510
O O6 0.702190 0.951057 0.314508
O O7 0.749660 0.982388 0.712379
O O8 0.886371 0.675478 0.581892
O O9 0.833254 0.884383 0.171180
O O10 0.125417 0.172497 0.351878
O O11 0.307918 0.634906 0.205899
O O12 0.015333 0.349720 0.970537
O O13 0.232547 0.747891 0.096816
O O14 0.254795 0.011024 0.976031
#
# Coordination Sequence:
#
# PCOD9073063 Si02
#       7
#     2   2   2   2   2   2   2
#     4  10  23  39  66  96 118 171 209 259 312 363
#     4  10  24  40  70  94 118 170 215 257 308 365
#     4  10  23  40  66  95 122 165 211 255 316 368
#     4  11  25  40  62  96 128 167 200 258 325 364
#     4  10  23  45  65  93 123 170 211 257 307 371
#     4  10  20  41  63  90 129 159 209 265 302 371
#     4  11  24  43  65  93 132 160 213 256 312 379
#
# _framework density 20.103459999999998
#
# number of rings (size 3 to 8) (size 9 to 14) (size 15 to 20)
#    0.000    1.714    0.000    4.286   10.000    4.571 
#    2.571    0.000    0.000    0.000    0.000    0.000 
#    0.000    0.000    0.000    0.000    0.000    0.000 
#
# Total GULP energy -77943.671496 kJ/mol
# GULP energy per Si atom -5567.405107 kJ/mol
# Density = 2.005770 g / cm^3
# Si number density = 20.103460 Si / 1000 Ang^3
#
#
#
# Elastic Constant Matrix: (Units=GPa)
#
#
# Indices 1 2 3 4 5 6 
#
# 1 109.4932 -2.6798 16.8815 -4.4972 -12.2318 -0.2600
# 2 -2.6798 47.2223 20.8987 5.1237 3.5827 -12.8477
# 3 16.8815 20.8987 73.7319 17.0597 -11.1946 -2.7862
# 4 -4.4972 5.1237 17.0597 37.6224 -9.2145 -3.1922
# 5 -12.2318 3.5827 -11.1946 -9.2145 26.7206 2.1779
# 6 -0.2600 -12.8477 -2.7862 -3.1922 2.1779 37.1449
#
#
#
# Elastic Compliance Matrix: (Units=1/GPa)
#
#
# Indices 1 2 3 4 5 6 
#
# 1 0.010239 0.001172 -0.002777 0.003460 0.004535 0.000300
# 2 0.001172 0.028574 -0.009051 -0.000829 -0.008156 0.009620
# 3 -0.002777 -0.009051 0.019069 -0.006525 0.005895 -0.002626
# 4 0.003460 -0.000829 -0.006525 0.032665 0.010106 0.001463
# 5 0.004535 -0.008156 0.005895 0.010106 0.046893 -0.004228
# 6 0.000300 0.009620 -0.002626 0.001463 -0.004228 0.030428
#
#
# Mechanical properties :
#
#
# Convention : Reuss Voigt Hill
#
# Bulk Modulus (GPa) = 27.34329 33.40536 30.37432
# Shear Modulus (GPa) = 24.82985 33.32070 29.07527
#
# Velocity S-wave (km/s) = 3.51822 4.07561 3.80713
# Velocity P-wave (km/s) = 5.48950 6.22898 5.87090
#
# Compressibility (1/GPa) = 0.03657205
#
# Stress axis : x y z
#
# Youngs Moduli (GPa) = 97.66256 34.99644 52.43985
#
# Poissons Ratio (x) = -0.04103 0.14564
# Poissons Ratio (y) = -0.11450 0.47461
# Poissons Ratio (z) = 0.27124 0.31674
#
# Static dielectric constant tensor:
#      x y z
#    x 1.773260 0.013490 -0.040830 
#    y 0.013490 1.735070 0.002360 
#    z -0.040830 0.002360 1.748210 
# 
# From -- ./inp_files/295918.got.cif
#   From: 2010.05.17/outbox.ucp.g08.bks.cvg/sg2_148_cif.got.tgz:295918.got - 2010.06.11 11:32:03.
