data_PCOD9073002
_publ_section_title
;
Structure prediction by ZEFSAII (Michael W. Deem and Ramdas Pophale) SiO2 
 PCOD9073002
Probable space group: P -1
;
_chemical_formula_sum "Si O2"
_cell_formula_units_Z 14
_cell_length_a 12.000000
_cell_length_b 15.000000
_cell_length_c 21.000000
_cell_angle_alpha 160.000000
_cell_angle_beta 150.000000
_cell_angle_gamma 30.000000
_cell_volume 615.533390
_symmetry_space_group_name_H-M "P -1"
_symmetry_group_IT_number 2
_symmetry_cell_setting 'triclinic'
loop_
_space_group_symop_operation_xyz
x,y,z
-x,-y,-z
loop_
_atom_site_type_symbol
_atom_site_label
_atom_site_fract_x
_atom_site_fract_y
_atom_site_fract_z
Si Si1 0.029302 0.862071 0.811651
Si Si2 0.332204 0.444604 0.578898
Si Si3 0.267075 0.081392 0.528487
Si Si4 0.208574 0.134746 0.681488
Si Si5 0.380972 0.619960 0.089962
Si Si6 0.380332 0.166060 0.236265
Si Si7 0.265492 0.741681 0.623084
O O1 0.197052 0.659107 0.708824
O O2 0.859883 0.690060 0.637357
O O3 0.836208 0.113962 0.852162
O O4 0.193651 0.997428 0.025322
O O5 0.395301 0.615726 0.667775
O O6 0.545071 0.217221 0.566359
O O7 0.203598 0.182436 0.636641
O O8 0.415930 0.276348 0.705295
O O9 0.007465 0.099137 0.386635
O O10 0.451086 0.918347 0.676437
O O11 0.259506 0.407261 0.918254
O O12 0.000000 0.000000 0.500000
O O13 0.500000 0.500000 0.000000
O O14 0.262327 0.490093 0.405238
O O15 0.568823 0.113975 0.236129
#
# Coordination Sequence:
#
# PCOD9073002 Si02
#       7
#     2   2   2   2   2   2   2
#     4  10  23  43  61  91 125 160 208 253 308 368
#     4  10  23  44  64  86 127 166 202 257 304 365
#     4  10  20  40  59  89 122 159 205 247 306 364
#     4  11  20  36  59  92 128 156 198 263 305 354
#     4   9  20  36  61  88 118 156 197 253 305 353
#     4  11  23  37  62  96 122 160 211 254 306 365
#     4  11  23  39  65  92 122 164 207 254 307 365
#
# _framework density 22.744501
#
# number of rings (size 3 to 8) (size 9 to 14) (size 15 to 20)
#    0.000    1.714    2.857    1.714    4.000    1.143 
#    2.571    2.857    0.000    0.000    0.000    0.000 
#    0.000    0.000    0.000    0.000    0.000    0.000 
#
# Total GULP energy -78019.512088 kJ/mol
# GULP energy per Si atom -5572.822292 kJ/mol
# Density = 2.269273 g / cm^3
# Si number density = 22.744501 Si / 1000 Ang^3
#
#
#
# Elastic Constant Matrix: (Units=GPa)
#
#
# Indices 1 2 3 4 5 6 
#
# 1 48.5348 13.9606 10.4755 -1.1391 16.7378 -5.4024
# 2 13.9606 122.1763 22.4722 4.5039 1.4424 -31.4462
# 3 10.4755 22.4722 62.5702 -8.7999 24.2813 -14.4329
# 4 -1.1391 4.5039 -8.7999 26.5580 -7.4452 4.4033
# 5 16.7378 1.4424 24.2813 -7.4452 32.0400 2.3190
# 6 -5.4024 -31.4462 -14.4329 4.4033 2.3190 35.6924
#
#
#
# Elastic Compliance Matrix: (Units=1/GPa)
#
#
# Indices 1 2 3 4 5 6 
#
# 1 0.027206 -0.002121 0.004188 -0.003169 -0.018428 0.005531
# 2 -0.002121 0.011389 -0.002570 -0.004128 0.000923 0.009124
# 3 0.004188 -0.002570 0.028300 0.001407 -0.024003 0.011199
# 4 -0.003169 -0.004128 0.001407 0.043537 0.011592 -0.009672
# 5 -0.018428 0.000923 -0.024003 0.011592 0.062925 -0.017200
# 6 0.005531 0.009124 0.011199 -0.009672 -0.017200 0.043732
#
#
# Mechanical properties :
#
#
# Convention : Reuss Voigt Hill
#
# Bulk Modulus (GPa) = 15.17676 36.34420 25.76048
# Shear Modulus (GPa) = 20.82834 31.28295 26.05564
#
# Velocity S-wave (km/s) = 3.02942 3.71267 3.38831
# Velocity P-wave (km/s) = 4.35014 5.86452 5.16316
#
# Compressibility (1/GPa) = 0.06589022
#
# Stress axis : x y z
#
# Youngs Moduli (GPa) = 36.75625 87.80049 35.33623
#
# Poissons Ratio (x) = 0.18624 -0.14800
# Poissons Ratio (y) = 0.07797 0.09080
# Poissons Ratio (z) = -0.15395 0.22562
#
# Static dielectric constant tensor:
#      x y z
#    x 1.876680 0.027600 -0.008270 
#    y 0.027600 1.907920 -0.010020 
#    z -0.008270 -0.010020 1.963330 
# 
# From -- ./inp_files/263535.got.cif
#   From: 2010.05.17/outbox.ucp.g08.bks.cvg/sg2_132_cif.got.tgz:263535.got - 2010.06.11 11:32:03.
