data_PCOD9073893
_publ_section_title
;
Structure prediction by ZEFSAII (Michael W. Deem and Ramdas Pophale) SiO2 
 PCOD9073893
Probable space group: P -1
;
_chemical_formula_sum "Si O2"
_cell_formula_units_Z 16
_cell_length_a 9.000000
_cell_length_b 15.000000
_cell_length_c 30.000000
_cell_angle_alpha 160.000000
_cell_angle_beta 40.000000
_cell_angle_gamma 130.000000
_cell_volume 833.890543
_symmetry_space_group_name_H-M "P -1"
_symmetry_group_IT_number 2
_symmetry_cell_setting 'triclinic'
loop_
_space_group_symop_operation_xyz
x,y,z
-x,-y,-z
loop_
_atom_site_type_symbol
_atom_site_label
_atom_site_fract_x
_atom_site_fract_y
_atom_site_fract_z
Si Si1 0.587440 0.920042 0.299051
Si Si2 0.974087 0.868606 0.112332
Si Si3 0.302078 0.227241 0.586912
Si Si4 0.254838 0.791950 0.459970
Si Si5 0.216882 0.221740 0.166480
Si Si6 0.878477 0.764570 0.909960
Si Si7 0.017112 0.724299 0.183583
Si Si8 0.599236 0.328360 0.002263
O O1 0.493712 0.663429 0.191038
O O2 0.720058 0.974126 0.249338
O O3 0.806274 0.816519 0.237032
O O4 0.392201 0.169140 0.487665
O O5 0.038285 0.083227 0.166557
O O6 0.194737 0.781412 0.057643
O O7 0.972341 0.589582 0.955965
O O8 0.499245 0.288689 0.603479
O O9 0.052116 0.486699 0.764162
O O10 0.288439 0.942449 0.477286
O O11 0.201143 0.512954 0.330108
O O12 0.059693 0.045946 0.652107
O O13 0.144649 0.273859 0.155793
O O14 0.500000 0.000000 0.000000
O O15 0.602805 0.816678 0.015793
O O16 0.000000 0.000000 0.000000
O O17 0.262441 0.716883 0.098131
#
# Coordination Sequence:
#
# PCOD9073893 Si02
#       8
#     2   2   2   2   2   2   2   2
#     4   8  16  35  61  91 113 153 202 249 295 345
#     4   9  18  35  64  90 118 152 203 250 293 352
#     4  10  22  39  62  87 125 155 200 251 293 359
#     4  10  22  39  65  93 114 157 207 247 296 355
#     4  12  24  38  62  91 122 159 201 248 302 356
#     4  12  26  40  58  89 127 162 196 246 309 355
#     4   8  17  35  64  90 116 152 203 253 289 350
#     4   9  17  36  61  88 117 159 202 241 295 357
#
# _framework density 19.187169999999998
#
# number of rings (size 3 to 8) (size 9 to 14) (size 15 to 20)
#    0.000    2.250    1.250    3.000    7.000    2.000 
#    2.250    3.125    0.000    0.000    0.000    0.000 
#    0.000    0.000    0.000    0.000    0.000    0.000 
#
# Total GULP energy -89280.187483 kJ/mol
# GULP energy per Si atom -5580.011718 kJ/mol
# Density = 1.914350 g / cm^3
# Si number density = 19.187170 Si / 1000 Ang^3
#
#
#
# Elastic Constant Matrix: (Units=GPa)
#
#
# Indices 1 2 3 4 5 6 
#
# 1 57.7859 34.6092 37.9099 3.7351 13.1999 3.3307
# 2 34.6092 141.9345 44.7714 9.0467 20.6672 16.4044
# 3 37.9099 44.7714 87.1015 1.8652 24.5436 6.3934
# 4 3.7351 9.0467 1.8652 28.4853 1.3212 3.1579
# 5 13.1999 20.6672 24.5436 1.3212 32.1405 6.8636
# 6 3.3307 16.4044 6.3934 3.1579 6.8636 30.7501
#
#
#
# Elastic Compliance Matrix: (Units=1/GPa)
#
#
# Indices 1 2 3 4 5 6 
#
# 1 0.025599 -0.003164 -0.009080 -0.001829 -0.001765 0.001385
# 2 -0.003164 0.009463 -0.002641 -0.001937 -0.001936 -0.003525
# 3 -0.009080 -0.002641 0.019425 0.001159 -0.009531 0.000362
# 4 -0.001829 -0.001937 0.001159 0.036182 0.000216 -0.002774
# 5 -0.001765 -0.001936 -0.009531 0.000216 0.041658 -0.006115
# 6 0.001385 -0.003525 0.000362 -0.002774 -0.006115 0.035825
#
#
# Mechanical properties :
#
#
# Convention : Reuss Voigt Hill
#
# Bulk Modulus (GPa) = 40.46053 57.93367 49.19710
# Shear Modulus (GPa) = 24.25268 29.57726 26.91497
#
# Velocity S-wave (km/s) = 3.55914 3.93047 3.74941
# Velocity P-wave (km/s) = 6.16628 7.13145 6.66636
#
# Compressibility (1/GPa) = 0.02471545
#
# Stress axis : x y z
#
# Youngs Moduli (GPa) = 39.06391 105.67468 51.48068
#
# Poissons Ratio (x) = 0.33438 0.46746
# Poissons Ratio (y) = 0.12361 0.13597
# Poissons Ratio (z) = 0.35471 0.27910
#
# Static dielectric constant tensor:
#      x y z
#    x 1.655710 0.003360 -0.010080 
#    y 0.003360 1.679990 -0.040650 
#    z -0.010080 -0.040650 1.689710 
# 
# From -- ./inp_files/320342.got.cif
#   From: 2010.05.17/outbox.ucp.g08.bks.cvg/sg2_161_cif.got.tgz:320342.got - 2010.06.11 11:32:03.
