data_PCOD9073602
_publ_section_title
;
Structure prediction by ZEFSAII (Michael W. Deem and Ramdas Pophale) SiO2 
 PCOD9073602
Probable space group: P -1
;
_chemical_formula_sum "Si O2"
_cell_formula_units_Z 16
_cell_length_a 15.000000
_cell_length_b 9.000000
_cell_length_c 9.000000
_cell_angle_alpha 100.000000
_cell_angle_beta 120.000000
_cell_angle_gamma 120.000000
_cell_volume 751.948787
_symmetry_space_group_name_H-M "P -1"
_symmetry_group_IT_number 2
_symmetry_cell_setting 'triclinic'
loop_
_space_group_symop_operation_xyz
x,y,z
-x,-y,-z
loop_
_atom_site_type_symbol
_atom_site_label
_atom_site_fract_x
_atom_site_fract_y
_atom_site_fract_z
Si Si1 0.681263 0.039301 0.262103
Si Si2 0.926628 0.086751 0.422780
Si Si3 0.830922 0.570662 0.146095
Si Si4 0.369815 0.701432 0.592277
Si Si5 0.684213 0.111069 0.923576
Si Si6 0.165259 0.317790 0.150285
Si Si7 0.871085 0.035928 0.019982
Si Si8 0.577517 0.420593 0.078744
O O1 0.789279 0.011754 0.381022
O O2 0.703768 0.219031 0.396256
O O3 0.690583 0.087440 0.102861
O O4 0.524205 0.813730 0.110594
O O5 0.885419 0.042795 0.209932
O O6 0.046345 0.328212 0.613550
O O7 0.000000 0.000000 0.500000
O O8 0.720660 0.571672 0.131214
O O9 0.743539 0.335699 0.991811
O O10 0.886120 0.689799 0.058230
O O11 0.285381 0.540922 0.360673
O O12 0.387568 0.600419 0.727664
O O13 0.525551 0.912045 0.711265
O O14 0.789321 0.104469 0.926920
O O15 0.029169 0.190753 0.118435
O O16 0.211483 0.191093 0.151773
O O17 0.500000 0.500000 0.000000
#
# Coordination Sequence:
#
# PCOD9073602 Si02
#       8
#     2   2   2   2   2   2   2   2
#     4  10  21  41  65  97 126 166 213 270 318 370
#     4  11  22  40  71  94 124 165 224 270 307 368
#     4  12  23  41  63 100 126 163 220 265 308 380
#     4  11  22  45  65  96 132 170 206 261 330 383
#     4  10  22  41  68  91 125 166 218 266 309 380
#     4  11  26  42  63  91 136 170 208 260 327 385
#     4  10  24  46  62  91 128 172 212 262 323 379
#     4  11  22  41  69  96 127 164 219 267 309 372
#
# _framework density 21.278044999999999
#
# number of rings (size 3 to 8) (size 9 to 14) (size 15 to 20)
#    0.000    1.250    3.750    2.250    5.250    2.500 
#    0.000    0.000    0.000    0.000    0.000    0.000 
#    0.000    0.000    0.000    0.000    0.000    0.000 
#
# Total GULP energy -89272.624993 kJ/mol
# GULP energy per Si atom -5579.539062 kJ/mol
# Density = 2.122962 g / cm^3
# Si number density = 21.278045 Si / 1000 Ang^3
#
#
#
# Elastic Constant Matrix: (Units=GPa)
#
#
# Indices 1 2 3 4 5 6 
#
# 1 70.4865 -1.1942 33.6320 -5.2843 9.2925 -24.4640
# 2 -1.1942 33.2620 -1.5494 2.8219 -0.4939 -17.3332
# 3 33.6320 -1.5494 78.9059 31.4767 -7.6215 -9.0390
# 4 -5.2843 2.8219 31.4767 15.3279 -5.6625 -3.5268
# 5 9.2925 -0.4939 -7.6215 -5.6625 19.5488 2.4930
# 6 -24.4640 -17.3332 -9.0390 -3.5268 2.4930 19.1556
#
#
#
# Elastic Compliance Matrix: (Units=1/GPa)
#
#
# Indices 1 2 3 4 5 6 
#
# 1 -0.010586 0.003974 0.034997 -0.079169 -0.003190 -0.007571
# 2 0.003974 0.091734 0.053447 -0.111871 -0.023348 0.095744
# 3 0.034997 0.053447 0.008127 -0.000714 -0.025080 0.100025
# 4 -0.079169 -0.111871 -0.000714 0.039524 0.072092 -0.204780
# 5 -0.003190 -0.023348 -0.025080 0.072092 0.067332 -0.032525
# 6 -0.007571 0.095744 0.100025 -0.204780 -0.032525 0.142900
#
#
# Mechanical properties :
#
#
# Convention : Reuss Voigt Hill
#
# Bulk Modulus (GPa) = 3.64816 27.15902 15.40359
# Shear Modulus (GPa) = 20.36112 20.92420 20.64266
#
# Velocity S-wave (km/s) = 3.09675 3.13928 3.11808
# Velocity P-wave (km/s) = 3.80850 5.09231 4.49646
#
# Compressibility (1/GPa) = 0.27411045
#
# Stress axis : x y z
#
# Youngs Moduli (GPa) = -94.46022 10.90104 123.04661
#
# Poissons Ratio (x) = -0.04332 -4.30622
# Poissons Ratio (y) = 0.37536 -6.57652
# Poissons Ratio (z) = 3.30579 -0.58263
#
# Static dielectric constant tensor:
#      x y z
#    x 1.792240 -0.012500 0.022520 
#    y -0.012500 1.796000 0.023970 
#    z 0.022520 0.023970 1.769830 
# 
# From -- ./inp_files/179301.got.cif
#   From: 2010.05.17/outbox.ucp.g08.bks.cvg/sg2_90_cif.got.tgz:179301.got - 2010.06.11 11:32:03.
