data_PCOD9073988
_publ_section_title
;
Structure prediction by ZEFSAII (Michael W. Deem and Ramdas Pophale) SiO2 
 PCOD9073988
Probable space group: P -1
;
_chemical_formula_sum "Si O2"
_cell_formula_units_Z 16
_cell_length_a 18.000000
_cell_length_b 9.000000
_cell_length_c 12.000000
_cell_angle_alpha 120.000000
_cell_angle_beta 130.000000
_cell_angle_gamma 30.000000
_cell_volume 736.400153
_symmetry_space_group_name_H-M "P -1"
_symmetry_group_IT_number 2
_symmetry_cell_setting 'triclinic'
loop_
_space_group_symop_operation_xyz
x,y,z
-x,-y,-z
loop_
_atom_site_type_symbol
_atom_site_label
_atom_site_fract_x
_atom_site_fract_y
_atom_site_fract_z
Si Si1 0.417334 0.880180 0.536084
Si Si2 0.184157 0.292762 0.259392
Si Si3 0.273543 0.410827 0.198716
Si Si4 0.633683 0.204412 0.166528
Si Si5 0.262663 0.855171 0.008621
Si Si6 0.855148 0.597182 0.138145
Si Si7 0.990373 0.948667 0.788953
Si Si8 0.725857 0.204613 0.480720
O O1 0.524973 0.863514 0.701544
O O2 0.570750 0.547061 0.503991
O O3 0.306745 0.923260 0.528245
O O4 0.312003 0.104902 0.415746
O O5 0.205996 0.430656 0.257794
O O6 0.001986 0.520849 0.223499
O O7 0.217861 0.082407 0.129164
O O8 0.179942 0.725853 0.195920
O O9 0.214388 0.369634 0.032432
O O10 0.696636 0.148820 0.080668
O O11 0.708804 0.218474 0.337861
O O12 0.698712 0.924333 0.163327
O O13 0.433154 0.520094 0.093121
O O14 0.117791 0.921987 0.896921
O O15 0.932044 0.326556 0.177540
O O16 0.910997 0.003055 0.616706
#
# Coordination Sequence:
#
# PCOD9073988 Si02
#       8
#     2   2   2   2   2   2   2   2
#     4  10  22  40  68  97 126 170 214 266 316 377
#     4  12  21  44  68  98 128 168 219 264 313 386
#     4  11  23  38  67 100 128 164 218 266 318 371
#     4  11  25  44  65  93 135 171 207 266 326 381
#     4  11  24  43  68  95 130 172 212 262 323 381
#     4  12  24  40  67  98 131 167 217 266 317 377
#     4  11  24  41  65  96 126 173 218 263 313 379
#     4  10  22  43  65  94 133 169 211 264 322 377
#
# _framework density 21.727318
#
# number of rings (size 3 to 8) (size 9 to 14) (size 15 to 20)
#    0.000    1.000    5.000    1.875    1.750    1.500 
#    0.000    0.000    0.000    0.000    0.000    0.000 
#    0.000    0.000    0.000    0.000    0.000    0.000 
#
# Total GULP energy -89361.804629 kJ/mol
# GULP energy per Si atom -5585.112789 kJ/mol
# Density = 2.167787 g / cm^3
# Si number density = 21.727318 Si / 1000 Ang^3
#
#
#
# Elastic Constant Matrix: (Units=GPa)
#
#
# Indices 1 2 3 4 5 6 
#
# 1 22.4680 28.4375 17.4454 -14.9489 9.6775 12.5880
# 2 28.4375 90.2243 34.9318 -20.3157 -2.1310 18.5303
# 3 17.4454 34.9318 110.8608 -53.7750 0.2818 5.5896
# 4 -14.9489 -20.3157 -53.7750 16.3105 -6.9537 -1.2996
# 5 9.6775 -2.1310 0.2818 -6.9537 26.4281 7.9826
# 6 12.5880 18.5303 5.5896 -1.2996 7.9826 5.0415
#
#
#
# Elastic Compliance Matrix: (Units=1/GPa)
#
#
# Indices 1 2 3 4 5 6 
#
# 1 -0.021542 -0.090290 0.096476 0.182618 -0.097307 0.479839
# 2 -0.090290 -0.004877 0.053263 0.100704 -0.009422 0.225195
# 3 0.096476 0.053263 -0.110692 -0.226621 0.044062 -0.442120
# 4 0.182618 0.100704 -0.226621 -0.425442 0.073766 -0.801328
# 5 -0.097307 -0.009422 0.044062 0.073766 0.032229 0.196724
# 6 0.479839 0.225195 -0.442120 -0.801328 0.196724 -1.855328
#
#
# Mechanical properties :
#
#
# Convention : Reuss Voigt Hill
#
# Bulk Modulus (GPa) = -54.90683 42.79806 -6.05439
# Shear Modulus (GPa) = -1.99154 19.07191 8.54018
#
# Velocity S-wave (km/s) = -0.95843 2.96596 1.98473
# Velocity P-wave (km/s) = 5.15272 5.60979 1.56832
#
# Compressibility (1/GPa) = -0.01821267
#
# Stress axis : x y z
#
# Youngs Moduli (GPa) = -46.42180 -205.02322 -9.03411
#
# Poissons Ratio (x) = -18.51162 0.87158
# Poissons Ratio (y) = -4.19144 0.48119
# Poissons Ratio (z) = 4.47859 10.92021
#
# Static dielectric constant tensor:
#      x y z
#    x 1.747690 0.012270 0.022450 
#    y 0.012270 1.830710 0.029720 
#    z 0.022450 0.029720 1.861270 
# 
# From -- ./inp_files/184199.got.cif
#   From: 2010.05.17/outbox.ucp.g08.bks.cvg/sg2_93_cif.got.tgz:184199.got - 2010.06.11 11:32:03.
