data_PCOD9073722
_publ_section_title
;
Structure prediction by ZEFSAII (Michael W. Deem and Ramdas Pophale) SiO2 
 PCOD9073722
Probable space group: P -1
;
_chemical_formula_sum "Si O2"
_cell_formula_units_Z 10
_cell_length_a 12.000000
_cell_length_b 6.000000
_cell_length_c 18.000000
_cell_angle_alpha 60.000000
_cell_angle_beta 30.000000
_cell_angle_gamma 80.000000
_cell_volume 449.377686
_symmetry_space_group_name_H-M "P -1"
_symmetry_group_IT_number 2
_symmetry_cell_setting 'triclinic'
loop_
_space_group_symop_operation_xyz
x,y,z
-x,-y,-z
loop_
_atom_site_type_symbol
_atom_site_label
_atom_site_fract_x
_atom_site_fract_y
_atom_site_fract_z
Si Si1 0.898316 0.132214 0.102808
Si Si2 0.336161 0.798618 0.402489
Si Si3 0.981556 0.062208 0.780093
Si Si4 0.489952 0.039008 0.108259
Si Si5 0.091592 0.190052 0.279126
O O1 0.584232 0.970395 0.288482
O O2 0.945419 0.998703 0.172088
O O3 0.000000 0.500000 0.000000
O O4 0.000000 0.000000 0.000000
O O5 0.162794 0.427862 0.587451
O O6 0.131449 0.896357 0.516210
O O7 0.455641 0.907544 0.232874
O O8 0.036912 0.887631 0.715580
O O9 0.654909 0.925223 0.990291
O O10 0.201323 0.975068 0.263560
O O11 0.687015 0.424796 0.917912
#
# Coordination Sequence:
#
# PCOD9073722 Si02
#       5
#     2   2   2   2   2
#     4  12  27  47  74  98 137 185 227 285 348 405
#     4  11  24  41  67  98 135 175 230 279 340 406
#     4  11  24  41  67  98 133 176 229 279 341 405
#     4  10  21  43  63  96 138 174 225 275 345 401
#     4  10  23  39  67  97 132 181 221 284 331 413
#
# _framework density 22.252996
#
# number of rings (size 3 to 8) (size 9 to 14) (size 15 to 20)
#    0.000    1.200    2.000    3.000    5.600    3.200 
#    0.000    0.000    0.000    0.000    0.000    0.000 
#    0.000    0.000    0.000    0.000    0.000    0.000 
#
# Total GULP energy -55682.694399 kJ/mol
# GULP energy per Si atom -5568.269440 kJ/mol
# Density = 2.220235 g / cm^3
# Si number density = 22.252996 Si / 1000 Ang^3
#
#
#
# Elastic Constant Matrix: (Units=GPa)
#
#
# Indices 1 2 3 4 5 6 
#
# 1 52.8282 15.5675 -12.8532 16.1084 -21.8527 -20.7834
# 2 15.5675 77.8440 29.7441 4.2635 -4.9230 0.7349
# 3 -12.8532 29.7441 54.8934 25.8332 -27.9562 -7.8647
# 4 16.1084 4.2635 25.8332 5.8825 24.9512 7.0601
# 5 -21.8527 -4.9230 -27.9562 24.9512 6.4481 -8.1744
# 6 -20.7834 0.7349 -7.8647 7.0601 -8.1744 35.3252
#
#
#
# Elastic Compliance Matrix: (Units=1/GPa)
#
#
# Indices 1 2 3 4 5 6 
#
# 1 0.013646 -0.002342 -0.003859 0.010280 -0.007789 0.003361
# 2 -0.002342 0.015522 -0.004259 -0.005138 0.004636 -0.000549
# 3 -0.003859 -0.004259 0.010560 0.008695 -0.008747 -0.003593
# 4 0.010280 -0.005138 0.008695 0.015884 0.018941 0.009300
# 5 -0.007789 0.004636 -0.008747 0.018941 0.011050 -0.007855
# 6 0.003361 -0.000549 -0.003593 0.009300 -0.007855 0.025821
#
#
# Mechanical properties :
#
#
# Convention : Reuss Voigt Hill
#
# Bulk Modulus (GPa) = 53.16733 27.83137 40.49935
# Shear Modulus (GPa) = 41.78129 19.73829 30.75979
#
# Velocity S-wave (km/s) = 4.33778 2.98148 3.72193
# Velocity P-wave (km/s) = 7.00232 4.93824 6.05883
#
# Compressibility (1/GPa) = 0.01880854
#
# Stress axis : x y z
#
# Youngs Moduli (GPa) = 73.28005 64.42668 94.70014
#
# Poissons Ratio (x) = 0.15088 0.36544
# Poissons Ratio (y) = 0.17162 0.40329
# Poissons Ratio (z) = 0.28278 0.27437
#
# Static dielectric constant tensor:
#      x y z
#    x 1.822840 0.020250 -0.048260 
#    y 0.020250 1.871320 0.003100 
#    z -0.048260 0.003100 1.888880 
# 
# From -- ./inp_files/1430.got.cif
#   From: 2010.05.17/outbox.ucp.g08.bks.cvg/sg2_1_cif.got.tgz:1430.got - 2010.06.11 11:32:03.
