data_PCOD9073395
_publ_section_title
;
Structure prediction by ZEFSAII (Michael W. Deem and Ramdas Pophale) SiO2 
 PCOD9073395
Probable space group: P -1
;
_chemical_formula_sum "Si O2"
_cell_formula_units_Z 16
_cell_length_a 9.000000
_cell_length_b 27.000000
_cell_length_c 27.000000
_cell_angle_alpha 170.000000
_cell_angle_beta 140.000000
_cell_angle_gamma 40.000000
_cell_volume 728.340053
_symmetry_space_group_name_H-M "P -1"
_symmetry_group_IT_number 2
_symmetry_cell_setting 'triclinic'
loop_
_space_group_symop_operation_xyz
x,y,z
-x,-y,-z
loop_
_atom_site_type_symbol
_atom_site_label
_atom_site_fract_x
_atom_site_fract_y
_atom_site_fract_z
Si Si1 0.997831 0.177394 0.773980
Si Si2 0.761422 0.886483 0.812128
Si Si3 0.325973 0.646674 0.305434
Si Si4 0.800509 0.457906 0.646599
Si Si5 0.544529 0.127816 0.546790
Si Si6 0.222584 0.633408 0.990136
Si Si7 0.419192 0.964541 0.887568
Si Si8 0.559519 0.466168 0.285917
O O1 0.792263 0.088133 0.598358
O O2 0.907359 0.255306 0.883136
O O3 0.201773 0.921786 0.572890
O O4 0.121544 0.441911 0.044123
O O5 0.631495 0.829402 0.774183
O O6 0.771633 0.619923 0.514844
O O7 0.608841 0.136409 0.988966
O O8 0.000000 0.000000 0.000000
O O9 0.423448 0.736554 0.365902
O O10 0.509576 0.506650 0.255017
O O11 0.792477 0.209324 0.358323
O O12 0.659813 0.401940 0.606277
O O13 0.041454 0.554233 0.823625
O O14 0.654119 0.720059 0.840518
O O15 0.400583 0.855313 0.236812
O O16 0.385606 0.340734 0.751955
O O17 0.500000 0.000000 0.000000
#
# Coordination Sequence:
#
# PCOD9073395 Si02
#       8
#     2   2   2   2   2   2   2   2
#     4  12  24  43  72  91 127 184 226 259 325 409
#     4  10  21  39  62  90 121 156 204 257 316 375
#     4  12  24  43  68  96 131 172 227 267 327 388
#     4  10  21  39  65  87 122 169 211 253 309 387
#     4  12  26  43  62 102 138 165 214 292 332 366
#     4  12  24  43  66  96 135 171 223 269 330 385
#     4  10  21  39  62  91 120 158 208 256 311 384
#     4  10  21  39  65  88 120 166 213 253 304 390
#
# _framework density 21.967760999999999
#
# number of rings (size 3 to 8) (size 9 to 14) (size 15 to 20)
#    0.000    1.000    1.250    6.000    3.500    0.000 
#    6.750    0.000    0.000    0.000    0.000    0.000 
#    0.000    0.000    0.000    0.000    0.000    0.000 
#
# Total GULP energy -89380.445274 kJ/mol
# GULP energy per Si atom -5586.277830 kJ/mol
# Density = 2.191776 g / cm^3
# Si number density = 21.967761 Si / 1000 Ang^3
#
#
#
# Elastic Constant Matrix: (Units=GPa)
#
#
# Indices 1 2 3 4 5 6 
#
# 1 33.9043 37.9770 8.6683 -22.0858 0.3896 13.0759
# 2 37.9770 94.1095 24.0920 -31.0896 7.7696 23.3295
# 3 8.6683 24.0920 115.3884 -24.8960 14.2942 0.2441
# 4 -22.0858 -31.0896 -24.8960 49.9169 -15.1461 -2.5556
# 5 0.3896 7.7696 14.2942 -15.1461 27.9332 -6.3248
# 6 13.0759 23.3295 0.2441 -2.5556 -6.3248 37.7441
#
#
#
# Elastic Compliance Matrix: (Units=1/GPa)
#
#
# Indices 1 2 3 4 5 6 
#
# 1 0.069509 -0.020256 0.002255 0.023242 0.014395 -0.007589
# 2 -0.020256 0.022241 -0.002025 0.001795 -0.005600 -0.007534
# 3 0.002255 -0.002025 0.010089 0.004066 -0.002362 0.000285
# 4 0.023242 0.001795 0.004066 0.038465 0.017111 -0.003716
# 5 0.014395 -0.005600 -0.002362 0.017111 0.049439 0.007933
# 6 -0.007589 -0.007534 0.000285 -0.003716 0.007933 0.034856
#
#
# Mechanical properties :
#
#
# Convention : Reuss Voigt Hill
#
# Bulk Modulus (GPa) = 16.18441 42.76410 29.47425
# Shear Modulus (GPa) = 17.52866 34.62985 26.07926
#
# Velocity S-wave (km/s) = 2.82782 3.97469 3.44926
# Velocity P-wave (km/s) = 4.24799 6.36971 5.41381
#
# Compressibility (1/GPa) = 0.06178784
#
# Stress axis : x y z
#
# Youngs Moduli (GPa) = 14.38660 44.96115 99.11684
#
# Poissons Ratio (x) = 0.91073 -0.22351
# Poissons Ratio (y) = 0.29141 0.20072
# Poissons Ratio (z) = -0.03244 0.09105
#
# Static dielectric constant tensor:
#      x y z
#    x 1.797110 -0.048920 0.009720 
#    y -0.048920 1.822730 0.005570 
#    z 0.009720 0.005570 1.902230 
# 
# From -- ./inp_files/227991.got.cif
#   From: 2010.05.17/outbox.ucp.g08.bks.cvg/sg2_114_cif.got.tgz:227991.got - 2010.06.11 11:32:03.
