data_PCOD9073483
_publ_section_title
;
Structure prediction by ZEFSAII (Michael W. Deem and Ramdas Pophale) SiO2 
 PCOD9073483
Probable space group: P -1
;
_chemical_formula_sum "Si O2"
_cell_formula_units_Z 16
_cell_length_a 6.000000
_cell_length_b 12.000000
_cell_length_c 12.000000
_cell_angle_alpha 100.000000
_cell_angle_beta 60.000000
_cell_angle_gamma 100.000000
_cell_volume 733.050061
_symmetry_space_group_name_H-M "P -1"
_symmetry_group_IT_number 2
_symmetry_cell_setting 'triclinic'
loop_
_space_group_symop_operation_xyz
x,y,z
-x,-y,-z
loop_
_atom_site_type_symbol
_atom_site_label
_atom_site_fract_x
_atom_site_fract_y
_atom_site_fract_z
Si Si1 0.154585 0.192565 0.486414
Si Si2 0.386050 0.933321 0.746906
Si Si3 0.598147 0.134239 0.015812
Si Si4 0.697410 0.164978 0.753571
Si Si5 0.095813 0.751751 0.658520
Si Si6 0.735648 0.647079 0.900096
Si Si7 0.530291 0.593876 0.171533
Si Si8 0.454006 0.388373 0.568457
O O1 0.375061 0.111096 0.390132
O O2 0.222167 0.302759 0.565485
O O3 0.906811 0.135400 0.604450
O O4 0.113311 0.240897 0.382597
O O5 0.333732 0.871150 0.870120
O O6 0.158744 0.879822 0.713356
O O7 0.454089 0.067722 0.776338
O O8 0.416025 0.239170 0.064532
O O9 0.777157 0.155165 0.862878
O O10 0.500000 0.000000 0.000000
O O11 0.627952 0.294029 0.775702
O O12 0.314193 0.690268 0.528450
O O13 0.002880 0.675201 0.773525
O O14 0.603987 0.529088 0.857975
O O15 0.746430 0.625924 0.026765
O O16 0.587152 0.584188 0.286887
O O17 0.500000 0.500000 0.500000
#
# Coordination Sequence:
#
# PCOD9073483 Si02
#       8
#     2   2   2   2   2   2   2   2
#     4  11  22  40  62  92 123 165 205 255 317 356
#     4  10  22  40  63  94 123 162 211 255 302 373
#     4   9  19  39  64  90 122 159 206 254 302 364
#     4  10  21  40  62  90 130 161 202 259 309 363
#     4  11  23  40  65  93 124 164 208 255 313 360
#     4  10  21  40  67  90 126 165 201 257 311 364
#     4  10  22  41  63  94 125 162 208 253 308 368
#     4  11  25  40  62  93 126 162 213 252 299 382
#
# _framework density 21.826612999999998
#
# number of rings (size 3 to 8) (size 9 to 14) (size 15 to 20)
#    0.000    1.750    2.500    1.125    3.500    2.500 
#    2.250    6.250    0.000    0.000    0.000    0.000 
#    0.000    0.000    0.000    0.000    0.000    0.000 
#
# Total GULP energy -89095.822655 kJ/mol
# GULP energy per Si atom -5568.488916 kJ/mol
# Density = 2.177693 g / cm^3
# Si number density = 21.826613 Si / 1000 Ang^3
#
#
#
# Elastic Constant Matrix: (Units=GPa)
#
#
# Indices 1 2 3 4 5 6 
#
# 1 24.3537 18.8912 24.0909 1.0243 22.2687 8.8993
# 2 18.8912 126.4711 11.9807 8.7909 17.5746 7.2878
# 3 24.0909 11.9807 160.4432 -7.2718 39.9874 11.3640
# 4 1.0243 8.7909 -7.2718 45.7669 4.0495 4.8163
# 5 22.2687 17.5746 39.9874 4.0495 30.9300 3.3812
# 6 8.8993 7.2878 11.3640 4.8163 3.3812 22.9583
#
#
#
# Elastic Compliance Matrix: (Units=1/GPa)
#
#
# Indices 1 2 3 4 5 6 
#
# 1 0.181511 -0.006856 0.012918 0.017727 -0.139496 -0.057751
# 2 -0.006856 0.009076 0.000435 -0.001464 -0.000586 -0.000045
# 3 0.012918 0.000435 0.010796 0.004232 -0.023188 -0.007962
# 4 0.017727 -0.001464 0.004232 0.025284 -0.019518 -0.010931
# 5 -0.139496 -0.000586 -0.023188 -0.019518 0.160582 0.046181
# 6 -0.057751 -0.000045 -0.007962 -0.010931 0.046181 0.065390
#
#
# Mechanical properties :
#
#
# Convention : Reuss Voigt Hill
#
# Bulk Modulus (GPa) = 4.66471 46.79931 25.73201
# Shear Modulus (GPa) = 9.78273 37.01806 23.40039
#
# Velocity S-wave (km/s) = 2.11937 4.12273 3.27785
# Velocity P-wave (km/s) = 2.85146 6.64458 5.11279
#
# Compressibility (1/GPa) = 0.21437560
#
# Stress axis : x y z
#
# Youngs Moduli (GPa) = 5.50929 110.18467 92.63081
#
# Poissons Ratio (x) = 0.75545 -1.19662
# Poissons Ratio (y) = 0.03777 -0.04026
# Poissons Ratio (z) = -0.07117 -0.04789
#
# Static dielectric constant tensor:
#      x y z
#    x 1.982520 0.064680 -0.105580 
#    y 0.064680 1.794590 -0.054030 
#    z -0.105580 -0.054030 1.845930 
# 
# From -- ./inp_files/71122.got.cif
#   From: 2010.05.17/outbox.ucp.g08.bks.cvg/sg2_36_cif.got.tgz:71122.got - 2010.06.11 11:32:03.
