data_PCOD9073744
_publ_section_title
;
Structure prediction by ZEFSAII (Michael W. Deem and Ramdas Pophale) SiO2 
 PCOD9073744
Probable space group: P -1
;
_chemical_formula_sum "Si O2"
_cell_formula_units_Z 14
_cell_length_a 15.000000
_cell_length_b 9.000000
_cell_length_c 15.000000
_cell_angle_alpha 40.000000
_cell_angle_beta 40.000000
_cell_angle_gamma 30.000000
_cell_volume 616.747849
_symmetry_space_group_name_H-M "P -1"
_symmetry_group_IT_number 2
_symmetry_cell_setting 'triclinic'
loop_
_space_group_symop_operation_xyz
x,y,z
-x,-y,-z
loop_
_atom_site_type_symbol
_atom_site_label
_atom_site_fract_x
_atom_site_fract_y
_atom_site_fract_z
Si Si1 0.946243 0.653611 0.649833
Si Si2 0.952927 0.680866 0.096763
Si Si3 0.701694 0.345039 0.452295
Si Si4 0.760316 0.586547 0.142998
Si Si5 0.598511 0.759168 0.835289
Si Si6 0.571980 0.313329 0.162658
Si Si7 0.651937 0.633664 0.541914
O O1 0.816675 0.586555 0.748085
O O2 0.975061 0.586870 0.764158
O O3 0.147362 0.485340 0.529628
O O4 0.820455 0.012839 0.558494
O O5 0.843271 0.710142 0.079843
O O6 0.795589 0.996596 0.130137
O O7 0.141236 0.565902 0.957220
O O8 0.500000 0.500000 0.500000
O O9 0.804783 0.328160 0.294497
O O10 0.670016 0.556995 0.459389
O O11 0.537530 0.891389 0.178481
O O12 0.530702 0.760830 0.788082
O O13 0.563708 0.572445 0.006288
O O14 0.447267 0.454112 0.283324
O O15 0.500000 0.000000 0.500000
#
# Coordination Sequence:
#
# PCOD9073744 Si02
#       7
#     2   2   2   2   2   2   2
#     4  12  25  42  73 104 141 179 246 284 351 416
#     4  10  22  41  69  97 131 185 229 288 336 424
#     4  12  26  46  70 104 140 186 232 289 356 415
#     4  10  21  43  67  94 140 177 231 285 345 407
#     4  10  23  43  67 103 136 185 234 291 338 426
#     4  10  23  46  68  97 145 184 229 284 365 403
#     4  12  25  47  72 101 145 185 229 294 351 419
#
# _framework density 22.699714
#
# number of rings (size 3 to 8) (size 9 to 14) (size 15 to 20)
#    0.000    1.143    4.286    1.286    2.000    6.286 
#    2.571    0.000    0.000    0.000    0.000    0.000 
#    0.000    0.000    0.000    0.000    0.000    0.000 
#
# Total GULP energy -78069.415976 kJ/mol
# GULP energy per Si atom -5576.386855 kJ/mol
# Density = 2.264805 g / cm^3
# Si number density = 22.699714 Si / 1000 Ang^3
#
#
#
# Elastic Constant Matrix: (Units=GPa)
#
#
# Indices 1 2 3 4 5 6 
#
# 1 46.8165 46.6349 17.8179 3.7404 -6.3915 -13.1092
# 2 46.6349 101.0749 67.6366 16.5038 7.1212 -32.8975
# 3 17.8179 67.6366 142.5435 4.5128 26.2984 2.6474
# 4 3.7404 16.5038 4.5128 29.7054 -1.9797 6.4532
# 5 -6.3915 7.1212 26.2984 -1.9797 31.1987 2.9399
# 6 -13.1092 -32.8975 2.6474 6.4532 2.9399 21.1558
#
#
#
# Elastic Compliance Matrix: (Units=1/GPa)
#
#
# Indices 1 2 3 4 5 6 
#
# 1 0.022149 0.027543 -0.016935 -0.029824 0.004304 0.067172
# 2 0.027543 -0.084441 0.034535 0.069905 0.013601 -0.141774
# 3 -0.016935 0.034535 -0.004688 -0.029185 -0.014406 0.054699
# 4 -0.029824 0.069905 -0.029185 -0.019463 -0.008213 0.100952
# 5 0.004304 0.013601 -0.014406 -0.008213 0.039317 0.022661
# 6 0.067172 -0.141774 0.054699 0.100952 0.022661 -0.172355
#
#
# Mechanical properties :
#
#
# Convention : Reuss Voigt Hill
#
# Bulk Modulus (GPa) = 42.90944 61.62376 52.26660
# Shear Modulus (GPa) = -16.55639 26.96833 5.20597
#
# Velocity S-wave (km/s) = -2.70361 3.45055 1.51604
# Velocity P-wave (km/s) = 3.03284 6.56364 5.11270
#
# Compressibility (1/GPa) = 0.02330490
#
# Stress axis : x y z
#
# Youngs Moduli (GPa) = 45.14911 -11.84266 -213.29302
#
# Poissons Ratio (x) = 0.32618 -3.61211
# Poissons Ratio (y) = -1.24353 7.36600
# Poissons Ratio (z) = 0.76460 0.40898
#
# Static dielectric constant tensor:
#      x y z
#    x 1.890750 -0.013720 -0.033500 
#    y -0.013720 1.847080 -0.007530 
#    z -0.033500 -0.007530 1.893850 
# 
# From -- ./inp_files/495583.got.cif
#   From: 2010.05.17/outbox.ucp.g08.bks.cvg/sg2_248_cif.got.tgz:495583.got - 2010.06.11 11:32:03.
