data_PCOD9073211
_publ_section_title
;
Structure prediction by ZEFSAII (Michael W. Deem and Ramdas Pophale) SiO2 
 PCOD9073211
Probable space group: P -1
;
_chemical_formula_sum "Si O2"
_cell_formula_units_Z 16
_cell_length_a 12.000000
_cell_length_b 12.000000
_cell_length_c 6.000000
_cell_angle_alpha 90.000000
_cell_angle_beta 80.000000
_cell_angle_gamma 120.000000
_cell_volume 733.050061
_symmetry_space_group_name_H-M "P -1"
_symmetry_group_IT_number 2
_symmetry_cell_setting 'triclinic'
loop_
_space_group_symop_operation_xyz
x,y,z
-x,-y,-z
loop_
_atom_site_type_symbol
_atom_site_label
_atom_site_fract_x
_atom_site_fract_y
_atom_site_fract_z
Si Si1 0.920885 0.242924 0.454438
Si Si2 0.051311 0.210062 0.802481
Si Si3 0.097867 0.452325 0.038155
Si Si4 0.506322 0.595307 0.807799
Si Si5 0.259451 0.718751 0.168089
Si Si6 0.778497 0.080498 0.117160
Si Si7 0.462087 0.205924 0.859920
Si Si8 0.336037 0.338747 0.642613
O O1 0.854907 0.308157 0.619270
O O2 0.802569 0.124827 0.363810
O O3 0.992834 0.187292 0.577708
O O4 0.030150 0.351730 0.261312
O O5 0.193007 0.225769 0.768109
O O6 0.094915 0.358885 0.847090
O O7 0.924910 0.113281 0.991107
O O8 0.226699 0.582725 0.069415
O O9 0.000000 0.500000 0.000000
O O10 0.386695 0.486782 0.700457
O O11 0.642357 0.649266 0.627532
O O12 0.500000 0.500000 0.000000
O O13 0.513888 0.721003 0.910954
O O14 0.401070 0.786723 0.232942
O O15 0.249405 0.816200 0.998463
O O16 0.661620 0.938115 0.105445
O O17 0.434399 0.293266 0.700332
#
# Coordination Sequence:
#
# PCOD9073211 Si02
#       8
#     2   2   2   2   2   2   2   2
#     4  10  21  36  59  85 123 153 197 245 301 344
#     4  10  22  38  62  87 122 155 196 250 296 347
#     4  11  19  37  60  95 120 147 196 247 301 356
#     4   9  21  42  61  86 120 149 194 245 297 350
#     4  11  22  37  60  89 120 160 196 245 301 351
#     4  10  23  41  57  88 121 157 205 246 290 350
#     4  11  24  40  62  85 122 163 198 243 294 351
#     4  10  22  41  63  92 116 153 201 242 298 360
#
# _framework density 21.826612999999998
#
# number of rings (size 3 to 8) (size 9 to 14) (size 15 to 20)
#    0.000    1.750    3.750    1.500    0.000   11.000 
#    0.000    1.250    0.000    0.000    0.000    0.000 
#    0.000    0.000    0.000    0.000    0.000    0.000 
#
# Total GULP energy -89126.021323 kJ/mol
# GULP energy per Si atom -5570.376333 kJ/mol
# Density = 2.177693 g / cm^3
# Si number density = 21.826613 Si / 1000 Ang^3
#
#
#
# Elastic Constant Matrix: (Units=GPa)
#
#
# Indices 1 2 3 4 5 6 
#
# 1 85.4265 12.8809 12.6392 4.0308 -3.6595 28.7478
# 2 12.8809 128.6631 17.8919 6.3506 -1.3293 37.7403
# 3 12.6392 17.8919 35.8689 9.2590 12.3713 3.2291
# 4 4.0308 6.3506 9.2590 16.3946 4.0952 -0.9158
# 5 -3.6595 -1.3293 12.3713 4.0952 4.0862 -3.4637
# 6 28.7478 37.7403 3.2291 -0.9158 -3.4637 32.7484
#
#
#
# Elastic Compliance Matrix: (Units=1/GPa)
#
#
# Indices 1 2 3 4 5 6 
#
# 1 0.013100 0.001825 0.020568 0.000697 -0.070167 -0.023033
# 2 0.001825 0.011841 0.011086 -0.001326 -0.044633 -0.021100
# 3 0.020568 0.011086 -0.067825 -0.037791 0.267902 0.003135
# 4 0.000697 -0.001326 -0.037791 0.069514 0.055498 0.012457
# 5 -0.070167 -0.044633 0.267902 0.055498 -0.686119 0.015599
# 6 -0.023033 -0.021100 0.003135 0.012457 0.015599 0.076761
#
#
# Mechanical properties :
#
#
# Convention : Reuss Voigt Hill
#
# Bulk Modulus (GPa) = 41.53659 37.42027 39.47843
# Shear Modulus (GPa) = -7.79225 24.41562 8.31168
#
# Velocity S-wave (km/s) = -1.89151 3.34820 1.95354
# Velocity P-wave (km/s) = 3.78168 5.66823 4.81819
#
# Compressibility (1/GPa) = 0.02407516
#
# Stress axis : x y z
#
# Youngs Moduli (GPa) = 76.33482 84.45035 -14.74376
#
# Poissons Ratio (x) = -0.15415 0.30325
# Poissons Ratio (y) = -0.13934 0.16345
# Poissons Ratio (z) = -1.57005 -0.93623
#
# Static dielectric constant tensor:
#      x y z
#    x 1.882640 0.047650 -0.046400 
#    y 0.047650 1.801650 0.038390 
#    z -0.046400 0.038390 1.938710 
# 
# From -- ./inp_files/70499.got.cif
#   From: 2010.05.17/outbox.ucp.g08.bks.cvg/sg2_36_cif.got.tgz:70499.got - 2010.06.11 11:32:03.
