data_PCOD9073278
_publ_section_title
;
Structure prediction by ZEFSAII (Michael W. Deem and Ramdas Pophale) SiO2 
 PCOD9073278
Probable space group: P -1
;
_chemical_formula_sum "Si O2"
_cell_formula_units_Z 16
_cell_length_a 9.000000
_cell_length_b 9.000000
_cell_length_c 12.000000
_cell_angle_alpha 120.000000
_cell_angle_beta 120.000000
_cell_angle_gamma 80.000000
_cell_volume 725.212580
_symmetry_space_group_name_H-M "P -1"
_symmetry_group_IT_number 2
_symmetry_cell_setting 'triclinic'
loop_
_space_group_symop_operation_xyz
x,y,z
-x,-y,-z
loop_
_atom_site_type_symbol
_atom_site_label
_atom_site_fract_x
_atom_site_fract_y
_atom_site_fract_z
Si Si1 0.526101 0.308875 0.982457
Si Si2 0.766198 0.717466 0.444681
Si Si3 0.453769 0.591810 0.730495
Si Si4 0.376165 0.049931 0.369419
Si Si5 0.175654 0.467946 0.197561
Si Si6 0.834312 0.275617 0.919752
Si Si7 0.870302 0.340088 0.514753
Si Si8 0.693465 0.977702 0.330823
O O1 0.544709 0.291580 0.115777
O O2 0.500000 0.500000 0.000000
O O3 0.698863 0.275315 0.969557
O O4 0.367214 0.172190 0.834720
O O5 0.592953 0.597860 0.304590
O O6 0.767827 0.881387 0.426909
O O7 0.937029 0.627186 0.449925
O O8 0.720843 0.785100 0.574762
O O9 0.637797 0.599830 0.744692
O O10 0.291596 0.600787 0.592112
O O11 0.224519 0.901717 0.231340
O O12 0.517515 0.062210 0.329296
O O13 0.500000 0.000000 0.500000
O O14 0.185951 0.581161 0.129872
O O15 0.135225 0.583115 0.333200
O O16 0.022966 0.318225 0.059252
O O17 0.830814 0.134009 0.412113
#
# Coordination Sequence:
#
# PCOD9073278 Si02
#       8
#     2   2   2   2   2   2   2   2
#     4  11  20  40  66  89 121 158 211 255 311 378
#     4  11  21  39  64  87 123 166 213 256 303 375
#     4  12  24  41  63  89 127 174 203 256 325 375
#     4   9  18  36  61  90 122 156 208 252 309 362
#     4  11  22  38  61  89 132 161 210 260 312 371
#     4  10  21  37  64  99 116 162 213 266 301 363
#     4  12  26  39  59  96 130 162 208 263 321 371
#     4  10  21  38  64  90 120 162 207 261 309 366
#
# _framework density 22.062495999999999
#
# number of rings (size 3 to 8) (size 9 to 14) (size 15 to 20)
#    0.000    1.250    2.500    5.625    0.000    1.500 
#    0.000    0.000    0.000    3.750    0.000    0.000 
#    0.000    0.000    0.000    0.000    0.000    0.000 
#
# Total GULP energy -89246.857000 kJ/mol
# GULP energy per Si atom -5577.928562 kJ/mol
# Density = 2.201228 g / cm^3
# Si number density = 22.062496 Si / 1000 Ang^3
#
#
#
# Elastic Constant Matrix: (Units=GPa)
#
#
# Indices 1 2 3 4 5 6 
#
# 1 120.3150 19.7854 65.8909 2.6168 18.0661 -20.1396
# 2 19.7854 32.7685 14.8050 7.3630 8.8410 -3.8987
# 3 65.8909 14.8050 141.1545 20.4796 14.4756 -3.0058
# 4 2.6168 7.3630 20.4796 26.5126 0.4113 9.0026
# 5 18.0661 8.8410 14.4756 0.4113 39.9440 5.8774
# 6 -20.1396 -3.8987 -3.0058 9.0026 5.8774 26.6926
#
#
#
# Elastic Compliance Matrix: (Units=1/GPa)
#
#
# Indices 1 2 3 4 5 6 
#
# 1 0.014686 -0.003589 -0.005742 0.000337 -0.005387 0.010982
# 2 -0.003589 0.039024 0.000734 -0.014232 -0.008570 0.009762
# 3 -0.005742 0.000734 0.011028 -0.008166 -0.001493 0.000100
# 4 0.000337 -0.014232 -0.008166 0.055790 0.008842 -0.023508
# 5 -0.005387 -0.008570 -0.001493 0.008842 0.032104 -0.015535
# 6 0.010982 0.009762 0.000100 -0.023508 -0.015535 0.058536
#
#
# Mechanical properties :
#
#
# Convention : Reuss Voigt Hill
#
# Bulk Modulus (GPa) = 21.03295 55.02228 38.02762
# Shear Modulus (GPa) = 20.47428 31.54694 26.01061
#
# Velocity S-wave (km/s) = 3.04964 3.78549 3.43731
# Velocity P-wave (km/s) = 4.68555 6.64078 5.74693
#
# Compressibility (1/GPa) = 0.04754444
#
# Stress axis : x y z
#
# Youngs Moduli (GPa) = 68.09242 25.62528 90.68162
#
# Poissons Ratio (x) = 0.09196 0.52065
# Poissons Ratio (y) = 0.24437 -0.06655
# Poissons Ratio (z) = 0.39095 -0.01880
#
# Static dielectric constant tensor:
#      x y z
#    x 1.812120 -0.013310 -0.051870 
#    y -0.013310 1.891290 0.012030 
#    z -0.051870 0.012030 1.837530 
# 
# From -- ./inp_files/282627.got.cif
#   From: 2010.05.17/outbox.ucp.g08.bks.cvg/sg2_142_cif.got.tgz:282627.got - 2010.06.11 11:32:03.
