data_PCOD9073650
_publ_section_title
;
Structure prediction by ZEFSAII (Michael W. Deem and Ramdas Pophale) SiO2 
 PCOD9073650
Probable space group: P -1
;
_chemical_formula_sum "Si O2"
_cell_formula_units_Z 16
_cell_length_a 15.000000
_cell_length_b 15.000000
_cell_length_c 9.000000
_cell_angle_alpha 140.000000
_cell_angle_beta 40.000000
_cell_angle_gamma 140.000000
_cell_volume 753.872439
_symmetry_space_group_name_H-M "P -1"
_symmetry_group_IT_number 2
_symmetry_cell_setting 'triclinic'
loop_
_space_group_symop_operation_xyz
x,y,z
-x,-y,-z
loop_
_atom_site_type_symbol
_atom_site_label
_atom_site_fract_x
_atom_site_fract_y
_atom_site_fract_z
Si Si1 0.769573 0.224305 0.667244
Si Si2 0.515835 0.239891 0.528286
Si Si3 0.356329 0.455047 0.414903
Si Si4 0.578723 0.959560 0.036588
Si Si5 0.772145 0.850523 0.425991
Si Si6 0.686338 0.495509 0.133716
Si Si7 0.305613 0.058545 0.807675
Si Si8 0.950422 0.847636 0.661584
O O1 0.607318 0.142740 0.862644
O O2 0.924051 0.215829 0.526245
O O3 0.733342 0.106833 0.426072
O O4 0.776567 0.393530 0.843214
O O5 0.615036 0.418120 0.588415
O O6 0.344742 0.186744 0.610236
O O7 0.461163 0.186169 0.696336
O O8 0.592493 0.133003 0.228603
O O9 0.516561 0.437155 0.200034
O O10 0.346844 0.528948 0.679050
O O11 0.196782 0.300687 0.407742
O O12 0.648148 0.947174 0.090279
O O13 0.676471 0.902927 0.731987
O O14 0.771339 0.683452 0.245466
O O15 0.937066 0.996567 0.374022
O O16 0.154757 0.092687 0.027029
#
# Coordination Sequence:
#
# PCOD9073650 Si02
#       8
#     2   2   2   2   2   2   2   2
#     4  11  22  41  70  93 131 175 219 272 325 385
#     4  10  21  41  71  96 129 176 228 260 320 407
#     4  10  23  42  67  99 135 171 219 277 329 385
#     4  11  22  41  73  99 128 175 231 264 321 399
#     4  11  23  42  72 100 131 172 220 273 331 388
#     4  10  22  43  67  97 134 175 222 267 324 396
#     4  11  24  43  68  95 136 177 221 267 330 393
#     4  12  25  42  68 100 136 171 215 280 336 379
#
# _framework density 21.223749999999999
#
# number of rings (size 3 to 8) (size 9 to 14) (size 15 to 20)
#    0.000    1.250    2.500    6.000    1.750    3.000 
#    2.250    1.875    0.000    0.000    0.000    0.000 
#    0.000    0.000    0.000    0.000    0.000    0.000 
#
# Total GULP energy -89234.914849 kJ/mol
# GULP energy per Si atom -5577.182178 kJ/mol
# Density = 2.117544 g / cm^3
# Si number density = 21.223750 Si / 1000 Ang^3
#
#
#
# Elastic Constant Matrix: (Units=GPa)
#
#
# Indices 1 2 3 4 5 6 
#
# 1 85.6142 43.2728 40.4227 4.4248 -18.4607 2.8691
# 2 43.2728 152.3563 59.4651 11.6415 -14.8555 14.7146
# 3 40.4227 59.4651 165.2961 19.6828 -27.0163 -5.3263
# 4 4.4248 11.6415 19.6828 34.5309 -7.4166 -10.4111
# 5 -18.4607 -14.8555 -27.0163 -7.4166 42.0361 1.5441
# 6 2.8691 14.7146 -5.3263 -10.4111 1.5441 35.1882
#
#
#
# Elastic Compliance Matrix: (Units=1/GPa)
#
#
# Indices 1 2 3 4 5 6 
#
# 1 0.015118 -0.003178 -0.001969 0.001203 0.004465 -0.000042
# 2 -0.003178 0.009021 -0.002292 -0.002734 0.000009 -0.004669
# 3 -0.001969 -0.002292 0.008213 -0.002547 0.003101 0.001473
# 4 0.001203 -0.002734 -0.002547 0.035280 0.003748 0.010934
# 5 0.004465 0.000009 0.003101 0.003748 0.028408 -0.000036
# 6 -0.000042 -0.004669 0.001473 0.010934 -0.000036 0.033834
#
#
# Mechanical properties :
#
#
# Convention : Reuss Voigt Hill
#
# Bulk Modulus (GPa) = 57.22231 76.62085 66.92158
# Shear Modulus (GPa) = 33.20553 39.69144 36.44848
#
# Velocity S-wave (km/s) = 3.95972 4.32921 4.14858
# Velocity P-wave (km/s) = 6.92285 7.82107 7.38563
#
# Compressibility (1/GPa) = 0.01747570
#
# Stress axis : x y z
#
# Youngs Moduli (GPa) = 66.14610 110.84733 121.75669
#
# Poissons Ratio (x) = 0.35228 0.23969
# Poissons Ratio (y) = 0.21022 0.27904
# Poissons Ratio (z) = 0.13022 0.25404
#
# Static dielectric constant tensor:
#      x y z
#    x 1.833630 -0.048000 0.046800 
#    y -0.048000 1.798610 0.023750 
#    z 0.046800 0.023750 1.792600 
# 
# From -- ./inp_files/316041.got.cif
#   From: 2010.05.17/outbox.ucp.g08.bks.cvg/sg2_159_cif.got.tgz:316041.got - 2010.06.11 11:32:03.
