data_PCOD9073313
_publ_section_title
;
Structure prediction by ZEFSAII (Michael W. Deem and Ramdas Pophale) SiO2 
 PCOD9073313
Probable space group: P -1
;
_chemical_formula_sum "Si O2"
_cell_formula_units_Z 16
_cell_length_a 12.000000
_cell_length_b 18.000000
_cell_length_c 21.000000
_cell_angle_alpha 20.000000
_cell_angle_beta 140.000000
_cell_angle_gamma 150.000000
_cell_volume 744.844803
_symmetry_space_group_name_H-M "P -1"
_symmetry_group_IT_number 2
_symmetry_cell_setting 'triclinic'
loop_
_space_group_symop_operation_xyz
x,y,z
-x,-y,-z
loop_
_atom_site_type_symbol
_atom_site_label
_atom_site_fract_x
_atom_site_fract_y
_atom_site_fract_z
Si Si1 0.764963 0.251715 0.559245
Si Si2 0.643967 0.811998 0.612993
Si Si3 0.406069 0.701469 0.927906
Si Si4 0.001816 0.642912 0.748582
Si Si5 0.102514 0.707864 0.562241
Si Si6 0.677679 0.183870 0.066111
Si Si7 0.781672 0.163541 0.940670
Si Si8 0.261939 0.198388 0.667338
O O1 0.586147 0.306902 0.430450
O O2 0.828245 0.253099 0.512507
O O3 0.000000 0.500000 0.500000
O O4 0.628538 0.948339 0.783085
O O5 0.858789 0.035900 0.477191
O O6 0.694272 0.035848 0.509052
O O7 0.615859 0.558794 0.841679
O O8 0.190306 0.604038 0.869055
O O9 0.392053 0.845224 0.868116
O O10 0.814965 0.399256 0.812007
O O11 0.861799 0.520254 0.852378
O O12 0.992657 0.394290 0.797244
O O13 0.915884 0.749808 0.450993
O O14 0.446949 0.015089 0.058424
O O15 0.785178 0.039816 0.210582
O O16 0.756728 0.938397 0.160549
O O17 0.500000 0.500000 0.500000
#
# Coordination Sequence:
#
# PCOD9073313 Si02
#       8
#     2   2   2   2   2   2   2   2
#     4  11  26  45  66  93 127 164 219 274 315 370
#     4  10  23  42  65  92 124 174 215 256 321 379
#     4  11  24  43  63  93 131 168 211 261 319 382
#     4   9  20  38  60  89 131 164 209 257 309 381
#     4  11  23  42  68  93 129 172 213 265 312 374
#     4  11  21  39  63  95 136 167 206 265 315 374
#     4  10  21  38  60  95 127 163 211 258 305 372
#     4  11  22  36  64  99 128 164 208 257 319 377
#
# _framework density 21.480985
#
# number of rings (size 3 to 8) (size 9 to 14) (size 15 to 20)
#    0.000    1.500    1.250    4.500    1.750    3.500 
#    2.250    0.000    0.000    0.000    0.000    0.000 
#    0.000    0.000    0.000    0.000    0.000    0.000 
#
# Total GULP energy -89289.025443 kJ/mol
# GULP energy per Si atom -5580.564090 kJ/mol
# Density = 2.143209 g / cm^3
# Si number density = 21.480985 Si / 1000 Ang^3
#
#
#
# Elastic Constant Matrix: (Units=GPa)
#
#
# Indices 1 2 3 4 5 6 
#
# 1 103.5226 15.6384 37.1245 -7.0949 -39.7779 -14.7634
# 2 15.6384 110.8530 30.2398 -4.0195 -7.7276 1.5901
# 3 37.1245 30.2398 184.8224 4.9975 -41.1806 7.2968
# 4 -7.0949 -4.0195 4.9975 37.3655 3.5098 -6.9959
# 5 -39.7779 -7.7276 -41.1806 3.5098 45.8878 5.2504
# 6 -14.7634 1.5901 7.2968 -6.9959 5.2504 23.9919
#
#
#
# Elastic Compliance Matrix: (Units=1/GPa)
#
#
# Indices 1 2 3 4 5 6 
#
# 1 0.016169 -0.001219 -0.000875 0.003595 0.011747 0.008774
# 2 -0.001219 0.009592 -0.001518 0.000997 -0.000828 -0.000452
# 3 -0.000875 -0.001518 0.007579 -0.002903 0.006586 -0.005030
# 4 0.003595 0.000997 -0.002903 0.030598 -0.003107 0.012631
# 5 0.011747 -0.000828 0.006586 -0.003107 0.038445 -0.004039
# 6 0.008774 -0.000452 -0.005030 0.012631 -0.004039 0.053207
#
#
# Mechanical properties :
#
#
# Convention : Reuss Voigt Hill
#
# Bulk Modulus (GPa) = 38.29011 62.80037 50.54524
# Shear Modulus (GPa) = 29.15136 42.52873 35.84005
#
# Velocity S-wave (km/s) = 3.68785 4.45436 4.08910
# Velocity P-wave (km/s) = 5.99979 7.46685 6.77316
#
# Compressibility (1/GPa) = 0.02611641
#
# Stress axis : x y z
#
# Youngs Moduli (GPa) = 61.84729 104.25408 131.94175
#
# Poissons Ratio (x) = 0.12709 0.11539
# Poissons Ratio (y) = 0.07539 0.20031
# Poissons Ratio (z) = 0.05409 0.15828
#
# Static dielectric constant tensor:
#      x y z
#    x 1.813810 0.017580 -0.024530 
#    y 0.017580 1.822610 -0.014390 
#    z -0.024530 -0.014390 1.798920 
# 
# From -- ./inp_files/595961.got.cif
#   From: 2010.05.17/outbox.ucp.g08.bks.cvg/sg2_298_cif.got.tgz:595961.got - 2010.06.11 11:32:03.
