data_PCOD9073684
_publ_section_title
;
Structure prediction by ZEFSAII (Michael W. Deem and Ramdas Pophale) SiO2 
 PCOD9073684
Probable space group: P -1
;
_chemical_formula_sum "Si O2"
_cell_formula_units_Z 14
_cell_length_a 9.000000
_cell_length_b 9.000000
_cell_length_c 21.000000
_cell_angle_alpha 40.000000
_cell_angle_beta 50.000000
_cell_angle_gamma 80.000000
_cell_volume 638.399559
_symmetry_space_group_name_H-M "P -1"
_symmetry_group_IT_number 2
_symmetry_cell_setting 'triclinic'
loop_
_space_group_symop_operation_xyz
x,y,z
-x,-y,-z
loop_
_atom_site_type_symbol
_atom_site_label
_atom_site_fract_x
_atom_site_fract_y
_atom_site_fract_z
Si Si1 0.274054 0.313176 0.841588
Si Si2 0.767828 0.540471 0.816797
Si Si3 0.114713 0.677241 0.564225
Si Si4 0.498617 0.210006 0.483002
Si Si5 0.961213 0.398534 0.148990
Si Si6 0.401226 0.878998 0.168317
Si Si7 0.524381 0.845896 0.802727
O O1 0.444198 0.528696 0.663564
O O2 0.440397 0.234786 0.850311
O O3 0.199243 0.484538 0.846978
O O4 0.000000 0.000000 0.000000
O O5 0.924438 0.540756 0.830892
O O6 0.648236 0.686988 0.826027
O O7 0.953516 0.711816 0.648296
O O8 0.534169 0.183353 0.990623
O O9 0.270089 0.633037 0.583396
O O10 0.891057 0.384169 0.682658
O O11 0.325452 0.940326 0.370753
O O12 0.500000 0.000000 0.500000
O O13 0.241152 0.969509 0.673878
O O14 0.212497 0.591665 0.971379
O O15 0.420987 0.967885 0.208507
#
# Coordination Sequence:
#
# PCOD9073684 Si02
#       7
#     2   2   2   2   2   2   2
#     4  11  19  40  72  94 131 175 221 267 330 394
#     4  11  22  43  70  95 134 180 222 269 329 408
#     4  12  24  43  68 105 130 173 233 274 330 396
#     4  10  22  42  69  94 133 177 222 272 327 400
#     4  10  21  42  67  94 134 177 223 261 342 390
#     4  11  24  43  70 102 135 172 223 278 338 390
#     4  11  25  42  68 100 139 174 219 278 335 396
#
# _framework density 21.929839999999999
#
# number of rings (size 3 to 8) (size 9 to 14) (size 15 to 20)
#    0.000    1.143    5.714    3.000    2.000    2.857 
#    2.571    0.714    0.000    0.000    0.000    0.000 
#    0.000    0.000    0.000    0.000    0.000    0.000 
#
# Total GULP energy -78184.025601 kJ/mol
# GULP energy per Si atom -5584.573257 kJ/mol
# Density = 2.187993 g / cm^3
# Si number density = 21.929840 Si / 1000 Ang^3
#
#
#
# Elastic Constant Matrix: (Units=GPa)
#
#
# Indices 1 2 3 4 5 6 
#
# 1 82.7136 35.7301 34.9780 -5.0426 -2.7784 0.3037
# 2 35.7301 72.2852 26.2675 23.5680 4.1615 -17.1853
# 3 34.9780 26.2675 178.6577 24.2028 -9.6189 -6.7269
# 4 -5.0426 23.5680 24.2028 45.4584 2.0489 -2.8010
# 5 -2.7784 4.1615 -9.6189 2.0489 44.1949 -3.6813
# 6 0.3037 -17.1853 -6.7269 -2.8010 -3.6813 22.9351
#
#
#
# Elastic Compliance Matrix: (Units=1/GPa)
#
#
# Indices 1 2 3 4 5 6 
#
# 1 0.021371 -0.015865 -0.003885 0.011918 0.000458 -0.011781
# 2 -0.015865 0.032383 0.001574 -0.017950 -0.000991 0.022585
# 3 -0.003885 0.001574 0.006981 -0.004854 0.001597 0.002942
# 4 0.011918 -0.017950 -0.004854 0.034585 -0.001136 -0.010990
# 5 0.000458 -0.000991 0.001597 -0.001136 0.023428 0.003342
# 6 -0.011781 0.022585 0.002942 -0.010990 0.003342 0.060737
#
#
# Mechanical properties :
#
#
# Convention : Reuss Voigt Hill
#
# Bulk Modulus (GPa) = 41.01191 58.62308 49.81750
# Shear Modulus (GPa) = 22.32497 38.29642 30.31070
#
# Velocity S-wave (km/s) = 3.19410 4.18343 3.72178
# Velocity P-wave (km/s) = 5.68727 7.07989 6.42145
#
# Compressibility (1/GPa) = 0.02438316
#
# Stress axis : x y z
#
# Youngs Moduli (GPa) = 46.79231 30.88034 143.24835
#
# Poissons Ratio (x) = 0.48990 0.55651
# Poissons Ratio (y) = 0.74234 -0.22542
# Poissons Ratio (z) = 0.18179 -0.04859
#
# Static dielectric constant tensor:
#      x y z
#    x 1.817620 0.023520 0.000880 
#    y 0.023520 1.809820 -0.016310 
#    z 0.000880 -0.016310 1.845980 
# 
# From -- ./inp_files/216387.got.cif
#   From: 2010.05.17/outbox.ucp.g08.bks.cvg/sg2_109_cif.got.tgz:216387.got - 2010.06.11 11:32:03.
