data_PCOD9073016
_publ_section_title
;
Structure prediction by ZEFSAII (Michael W. Deem and Ramdas Pophale) SiO2 
 PCOD9073016
Probable space group: P -1
;
_chemical_formula_sum "Si O2"
_cell_formula_units_Z 14
_cell_length_a 27.000000
_cell_length_b 27.000000
_cell_length_c 15.000000
_cell_angle_alpha 20.000000
_cell_angle_beta 160.000000
_cell_angle_gamma 170.000000
_cell_volume 630.401208
_symmetry_space_group_name_H-M "P -1"
_symmetry_group_IT_number 2
_symmetry_cell_setting 'triclinic'
loop_
_space_group_symop_operation_xyz
x,y,z
-x,-y,-z
loop_
_atom_site_type_symbol
_atom_site_label
_atom_site_fract_x
_atom_site_fract_y
_atom_site_fract_z
Si Si1 0.793933 0.389648 0.913195
Si Si2 0.949448 0.246871 0.511845
Si Si3 0.456685 0.739249 0.660706
Si Si4 0.860163 0.969295 0.233052
Si Si5 0.819441 0.032961 0.456510
Si Si6 0.381107 0.430867 0.201208
Si Si7 0.236253 0.779848 0.358205
O O1 0.469481 0.121478 0.781789
O O2 0.819641 0.295311 0.193883
O O3 0.927053 0.666562 0.680460
O O4 0.000000 0.500000 0.000000
O O5 0.281854 0.551657 0.590961
O O6 0.782825 0.045034 0.658350
O O7 0.912371 0.122927 0.566510
O O8 0.304958 0.740888 0.453487
O O9 0.458497 0.613984 0.947319
O O10 0.622574 0.662332 0.297742
O O11 0.000000 0.000000 0.500000
O O12 0.090521 0.209045 0.140358
O O13 0.775308 0.060820 0.962225
O O14 0.712455 0.792978 0.635118
O O15 0.000000 0.500000 0.500000
O O16 0.500000 0.000000 0.500000
#
# Coordination Sequence:
#
# PCOD9073016 Si02
#       7
#     2   2   2   2   2   2   2
#     4  10  20  40  63  90 131 181 224 274 334 388
#     4  11  23  39  64 102 133 171 231 276 318 409
#     4  12  24  40  69  98 133 178 231 275 335 420
#     4  12  26  47  72 104 138 172 238 297 342 418
#     4  11  23  41  67  95 141 184 213 278 347 403
#     4  12  26  45  68  98 139 184 221 276 363 409
#     4  12  23  46  72  96 130 185 225 280 356 401
#
# _framework density 22.208079000000001
#
# number of rings (size 3 to 8) (size 9 to 14) (size 15 to 20)
#    0.000    0.571    2.857    7.286    0.000    4.571 
#    0.000    0.000    0.000    0.000    0.000    0.000 
#    0.000    0.000    0.000    0.000    0.000    0.000 
#
# Total GULP energy -78054.992721 kJ/mol
# GULP energy per Si atom -5575.356623 kJ/mol
# Density = 2.215753 g / cm^3
# Si number density = 22.208079 Si / 1000 Ang^3
#
#
#
# Elastic Constant Matrix: (Units=GPa)
#
#
# Indices 1 2 3 4 5 6 
#
# 1 57.9508 2.2716 18.0038 -20.6192 15.0295 -41.3154
# 2 2.2716 97.6603 -3.8796 -13.1024 11.7533 -27.5365
# 3 18.0038 -3.8796 104.4293 -28.1232 8.1340 -35.9163
# 4 -20.6192 -13.1024 -28.1232 37.6110 -7.1210 -8.6086
# 5 15.0295 11.7533 8.1340 -7.1210 28.5296 -3.6973
# 6 -41.3154 -27.5365 -35.9163 -8.6086 -3.6973 47.6027
#
#
#
# Elastic Compliance Matrix: (Units=1/GPa)
#
#
# Indices 1 2 3 4 5 6 
#
# 1 -0.004768 -0.011062 -0.014775 -0.022970 0.002222 -0.025667
# 2 -0.011062 0.005477 -0.004811 -0.010312 0.000832 -0.011863
# 3 -0.014775 -0.004811 0.004868 -0.008252 0.004625 -0.013067
# 4 -0.022970 -0.010312 -0.008252 -0.000088 0.014662 -0.031004
# 5 0.002222 0.000832 0.004625 0.014662 0.037363 0.011453
# 6 -0.025667 -0.011863 -0.013067 -0.031004 0.011453 -0.022709
#
#
# Mechanical properties :
#
#
# Convention : Reuss Voigt Hill
#
# Bulk Modulus (GPa) = -17.94668 32.53686 7.29509
# Shear Modulus (GPa) = 79.53124 38.99163 59.26143
#
# Velocity S-wave (km/s) = 5.99079 4.19470 5.17132
# Velocity P-wave (km/s) = 6.30508 6.17604 6.24089
#
# Compressibility (1/GPa) = -0.05572060
#
# Stress axis : x y z
#
# Youngs Moduli (GPa) = -209.73564 182.57106 205.43746
#
# Poissons Ratio (x) = 2.01964 3.03543
# Poissons Ratio (y) = -2.32014 0.98839
# Poissons Ratio (z) = -3.09894 0.87838
#
# Static dielectric constant tensor:
#      x y z
#    x 1.766430 -0.008770 0.050630 
#    y -0.008770 1.838990 -0.040050 
#    z 0.050630 -0.040050 1.835160 
# 
# From -- ./inp_files/533833.got.cif
#   From: 2010.05.17/outbox.ucp.g08.bks.cvg/sg2_267_cif.got.tgz:533833.got - 2010.06.11 11:32:03.
