data_PCOD9073010
_publ_section_title
;
Structure prediction by ZEFSAII (Michael W. Deem and Ramdas Pophale) SiO2 
 PCOD9073010
Probable space group: P -1
;
_chemical_formula_sum "Si O2"
_cell_formula_units_Z 16
_cell_length_a 15.000000
_cell_length_b 27.000000
_cell_length_c 9.000000
_cell_angle_alpha 30.000000
_cell_angle_beta 130.000000
_cell_angle_gamma 150.000000
_cell_volume 823.201308
_symmetry_space_group_name_H-M "P -1"
_symmetry_group_IT_number 2
_symmetry_cell_setting 'triclinic'
loop_
_space_group_symop_operation_xyz
x,y,z
-x,-y,-z
loop_
_atom_site_type_symbol
_atom_site_label
_atom_site_fract_x
_atom_site_fract_y
_atom_site_fract_z
Si Si1 0.512609 0.792354 0.867938
Si Si2 0.112351 0.879524 0.731443
Si Si3 0.663010 0.537849 0.134449
Si Si4 0.346047 0.464033 0.511504
Si Si5 0.099497 0.868219 0.100720
Si Si6 0.820923 0.311342 0.357086
Si Si7 0.661852 0.160721 0.870577
Si Si8 0.518425 0.798486 0.213348
O O1 0.381327 0.791509 0.666350
O O2 0.734697 0.945847 0.644291
O O3 0.402710 0.617694 0.147366
O O4 0.514000 0.805179 0.013364
O O5 0.117700 0.903808 0.851545
O O6 0.207953 0.836398 0.927590
O O7 0.885347 0.720101 0.853964
O O8 0.653746 0.539288 0.300037
O O9 0.600204 0.385007 0.410451
O O10 0.500000 0.500000 0.000000
O O11 0.500000 0.500000 0.500000
O O12 0.126938 0.280681 0.706362
O O13 0.147870 0.784107 0.387912
O O14 0.254516 0.042382 0.901798
O O15 0.801404 0.313822 0.506184
O O16 0.000000 0.500000 0.000000
O O17 0.574692 0.175044 0.861016
O O18 0.500000 0.000000 0.000000
#
# Coordination Sequence:
#
# PCOD9073010 Si02
#       8
#     2   2   2   2   2   2   2   2
#     4  11  22  38  61  94 123 153 200 253 301 354
#     4  10  21  41  64  87 124 163 202 241 300 371
#     4  10  25  45  60  86 123 160 208 257 302 348
#     4  10  23  41  62  85 116 157 208 252 296 357
#     4  10  20  40  62  87 122 162 196 242 300 369
#     4  11  20  37  62  89 126 158 198 236 296 374
#     4  11  20  39  63  91 125 160 196 239 302 377
#     4  11  23  40  62  91 127 156 196 257 305 350
#
# _framework density 19.436315
#
# number of rings (size 3 to 8) (size 9 to 14) (size 15 to 20)
#    0.000    1.500    5.000    0.000    1.750    6.500 
#    2.250    5.000    0.000    0.000    0.000    0.000 
#    0.000    0.000    0.000    0.000    0.000    0.000 
#
# Total GULP energy -89280.421180 kJ/mol
# GULP energy per Si atom -5580.026324 kJ/mol
# Density = 1.939208 g / cm^3
# Si number density = 19.436315 Si / 1000 Ang^3
#
#
#
# Elastic Constant Matrix: (Units=GPa)
#
#
# Indices 1 2 3 4 5 6 
#
# 1 82.2728 3.1407 -6.4161 -10.4649 -8.6946 7.9025
# 2 3.1407 66.9322 -2.0000 -18.6685 0.7429 16.7186
# 3 -6.4161 -2.0000 46.8308 -11.1924 -29.4096 1.4496
# 4 -10.4649 -18.6685 -11.1924 28.3157 9.8339 -0.3256
# 5 -8.6946 0.7429 -29.4096 9.8339 20.1795 -11.0018
# 6 7.9025 16.7186 1.4496 -0.3256 -11.0018 35.1384
#
#
#
# Elastic Compliance Matrix: (Units=1/GPa)
#
#
# Indices 1 2 3 4 5 6 
#
# 1 0.010443 0.007084 -0.015175 0.013790 -0.032925 -0.015274
# 2 0.007084 0.018707 0.028233 0.013224 0.037111 0.000083
# 3 -0.015175 0.028233 -0.081967 0.043348 -0.182758 -0.063458
# 4 0.013790 0.013224 0.043348 0.050274 0.046169 0.003740
# 5 -0.032925 0.037111 -0.182758 0.046169 -0.308807 -0.098972
# 6 -0.015274 0.000083 -0.063458 0.003740 -0.098972 0.003519
#
#
# Mechanical properties :
#
#
# Convention : Reuss Voigt Hill
#
# Bulk Modulus (GPa) = -79.78293 20.60943 -29.58675
# Shear Modulus (GPa) = -14.19275 30.14746 7.97735
#
# Velocity S-wave (km/s) = -2.70519 3.94266 2.02812
# Velocity P-wave (km/s) = 7.13406 5.59935 3.12588
#
# Compressibility (1/GPa) = -0.01253401
#
# Stress axis : x y z
#
# Youngs Moduli (GPa) = 95.76193 53.45504 -12.20006
#
# Poissons Ratio (x) = -0.37865 -0.18513
# Poissons Ratio (y) = -0.67833 0.34444
# Poissons Ratio (z) = 1.45316 -1.50918
#
# Static dielectric constant tensor:
#      x y z
#    x 1.649030 0.036970 -0.018680 
#    y 0.036970 1.690950 0.012560 
#    z -0.018680 0.012560 1.765470 
# 
# From -- ./inp_files/170862.got.cif
#   From: 2010.05.17/outbox.ucp.g08.bks.cvg/sg2_86_cif.got.tgz:170862.got - 2010.06.11 11:32:03.
