data_PCOD9073516
_publ_section_title
;
Structure prediction by ZEFSAII (Michael W. Deem and Ramdas Pophale) SiO2 
 PCOD9073516
Probable space group: P -1
;
_chemical_formula_sum "Si O2"
_cell_formula_units_Z 12
_cell_length_a 12.415499
_cell_length_b 19.065271
_cell_length_c 14.593997
_cell_angle_alpha 151.858989
_cell_angle_beta 20.387556
_cell_angle_gamma 149.235629
_cell_volume 556.216247
_symmetry_space_group_name_H-M "P -1"
_symmetry_group_IT_number 2
_symmetry_cell_setting 'triclinic'
loop_
_space_group_symop_operation_xyz
x,y,z
-x,-y,-z
loop_
_atom_site_type_symbol
_atom_site_label
_atom_site_fract_x
_atom_site_fract_y
_atom_site_fract_z
Si Si1 0.200538 0.229300 0.110725
Si Si2 0.052104 0.338269 0.807870
Si Si3 0.855197 0.990924 0.237222
Si Si4 0.143495 0.518384 0.304749
Si Si5 0.117813 0.746154 0.344835
Si Si6 0.788422 0.420483 0.295949
O O1 0.137984 0.079615 0.050622
O O2 0.936073 0.315474 0.458044
O O3 0.559612 0.304494 0.935083
O O4 0.148776 0.182602 0.991251
O O5 0.424882 0.350972 0.522546
O O6 0.887059 0.232121 0.735588
O O7 0.000000 0.500000 0.000000
O O8 0.919135 0.327599 0.004082
O O9 0.904230 0.092869 0.406579
O O10 0.500000 0.000000 0.500000
O O11 0.000000 0.500000 0.500000
O O12 0.966006 0.420506 0.250716
O O13 0.500000 0.500000 0.000000
O O14 0.848365 0.599135 0.419812
#
# Coordination Sequence:
#
# PCOD9073516 Si02
#       6
#     2   2   2   2   2   2
#     4  10  20  35  52  83 116 140 185 229 270 334
#     4  10  20  30  52  79 113 148 173 213 281 339
#     4   9  19  32  55  78 115 143 174 228 287 324
#     4  12  24  37  58  78 109 155 189 224 271 315
#     4  10  18  31  55  81 115 148 171 218 292 340
#     4  11  21  35  49  79 116 143 183 226 259 333
#
# _framework density 21.574342999999999
#
# number of rings (size 3 to 8) (size 9 to 14) (size 15 to 20)
#    0.000    1.667    1.667    6.000    4.667    0.000 
#    0.000    0.000    0.000    0.000    0.000    7.000 
#    0.000    0.000    0.000    0.000    0.000    0.000 
#
# Total GULP energy -66816.262103 kJ/mol
# GULP energy per Si atom -5568.021842 kJ/mol
# Density = 2.152524 g / cm^3
# Si number density = 21.574343 Si / 1000 Ang^3
#
#
#
# Elastic Constant Matrix: (Units=GPa)
#
#
# Indices 1 2 3 4 5 6 
#
# 1 165.8408 26.9454 64.2268 5.9324 39.7759 46.4956
# 2 26.9454 39.1817 27.3561 -1.4611 11.8589 25.0004
# 3 64.2268 27.3561 159.6568 -10.5259 26.6277 29.7241
# 4 5.9324 -1.4611 -10.5259 25.8595 7.1727 16.9813
# 5 39.7759 11.8589 26.6277 7.1727 44.6783 10.8907
# 6 46.4956 25.0004 29.7241 16.9813 10.8907 42.4338
#
#
#
# Elastic Compliance Matrix: (Units=1/GPa)
#
#
# Indices 1 2 3 4 5 6 
#
# 1 0.013469 0.011210 0.000732 0.018325 -0.011974 -0.026136
# 2 0.011210 0.072735 0.005330 0.060924 -0.023415 -0.077241
# 3 0.000732 0.005330 0.010345 0.016894 -0.007007 -0.016151
# 4 0.018325 0.060924 0.016894 0.126503 -0.036263 -0.109125
# 5 -0.011974 -0.023415 -0.007007 -0.036263 0.040494 0.035943
# 6 -0.026136 -0.077241 -0.016151 -0.109125 0.035943 0.143470
#
#
# Mechanical properties :
#
#
# Convention : Reuss Voigt Hill
#
# Bulk Modulus (GPa) = 7.62819 66.85954 37.24387
# Shear Modulus (GPa) = 12.01436 39.00437 25.50936
#
# Velocity S-wave (km/s) = 2.36239 4.25656 3.44233
# Velocity P-wave (km/s) = 3.31431 7.43070 5.75326
#
# Compressibility (1/GPa) = 0.13109273
#
# Stress axis : x y z
#
# Youngs Moduli (GPa) = 74.24539 13.74858 96.66470
#
# Poissons Ratio (x) = -0.15412 -0.07076
# Poissons Ratio (y) = -0.83230 -0.51521
# Poissons Ratio (z) = -0.05435 -0.07328
#
# Static dielectric constant tensor:
#      x y z
#    x 1.996180 -0.017260 0.019690 
#    y -0.017260 1.820940 -0.014500 
#    z 0.019690 -0.014500 1.786420 
# 
# From -- ./inp_files/62612.got.cif
#   From: 2010.05.17/outbox.cif.g08.bks.cpg/sg2_32_cif.got.tgz:62612.got - 2010.06.03 11:33:40.
