data_PCOD9073798
_publ_section_title
;
Structure prediction by ZEFSAII (Michael W. Deem and Ramdas Pophale) SiO2 
 PCOD9073798
Probable space group: P -1
;
_chemical_formula_sum "Si O2"
_cell_formula_units_Z 15
_cell_length_a 12.000000
_cell_length_b 9.000000
_cell_length_c 9.000000
_cell_angle_alpha 130.000000
_cell_angle_beta 60.000000
_cell_angle_gamma 120.000000
_cell_volume 621.029576
_symmetry_space_group_name_H-M "P -1"
_symmetry_group_IT_number 2
_symmetry_cell_setting 'triclinic'
loop_
_space_group_symop_operation_xyz
x,y,z
-x,-y,-z
loop_
_atom_site_type_symbol
_atom_site_label
_atom_site_fract_x
_atom_site_fract_y
_atom_site_fract_z
Si Si1 0.711969 0.296245 0.862273
Si Si2 0.500000 0.000000 0.000000
Si Si3 0.961924 0.186009 0.726072
Si Si4 0.825236 0.035981 0.266634
Si Si5 0.376681 0.380261 0.342149
Si Si6 0.124183 0.131282 0.181588
Si Si7 0.746851 0.664837 0.285378
Si Si8 0.603173 0.220100 0.560924
O O1 0.628733 0.095701 0.871657
O O2 0.863680 0.278814 0.756725
O O3 0.650277 0.295898 0.741767
O O4 0.707011 0.495961 0.079575
O O5 0.544871 0.785648 0.849309
O O6 0.103191 0.336720 0.766817
O O7 0.892225 0.080321 0.855825
O O8 0.000000 0.000000 0.500000
O O9 0.733159 0.176529 0.371742
O O10 0.974959 0.155441 0.287417
O O11 0.761399 0.885484 0.347012
O O12 0.833211 0.895645 0.031536
O O13 0.234185 0.300223 0.300937
O O14 0.343197 0.382008 0.539167
O O15 0.440297 0.606396 0.385521
O O16 0.500000 0.000000 0.500000
#
# Coordination Sequence:
#
# PCOD9073798 Si02
#       8
#     2   1   2   2   2   2   2   2
#     4  12  27  47  73 110 149 205 251 315 377 453
#     4  12  28  48  80 102 150 200 258 304 380 448
#     4  11  20  44  75 112 153 193 252 313 381 448
#     4  10  24  46  74 107 153 194 251 304 384 447
#     4  12  27  48  77 110 150 199 255 317 377 456
#     4  10  21  44  76 108 148 196 244 320 369 448
#     4  11  25  46  78 112 149 196 253 315 388 448
#     4  12  31  49  74 109 153 204 255 313 382 451
#
# _framework density 24.153438999999999
#
# number of rings (size 3 to 8) (size 9 to 14) (size 15 to 20)
#    0.000    0.800    2.667    3.600    7.467    1.600 
#    2.400    0.000    0.000    0.000    0.000    0.000 
#    0.000    0.000    0.000    0.000    0.000    0.000 
#
# Total GULP energy -83784.284951 kJ/mol
# GULP energy per Si atom -5585.618997 kJ/mol
# Density = 2.409846 g / cm^3
# Si number density = 24.153439 Si / 1000 Ang^3
#
#
#
# Elastic Constant Matrix: (Units=GPa)
#
#
# Indices 1 2 3 4 5 6 
#
# 1 110.8144 55.5840 52.6109 -4.6844 -7.8511 -16.6170
# 2 55.5840 122.0395 38.0475 9.8296 -8.9756 -4.9407
# 3 52.6109 38.0475 77.1476 0.9299 -17.2386 2.2780
# 4 -4.6844 9.8296 0.9299 30.9827 -9.5827 -5.0528
# 5 -7.8511 -8.9756 -17.2386 -9.5827 32.8071 13.8098
# 6 -16.6170 -4.9407 2.2780 -5.0528 13.8098 28.4257
#
#
#
# Elastic Compliance Matrix: (Units=1/GPa)
#
#
# Indices 1 2 3 4 5 6 
#
# 1 0.020817 -0.005410 -0.014430 0.005097 -0.010291 0.018291
# 2 -0.005410 0.011537 -0.001788 -0.004624 0.000433 -0.002046
# 3 -0.014430 -0.001788 0.028754 0.000325 0.019973 -0.020696
# 4 0.005097 -0.004624 0.000325 0.038130 0.009434 0.004344
# 5 -0.010291 0.000433 0.019973 0.009434 0.055130 -0.032648
# 6 0.018291 -0.002046 -0.020696 0.004344 -0.032648 0.063808
#
#
# Mechanical properties :
#
#
# Convention : Reuss Voigt Hill
#
# Bulk Modulus (GPa) = 56.00744 66.94294 61.47519
# Shear Modulus (GPa) = 18.69981 29.36038 24.03010
#
# Velocity S-wave (km/s) = 2.78548 3.49030 3.15762
# Velocity P-wave (km/s) = 5.79515 6.63466 6.22906
#
# Compressibility (1/GPa) = 0.01785477
#
# Stress axis : x y z
#
# Youngs Moduli (GPa) = 48.03670 86.67958 34.77746
#
# Poissons Ratio (x) = 0.46892 0.50182
# Poissons Ratio (y) = 0.25987 0.06217
# Poissons Ratio (z) = 0.69315 0.15494
#
# Static dielectric constant tensor:
#      x y z
#    x 1.955780 0.044540 0.012870 
#    y 0.044540 1.924290 -0.037410 
#    z 0.012870 -0.037410 1.917330 
# 
# From -- ./inp_files/245816.got.cif
#   From: 2010.05.17/outbox.ucp.g08.bks.cvg/sg2_123_cif.got.tgz:245816.got - 2010.06.11 11:32:03.
