data_PCOD9073702
_publ_section_title
;
Structure prediction by ZEFSAII (Michael W. Deem and Ramdas Pophale) SiO2 
 PCOD9073702
Probable space group: P -1
;
_chemical_formula_sum "Si O2"
_cell_formula_units_Z 16
_cell_length_a 12.000000
_cell_length_b 18.000000
_cell_length_c 21.000000
_cell_angle_alpha 20.000000
_cell_angle_beta 150.000000
_cell_angle_gamma 150.000000
_cell_volume 738.640068
_symmetry_space_group_name_H-M "P -1"
_symmetry_group_IT_number 2
_symmetry_cell_setting 'triclinic'
loop_
_space_group_symop_operation_xyz
x,y,z
-x,-y,-z
loop_
_atom_site_type_symbol
_atom_site_label
_atom_site_fract_x
_atom_site_fract_y
_atom_site_fract_z
Si Si1 0.970115 0.599159 0.790632
Si Si2 0.323547 0.940976 0.589465
Si Si3 0.677357 0.440476 0.187577
Si Si4 0.242078 0.375257 0.206768
Si Si5 0.233270 0.569275 0.374092
Si Si6 0.757193 0.161598 0.714873
Si Si7 0.292844 0.321762 0.854814
Si Si8 0.539508 0.242803 0.789890
O O1 0.838775 0.696924 0.702081
O O2 0.763637 0.424382 0.788792
O O3 0.155860 0.765424 0.699629
O O4 0.103891 0.483467 0.000609
O O5 0.366906 0.817079 0.647534
O O6 0.212567 0.130444 0.360051
O O7 0.568187 0.081896 0.630117
O O8 0.640632 0.516165 0.179765
O O9 0.963244 0.540850 0.243914
O O10 0.500000 0.500000 0.000000
O O11 0.500976 0.559429 0.187502
O O12 0.281528 0.665446 0.391484
O O13 0.318836 0.344001 0.597857
O O14 0.388360 0.748089 0.255949
O O15 0.027644 0.275028 0.736369
O O16 0.720887 0.927255 0.925218
O O17 0.500000 0.000000 0.000000
#
# Coordination Sequence:
#
# PCOD9073702 Si02
#       8
#     2   2   2   2   2   2   2   2
#     4  11  24  44  63 101 136 170 223 279 332 400
#     4  12  23  42  71  98 131 178 219 275 345 387
#     4  11  21  42  69  95 134 172 220 278 332 393
#     4  11  25  40  68  98 134 173 222 279 328 404
#     4  10  24  43  66  96 136 173 219 273 330 402
#     4  10  21  42  70  92 132 178 218 278 331 394
#     4  10  22  42  63  97 132 176 225 269 335 393
#     4  11  25  42  67  98 133 178 222 269 336 402
#
# _framework density 21.661429999999999
#
# number of rings (size 3 to 8) (size 9 to 14) (size 15 to 20)
#    0.000    1.250    3.750    1.125    3.500    1.000 
#    0.000    2.500    0.000    0.000    0.000    0.000 
#    0.000    0.000    0.000    0.000    0.000    0.000 
#
# Total GULP energy -89198.983065 kJ/mol
# GULP energy per Si atom -5574.936442 kJ/mol
# Density = 2.161213 g / cm^3
# Si number density = 21.661430 Si / 1000 Ang^3
#
#
#
# Elastic Constant Matrix: (Units=GPa)
#
#
# Indices 1 2 3 4 5 6 
#
# 1 4.4120 -4.1963 0.8069 26.0210 14.6193 -11.5088
# 2 -4.1963 103.9853 3.8558 21.9432 10.7707 -9.1540
# 3 0.8069 3.8558 65.1554 -6.2803 -7.4042 15.1292
# 4 26.0210 21.9432 -6.2803 10.3574 -6.2974 15.6276
# 5 14.6193 10.7707 -7.4042 -6.2974 25.5624 -0.3876
# 6 -11.5088 -9.1540 15.1292 15.6276 -0.3876 16.9691
#
#
#
# Elastic Compliance Matrix: (Units=1/GPa)
#
#
# Indices 1 2 3 4 5 6 
#
# 1 0.013271 -0.006945 0.008151 0.022926 0.002996 -0.023058
# 2 -0.006945 0.008802 0.000139 0.001555 0.000664 -0.001503
# 3 0.008151 0.000139 0.016012 -0.003630 -0.001058 -0.005354
# 4 0.022926 0.001555 -0.003630 0.008576 -0.012532 0.011439
# 5 0.002996 0.000664 -0.001058 -0.012532 0.033971 0.015650
# 6 -0.023058 -0.001503 -0.005354 0.011439 0.015650 0.037077
#
#
# Mechanical properties :
#
#
# Convention : Reuss Voigt Hill
#
# Bulk Modulus (GPa) = 24.52390 19.38730 21.95560
# Shear Modulus (GPa) = 38.87719 22.11685 30.49702
#
# Velocity S-wave (km/s) = 4.24106 3.19881 3.75626
# Velocity P-wave (km/s) = 5.94375 4.75529 5.38242
#
# Compressibility (1/GPa) = 0.04077654
#
# Stress axis : x y z
#
# Youngs Moduli (GPa) = 75.35085 113.60897 62.45392
#
# Poissons Ratio (x) = 0.78898 -0.50906
# Poissons Ratio (y) = 0.52329 -0.00871
# Poissons Ratio (z) = -0.61419 -0.01584
#
# Static dielectric constant tensor:
#      x y z
#    x 1.871410 0.029330 0.099540 
#    y 0.029330 1.773970 0.031220 
#    z 0.099540 0.031220 1.839120 
# 
# From -- ./inp_files/272968.got.cif
#   From: 2010.05.17/outbox.ucp.g08.bks.cvg/sg2_137_cif.got.tgz:272968.got - 2010.06.11 11:32:03.
