data_PCOD9073614
_publ_section_title
;
Structure prediction by ZEFSAII (Michael W. Deem and Ramdas Pophale) SiO2 
 PCOD9073614
Probable space group: P -1
;
_chemical_formula_sum "Si O2"
_cell_formula_units_Z 14
_cell_length_a 15.000000
_cell_length_b 15.000000
_cell_length_c 9.000000
_cell_angle_alpha 110.000000
_cell_angle_beta 50.000000
_cell_angle_gamma 150.000000
_cell_volume 642.379314
_symmetry_space_group_name_H-M "P -1"
_symmetry_group_IT_number 2
_symmetry_cell_setting 'triclinic'
loop_
_space_group_symop_operation_xyz
x,y,z
-x,-y,-z
loop_
_atom_site_type_symbol
_atom_site_label
_atom_site_fract_x
_atom_site_fract_y
_atom_site_fract_z
Si Si1 0.088582 0.894944 0.914149
Si Si2 0.316905 0.674205 0.438658
Si Si3 0.442971 0.753476 0.018013
Si Si4 0.944796 0.352211 0.118656
Si Si5 0.932408 0.261407 0.769222
Si Si6 0.457057 0.535861 0.922899
Si Si7 0.766755 0.689583 0.413562
O O1 0.108330 0.796056 0.864188
O O2 0.393835 0.150008 0.711287
O O3 0.832950 0.710295 0.972291
O O4 0.993852 0.878666 0.158223
O O5 0.339366 0.718366 0.266373
O O6 0.246632 0.714551 0.634013
O O7 0.073379 0.421589 0.576351
O O8 0.235302 0.592807 0.011894
O O9 0.470694 0.661382 0.985086
O O10 0.690167 0.007594 0.859493
O O11 0.891963 0.308077 0.972503
O O12 0.166078 0.367337 0.643514
O O13 0.698648 0.693196 0.639101
O O14 0.500000 0.500000 0.000000
O O15 0.500000 0.500000 0.500000
#
# Coordination Sequence:
#
# PCOD9073614 Si02
#       7
#     2   2   2   2   2   2   2
#     4   9  20  40  67  92 124 172 211 258 322 381
#     4  12  22  43  67  94 133 169 212 267 318 385
#     4  11  24  43  66  96 130 167 217 267 316 384
#     4  10  22  44  68  92 131 174 210 262 327 374
#     4  11  24  43  63  98 130 165 222 261 316 389
#     4  10  21  41  66  97 126 165 220 263 319 376
#     4   9  18  40  64  83 123 169 206 256 316 372
#
# _framework density 21.793977000000002
#
# number of rings (size 3 to 8) (size 9 to 14) (size 15 to 20)
#    0.000    1.714    2.857    3.000    0.000    1.143 
#   10.286    2.143    0.000    0.000    0.000    0.000 
#    0.000    0.000    0.000    0.000    0.000    0.000 
#
# Total GULP energy -77962.335874 kJ/mol
# GULP energy per Si atom -5568.738277 kJ/mol
# Density = 2.174437 g / cm^3
# Si number density = 21.793977 Si / 1000 Ang^3
#
#
#
# Elastic Constant Matrix: (Units=GPa)
#
#
# Indices 1 2 3 4 5 6 
#
# 1 70.9170 18.3722 26.7213 -12.3835 4.4993 3.2870
# 2 18.3722 133.5171 50.1217 -24.3967 11.2265 3.8748
# 3 26.7213 50.1217 123.7996 -4.8462 -5.7812 -9.7407
# 4 -12.3835 -24.3967 -4.8462 46.1294 -11.7375 -0.9323
# 5 4.4993 11.2265 -5.7812 -11.7375 29.3425 -2.1938
# 6 3.2870 3.8748 -9.7407 -0.9323 -2.1938 24.9683
#
#
#
# Elastic Compliance Matrix: (Units=1/GPa)
#
#
# Indices 1 2 3 4 5 6 
#
# 1 0.016440 0.000108 -0.003858 0.003421 -0.002235 -0.003755
# 2 0.000108 0.010285 -0.004467 0.004044 -0.003476 -0.003508
# 3 -0.003858 -0.004467 0.011373 -0.000904 0.004629 0.006011
# 4 0.003421 0.004044 -0.000904 0.026809 0.008498 0.000317
# 5 -0.002235 -0.003476 0.004629 0.008498 0.040552 0.006520
# 6 -0.003755 -0.003508 0.006011 0.000317 0.006520 0.044019
#
#
# Mechanical properties :
#
#
# Convention : Reuss Voigt Hill
#
# Bulk Modulus (GPa) = 46.16231 57.62932 51.89582
# Shear Modulus (GPa) = 28.87969 35.62263 32.25116
#
# Velocity S-wave (km/s) = 3.64417 4.04730 3.85102
# Velocity P-wave (km/s) = 6.23970 6.95277 6.60587
#
# Compressibility (1/GPa) = 0.02166269
#
# Stress axis : x y z
#
# Youngs Moduli (GPa) = 60.82794 97.23133 87.93041
#
# Poissons Ratio (x) = -0.01050 0.33924
# Poissons Ratio (y) = -0.00657 0.39281
# Poissons Ratio (z) = 0.23468 0.43436
#
# Static dielectric constant tensor:
#      x y z
#    x 1.865100 -0.013100 -0.008500 
#    y -0.013100 1.830970 0.022270 
#    z -0.008500 0.022270 1.892430 
# 
# From -- ./inp_files/315531.got.cif
#   From: 2010.05.17/outbox.ucp.g08.bks.cvg/sg2_158_cif.got.tgz:315531.got - 2010.06.11 11:32:03.
