data_PCOD9073518
_publ_section_title
;
Structure prediction by ZEFSAII (Michael W. Deem and Ramdas Pophale) SiO2 
 PCOD9073518
Probable space group: P -1
;
_chemical_formula_sum "Si O2"
_cell_formula_units_Z 14
_cell_length_a 10.698136
_cell_length_b 14.272940
_cell_length_c 11.839945
_cell_angle_alpha 43.098372
_cell_angle_beta 48.281703
_cell_angle_gamma 29.473517
_cell_volume 605.376198
_symmetry_space_group_name_H-M "P -1"
_symmetry_group_IT_number 2
_symmetry_cell_setting 'triclinic'
loop_
_space_group_symop_operation_xyz
x,y,z
-x,-y,-z
loop_
_atom_site_type_symbol
_atom_site_label
_atom_site_fract_x
_atom_site_fract_y
_atom_site_fract_z
Si Si1 0.823452 0.071314 0.727660
Si Si2 0.242171 0.012772 0.585961
Si Si3 0.194811 0.195267 0.117975
Si Si4 0.490136 0.355506 0.081877
Si Si5 0.071550 0.247934 0.907883
Si Si6 0.799209 0.746535 0.416297
Si Si7 0.610851 0.641558 0.101327
O O1 0.771970 0.989453 0.733598
O O2 0.557824 0.283428 0.753840
O O3 0.023748 0.070284 0.595927
O O4 0.948400 0.893502 0.905546
O O5 0.339802 0.853548 0.767928
O O6 0.502562 0.885263 0.475432
O O7 0.149279 0.203163 0.543011
O O8 0.235581 0.207866 0.948228
O O9 0.896849 0.405752 0.140579
O O10 0.354320 0.215541 0.063953
O O11 0.534656 0.329079 0.945096
O O12 0.191217 0.505764 0.144067
O O13 0.500000 0.500000 0.000000
O O14 0.159156 0.193347 0.775853
O O15 0.000000 0.500000 0.500000
#
# Coordination Sequence:
#
# PCOD9073518 Si02
#       7
#     2   2   2   2   2   2   2
#     4  10  20  34  57  84 109 137 183 232 270 328
#     4  11  23  35  53  83 113 145 187 214 286 330
#     4   8  19  35  51  86 108 136 187 225 270 328
#     4  11  19  33  56  89 115 137 180 229 273 334
#     4   9  19  34  55  78 109 140 179 231 266 317
#     4  11  23  37  52  76 115 153 181 227 269 331
#     4  10  18  31  55  81 116 142 167 230 283 315
#
# _framework density 23.126116
#
# number of rings (size 3 to 8) (size 9 to 14) (size 15 to 20)
#    0.857    1.143    2.857    1.286    2.000    2.286 
#    0.000    0.000    0.000    0.857    0.000    7.000 
#    0.000    0.000    0.000    0.000    0.000    0.000 
#
# Total GULP energy -78079.662908 kJ/mol
# GULP energy per Si atom -5577.118779 kJ/mol
# Density = 2.307348 g / cm^3
# Si number density = 23.126116 Si / 1000 Ang^3
#
#
#
# Elastic Constant Matrix: (Units=GPa)
#
#
# Indices 1 2 3 4 5 6 
#
# 1 85.6569 24.8159 14.9467 -1.7933 -28.0299 19.2247
# 2 24.8159 104.7243 10.9743 6.3642 -9.4574 24.5055
# 3 14.9467 10.9743 38.2172 6.7762 -10.6787 11.8547
# 4 -1.7933 6.3642 6.7762 26.9781 0.8620 -2.8477
# 5 -28.0299 -9.4574 -10.6787 0.8620 33.7814 -4.8398
# 6 19.2247 24.5055 11.8547 -2.8477 -4.8398 35.0493
#
#
#
# Elastic Compliance Matrix: (Units=1/GPa)
#
#
# Indices 1 2 3 4 5 6 
#
# 1 0.018166 -0.001465 -0.000985 0.000665 0.013374 -0.006706
# 2 -0.001465 0.012060 0.000670 -0.003997 0.001329 -0.007996
# 3 -0.000985 0.000670 0.034069 -0.010230 0.008816 -0.011065
# 4 0.000665 -0.003997 -0.010230 0.041666 -0.003607 0.008777
# 5 0.013374 0.001329 0.008816 -0.003607 0.043150 -0.005581
# 6 -0.006706 -0.007996 -0.011065 0.008777 -0.005581 0.041485
#
#
# Mechanical properties :
#
#
# Convention : Reuss Voigt Hill
#
# Bulk Modulus (GPa) = 16.46480 36.67469 26.56974
# Shear Modulus (GPa) = 23.32084 31.01918 27.17001
#
# Velocity S-wave (km/s) = 3.17901 3.66636 3.43135
# Velocity P-wave (km/s) = 4.53980 5.81514 5.21659
#
# Compressibility (1/GPa) = 0.06073563
#
# Stress axis : x y z
#
# Youngs Moduli (GPa) = 55.04706 82.91965 29.35261
#
# Poissons Ratio (x) = 0.12148 0.02891
# Poissons Ratio (y) = 0.08064 -0.01968
# Poissons Ratio (z) = 0.05422 -0.05559
#
# Static dielectric constant tensor:
#      x y z
#    x 1.978880 -0.017510 -0.024440 
#    y -0.017510 1.911630 0.006130 
#    z -0.024440 0.006130 1.888680 
# 
# From -- ./inp_files/521446.got.cif
#   From: 2010.05.17/outbox.cif.g08.bks.cpg/sg2_261_cif.got.tgz:521446.got - 2010.06.03 11:33:40.
