data_PCOD9073510
_publ_section_title
;
Structure prediction by ZEFSAII (Michael W. Deem and Ramdas Pophale) SiO2 
 PCOD9073510
Probable space group: P -1
;
_chemical_formula_sum "Si O2"
_cell_formula_units_Z 14
_cell_length_a 9.000000
_cell_length_b 15.000000
_cell_length_c 21.000000
_cell_angle_alpha 150.000000
_cell_angle_beta 30.000000
_cell_angle_gamma 130.000000
_cell_volume 640.267684
_symmetry_space_group_name_H-M "P -1"
_symmetry_group_IT_number 2
_symmetry_cell_setting 'triclinic'
loop_
_space_group_symop_operation_xyz
x,y,z
-x,-y,-z
loop_
_atom_site_type_symbol
_atom_site_label
_atom_site_fract_x
_atom_site_fract_y
_atom_site_fract_z
Si Si1 0.738799 0.130040 0.742584
Si Si2 0.127075 0.262874 0.490547
Si Si3 0.266264 0.052044 0.770110
Si Si4 0.963238 0.371535 0.993699
Si Si5 0.798361 0.013346 0.018245
Si Si6 0.817137 0.662970 0.342437
Si Si7 0.364322 0.343654 0.139106
O O1 0.488567 0.108906 0.771987
O O2 0.947946 0.229750 0.694348
O O3 0.944679 0.916239 0.566218
O O4 0.536341 0.264218 0.958280
O O5 0.437738 0.159040 0.265360
O O6 0.187076 0.360518 0.594217
O O7 0.864947 0.430630 0.649800
O O8 0.458501 0.816457 0.547973
O O9 0.239600 0.155597 0.776191
O O10 0.937167 0.089852 0.955052
O O11 0.936897 0.480050 0.137881
O O12 0.643554 0.335287 0.077844
O O13 0.000000 0.500000 0.000000
O O14 0.804281 0.800097 0.869676
O O15 0.000000 0.000000 0.000000
#
# Coordination Sequence:
#
# PCOD9073510 Si02
#       7
#     2   2   2   2   2   2   2
#     4  10  21  40  65 100 128 166 218 274 321 370
#     4  10  22  39  71  96 125 166 217 274 319 370
#     4  11  24  44  68  95 131 168 222 270 316 380
#     4  12  28  42  61  98 137 176 210 258 327 393
#     4  11  22  45  70  98 125 166 221 273 320 370
#     4  11  23  39  68  98 130 171 215 264 335 375
#     4  11  24  42  63  96 135 169 211 263 323 387
#
# _framework density 21.865853999999999
#
# number of rings (size 3 to 8) (size 9 to 14) (size 15 to 20)
#    0.000    1.143    5.714    2.571    4.000    6.286 
#    0.000    1.429    0.000    0.000    0.000    0.000 
#    0.000    0.000    0.000    0.000    0.000    0.000 
#
# Total GULP energy -78127.328505 kJ/mol
# GULP energy per Si atom -5580.523465 kJ/mol
# Density = 2.181609 g / cm^3
# Si number density = 21.865854 Si / 1000 Ang^3
#
#
#
# Elastic Constant Matrix: (Units=GPa)
#
#
# Indices 1 2 3 4 5 6 
#
# 1 18.0185 28.5351 -8.1424 22.9131 -48.3728 -0.1065
# 2 28.5351 104.5188 0.0946 -8.2932 -19.2459 4.4487
# 3 -8.1424 0.0946 34.4770 11.8655 -28.6202 0.8261
# 4 22.9131 -8.2932 11.8655 7.6456 7.1262 7.5548
# 5 -48.3728 -19.2459 -28.6202 7.1262 -6.9226 2.2426
# 6 -0.1065 4.4487 0.8261 7.5548 2.2426 36.5723
#
#
#
# Elastic Compliance Matrix: (Units=1/GPa)
#
#
# Indices 1 2 3 4 5 6 
#
# 1 0.013666 -0.009622 -0.013315 -0.012937 -0.025158 0.005726
# 2 -0.009622 0.019135 0.005159 0.031481 0.021770 -0.010310
# 3 -0.013315 0.005159 0.021997 0.014396 0.001210 -0.004211
# 4 -0.012937 0.031481 0.014396 0.145254 0.080218 -0.039116
# 5 -0.025158 0.021770 0.001210 0.080218 0.041313 -0.021853
# 6 0.005726 -0.010310 -0.004211 -0.039116 -0.021853 0.038129
#
#
# Mechanical properties :
#
#
# Convention : Reuss Voigt Hill
#
# Bulk Modulus (GPa) = 51.96532 21.99875 36.98203
# Shear Modulus (GPa) = 15.55392 16.56087 16.05739
#
# Velocity S-wave (km/s) = 2.66998 2.75505 2.71285
# Velocity P-wave (km/s) = 5.77253 4.49478 5.17326
#
# Compressibility (1/GPa) = 0.01924360
#
# Stress axis : x y z
#
# Youngs Moduli (GPa) = 73.17529 52.25988 45.46145
#
# Poissons Ratio (x) = 0.50282 0.60531
# Poissons Ratio (y) = 0.70406 -0.23456
# Poissons Ratio (z) = 0.97432 -0.26963
#
# Static dielectric constant tensor:
#      x y z
#    x 1.766820 0.031260 -0.030480 
#    y 0.031260 1.806470 0.010570 
#    z -0.030480 0.010570 1.983160 
# 
# From -- ./inp_files/319188.got.cif
#   From: 2010.05.17/outbox.ucp.g08.bks.cvg/sg2_160_cif.got.tgz:319188.got - 2010.06.11 11:32:03.
