data_PCOD9073018
_publ_section_title
;
Structure prediction by ZEFSAII (Michael W. Deem and Ramdas Pophale) SiO2 
 PCOD9073018
Probable space group: P -1
;
_chemical_formula_sum "Si O2"
_cell_formula_units_Z 16
_cell_length_a 6.000000
_cell_length_b 9.000000
_cell_length_c 15.000000
_cell_angle_alpha 80.000000
_cell_angle_beta 80.000000
_cell_angle_gamma 110.000000
_cell_volume 725.431091
_symmetry_space_group_name_H-M "P -1"
_symmetry_group_IT_number 2
_symmetry_cell_setting 'triclinic'
loop_
_space_group_symop_operation_xyz
x,y,z
-x,-y,-z
loop_
_atom_site_type_symbol
_atom_site_label
_atom_site_fract_x
_atom_site_fract_y
_atom_site_fract_z
Si Si1 0.158328 0.155631 0.533943
Si Si2 0.990101 0.169895 0.956700
Si Si3 0.254204 0.381354 0.354870
Si Si4 0.252161 0.443481 0.795617
Si Si5 0.114051 0.685512 0.334118
Si Si6 0.895320 0.077557 0.297656
Si Si7 0.293229 0.973256 0.177664
Si Si8 0.232594 0.739642 0.869696
O O1 0.329312 0.294995 0.442075
O O2 0.994045 0.240493 0.586184
O O3 0.000000 0.000000 0.500000
O O4 0.262734 0.072791 0.612023
O O5 0.224018 0.288319 0.873876
O O6 0.779540 0.121340 0.901001
O O7 0.943118 0.255128 0.038964
O O8 0.000000 0.000000 0.000000
O O9 0.475278 0.453735 0.263971
O O10 0.042169 0.233593 0.334145
O O11 0.183792 0.533297 0.371618
O O12 0.087874 0.384536 0.724193
O O13 0.173757 0.562285 0.851856
O O14 0.327960 0.840255 0.256410
O O15 0.772951 0.148471 0.225205
O O16 0.076633 0.011829 0.237828
O O17 0.495657 0.152192 0.126170
#
# Coordination Sequence:
#
# PCOD9073018 Si02
#       8
#     2   2   2   2   2   2   2   2
#     4   9  21  40  65  94 129 164 204 257 310 374
#     4  11  24  42  63  93 128 164 209 265 312 369
#     4  11  21  41  65  91 128 166 209 257 314 367
#     4  11  25  41  63  95 126 163 212 258 310 374
#     4  10  22  39  65  92 128 162 204 258 312 366
#     4  10  20  40  63  93 128 164 208 258 310 370
#     4  10  22  40  63  94 123 165 211 253 313 377
#     4  12  22  42  66  87 129 170 208 259 316 366
#
# _framework density 22.055851000000001
#
# number of rings (size 3 to 8) (size 9 to 14) (size 15 to 20)
#    0.000    1.500    3.750    1.125    1.750    0.500 
#    0.000    4.375    0.000    0.000    0.000    0.000 
#    0.000    0.000    0.000    0.000    0.000    0.000 
#
# Total GULP energy -89268.761474 kJ/mol
# GULP energy per Si atom -5579.297592 kJ/mol
# Density = 2.200565 g / cm^3
# Si number density = 22.055851 Si / 1000 Ang^3
#
#
#
# Elastic Constant Matrix: (Units=GPa)
#
#
# Indices 1 2 3 4 5 6 
#
# 1 -1.4871 16.8920 7.9265 -3.5275 2.7030 -7.1217
# 2 16.8920 125.2988 53.6164 -0.4127 -5.1318 -24.6029
# 3 7.9265 53.6164 122.1270 -13.7700 1.8209 -10.0972
# 4 -3.5275 -0.4127 -13.7700 57.9062 -7.4764 -1.1663
# 5 2.7030 -5.1318 1.8209 -7.4764 23.3952 -1.2324
# 6 -7.1217 -24.6029 -10.0972 -1.1663 -1.2324 28.0966
#
#
#
# Elastic Compliance Matrix: (Units=1/GPa)
#
#
# Indices 1 2 3 4 5 6 
#
# 1 -0.203403 0.022494 -0.000758 -0.009993 0.023640 -0.031511
# 2 0.022494 0.009300 -0.004456 0.000710 0.000663 0.012303
# 3 -0.000758 -0.004456 0.010440 0.002271 -0.000992 -0.000291
# 4 -0.009993 0.000710 0.002271 0.018098 0.006915 -0.000040
# 5 0.023640 0.000663 -0.000992 0.006915 0.042887 0.008384
# 6 -0.031511 0.012303 -0.000291 -0.000040 0.008384 0.038639
#
#
# Mechanical properties :
#
#
# Convention : Reuss Voigt Hill
#
# Bulk Modulus (GPa) = -6.70683 44.75649 19.02483
# Shear Modulus (GPa) = -29.70877 33.04653 1.66888
#
# Velocity S-wave (km/s) = -3.67410 3.87500 0.87081
# Velocity P-wave (km/s) = 4.58761 6.35274 3.10734
#
# Compressibility (1/GPa) = -0.14910166
#
# Stress axis : x y z
#
# Youngs Moduli (GPa) = -4.91636 107.52493 95.78311
#
# Poissons Ratio (x) = -2.41866 0.07261
# Poissons Ratio (y) = 0.11059 0.42677
# Poissons Ratio (z) = -0.00373 0.47908
#
# Static dielectric constant tensor:
#      x y z
#    x 1.858350 0.032430 0.044590 
#    y 0.032430 1.816790 -0.016450 
#    z 0.044590 -0.016450 1.870420 
# 
# From -- ./inp_files/37854.got.cif
#   From: 2010.05.17/outbox.ucp.g08.bks.cvg/sg2_19_cif.got.tgz:37854.got - 2010.06.11 11:32:03.
