data_PCOD9073464
_publ_section_title
;
Structure prediction by ZEFSAII (Michael W. Deem and Ramdas Pophale) SiO2 
 PCOD9073464
Probable space group: P -1
;
_chemical_formula_sum "Si O2"
_cell_formula_units_Z 14
_cell_length_a 15.000000
_cell_length_b 12.000000
_cell_length_c 6.000000
_cell_angle_alpha 70.000000
_cell_angle_beta 100.000000
_cell_angle_gamma 140.000000
_cell_volume 645.327792
_symmetry_space_group_name_H-M "P -1"
_symmetry_group_IT_number 2
_symmetry_cell_setting 'triclinic'
loop_
_space_group_symop_operation_xyz
x,y,z
-x,-y,-z
loop_
_atom_site_type_symbol
_atom_site_label
_atom_site_fract_x
_atom_site_fract_y
_atom_site_fract_z
Si Si1 0.283372 0.778200 0.691461
Si Si2 0.198830 0.521125 0.191452
Si Si3 0.461271 0.788293 0.446883
Si Si4 0.840986 0.773431 0.814751
Si Si5 0.135085 0.019200 0.926739
Si Si6 0.086324 0.777417 0.437550
Si Si7 0.688460 0.831281 0.483929
O O1 0.370629 0.759587 0.623444
O O2 0.174035 0.740768 0.508654
O O3 0.404941 0.990333 0.682287
O O4 0.197288 0.634630 0.954722
O O5 0.347115 0.669119 0.283533
O O6 0.196742 0.400570 0.122047
O O7 0.064789 0.383841 0.396162
O O8 0.538941 0.738577 0.547481
O O9 0.735200 0.746284 0.636940
O O10 0.012346 0.938448 0.758851
O O11 0.832630 0.835295 0.003344
O O12 0.278074 0.127619 0.791403
O O13 0.078957 0.847907 0.157826
O O14 0.190674 0.965755 0.494876
#
# Coordination Sequence:
#
# PCOD9073464 Si02
#       7
#     2   2   2   2   2   2   2
#     4  10  24  47  63  89 128 168 209 261 308 376
#     4  12  24  39  65  96 130 160 209 264 308 365
#     4  10  25  43  66  87 126 169 215 248 320 369
#     4  10  23  37  65  99 125 162 209 254 314 371
#     4  10  21  39  68  93 130 163 203 259 312 371
#     4  10  23  39  67  98 121 162 216 254 313 367
#     4  10  21  43  65  92 128 169 204 252 313 378
#
# _framework density 21.694400999999999
#
# number of rings (size 3 to 8) (size 9 to 14) (size 15 to 20)
#    0.000    1.714    1.429    1.286    6.000    8.000 
#    0.000    1.429    0.000    0.000    0.000    0.000 
#    0.000    0.000    0.000    0.000    0.000    0.000 
#
# Total GULP energy -78080.198336 kJ/mol
# GULP energy per Si atom -5577.157024 kJ/mol
# Density = 2.164502 g / cm^3
# Si number density = 21.694401 Si / 1000 Ang^3
#
#
#
# Elastic Constant Matrix: (Units=GPa)
#
#
# Indices 1 2 3 4 5 6 
#
# 1 148.9825 20.9724 35.5535 -1.7762 12.4143 25.8437
# 2 20.9724 75.2523 24.0326 5.1491 10.7509 4.6433
# 3 35.5535 24.0326 73.7506 -6.2884 14.6290 10.7476
# 4 -1.7762 5.1491 -6.2884 22.2497 5.1221 1.3746
# 5 12.4143 10.7509 14.6290 5.1221 24.4731 5.4453
# 6 25.8437 4.6433 10.7476 1.3746 5.4453 23.8289
#
#
#
# Elastic Compliance Matrix: (Units=1/GPa)
#
#
# Indices 1 2 3 4 5 6 
#
# 1 0.008987 -0.001135 -0.002487 0.001005 -0.000949 -0.008245
# 2 -0.001135 0.015702 -0.004525 -0.004394 -0.002951 0.001140
# 3 -0.002487 -0.004525 0.019338 0.008683 -0.009347 -0.003508
# 4 0.001005 -0.004394 0.008683 0.051907 -0.013743 -0.004004
# 5 -0.000949 -0.002951 -0.009347 -0.013743 0.052290 -0.005336
# 6 -0.008245 0.001140 -0.003508 -0.004004 -0.005336 0.053718
#
#
# Mechanical properties :
#
#
# Convention : Reuss Voigt Hill
#
# Bulk Modulus (GPa) = 36.05760 51.01140 43.53450
# Shear Modulus (GPa) = 21.97997 28.60546 25.29272
#
# Velocity S-wave (km/s) = 3.18648 3.63514 3.41818
# Velocity P-wave (km/s) = 5.49499 6.41745 5.97405
#
# Compressibility (1/GPa) = 0.02773340
#
# Stress axis : x y z
#
# Youngs Moduli (GPa) = 111.27517 63.68627 51.71083
#
# Poissons Ratio (x) = 0.07226 0.12861
# Poissons Ratio (y) = 0.12626 0.23400
# Poissons Ratio (z) = 0.27674 0.28819
#
# Static dielectric constant tensor:
#      x y z
#    x 1.793470 -0.034810 0.002800 
#    y -0.034810 1.781060 0.023300 
#    z 0.002800 0.023300 1.864840 
# 
# From -- ./inp_files/94661.got.cif
#   From: 2010.05.17/outbox.ucp.g08.bks.cvg/sg2_48_cif.got.tgz:94661.got - 2010.06.11 11:32:03.
