data_PCOD9073453
_publ_section_title
;
Structure prediction by ZEFSAII (Michael W. Deem and Ramdas Pophale) SiO2 
 PCOD9073453
Probable space group: P -1
;
_chemical_formula_sum "Si O2"
_cell_formula_units_Z 16
_cell_length_a 9.000000
_cell_length_b 12.000000
_cell_length_c 9.000000
_cell_angle_alpha 90.000000
_cell_angle_beta 80.000000
_cell_angle_gamma 50.000000
_cell_volume 725.212580
_symmetry_space_group_name_H-M "P -1"
_symmetry_group_IT_number 2
_symmetry_cell_setting 'triclinic'
loop_
_space_group_symop_operation_xyz
x,y,z
-x,-y,-z
loop_
_atom_site_type_symbol
_atom_site_label
_atom_site_fract_x
_atom_site_fract_y
_atom_site_fract_z
Si Si1 0.173191 0.345666 0.705394
Si Si2 0.293547 0.466079 0.173819
Si Si3 0.843041 0.832897 0.541719
Si Si4 0.418922 0.410832 0.494621
Si Si5 0.706106 0.306483 0.010188
Si Si6 0.178917 0.770052 0.681262
Si Si7 0.447628 0.032650 0.829314
Si Si8 0.897963 0.952813 0.231421
O O1 0.168219 0.276615 0.551042
O O2 0.284810 0.407705 0.637307
O O3 0.309827 0.206042 0.797447
O O4 0.939170 0.464141 0.804243
O O5 0.323124 0.448816 0.346811
O O6 0.506348 0.322973 0.059711
O O7 0.313738 0.579956 0.100286
O O8 0.880845 0.901778 0.397818
O O9 0.038350 0.756040 0.611509
O O10 0.646075 0.937462 0.684674
O O11 0.500000 0.500000 0.500000
O O12 0.641807 0.255332 0.441038
O O13 0.742015 0.322168 0.177901
O O14 0.915053 0.163513 0.907955
O O15 0.065621 0.934339 0.751481
O O16 0.303871 0.996515 0.812704
O O17 0.500000 0.000000 0.000000
#
# Coordination Sequence:
#
# PCOD9073453 Si02
#       8
#     2   2   2   2   2   2   2   2
#     4  11  22  44  71  98 135 183 231 282 345 402
#     4  10  21  41  68  94 134 187 227 278 337 402
#     4  11  22  38  67  98 136 177 225 279 340 411
#     4  11  24  42  69 102 132 177 236 286 336 409
#     4  10  21  39  66  97 140 179 227 278 342 405
#     4  11  23  39  65 101 136 176 228 283 345 407
#     4  11  23  40  64 101 144 182 224 281 347 415
#     4  11  21  41  65 100 136 183 227 284 345 401
#
# _framework density 22.062495999999999
#
# number of rings (size 3 to 8) (size 9 to 14) (size 15 to 20)
#    0.000    1.250    2.500    5.625    0.000    0.000 
#    2.250    0.000    2.750   10.500    0.000    0.000 
#    0.000    0.000    0.000    0.000    0.000    0.000 
#
# Total GULP energy -89098.144955 kJ/mol
# GULP energy per Si atom -5568.634060 kJ/mol
# Density = 2.201228 g / cm^3
# Si number density = 22.062496 Si / 1000 Ang^3
#
#
#
# Elastic Constant Matrix: (Units=GPa)
#
#
# Indices 1 2 3 4 5 6 
#
# 1 121.8832 44.2228 44.8376 0.2932 -29.4538 -25.9457
# 2 44.2228 53.8032 30.9755 -11.9215 -5.5915 -8.6898
# 3 44.8376 30.9755 130.4360 -8.6241 -28.9290 -18.7360
# 4 0.2932 -11.9215 -8.6241 37.2214 -12.5069 -10.1101
# 5 -29.4538 -5.5915 -28.9290 -12.5069 62.0110 6.9614
# 6 -25.9457 -8.6898 -18.7360 -10.1101 6.9614 51.1420
#
#
#
# Elastic Compliance Matrix: (Units=1/GPa)
#
#
# Indices 1 2 3 4 5 6 
#
# 1 0.014352 -0.010267 -0.000835 -0.000765 0.004851 0.004419
# 2 -0.010267 0.030909 -0.003606 0.008630 -0.002111 0.000716
# 3 -0.000835 -0.003606 0.010476 0.003599 0.004567 0.002891
# 4 -0.000765 0.008630 0.003599 0.035519 0.008328 0.008285
# 5 0.004851 -0.002111 0.004567 0.008328 0.021774 0.002458
# 6 0.004419 0.000716 0.002891 0.008285 0.002458 0.024280
#
#
# Mechanical properties :
#
#
# Convention : Reuss Voigt Hill
#
# Bulk Modulus (GPa) = 37.99198 60.68823 49.34010
# Shear Modulus (GPa) = 28.49014 42.48065 35.48540
#
# Velocity S-wave (km/s) = 3.59742 4.39278 4.01484
# Velocity P-wave (km/s) = 5.87476 7.30040 6.62603
#
# Compressibility (1/GPa) = 0.02632135
#
# Stress axis : x y z
#
# Youngs Moduli (GPa) = 69.67763 32.35262 95.45561
#
# Poissons Ratio (x) = 0.33216 0.07972
# Poissons Ratio (y) = 0.71538 0.34420
# Poissons Ratio (z) = 0.05819 0.11666
#
# Static dielectric constant tensor:
#      x y z
#    x 1.805070 -0.012740 0.030250 
#    y -0.012740 2.224800 0.158490 
#    z 0.030250 0.158490 1.858980 
# 
# From -- ./inp_files/187478.got.cif
#   From: 2010.05.17/outbox.ucp.g08.bks.cvg/sg2_94_cif.got.tgz:187478.got - 2010.06.11 11:32:03.
