data_PCOD9073970
_publ_section_title
;
Structure prediction by ZEFSAII (Michael W. Deem and Ramdas Pophale) SiO2 
 PCOD9073970
Probable space group: P -1
;
_chemical_formula_sum "Si O2"
_cell_formula_units_Z 16
_cell_length_a 12.000000
_cell_length_b 18.000000
_cell_length_c 21.000000
_cell_angle_alpha 20.000000
_cell_angle_beta 150.000000
_cell_angle_gamma 140.000000
_cell_volume 744.844803
_symmetry_space_group_name_H-M "P -1"
_symmetry_group_IT_number 2
_symmetry_cell_setting 'triclinic'
loop_
_space_group_symop_operation_xyz
x,y,z
-x,-y,-z
loop_
_atom_site_type_symbol
_atom_site_label
_atom_site_fract_x
_atom_site_fract_y
_atom_site_fract_z
Si Si1 0.557091 0.725064 0.914245
Si Si2 0.230038 0.611134 0.478662
Si Si3 0.242751 0.134512 0.895845
Si Si4 0.518791 0.861876 0.360607
Si Si5 0.488854 0.656724 0.701139
Si Si6 0.965213 0.001130 0.752646
Si Si7 0.870904 0.335589 0.322682
Si Si8 0.009827 0.508054 0.122636
O O1 0.358502 0.740749 0.750167
O O2 0.524233 0.954705 0.751318
O O3 0.544845 0.537961 0.111539
O O4 0.795006 0.594302 0.102867
O O5 0.282972 0.346072 0.706996
O O6 0.317421 0.737752 0.363930
O O7 0.381120 0.629998 0.600991
O O8 0.961255 0.735647 0.260215
O O9 0.120894 0.011936 0.882913
O O10 0.464179 0.995247 0.158590
O O11 0.759524 0.668535 0.648898
O O12 0.309880 0.891759 0.449629
O O13 0.769846 0.597097 0.891017
O O14 0.995164 0.166132 0.576197
O O15 0.036765 0.746304 0.968217
O O16 0.977441 0.360354 0.287160
#
# Coordination Sequence:
#
# PCOD9073970 Si02
#       8
#     2   2   2   2   2   2   2   2
#     4   9  19  39  63  93 126 160 210 256 309 370
#     4  10  22  40  66  92 120 165 212 263 306 360
#     4  10  23  44  64  91 123 167 220 258 300 369
#     4  12  25  39  63 100 130 163 202 262 323 374
#     4   9  19  40  65  92 125 161 211 263 302 371
#     4  10  22  41  67  89 121 170 221 256 297 373
#     4   9  21  39  63  90 124 168 206 254 307 370
#     4  11  25  39  61 100 132 164 200 257 328 376
#
# _framework density 21.480985
#
# number of rings (size 3 to 8) (size 9 to 14) (size 15 to 20)
#    0.000    2.000    1.250    1.500    7.000    5.000 
#    0.000    1.250    0.000    0.000    0.000    0.000 
#    0.000    0.000    0.000    0.000    0.000    0.000 
#
# Total GULP energy -89224.052127 kJ/mol
# GULP energy per Si atom -5576.503258 kJ/mol
# Density = 2.143209 g / cm^3
# Si number density = 21.480985 Si / 1000 Ang^3
#
#
#
# Elastic Constant Matrix: (Units=GPa)
#
#
# Indices 1 2 3 4 5 6 
#
# 1 10.4464 -3.3022 -6.6406 7.9290 -2.3927 5.4111
# 2 -3.3022 73.5107 34.7749 -4.3920 13.2430 -14.3557
# 3 -6.6406 34.7749 111.4532 4.8416 12.3755 -5.5759
# 4 7.9290 -4.3920 4.8416 20.6361 -1.2876 -17.5441
# 5 -2.3927 13.2430 12.3755 -1.2876 23.7789 3.7926
# 6 5.4111 -14.3557 -5.5759 -17.5441 3.7926 16.5519
#
#
#
# Elastic Compliance Matrix: (Units=1/GPa)
#
#
# Indices 1 2 3 4 5 6 
#
# 1 0.025329 0.020789 -0.002123 0.050062 -0.015691 0.065694
# 2 0.020789 0.012608 -0.002378 -0.015983 -0.002479 -0.013035
# 3 -0.002123 -0.002378 0.010376 0.003849 -0.005263 0.007413
# 4 0.050062 -0.015983 0.003849 -0.023496 0.019979 -0.058414
# 5 -0.015691 -0.002479 -0.005263 0.019979 0.043704 0.012370
# 6 0.065694 -0.013035 0.007413 -0.058414 0.012370 -0.034618
#
#
# Mechanical properties :
#
#
# Convention : Reuss Voigt Hill
#
# Bulk Modulus (GPa) = 12.36259 27.23047 19.79653
# Shear Modulus (GPa) = 176.73932 23.56526 100.15229
#
# Velocity S-wave (km/s) = 9.08051 3.31574 6.83556
# Velocity P-wave (km/s) = 10.75679 5.23095 8.45788
#
# Compressibility (1/GPa) = 0.08088922
#
# Stress axis : x y z
#
# Youngs Moduli (GPa) = 39.48096 79.31241 96.37732
#
# Poissons Ratio (x) = -1.64884 0.20463
# Poissons Ratio (y) = -0.82078 0.22917
# Poissons Ratio (z) = 0.08383 0.18859
#
# Static dielectric constant tensor:
#      x y z
#    x 1.865110 0.053940 0.017690 
#    y 0.053940 1.803000 -0.021100 
#    z 0.017690 -0.021100 1.745520 
# 
# From -- ./inp_files/428894.got.cif
#   From: 2010.05.17/outbox.ucp.g08.bks.cvg/sg2_215_cif.got.tgz:428894.got - 2010.06.11 11:32:03.
