data_PCOD9073771
_publ_section_title
;
Structure prediction by ZEFSAII (Michael W. Deem and Ramdas Pophale) SiO2 
 PCOD9073771
Probable space group: P -1
;
_chemical_formula_sum "Si O2"
_cell_formula_units_Z 14
_cell_length_a 9.344979
_cell_length_b 7.842132
_cell_length_c 12.140471
_cell_angle_alpha 99.344402
_cell_angle_beta 104.070092
_cell_angle_gamma 131.036433
_cell_volume 584.546322
_symmetry_space_group_name_H-M "P -1"
_symmetry_group_IT_number 2
_symmetry_cell_setting 'triclinic'
loop_
_space_group_symop_operation_xyz
x,y,z
-x,-y,-z
loop_
_atom_site_type_symbol
_atom_site_label
_atom_site_fract_x
_atom_site_fract_y
_atom_site_fract_z
Si Si1 0.803428 0.625860 0.866409
Si Si2 0.938815 0.918196 0.605407
Si Si3 0.252662 0.484332 0.752490
Si Si4 0.826972 0.199705 0.927806
Si Si5 0.371671 0.223302 0.304979
Si Si6 0.050626 0.687738 0.735599
Si Si7 0.488311 0.791772 0.049360
O O1 0.734772 0.725156 0.789180
O O2 0.618485 0.414718 0.894682
O O3 0.863091 0.533666 0.775290
O O4 0.028006 0.827937 0.995443
O O5 0.104503 0.194580 0.722838
O O6 0.977489 0.752976 0.630978
O O7 0.000000 0.000000 0.500000
O O8 0.706271 0.788377 0.589936
O O9 0.385888 0.572415 0.673283
O O10 0.119775 0.548902 0.717447
O O11 0.412108 0.645295 0.904003
O O12 0.631728 0.125680 0.946541
O O13 0.731501 0.046245 0.781139
O O14 0.000000 0.500000 0.000000
O O15 0.262796 0.966320 0.852337
#
# Coordination Sequence:
#
# PCOD9073771 Si02
#       7
#     2   2   2   2   2   2   2
#     4  10  21  34  57  91 136 175 200 243 312 388
#     4  11  28  49  65  90 126 169 230 281 312 364
#     4  12  24  41  70  97 132 174 207 257 329 386
#     4  10  18  31  56  91 130 166 193 242 308 390
#     4  11  23  40  62  92 125 168 219 263 316 380
#     4  11  23  41  67  96 131 169 210 261 325 388
#     4  11  21  37  62 102 139 161 202 253 318 406
#
# _framework density 23.950198
#
# number of rings (size 3 to 8) (size 9 to 14) (size 15 to 20)
#    0.000    1.143    2.857    4.286    2.000    5.714 
#    0.000    0.714    0.000    0.000    0.000    0.000 
#    0.000    0.000    0.000    0.000    0.000    0.000 
#
# Total GULP energy -78167.793766 kJ/mol
# GULP energy per Si atom -5583.413840 kJ/mol
# Density = 2.389569 g / cm^3
# Si number density = 23.950198 Si / 1000 Ang^3
#
#
#
# Elastic Constant Matrix: (Units=GPa)
#
#
# Indices 1 2 3 4 5 6 
#
# 1 119.9694 29.4191 18.0549 -12.5471 -20.1121 -4.5387
# 2 29.4191 91.9374 14.5101 -16.4188 -12.3194 9.4882
# 3 18.0549 14.5101 62.5397 -28.2205 -13.0735 2.0443
# 4 -12.5471 -16.4188 -28.2205 43.8269 6.8349 0.6542
# 5 -20.1121 -12.3194 -13.0735 6.8349 27.7175 -13.7300
# 6 -4.5387 9.4882 2.0443 0.6542 -13.7300 39.4822
#
#
#
# Elastic Compliance Matrix: (Units=1/GPa)
#
#
# Indices 1 2 3 4 5 6 
#
# 1 0.010754 -0.002636 -0.000764 0.000175 0.008665 0.004920
# 2 -0.002636 0.012914 -0.000126 0.003839 0.001336 -0.002999
# 3 -0.000764 -0.000126 0.024206 0.014064 0.007943 0.001218
# 4 0.000175 0.003839 0.014064 0.033568 -0.001080 -0.002563
# 5 0.008665 0.001336 0.007943 -0.001080 0.056916 0.020074
# 6 0.004920 -0.002999 0.001218 -0.002563 0.020074 0.033574
#
#
# Mechanical properties :
#
#
# Convention : Reuss Voigt Hill
#
# Bulk Modulus (GPa) = 24.49544 44.26828 34.38186
# Shear Modulus (GPa) = 25.96165 36.36950 31.16557
#
# Velocity S-wave (km/s) = 3.29596 3.90108 3.61122
# Velocity P-wave (km/s) = 4.97337 6.23016 5.63690
#
# Compressibility (1/GPa) = 0.04082393
#
# Stress axis : x y z
#
# Youngs Moduli (GPa) = 92.99010 77.43295 41.31144
#
# Poissons Ratio (x) = 0.20411 0.03154
# Poissons Ratio (y) = 0.24512 0.00520
# Poissons Ratio (z) = 0.07100 0.00974
#
# Static dielectric constant tensor:
#      x y z
#    x 1.988870 -0.004070 -0.006970 
#    y -0.004070 2.017060 -0.031870 
#    z -0.006970 -0.031870 1.963150 
# 
# From -- ./inp_files/382646.got.cif
#   From: 2010.05.17/outbox.cif.g08.bks.cpg/sg2_192_cif.got.tgz:382646.got - 2010.06.03 11:33:40.
