data_PCOD9073413
_publ_section_title
;
Structure prediction by ZEFSAII (Michael W. Deem and Ramdas Pophale) SiO2 
 PCOD9073413
Probable space group: P -1
;
_chemical_formula_sum "Si O2"
_cell_formula_units_Z 16
_cell_length_a 11.608376
_cell_length_b 9.110360
_cell_length_c 10.095289
_cell_angle_alpha 104.697862
_cell_angle_beta 81.624873
_cell_angle_gamma 144.783407
_cell_volume 591.883167
_symmetry_space_group_name_H-M "P -1"
_symmetry_group_IT_number 2
_symmetry_cell_setting 'triclinic'
loop_
_space_group_symop_operation_xyz
x,y,z
-x,-y,-z
loop_
_atom_site_type_symbol
_atom_site_label
_atom_site_fract_x
_atom_site_fract_y
_atom_site_fract_z
Si Si1 0.147706 0.209444 0.846740
Si Si2 0.414655 0.462660 0.367357
Si Si3 0.769113 0.291117 0.871100
Si Si4 0.600682 0.223990 0.632865
Si Si5 0.959956 0.646364 0.295927
Si Si6 0.980269 0.787398 0.606573
Si Si7 0.784889 0.185394 0.119736
Si Si8 0.696694 0.775555 0.939611
O O1 0.160512 0.354742 0.767085
O O2 0.302806 0.355560 0.976790
O O3 0.135280 0.032690 0.733631
O O4 0.926979 0.001921 0.899384
O O5 0.500000 0.500000 0.500000
O O6 0.491343 0.710466 0.367859
O O7 0.818031 0.750089 0.607597
O O8 0.423867 0.373172 0.212168
O O9 0.602576 0.177823 0.775002
O O10 0.719640 0.220717 0.015137
O O11 0.847725 0.212018 0.784840
O O12 0.978027 0.605316 0.901018
O O13 0.838996 0.505320 0.627509
O O14 0.500000 0.000000 0.500000
O O15 0.038718 0.791249 0.454659
O O16 0.819997 0.346285 0.267373
O O17 0.676246 0.912640 0.050364
#
# Coordination Sequence:
#
# PCOD9073413 Si02
#       8
#     2   2   2   2   2   2   2   2
#     4  10  18  31  54  85 112 140 173 225 282 326
#     4   9  22  37  56  77 104 147 189 230 266 317
#     4   9  18  31  53  87 108 135 187 213 279 319
#     4  10  22  36  56  77 105 145 196 227 256 322
#     4  10  19  32  56  84 123 142 164 226 291 339
#     4   9  21  35  54  85 112 144 180 223 290 321
#     4   9  18  30  55  85 112 140 174 223 282 325
#     4  10  18  31  55  80 111 135 188 226 264 322
#
# _framework density 27.032363
#
# number of rings (size 3 to 8) (size 9 to 14) (size 15 to 20)
#    1.500    1.000    1.250    1.125    5.250    0.500 
#    0.000    0.000    0.000    3.750    0.000    0.000 
#    0.000    0.000    0.000    0.000    0.000    0.000 
#
# Total GULP energy -89361.800670 kJ/mol
# GULP energy per Si atom -5585.112542 kJ/mol
# Density = 2.697084 g / cm^3
# Si number density = 27.032363 Si / 1000 Ang^3
#
#
#
# Elastic Constant Matrix: (Units=GPa)
#
#
# Indices 1 2 3 4 5 6 
#
# 1 60.9433 29.3024 70.0921 9.0751 6.2385 -10.1469
# 2 29.3024 91.6470 57.6798 35.2993 1.3149 -24.4382
# 3 70.0921 57.6798 228.3262 7.5464 12.2808 -39.9718
# 4 9.0751 35.2993 7.5464 43.5848 -10.2240 -3.9347
# 5 6.2385 1.3149 12.2808 -10.2240 64.9574 -3.6959
# 6 -10.1469 -24.4382 -39.9718 -3.9347 -3.6959 36.3531
#
#
#
# Elastic Compliance Matrix: (Units=1/GPa)
#
#
# Indices 1 2 3 4 5 6 
#
# 1 0.027208 -0.004215 -0.007896 -0.001628 -0.001533 -0.004253
# 2 -0.004215 0.022558 -0.002057 -0.016557 -0.001714 0.009760
# 3 -0.007896 -0.002057 0.008252 0.002385 -0.000058 0.005739
# 4 -0.001628 -0.016557 0.002385 0.037210 0.005649 -0.004360
# 5 -0.001533 -0.001714 -0.000058 0.005649 0.016514 0.000646
# 6 -0.004253 0.009760 0.005739 -0.004360 0.000646 0.038787
#
#
# Mechanical properties :
#
#
# Convention : Reuss Voigt Hill
#
# Bulk Modulus (GPa) = 33.68921 77.22946 55.45933
# Shear Modulus (GPa) = 26.48911 43.90188 35.19550
#
# Velocity S-wave (km/s) = 3.13374 4.03432 3.61221
# Velocity P-wave (km/s) = 5.05800 7.09452 6.16099
#
# Compressibility (1/GPa) = 0.02968310
#
# Stress axis : x y z
#
# Youngs Moduli (GPa) = 36.75452 44.33088 121.18026
#
# Poissons Ratio (x) = 0.18684 0.95681
# Poissons Ratio (y) = 0.15491 0.24922
# Poissons Ratio (z) = 0.29021 0.09117
#
# Static dielectric constant tensor:
#      x y z
#    x 2.160150 0.101760 0.014420 
#    y 0.101760 2.258090 -0.004950 
#    z 0.014420 -0.004950 2.049960 
# 
# From -- ./inp_files/444770.got.cif
#   From: 2010.05.17/outbox.cif.g08.bks.cpg/sg2_223_cif.got.tgz:444770.got - 2010.06.03 11:33:40.
