data_PCOD9073877
_publ_section_title
;
Structure prediction by ZEFSAII (Michael W. Deem and Ramdas Pophale) SiO2 
 PCOD9073877
Probable space group: P -1
;
_chemical_formula_sum "Si O2"
_cell_formula_units_Z 14
_cell_length_a 6.992090
_cell_length_b 12.427002
_cell_length_c 8.337876
_cell_angle_alpha 105.857531
_cell_angle_beta 103.066317
_cell_angle_gamma 120.682833
_cell_volume 537.676457
_symmetry_space_group_name_H-M "P -1"
_symmetry_group_IT_number 2
_symmetry_cell_setting 'triclinic'
loop_
_space_group_symop_operation_xyz
x,y,z
-x,-y,-z
loop_
_atom_site_type_symbol
_atom_site_label
_atom_site_fract_x
_atom_site_fract_y
_atom_site_fract_z
Si Si1 0.267210 0.633026 0.048958
Si Si2 0.129198 0.924098 0.963356
Si Si3 0.663701 0.672063 0.605972
Si Si4 0.250487 0.598059 0.685813
Si Si5 0.320122 0.056121 0.721499
Si Si6 0.099758 0.892818 0.299327
Si Si7 0.693412 0.626397 0.246602
O O1 0.432139 0.789888 0.215012
O O2 0.446541 0.589629 0.107422
O O3 0.242147 0.665569 0.872300
O O4 0.000000 0.500000 0.000000
O O5 0.903188 0.762470 0.800903
O O6 0.304069 0.993471 0.868692
O O7 0.224486 0.934110 0.165381
O O8 0.000000 0.000000 0.000000
O O9 0.500000 0.500000 0.500000
O O10 0.473476 0.698341 0.647662
O O11 0.740541 0.715172 0.454873
O O12 0.308897 0.499064 0.738884
O O13 0.000000 0.500000 0.500000
O O14 0.102116 0.075221 0.712388
O O15 0.257348 0.959053 0.517067
O O16 0.922772 0.723923 0.213124
#
# Coordination Sequence:
#
# PCOD9073877 Si02
#       7
#     2   2   2   2   2   2   2
#     4  11  23  40  62  97 133 174 220 275 338 401
#     4  10  18  31  58  96 131 169 224 268 333 409
#     4  10  20  35  59  97 132 168 214 279 334 395
#     4  11  23  40  60  96 130 172 224 274 341 402
#     4   9  18  34  57  92 129 165 218 269 328 399
#     4   9  17  32  59  94 123 167 221 266 326 397
#     4  10  20  38  66  92 131 174 218 278 335 399
#
# _framework density 26.037963999999999
#
# number of rings (size 3 to 8) (size 9 to 14) (size 15 to 20)
#    0.000    2.000    1.429    3.857    2.000    1.143 
#    2.571    0.000    0.000    1.714   11.143    0.000 
#    0.000    0.000    0.000    0.000    0.000    0.000 
#
# Total GULP energy -78223.806269 kJ/mol
# GULP energy per Si atom -5587.414733 kJ/mol
# Density = 2.597870 g / cm^3
# Si number density = 26.037964 Si / 1000 Ang^3
#
#
#
# Elastic Constant Matrix: (Units=GPa)
#
#
# Indices 1 2 3 4 5 6 
#
# 1 86.2752 35.6248 35.7527 -4.1500 14.5034 15.4293
# 2 35.6248 121.1419 63.0381 6.3106 -2.8884 30.2661
# 3 35.7527 63.0381 197.6365 -11.5027 0.3702 14.7628
# 4 -4.1500 6.3106 -11.5027 55.6230 9.8446 -3.2119
# 5 14.5034 -2.8884 0.3702 9.8446 34.5726 -11.8199
# 6 15.4293 30.2661 14.7628 -3.2119 -11.8199 51.6200
#
#
#
# Elastic Compliance Matrix: (Units=1/GPa)
#
#
# Indices 1 2 3 4 5 6 
#
# 1 0.015959 -0.003242 -0.001350 0.002656 -0.009222 -0.004430
# 2 -0.003242 0.012315 -0.003121 -0.002842 0.001453 -0.005203
# 3 -0.001350 -0.003121 0.006355 0.001605 -0.000047 0.000505
# 4 0.002656 -0.002842 0.001605 0.020085 -0.007073 0.000044
# 5 -0.009222 0.001453 -0.000047 -0.007073 0.038444 0.010281
# 6 -0.004430 -0.005203 0.000505 0.000044 0.010281 0.025959
#
#
# Mechanical properties :
#
#
# Convention : Reuss Voigt Hill
#
# Bulk Modulus (GPa) = 52.07557 74.87611 63.47584
# Shear Modulus (GPa) = 35.47465 46.40565 40.94015
#
# Velocity S-wave (km/s) = 3.69510 4.22623 3.96956
# Velocity P-wave (km/s) = 6.18452 7.25490 6.74099
#
# Compressibility (1/GPa) = 0.01920286
#
# Stress axis : x y z
#
# Youngs Moduli (GPa) = 62.65920 81.20272 157.34967
#
# Poissons Ratio (x) = 0.26327 0.21246
# Poissons Ratio (y) = 0.20315 0.49107
# Poissons Ratio (z) = 0.08460 0.25343
#
# Static dielectric constant tensor:
#      x y z
#    x 2.205210 -0.046580 -0.116260 
#    y -0.046580 2.058410 -0.013960 
#    z -0.116260 -0.013960 2.090830 
# 
# From -- ./inp_files/207916.got.cif
#   From: 2010.05.17/outbox.cif.g08.bks.cpg/sg2_104_cif.got.tgz:207916.got - 2010.06.03 11:33:40.
