data_PCOD9073725
_publ_section_title
;
Structure prediction by ZEFSAII (Michael W. Deem and Ramdas Pophale) SiO2 
 PCOD9073725
Probable space group: P -1
;
_chemical_formula_sum "Si O2"
_cell_formula_units_Z 15
_cell_length_a 12.000000
_cell_length_b 12.000000
_cell_length_c 6.000000
_cell_angle_alpha 100.000000
_cell_angle_beta 90.000000
_cell_angle_gamma 130.000000
_cell_volume 644.633405
_symmetry_space_group_name_H-M "P -1"
_symmetry_group_IT_number 2
_symmetry_cell_setting 'triclinic'
loop_
_space_group_symop_operation_xyz
x,y,z
-x,-y,-z
loop_
_atom_site_type_symbol
_atom_site_label
_atom_site_fract_x
_atom_site_fract_y
_atom_site_fract_z
Si Si1 0.498713 0.741456 0.615631
Si Si2 0.000000 0.500000 0.000000
Si Si3 0.131694 0.027161 0.875193
Si Si4 0.725726 0.236756 0.169747
Si Si5 0.932154 0.227561 0.474954
Si Si6 0.255622 0.937793 0.209599
Si Si7 0.634772 0.648412 0.923252
Si Si8 0.209872 0.470037 0.283261
O O1 0.400969 0.758770 0.777502
O O2 0.566823 0.679821 0.731060
O O3 0.372954 0.621813 0.401001
O O4 0.631801 0.911741 0.595211
O O5 0.876340 0.394759 0.151080
O O6 0.123566 0.498764 0.134782
O O7 0.076278 0.910817 0.636161
O O8 0.263499 0.200122 0.877361
O O9 0.199985 0.984514 0.036030
O O10 0.000000 0.000000 0.000000
O O11 0.792652 0.201382 0.354853
O O12 0.671405 0.119847 0.930156
O O13 0.891008 0.210746 0.727116
O O14 0.091759 0.374662 0.451117
O O15 0.749994 0.627967 0.841937
O O16 0.500000 0.500000 0.000000
#
# Coordination Sequence:
#
# PCOD9073725 Si02
#       8
#     2   1   2   2   2   2   2   2
#     4  11  25  43  65 101 138 174 224 278 332 408
#     4  10  24  42  70  96 132 176 218 284 332 382
#     4  10  21  43  64  95 132 171 228 270 324 398
#     4  10  23  43  66  96 135 171 227 274 330 399
#     4  10  23  42  68  98 127 177 222 280 323 396
#     4  10  24  42  67  96 135 175 220 275 342 388
#     4  11  24  43  68  95 139 181 216 277 340 398
#     4  11  24  44  68 101 135 172 233 272 333 406
#
# _framework density 23.269038999999999
#
# number of rings (size 3 to 8) (size 9 to 14) (size 15 to 20)
#    0.000    1.600    1.333    1.600    5.600    3.200 
#    2.400    0.000    0.000    0.000    0.000    0.000 
#    0.000    0.000    0.000    0.000    0.000    0.000 
#
# Total GULP energy -83553.357559 kJ/mol
# GULP energy per Si atom -5570.223837 kJ/mol
# Density = 2.321608 g / cm^3
# Si number density = 23.269039 Si / 1000 Ang^3
#
#
#
# Elastic Constant Matrix: (Units=GPa)
#
#
# Indices 1 2 3 4 5 6 
#
# 1 129.4203 3.3959 6.2795 1.3054 -5.2994 -13.6345
# 2 3.3959 42.8454 -0.2408 -16.7033 5.0003 4.7302
# 3 6.2795 -0.2408 29.0067 13.1816 -11.6570 -9.9402
# 4 1.3054 -16.7033 13.1816 33.2499 7.6316 -2.8025
# 5 -5.2994 5.0003 -11.6570 7.6316 26.7609 6.3080
# 6 -13.6345 4.7302 -9.9402 -2.8025 6.3080 38.2184
#
#
#
# Elastic Compliance Matrix: (Units=1/GPa)
#
#
# Indices 1 2 3 4 5 6 
#
# 1 0.008153 -0.002080 0.001168 -0.002142 0.002437 0.002910
# 2 -0.002080 0.046141 -0.036952 0.045750 -0.036605 -0.006667
# 3 0.001168 -0.036952 0.098420 -0.071836 0.067137 0.014240
# 4 -0.002142 0.045750 -0.071836 0.096166 -0.066000 -0.007166
# 5 0.002437 -0.036605 0.067137 -0.066000 0.092092 0.002822
# 6 0.002910 -0.006667 0.014240 -0.007166 0.002822 0.030741
#
#
# Mechanical properties :
#
#
# Convention : Reuss Voigt Hill
#
# Bulk Modulus (GPa) = 12.98968 24.46017 18.72493
# Shear Modulus (GPa) = 10.56851 32.43503 21.50177
#
# Velocity S-wave (km/s) = 2.13348 3.73757 3.04312
# Velocity P-wave (km/s) = 3.41518 5.40005 4.51797
#
# Compressibility (1/GPa) = 0.07698417
#
# Stress axis : x y z
#
# Youngs Moduli (GPa) = 122.65886 21.67274 10.16049
#
# Poissons Ratio (x) = 0.04509 -0.01187
# Poissons Ratio (y) = 0.25519 0.37546
# Poissons Ratio (z) = -0.14327 0.80086
#
# Static dielectric constant tensor:
#      x y z
#    x 1.785360 -0.041400 -0.044130 
#    y -0.041400 1.945900 0.078450 
#    z -0.044130 0.078450 1.969160 
# 
# From -- ./inp_files/71332.got.cif
#   From: 2010.05.17/outbox.ucp.g08.bks.cvg/sg2_36_cif.got.tgz:71332.got - 2010.06.11 11:32:03.
