data_PCOD9073155
_publ_section_title
;
Structure prediction by ZEFSAII (Michael W. Deem and Ramdas Pophale) SiO2 
 PCOD9073155
Probable space group: P -1
;
_chemical_formula_sum "Si O2"
_cell_formula_units_Z 14
_cell_length_a 14.976949
_cell_length_b 12.831763
_cell_length_c 12.187941
_cell_angle_alpha 46.430093
_cell_angle_beta 146.664765
_cell_angle_gamma 153.504680
_cell_volume 557.662182
_symmetry_space_group_name_H-M "P -1"
_symmetry_group_IT_number 2
_symmetry_cell_setting 'triclinic'
loop_
_space_group_symop_operation_xyz
x,y,z
-x,-y,-z
loop_
_atom_site_type_symbol
_atom_site_label
_atom_site_fract_x
_atom_site_fract_y
_atom_site_fract_z
Si Si1 0.065584 0.686015 0.007022
Si Si2 0.773044 0.790777 0.069778
Si Si3 0.279368 0.013586 0.294805
Si Si4 0.772433 0.880277 0.543749
Si Si5 0.752663 0.638717 0.548674
Si Si6 0.890766 0.502620 0.623660
Si Si7 0.657552 0.112231 0.349065
O O1 0.044276 0.596589 0.169512
O O2 0.371092 0.963931 0.118495
O O3 0.000000 0.500000 0.000000
O O4 0.872561 0.664455 0.769044
O O5 0.500000 0.500000 0.000000
O O6 0.750714 0.936490 0.892490
O O7 0.005519 0.876894 0.172627
O O8 0.917317 0.900867 0.255640
O O9 0.574800 0.287161 0.428140
O O10 0.319472 0.891548 0.492814
O O11 0.750903 0.807186 0.450386
O O12 0.559027 0.634431 0.575464
O O13 0.662609 0.958865 0.406627
O O14 0.922073 0.669381 0.610021
O O15 0.079868 0.631229 0.619226
#
# Coordination Sequence:
#
# PCOD9073155 Si02
#       7
#     2   2   2   2   2   2   2
#     4   9  17  33  49  76 105 141 174 217 251 314
#     4  10  18  31  54  76 106 136 180 217 262 307
#     4   9  17  31  49  79 101 131 173 227 255 294
#     4  10  19  34  52  80 107 145 163 214 274 313
#     4  10  19  34  53  74 119 137 168 209 269 329
#     4  10  18  32  56  78 105 139 176 218 259 314
#     4  10  18  31  53  78 105 135 184 209 262 307
#
# _framework density 25.104804999999999
#
# number of rings (size 3 to 8) (size 9 to 14) (size 15 to 20)
#    0.000    2.286    5.714    1.714    0.000    2.857 
#    0.000    0.000    0.000    3.429    0.000   13.000 
#    0.000    0.000    0.000    0.000    0.000    0.000 
#
# Total GULP energy -77949.611871 kJ/mol
# GULP energy per Si atom -5567.829419 kJ/mol
# Density = 2.504767 g / cm^3
# Si number density = 25.104805 Si / 1000 Ang^3
#
#
#
# Elastic Constant Matrix: (Units=GPa)
#
#
# Indices 1 2 3 4 5 6 
#
# 1 82.0321 43.2500 14.3529 10.1293 1.2682 6.1461
# 2 43.2500 111.8935 22.9515 36.7550 -0.9061 14.1449
# 3 14.3529 22.9515 113.9204 15.3136 5.6359 11.1380
# 4 10.1293 36.7550 15.3136 38.1165 2.1072 2.6244
# 5 1.2682 -0.9061 5.6359 2.1072 17.0844 -8.9589
# 6 6.1461 14.1449 11.1380 2.6244 -8.9589 44.8677
#
#
#
# Elastic Compliance Matrix: (Units=1/GPa)
#
#
# Indices 1 2 3 4 5 6 
#
# 1 0.015607 -0.006763 -0.000870 0.002840 -0.001740 -0.000303
# 2 -0.006763 0.016614 -0.000401 -0.013941 0.001624 -0.003072
# 3 -0.000870 -0.000401 0.009859 -0.002901 -0.004375 -0.002906
# 4 0.002840 -0.013941 -0.002901 0.040211 -0.004142 0.001547
# 5 -0.001740 0.001624 -0.004375 -0.004142 0.068419 0.014716
# 6 -0.000303 -0.003072 -0.002906 0.001547 0.014716 0.026867
#
#
# Mechanical properties :
#
#
# Convention : Reuss Voigt Hill
#
# Bulk Modulus (GPa) = 38.44362 52.10609 45.27485
# Shear Modulus (GPa) = 24.71380 35.16649 29.94015
#
# Velocity S-wave (km/s) = 3.14096 3.74677 3.45716
# Velocity P-wave (km/s) = 5.33860 6.28635 5.83176
#
# Compressibility (1/GPa) = 0.02601212
#
# Stress axis : x y z
#
# Youngs Moduli (GPa) = 64.07344 60.18969 101.43045
#
# Poissons Ratio (x) = 0.40706 0.08824
# Poissons Ratio (y) = 0.43332 0.04070
# Poissons Ratio (z) = 0.05574 0.02415
#
# Static dielectric constant tensor:
#      x y z
#    x 2.091990 -0.050450 0.017670 
#    y -0.050450 2.096630 -0.088920 
#    z 0.017670 -0.088920 1.996580 
# 
# From -- ./inp_files/458188.got.cif
#   From: 2010.05.17/outbox.cif.g08.bks.cpg/sg2_230_cif.got.tgz:458188.got - 2010.06.03 11:33:40.
