data_PCOD9073935
_publ_section_title
;
Structure prediction by ZEFSAII (Michael W. Deem and Ramdas Pophale) SiO2 
 PCOD9073935
Probable space group: P -1
;
_chemical_formula_sum "Si O2"
_cell_formula_units_Z 16
_cell_length_a 7.744836
_cell_length_b 8.772979
_cell_length_c 20.534621
_cell_angle_alpha 86.893805
_cell_angle_beta 151.403556
_cell_angle_gamma 96.791863
_cell_volume 659.494863
_symmetry_space_group_name_H-M "P -1"
_symmetry_group_IT_number 2
_symmetry_cell_setting 'triclinic'
loop_
_space_group_symop_operation_xyz
x,y,z
-x,-y,-z
loop_
_atom_site_type_symbol
_atom_site_label
_atom_site_fract_x
_atom_site_fract_y
_atom_site_fract_z
Si Si1 0.109253 0.899596 0.371212
Si Si2 0.489509 0.363156 0.446142
Si Si3 0.578060 0.526585 0.846059
Si Si4 0.714449 0.164674 0.232109
Si Si5 0.772650 0.030046 0.027984
Si Si6 0.381455 0.645720 0.014678
Si Si7 0.087012 0.827177 0.214200
Si Si8 0.371167 0.540009 0.278370
O O1 0.195453 0.740288 0.432938
O O2 0.029453 0.875192 0.268275
O O3 0.500000 0.000000 0.500000
O O4 0.845413 0.012115 0.311535
O O5 0.500000 0.500000 0.500000
O O6 0.536979 0.438840 0.389085
O O7 0.090743 0.254758 0.322281
O O8 0.462837 0.695889 0.798557
O O9 0.422979 0.445072 0.863334
O O10 0.479098 0.451430 0.745326
O O11 0.000000 0.500000 0.000000
O O12 0.399445 0.080721 0.082825
O O13 0.781916 0.208878 0.011121
O O14 0.131254 0.972568 0.177364
O O15 0.500000 0.000000 0.000000
O O16 0.701851 0.720665 0.071388
O O17 0.043250 0.548416 0.868777
O O18 0.374494 0.711060 0.304062
#
# Coordination Sequence:
#
# PCOD9073935 Si02
#       8
#     2   2   2   2   2   2   2   2
#     4  10  22  36  61  89 124 152 200 251 306 344
#     4  11  22  39  66  93 115 160 210 252 296 345
#     4  10  23  41  59  87 125 167 193 244 311 371
#     4  11  21  40  63  87 129 155 194 258 308 356
#     4  10  18  31  60  93 114 147 193 252 313 354
#     4  10  20  35  62  89 118 156 196 249 314 357
#     4  11  19  36  61  92 118 149 202 257 309 351
#     4  11  22  38  58  89 123 152 208 251 291 366
#
# _framework density 24.260995000000001
#
# number of rings (size 3 to 8) (size 9 to 14) (size 15 to 20)
#    0.000    1.500    3.750    4.125    1.750    0.000 
#    0.000    6.875    0.000    0.000    0.000    0.000 
#    0.000    0.000    0.000    0.000    0.000    0.000 
#
# Total GULP energy -89250.106365 kJ/mol
# GULP energy per Si atom -5578.131648 kJ/mol
# Density = 2.420578 g / cm^3
# Si number density = 24.260995 Si / 1000 Ang^3
#
#
#
# Elastic Constant Matrix: (Units=GPa)
#
#
# Indices 1 2 3 4 5 6 
#
# 1 54.2903 31.9876 20.8862 -16.3659 2.1580 -7.8766
# 2 31.9876 164.2213 50.8669 -43.2491 -2.1427 -19.8047
# 3 20.8862 50.8669 101.5076 -32.2658 -13.2352 10.1316
# 4 -16.3659 -43.2491 -32.2658 59.5495 6.5320 3.1722
# 5 2.1580 -2.1427 -13.2352 6.5320 29.5768 -8.4936
# 6 -7.8766 -19.8047 10.1316 3.1722 -8.4936 18.5765
#
#
#
# Elastic Compliance Matrix: (Units=1/GPa)
#
#
# Indices 1 2 3 4 5 6 
#
# 1 0.023163 -0.001278 -0.004447 0.002685 -0.001579 0.009704
# 2 -0.001278 0.010489 -0.004948 0.003681 0.001699 0.013488
# 3 -0.004447 -0.004948 0.016645 0.004892 0.001647 -0.016321
# 4 0.002685 0.003681 0.004892 0.023463 -0.003896 -0.003393
# 5 -0.001579 0.001699 0.001647 -0.003896 0.041335 0.019809
# 6 0.009704 0.013488 -0.016321 -0.003393 0.019809 0.090863
#
#
# Mechanical properties :
#
#
# Convention : Reuss Voigt Hill
#
# Bulk Modulus (GPa) = 34.54016 58.61117 46.57567
# Shear Modulus (GPa) = 21.10129 35.95914 28.53021
#
# Velocity S-wave (km/s) = 2.95237 3.85408 3.43296
# Velocity P-wave (km/s) = 5.08820 6.63448 5.91211
#
# Compressibility (1/GPa) = 0.02895180
#
# Stress axis : x y z
#
# Youngs Moduli (GPa) = 43.17233 95.33844 60.07972
#
# Poissons Ratio (x) = 0.12181 0.26716
# Poissons Ratio (y) = 0.05516 0.29727
# Poissons Ratio (z) = 0.19198 0.47173
#
# Static dielectric constant tensor:
#      x y z
#    x 2.069970 -0.455210 -0.287570 
#    y -0.455210 4.424140 1.688750 
#    z -0.287570 1.688750 3.270550 
# 
# From -- ./inp_files/304617.got.cif
#   From: 2010.05.17/outbox.cif.g08.bks.cpg/sg2_153_cif.got.tgz:304617.got - 2010.06.03 11:33:40.
