data_PCOD9073258
_publ_section_title
;
Structure prediction by ZEFSAII (Michael W. Deem and Ramdas Pophale) SiO2 
 PCOD9073258
Probable space group: P -1
;
_chemical_formula_sum "Si O2"
_cell_formula_units_Z 14
_cell_length_a 15.000000
_cell_length_b 15.000000
_cell_length_c 27.000000
_cell_angle_alpha 20.000000
_cell_angle_beta 160.000000
_cell_angle_gamma 160.000000
_cell_volume 621.679612
_symmetry_space_group_name_H-M "P -1"
_symmetry_group_IT_number 2
_symmetry_cell_setting 'triclinic'
loop_
_space_group_symop_operation_xyz
x,y,z
-x,-y,-z
loop_
_atom_site_type_symbol
_atom_site_label
_atom_site_fract_x
_atom_site_fract_y
_atom_site_fract_z
Si Si1 0.393692 0.133070 0.486694
Si Si2 0.185947 0.820004 0.401104
Si Si3 0.249709 0.610992 0.303571
Si Si4 0.128867 0.346521 0.478504
Si Si5 0.635136 0.886655 0.058333
Si Si6 0.695289 0.450008 0.846748
Si Si7 0.687161 0.153935 0.189638
O O1 0.688920 0.183197 0.586284
O O2 0.549145 0.388949 0.474959
O O3 0.248969 0.261799 0.304887
O O4 0.155319 0.810160 0.550874
O O5 0.000000 0.500000 0.500000
O O6 0.978080 0.969004 0.202941
O O7 0.500000 0.000000 0.500000
O O8 0.500000 0.500000 0.500000
O O9 0.070491 0.494318 0.322632
O O10 0.984941 0.444004 0.212422
O O11 0.444495 0.956139 0.208667
O O12 0.183106 0.067352 0.642094
O O13 0.497053 0.632518 0.161022
O O14 0.483569 0.796366 0.972171
O O15 0.575487 0.157327 0.902518
O O16 0.000000 0.500000 0.000000
#
# Coordination Sequence:
#
# PCOD9073258 Si02
#       7
#     2   2   2   2   2   2   2
#     4  12  23  39  64  89 127 165 213 250 312 374
#     4  12  26  45  62  89 129 178 217 256 306 381
#     4  10  21  37  61  96 130 160 203 267 328 376
#     4  11  21  39  62  93 125 161 208 261 312 380
#     4  11  25  40  62  93 131 167 211 262 318 379
#     4  11  23  38  62  94 126 166 202 268 320 371
#     4  11  21  37  63  95 129 162 206 264 330 371
#
# _framework density 22.519638
#
# number of rings (size 3 to 8) (size 9 to 14) (size 15 to 20)
#    0.000    0.857    2.857    6.857    4.000    0.000 
#    0.000    0.000    0.000    5.143    0.000    0.000 
#    0.000    0.000    0.000    0.000    0.000    0.000 
#
# Total GULP energy -78030.576057 kJ/mol
# GULP energy per Si atom -5573.612576 kJ/mol
# Density = 2.246838 g / cm^3
# Si number density = 22.519638 Si / 1000 Ang^3
#
#
#
# Elastic Constant Matrix: (Units=GPa)
#
#
# Indices 1 2 3 4 5 6 
#
# 1 91.8959 30.9967 37.2666 2.8529 -28.1508 31.6125
# 2 30.9967 140.6669 22.4707 20.0563 -15.0656 21.0854
# 3 37.2666 22.4707 75.3106 19.3213 -15.7733 3.8086
# 4 2.8529 20.0563 19.3213 29.6462 -2.6309 -8.6066
# 5 -28.1508 -15.0656 -15.7733 -2.6309 29.2269 5.4063
# 6 31.6125 21.0854 3.8086 -8.6066 5.4063 36.0410
#
#
#
# Elastic Compliance Matrix: (Units=1/GPa)
#
#
# Indices 1 2 3 4 5 6 
#
# 1 0.051721 0.008309 -0.007560 -0.018600 0.059974 -0.062866
# 2 0.008309 0.011944 0.000297 -0.013396 0.016820 -0.020030
# 3 -0.007560 0.000297 0.020644 -0.012424 0.002727 0.000900
# 4 -0.018600 -0.013396 -0.012424 0.062882 -0.034305 0.045627
# 5 0.059974 0.016820 0.002727 -0.034305 0.115356 -0.088229
# 6 -0.062866 -0.020030 0.000900 0.045627 -0.088229 0.118641
#
#
# Mechanical properties :
#
#
# Convention : Reuss Voigt Hill
#
# Bulk Modulus (GPa) = 11.57397 54.37126 32.97261
# Shear Modulus (GPa) = 12.25799 33.45878 22.85839
#
# Velocity S-wave (km/s) = 2.33561 3.85874 3.18943
# Velocity P-wave (km/s) = 3.52478 6.63698 5.31383
#
# Compressibility (1/GPa) = 0.08640081
#
# Stress axis : x y z
#
# Youngs Moduli (GPa) = 19.33463 83.72163 48.43976
#
# Poissons Ratio (x) = -0.69568 0.36623
# Poissons Ratio (y) = -0.16066 -0.01438
# Poissons Ratio (z) = 0.14618 -0.02485
#
# Static dielectric constant tensor:
#      x y z
#    x 1.491460 -0.531050 0.017730 
#    y -0.531050 1.637170 -0.068800 
#    z 0.017730 -0.068800 1.817190 
# 
# From -- ./inp_files/45480.got.cif
#   From: 2010.05.17/outbox.ucp.g08.bks.cvg/sg2_23_cif.got.tgz:45480.got - 2010.06.11 11:32:03.
