data_PCOD9073522
_publ_section_title
;
Structure prediction by ZEFSAII (Michael W. Deem and Ramdas Pophale) SiO2 
 PCOD9073522
Probable space group: P -1
;
_chemical_formula_sum "Si O2"
_cell_formula_units_Z 16
_cell_length_a 13.197618
_cell_length_b 10.129716
_cell_length_c 18.434092
_cell_angle_alpha 48.505743
_cell_angle_beta 142.716731
_cell_angle_gamma 155.286361
_cell_volume 606.222671
_symmetry_space_group_name_H-M "P -1"
_symmetry_group_IT_number 2
_symmetry_cell_setting 'triclinic'
loop_
_space_group_symop_operation_xyz
x,y,z
-x,-y,-z
loop_
_atom_site_type_symbol
_atom_site_label
_atom_site_fract_x
_atom_site_fract_y
_atom_site_fract_z
Si Si1 0.995413 0.517500 0.077323
Si Si2 0.174951 0.651018 0.808160
Si Si3 0.305274 0.131649 0.042546
Si Si4 0.325410 0.949009 0.483916
Si Si5 0.357396 0.511689 0.315271
Si Si6 0.564748 0.863948 0.730852
Si Si7 0.835966 0.682446 0.561302
Si Si8 0.919732 0.995744 0.768691
O O1 0.770140 0.255314 0.109619
O O2 0.009229 0.738550 0.017870
O O3 0.290147 0.659411 0.217810
O O4 0.000000 0.500000 0.000000
O O5 0.870035 0.260314 0.766019
O O6 0.094961 0.758554 0.680727
O O7 0.450323 0.774351 0.893267
O O8 0.408663 0.230228 0.148314
O O9 0.191106 0.195300 0.907743
O O10 0.307511 0.785900 0.596119
O O11 0.542208 0.298596 0.508733
O O12 0.045897 0.810103 0.338278
O O13 0.500000 0.000000 0.500000
O O14 0.712965 0.756030 0.425307
O O15 0.212734 0.324329 0.378085
O O16 0.160585 0.245501 0.236664
O O17 0.623829 0.789027 0.723662
#
# Coordination Sequence:
#
# PCOD9073522 Si02
#       8
#     2   2   2   2   2   2   2   2
#     4  10  19  35  53  76 106 140 176 214 263 317
#     4   9  20  35  54  78 108 139 173 220 271 319
#     4  11  21  34  56  80 107 143 177 220 271 318
#     4   8  15  30  55  78 100 138 182 219 263 313
#     4   9  16  30  54  77 102 138 179 216 259 313
#     4   9  19  36  57  76 104 143 180 219 269 319
#     4   8  15  30  52  76 102 138 173 214 264 314
#     4  10  18  31  55  82 104 141 182 219 268 319
#
# _framework density 26.392941
#
# number of rings (size 3 to 8) (size 9 to 14) (size 15 to 20)
#    0.000    2.750    1.250    1.125    0.000    1.000 
#    0.000    0.625    2.750   25.500    0.000    0.000 
#    0.000    0.000    0.000    0.000    0.000    0.000 
#
# Total GULP energy -89218.758368 kJ/mol
# GULP energy per Si atom -5576.172398 kJ/mol
# Density = 2.633287 g / cm^3
# Si number density = 26.392941 Si / 1000 Ang^3
#
#
#
# Elastic Constant Matrix: (Units=GPa)
#
#
# Indices 1 2 3 4 5 6 
#
# 1 81.3207 -120.5336 -7.2381 -12.6037 -1.2518 -28.0260
# 2 -120.5336 -516.2149 -113.4056 -78.4854 55.5981 -23.7594
# 3 -7.2381 -113.4056 175.8474 -46.4054 16.4477 3.6288
# 4 -12.6037 -78.4854 -46.4054 56.6655 0.1175 -1.0176
# 5 -1.2518 55.5981 16.4477 0.1175 49.5089 2.2630
# 6 -28.0260 -23.7594 3.6288 -1.0176 2.2630 22.5089
#
#
#
# Elastic Compliance Matrix: (Units=1/GPa)
#
#
# Indices 1 2 3 4 5 6 
#
# 1 0.012764 -0.002447 -0.002180 -0.002104 0.003194 0.013244
# 2 -0.002447 -0.000525 -0.001040 -0.002190 0.001044 -0.003637
# 3 -0.002180 -0.001040 0.005803 0.002747 -0.000614 -0.004561
# 4 -0.002104 -0.002190 0.002747 0.016306 0.001674 -0.004806
# 5 0.003194 0.001044 -0.000614 0.001674 0.019154 0.003329
# 6 0.013244 -0.003637 -0.004561 -0.004806 0.003329 0.057262
#
#
# Mechanical properties :
#
#
# Convention : Reuss Voigt Hill
#
# Bulk Modulus (GPa) = 149.05724 -82.37793 33.33965
# Shear Modulus (GPa) = 40.21423 24.54536 32.37980
#
# Velocity S-wave (km/s) = 3.90766 3.05289 3.50642
# Velocity P-wave (km/s) = 8.77260 4.34200 5.39006
#
# Compressibility (1/GPa) = 0.00670883
#
# Stress axis : x y z
#
# Youngs Moduli (GPa) = 78.34736 -1905.93586 172.32488
#
# Poissons Ratio (x) = -4.66365 0.37569
# Poissons Ratio (y) = 0.19171 0.17914
# Poissons Ratio (z) = 0.17081 -1.98135
#
# Static dielectric constant tensor:
#      x y z
#    x 2.030440 0.102130 -0.029140 
#    y 0.102130 2.313180 0.042770 
#    z -0.029140 0.042770 2.092670 
# 
# From -- ./inp_files/69966.got.cif
#   From: 2010.05.17/outbox.cif.g08.bks.cpg/sg2_35_cif.got.tgz:69966.got - 2010.06.03 11:33:40.
