data_PCOD9073861
_publ_section_title
;
Structure prediction by ZEFSAII (Michael W. Deem and Ramdas Pophale) SiO2 
 PCOD9073861
Probable space group: P -1
;
_chemical_formula_sum "Si O2"
_cell_formula_units_Z 16
_cell_length_a 12.000000
_cell_length_b 9.000000
_cell_length_c 15.000000
_cell_angle_alpha 110.000000
_cell_angle_beta 120.000000
_cell_angle_gamma 120.000000
_cell_volume 745.925389
_symmetry_space_group_name_H-M "P -1"
_symmetry_group_IT_number 2
_symmetry_cell_setting 'triclinic'
loop_
_space_group_symop_operation_xyz
x,y,z
-x,-y,-z
loop_
_atom_site_type_symbol
_atom_site_label
_atom_site_fract_x
_atom_site_fract_y
_atom_site_fract_z
Si Si1 0.223439 0.986385 0.936484
Si Si2 0.509990 0.206983 0.270701
Si Si3 0.858710 0.231165 0.828298
Si Si4 0.323584 0.961187 0.652348
Si Si5 0.098464 0.258045 0.547658
Si Si6 0.663918 0.376783 0.105506
Si Si7 0.260670 0.395991 0.998248
Si Si8 0.906189 0.404239 0.693944
O O1 0.323721 0.050380 0.087601
O O2 0.397587 0.082434 0.954785
O O3 0.241805 0.193814 0.974393
O O4 0.975820 0.657147 0.759992
O O5 0.615027 0.136127 0.289433
O O6 0.711658 0.540583 0.412151
O O7 0.370133 0.055258 0.274276
O O8 0.800020 0.254404 0.715799
O O9 0.000000 0.500000 0.000000
O O10 0.025706 0.251160 0.888989
O O11 0.233580 0.813092 0.488341
O O12 0.112335 0.845004 0.583503
O O13 0.539602 0.299401 0.810346
O O14 0.240918 0.474547 0.730803
O O15 0.000000 0.000000 0.500000
O O16 0.841378 0.420762 0.159436
O O17 0.687184 0.532965 0.071378
#
# Coordination Sequence:
#
# PCOD9073861 Si02
#       8
#     2   2   2   2   2   2   2   2
#     4  11  21  38  62  94 123 162 214 265 306 368
#     4  11  22  39  63  89 122 170 210 244 311 376
#     4  11  21  45  65  86 124 172 216 253 296 388
#     4  11  22  39  63  94 126 165 206 260 321 371
#     4  10  22  40  63  96 131 158 202 273 322 365
#     4   9  20  38  61  87 125 167 208 249 314 381
#     4  11  23  39  66  92 125 169 209 260 316 366
#     4  10  22  38  62  92 122 163 211 260 308 370
#
# _framework density 21.449867000000001
#
# number of rings (size 3 to 8) (size 9 to 14) (size 15 to 20)
#    0.000    1.500    2.500    3.375    0.000    5.000 
#    0.000    1.250    0.000   12.750    0.000    0.000 
#    0.000    0.000    0.000    0.000    0.000    0.000 
#
# Total GULP energy -89358.494427 kJ/mol
# GULP energy per Si atom -5584.905902 kJ/mol
# Density = 2.140105 g / cm^3
# Si number density = 21.449867 Si / 1000 Ang^3
#
#
#
# Elastic Constant Matrix: (Units=GPa)
#
#
# Indices 1 2 3 4 5 6 
#
# 1 43.1141 35.1637 3.8315 5.9439 17.5645 5.2276
# 2 35.1637 154.0298 31.7338 16.6160 8.3845 2.1846
# 3 3.8315 31.7338 62.7887 8.1370 10.2415 -6.5599
# 4 5.9439 16.6160 8.1370 44.8190 3.1592 9.5035
# 5 17.5645 8.3845 10.2415 3.1592 22.7645 6.0194
# 6 5.2276 2.1846 -6.5599 9.5035 6.0194 37.6108
#
#
#
# Elastic Compliance Matrix: (Units=1/GPa)
#
#
# Indices 1 2 3 4 5 6 
#
# 1 0.044736 -0.009878 0.008368 -0.001719 -0.034889 0.001834
# 2 -0.009878 0.009645 -0.005265 -0.001626 0.006874 -0.000795
# 3 0.008368 -0.005265 0.021682 -0.003327 -0.015460 0.006239
# 4 -0.001719 -0.001626 -0.003327 0.025079 0.001757 -0.006865
# 5 -0.034889 0.006874 -0.015460 0.001757 0.077981 -0.011171
# 6 0.001834 -0.000795 0.006239 -0.006865 -0.011171 0.030990
#
#
# Mechanical properties :
#
#
# Convention : Reuss Voigt Hill
#
# Bulk Modulus (GPa) = 15.99726 44.59895 30.29811
# Shear Modulus (GPa) = 20.44997 33.65245 27.05121
#
# Velocity S-wave (km/s) = 3.09104 3.96522 3.55510
# Velocity P-wave (km/s) = 4.49595 6.46539 5.56843
#
# Compressibility (1/GPa) = 0.06251071
#
# Stress axis : x y z
#
# Youngs Moduli (GPa) = 22.35358 103.68551 46.12207
#
# Poissons Ratio (x) = 1.02421 -0.38594
# Poissons Ratio (y) = 0.22081 0.24284
# Poissons Ratio (z) = -0.18705 0.54593
#
# Static dielectric constant tensor:
#      x y z
#    x 1.833230 0.035290 0.014720 
#    y 0.035290 1.829880 0.025660 
#    z 0.014720 0.025660 1.761730 
# 
# From -- ./inp_files/238488.got.cif
#   From: 2010.05.17/outbox.ucp.g08.bks.cvg/sg2_120_cif.got.tgz:238488.got - 2010.06.11 11:32:03.
