data_PCOD9073760
_publ_section_title
;
Structure prediction by ZEFSAII (Michael W. Deem and Ramdas Pophale) SiO2 
 PCOD9073760
Probable space group: P -1
;
_chemical_formula_sum "Si O2"
_cell_formula_units_Z 16
_cell_length_a 12.000000
_cell_length_b 12.000000
_cell_length_c 12.000000
_cell_angle_alpha 40.000000
_cell_angle_beta 80.000000
_cell_angle_gamma 110.000000
_cell_volume 722.981415
_symmetry_space_group_name_H-M "P -1"
_symmetry_group_IT_number 2
_symmetry_cell_setting 'triclinic'
loop_
_space_group_symop_operation_xyz
x,y,z
-x,-y,-z
loop_
_atom_site_type_symbol
_atom_site_label
_atom_site_fract_x
_atom_site_fract_y
_atom_site_fract_z
Si Si1 0.189230 0.821818 0.540291
Si Si2 0.868110 0.701725 0.704903
Si Si3 0.881641 0.625271 0.162837
Si Si4 0.209890 0.213270 0.581494
Si Si5 0.429523 0.503145 0.711297
Si Si6 0.463211 0.756225 0.731677
Si Si7 0.133314 0.454285 0.526968
Si Si8 0.760305 0.070701 0.803655
O O1 0.157769 0.581908 0.750920
O O2 0.268047 0.921736 0.326242
O O3 0.004985 0.702060 0.668573
O O4 0.345051 0.076966 0.389195
O O5 0.796357 0.700355 0.603490
O O6 0.699769 0.449354 0.998374
O O7 0.000000 0.000000 0.500000
O O8 0.707220 0.526129 0.297784
O O9 0.939081 0.624304 0.274406
O O10 0.028762 0.912179 0.865516
O O11 0.370041 0.269035 0.525558
O O12 0.229488 0.390248 0.530667
O O13 0.418094 0.564723 0.791286
O O14 0.357022 0.226214 0.918573
O O15 0.500000 0.000000 0.500000
O O16 0.246751 0.756768 0.260240
O O17 0.960920 0.252178 0.639149
#
# Coordination Sequence:
#
# PCOD9073760 Si02
#       8
#     2   2   2   2   2   2   2   2
#     4  11  23  43  73  96 137 185 224 284 345 407
#     4  12  26  44  72 101 136 185 236 283 343 406
#     4  11  24  43  68 100 143 178 225 283 347 398
#     4  12  25  43  70 102 136 179 236 278 337 421
#     4  12  25  44  67  98 139 178 223 287 344 406
#     4  12  27  45  68 105 141 178 229 286 344 413
#     4  10  22  43  69 100 132 184 227 282 337 410
#     4  10  21  43  69  96 137 176 226 285 343 399
#
# _framework density 22.130583000000001
#
# number of rings (size 3 to 8) (size 9 to 14) (size 15 to 20)
#    0.000    0.750    3.750    3.375    1.750    3.000 
#    0.000    0.000    0.000    0.000    0.000    0.000 
#    0.000    0.000    0.000    0.000    0.000    0.000 
#
# Total GULP energy -89286.672057 kJ/mol
# GULP energy per Si atom -5580.417004 kJ/mol
# Density = 2.208021 g / cm^3
# Si number density = 22.130583 Si / 1000 Ang^3
#
#
#
# Elastic Constant Matrix: (Units=GPa)
#
#
# Indices 1 2 3 4 5 6 
#
# 1 98.4307 6.6885 35.8519 -6.5731 -19.6699 -4.8947
# 2 6.6885 80.6004 36.5755 -18.1648 0.9460 6.3178
# 3 35.8519 36.5755 84.8278 -10.7988 2.6754 -2.4676
# 4 -6.5731 -18.1648 -10.7988 28.5259 -4.1855 1.2188
# 5 -19.6699 0.9460 2.6754 -4.1855 32.4672 -3.2921
# 6 -4.8947 6.3178 -2.4676 1.2188 -3.2921 33.0093
#
#
#
# Elastic Compliance Matrix: (Units=1/GPa)
#
#
# Indices 1 2 3 4 5 6 
#
# 1 0.015058 0.002629 -0.007278 0.003819 0.010349 0.002077
# 2 0.002629 0.018258 -0.007932 0.009772 0.002589 -0.003800
# 3 -0.007278 -0.007932 0.018418 -0.000639 -0.005649 0.001276
# 4 0.003819 0.009772 -0.000639 0.043098 0.007414 -0.002204
# 5 0.010349 0.002589 -0.005649 0.007414 0.038843 0.004217
# 6 0.002077 -0.003800 0.001276 -0.002204 0.004217 0.031927
#
#
# Mechanical properties :
#
#
# Convention : Reuss Voigt Hill
#
# Bulk Modulus (GPa) = 37.63104 46.89896 42.26500
# Shear Modulus (GPa) = 25.04751 31.11669 28.08210
#
# Velocity S-wave (km/s) = 3.36788 3.75380 3.56607
# Velocity P-wave (km/s) = 5.67138 6.32661 6.00793
#
# Compressibility (1/GPa) = 0.02657380
#
# Stress axis : x y z
#
# Youngs Moduli (GPa) = 66.41072 54.77124 54.29363
#
# Poissons Ratio (x) = -0.14401 0.39513
# Poissons Ratio (y) = -0.17462 0.43064
# Poissons Ratio (z) = 0.48331 0.43443
#
# Static dielectric constant tensor:
#      x y z
#    x 1.880680 0.003900 0.026950 
#    y 0.003900 1.869780 0.007160 
#    z 0.026950 0.007160 1.782020 
# 
# From -- ./inp_files/337749.got.cif
#   From: 2010.05.17/outbox.ucp.g08.bks.cvg/sg2_169_cif.got.tgz:337749.got - 2010.06.11 11:32:03.
