data_PCOD9073934
_publ_section_title
;
Structure prediction by ZEFSAII (Michael W. Deem and Ramdas Pophale) SiO2 
 PCOD9073934
Probable space group: P -1
;
_chemical_formula_sum "Si O2"
_cell_formula_units_Z 14
_cell_length_a 12.000000
_cell_length_b 12.000000
_cell_length_c 15.000000
_cell_angle_alpha 130.000000
_cell_angle_beta 30.000000
_cell_angle_gamma 140.000000
_cell_volume 692.779491
_symmetry_space_group_name_H-M "P -1"
_symmetry_group_IT_number 2
_symmetry_cell_setting 'triclinic'
loop_
_space_group_symop_operation_xyz
x,y,z
-x,-y,-z
loop_
_atom_site_type_symbol
_atom_site_label
_atom_site_fract_x
_atom_site_fract_y
_atom_site_fract_z
Si Si1 0.969093 0.440940 0.318298
Si Si2 0.485259 0.337027 0.726545
Si Si3 0.070901 0.616010 0.151346
Si Si4 0.827848 0.717831 0.780117
Si Si5 0.687041 0.185483 0.633183
Si Si6 0.441147 0.060043 0.918672
Si Si7 0.949199 0.682961 0.098731
O O1 0.694195 0.361930 0.519253
O O2 0.954704 0.488262 0.251259
O O3 0.091370 0.329106 0.205701
O O4 0.156976 0.626363 0.330874
O O5 0.614407 0.527422 0.783902
O O6 0.471518 0.194588 0.728459
O O7 0.218131 0.272993 0.826618
O O8 0.313380 0.802874 0.116193
O O9 0.888658 0.649034 0.229080
O O10 0.130884 0.502609 0.984576
O O11 0.091402 0.810279 0.581427
O O12 0.713674 0.839255 0.930799
O O13 0.558057 0.056359 0.738827
O O14 0.247545 0.859320 0.979738
#
# Coordination Sequence:
#
# PCOD9073934 Si02
#       7
#     2   2   2   2   2   2   2
#     4   8  17  34  60  81 108 151 180 223 284 328
#     4   9  17  35  56  84 115 139 185 230 273 334
#     4  10  22  40  56  76 114 149 188 229 266 326
#     4   9  17  35  60  86 112 143 180 229 284 328
#     4   8  18  33  57  88 114 142 181 228 277 337
#     4  11  21  37  62  81 111 151 181 225 285 329
#     4  11  23  36  56  84 108 148 191 226 270 325
#
# _framework density 20.208449999999999
#
# number of rings (size 3 to 8) (size 9 to 14) (size 15 to 20)
#    0.000    2.571    1.429    2.143    2.000    2.857 
#    2.571    1.429    0.000    3.429    0.000    0.000 
#    0.000    0.000    0.000    0.000    0.000    0.000 
#
# Total GULP energy -77943.974188 kJ/mol
# GULP energy per Si atom -5567.426728 kJ/mol
# Density = 2.016246 g / cm^3
# Si number density = 20.208450 Si / 1000 Ang^3
#
#
#
# Elastic Constant Matrix: (Units=GPa)
#
#
# Indices 1 2 3 4 5 6 
#
# 1 113.1505 11.6069 14.7530 -21.7473 32.0021 7.7905
# 2 11.6069 41.1453 -5.6857 -8.4199 -0.0016 6.5263
# 3 14.7530 -5.6857 26.2053 -4.2796 10.9081 0.3232
# 4 -21.7473 -8.4199 -4.2796 13.1061 -3.7721 4.9778
# 5 32.0021 -0.0016 10.9081 -3.7721 17.9037 -8.7181
# 6 7.7905 6.5263 0.3232 4.9778 -8.7181 15.7638
#
#
#
# Elastic Compliance Matrix: (Units=1/GPa)
#
#
# Indices 1 2 3 4 5 6 
#
# 1 -0.007159 -0.014190 -0.021195 -0.032506 0.039214 0.041799
# 2 -0.014190 0.023978 -0.002211 -0.005811 0.034193 0.017876
# 3 -0.021195 -0.002211 0.031253 -0.031928 0.030465 0.037680
# 4 -0.032506 -0.005811 -0.031928 0.011653 0.119789 0.081693
# 5 0.039214 0.034193 0.030465 0.119789 -0.058317 -0.104238
# 6 0.041799 0.017876 0.037680 0.081693 -0.104238 -0.048838
#
#
# Mechanical properties :
#
#
# Convention : Reuss Voigt Hill
#
# Bulk Modulus (GPa) = -36.87182 24.64995 -6.11093
# Shear Modulus (GPa) = 267.07390 20.00987 143.54188
#
# Velocity S-wave (km/s) = 11.50854 3.15012 8.43711
# Velocity P-wave (km/s) = 12.58213 5.04532 9.58554
#
# Compressibility (1/GPa) = -0.02712098
#
# Stress axis : x y z
#
# Youngs Moduli (GPa) = -139.67676 41.70458 31.99730
#
# Poissons Ratio (x) = 0.59177 0.67819
# Poissons Ratio (y) = -1.98196 0.07076
# Poissons Ratio (z) = -2.96047 0.09223
#
# Static dielectric constant tensor:
#      x y z
#    x 1.795460 -0.018720 -0.013950 
#    y -0.018720 1.712560 -0.022920 
#    z -0.013950 -0.022920 1.776220 
# 
# From -- ./inp_files/167606.got.cif
#   From: 2010.05.17/outbox.ucp.g08.bks.cvg/sg2_84_cif.got.tgz:167606.got - 2010.06.11 11:32:03.
