data_PCOD9073664
_publ_section_title
;
Structure prediction by ZEFSAII (Michael W. Deem and Ramdas Pophale) SiO2 
 PCOD9073664
Probable space group: P -1
;
_chemical_formula_sum "Si O2"
_cell_formula_units_Z 16
_cell_length_a 6.000000
_cell_length_b 9.000000
_cell_length_c 30.000000
_cell_angle_alpha 30.000000
_cell_angle_beta 110.000000
_cell_angle_gamma 100.000000
_cell_volume 734.803614
_symmetry_space_group_name_H-M "P -1"
_symmetry_group_IT_number 2
_symmetry_cell_setting 'triclinic'
loop_
_space_group_symop_operation_xyz
x,y,z
-x,-y,-z
loop_
_atom_site_type_symbol
_atom_site_label
_atom_site_fract_x
_atom_site_fract_y
_atom_site_fract_z
Si Si1 0.246751 0.230129 0.795905
Si Si2 0.629807 0.423917 0.157311
Si Si3 0.227482 0.426626 0.497036
Si Si4 0.264196 0.182749 0.056450
Si Si5 0.019360 0.664318 0.156638
Si Si6 0.820029 0.710771 0.873188
Si Si7 0.479818 0.729559 0.709411
Si Si8 0.979207 0.141919 0.711971
O O1 0.410205 0.472944 0.740670
O O2 0.095589 0.249788 0.735732
O O3 0.074898 0.305886 0.807145
O O4 0.443540 0.906606 0.904219
O O5 0.369014 0.493386 0.097083
O O6 0.587840 0.345527 0.225858
O O7 0.791489 0.669261 0.107531
O O8 0.802167 0.118943 0.226938
O O9 0.500000 0.500000 0.500000
O O10 0.000000 0.500000 0.500000
O O11 0.120647 0.602419 0.398523
O O12 0.318757 0.057953 0.598221
O O13 0.220923 0.169443 0.110304
O O14 0.155004 0.930698 0.089281
O O15 0.100273 0.507167 0.944010
O O16 0.225119 0.337887 0.252586
O O17 0.785844 0.973521 0.764969
#
# Coordination Sequence:
#
# PCOD9073664 Si02
#       8
#     2   2   2   2   2   2   2   2
#     4  10  22  41  68  94 135 175 224 278 353 405
#     4  11  21  39  66  93 132 172 228 276 342 407
#     4  12  26  45  73 107 142 183 232 290 356 417
#     4  10  22  41  63  94 139 175 226 281 349 411
#     4  10  21  42  65  91 134 184 212 287 344 408
#     4  11  23  38  64 101 131 176 230 286 337 418
#     4  10  23  44  66  97 136 177 222 283 350 411
#     4  12  24  41  69 100 132 176 229 286 341 417
#
# _framework density 21.774525000000001
#
# number of rings (size 3 to 8) (size 9 to 14) (size 15 to 20)
#    0.000    1.250    3.750    2.250    1.750    2.500 
#    0.000    9.375    0.000    0.000    0.000    0.000 
#    0.000    0.000    0.000    0.000    0.000    0.000 
#
# Total GULP energy -89332.137673 kJ/mol
# GULP energy per Si atom -5583.258605 kJ/mol
# Density = 2.172497 g / cm^3
# Si number density = 21.774525 Si / 1000 Ang^3
#
#
#
# Elastic Constant Matrix: (Units=GPa)
#
#
# Indices 1 2 3 4 5 6 
#
# 1 107.0749 44.4233 36.5471 8.4748 10.9313 2.5707
# 2 44.4233 110.9164 25.1878 12.0413 1.1398 16.6747
# 3 36.5471 25.1878 92.3264 9.3199 0.1755 -5.5217
# 4 8.4748 12.0413 9.3199 26.0431 -6.8668 1.4707
# 5 10.9313 1.1398 0.1755 -6.8668 25.3937 -0.0110
# 6 2.5707 16.6747 -5.5217 1.4707 -0.0110 53.2350
#
#
#
# Elastic Compliance Matrix: (Units=1/GPa)
#
#
# Indices 1 2 3 4 5 6 
#
# 1 0.013174 -0.004111 -0.003792 -0.002679 -0.006185 0.000331
# 2 -0.004111 0.011901 -0.001498 -0.003336 0.000342 -0.003592
# 3 -0.003792 -0.001498 0.013132 -0.002656 0.000891 0.002088
# 4 -0.002679 -0.003336 -0.002656 0.045365 0.013589 -0.000352
# 5 -0.006185 0.000342 0.000891 0.013589 0.045695 -0.000082
# 6 0.000331 -0.003592 0.002088 -0.000352 -0.000082 0.020120
#
#
# Mechanical properties :
#
#
# Convention : Reuss Voigt Hill
#
# Bulk Modulus (GPa) = 51.52999 58.07047 54.80023
# Shear Modulus (GPa) = 28.62730 34.54500 31.58615
#
# Velocity S-wave (km/s) = 3.62983 3.98739 3.81281
# Velocity P-wave (km/s) = 6.42528 6.92286 6.67870
#
# Compressibility (1/GPa) = 0.01940618
#
# Stress axis : x y z
#
# Youngs Moduli (GPa) = 75.90469 84.02536 76.14951
#
# Poissons Ratio (x) = 0.34541 0.28873
# Poissons Ratio (y) = 0.31203 0.11410
# Poissons Ratio (z) = 0.28780 0.12590
#
# Static dielectric constant tensor:
#      x y z
#    x 1.883100 0.049280 -0.006480 
#    y 0.049280 1.845890 -0.060270 
#    z -0.006480 -0.060270 1.780110 
# 
# From -- ./inp_files/37234.got.cif
#   From: 2010.05.17/outbox.ucp.g08.bks.cvg/sg2_19_cif.got.tgz:37234.got - 2010.06.11 11:32:03.
