data_PCOD9073391
_publ_section_title
;
Structure prediction by ZEFSAII (Michael W. Deem and Ramdas Pophale) SiO2 
 PCOD9073391
Probable space group: P -1
;
_chemical_formula_sum "Si O2"
_cell_formula_units_Z 16
_cell_length_a 23.796529
_cell_length_b 13.958191
_cell_length_c 12.974266
_cell_angle_alpha 31.267578
_cell_angle_beta 150.533790
_cell_angle_gamma 159.816892
_cell_volume 713.259951
_symmetry_space_group_name_H-M "P -1"
_symmetry_group_IT_number 2
_symmetry_cell_setting 'triclinic'
loop_
_space_group_symop_operation_xyz
x,y,z
-x,-y,-z
loop_
_atom_site_type_symbol
_atom_site_label
_atom_site_fract_x
_atom_site_fract_y
_atom_site_fract_z
Si Si1 0.015857 0.315721 0.739578
Si Si2 0.803899 0.327217 0.869694
Si Si3 0.377235 0.523076 0.266145
Si Si4 0.148006 0.275842 0.556672
Si Si5 0.745361 0.689799 0.955034
Si Si6 0.252479 0.712776 0.945737
Si Si7 0.396210 0.294917 0.868487
Si Si8 0.178892 0.047305 0.538546
O O1 0.129330 0.477047 0.876864
O O2 0.000000 0.500000 0.500000
O O3 0.108176 0.291969 0.825681
O O4 0.839310 0.993403 0.789230
O O5 0.768844 0.451650 0.623011
O O6 0.805465 0.383265 0.940440
O O7 0.000000 0.500000 0.000000
O O8 0.669638 0.993186 0.950454
O O9 0.500000 0.500000 0.500000
O O10 0.362890 0.515211 0.128201
O O11 0.211146 0.241541 0.325706
O O12 0.419047 0.776474 0.145079
O O13 0.302867 0.317279 0.779789
O O14 0.024796 0.196149 0.526030
O O15 0.000000 0.000000 0.500000
O O16 0.605126 0.551225 0.948057
O O17 0.239610 0.917045 0.720240
O O18 0.302768 0.235804 0.663743
#
# Coordination Sequence:
#
# PCOD9073391 Si02
#       8
#     2   2   2   2   2   2   2   2
#     4  10  22  42  62  76 110 161 204 242 279 332
#     4  11  19  33  55  89 120 151 182 230 291 348
#     4  11  21  33  54  86 121 146 180 238 298 347
#     4  10  18  31  54  83 119 153 181 217 290 351
#     4  10  22  40  57  87 113 150 201 238 286 347
#     4  10  21  35  56  84 113 148 193 234 280 347
#     4  10  20  33  54  85 119 148 184 233 287 347
#     4  10  19  33  52  87 119 148 184 225 288 353
#
# _framework density 22.432213999999998
#
# number of rings (size 3 to 8) (size 9 to 14) (size 15 to 20)
#    0.000    1.750    5.000    2.250    0.000    1.500 
#    4.500    0.000    0.000    1.500    0.000    0.000 
#    0.000    0.000    0.000    0.000    0.000    0.000 
#
# Total GULP energy -89229.570608 kJ/mol
# GULP energy per Si atom -5576.848163 kJ/mol
# Density = 2.238116 g / cm^3
# Si number density = 22.432214 Si / 1000 Ang^3
#
#
#
# Elastic Constant Matrix: (Units=GPa)
#
#
# Indices 1 2 3 4 5 6 
#
# 1 90.0888 30.4956 66.5583 -10.8247 22.8122 16.4927
# 2 30.4956 91.0270 49.7710 -17.4266 19.9432 37.3411
# 3 66.5583 49.7710 130.1167 -25.1907 30.8731 27.2847
# 4 -10.8247 -17.4266 -25.1907 22.0881 3.9601 -4.8792
# 5 22.8122 19.9432 30.8731 3.9601 45.3350 4.7839
# 6 16.4927 37.3411 27.2847 -4.8792 4.7839 33.6471
#
#
#
# Elastic Compliance Matrix: (Units=1/GPa)
#
#
# Indices 1 2 3 4 5 6 
#
# 1 0.018371 -0.000438 -0.008258 -0.000498 -0.003233 -0.001435
# 2 -0.000438 0.028068 0.002360 0.020678 -0.012579 -0.028062
# 3 -0.008258 0.002360 0.019504 0.019799 -0.010842 -0.009975
# 4 -0.000498 0.020678 0.019799 0.083786 -0.027249 -0.022735
# 5 -0.003233 -0.012579 -0.010842 -0.027249 0.037392 0.015069
# 6 -0.001435 -0.028062 -0.009975 -0.022735 0.015069 0.064216
#
#
# Mechanical properties :
#
#
# Convention : Reuss Voigt Hill
#
# Bulk Modulus (GPa) = 18.77172 67.20915 42.99043
# Shear Modulus (GPa) = 17.74516 31.17455 24.45986
#
# Velocity S-wave (km/s) = 2.81562 3.73194 3.30569
# Velocity P-wave (km/s) = 4.35393 6.97108 5.81174
#
# Compressibility (1/GPa) = 0.05327162
#
# Stress axis : x y z
#
# Youngs Moduli (GPa) = 54.43321 35.62740 51.27058
#
# Poissons Ratio (x) = 0.01559 0.42341
# Poissons Ratio (y) = 0.02382 -0.12099
# Poissons Ratio (z) = 0.44953 -0.08407
#
# Static dielectric constant tensor:
#      x y z
#    x 1.822820 0.042490 0.003910 
#    y 0.042490 1.891670 0.089920 
#    z 0.003910 0.089920 1.895250 
# 
# From -- ./inp_files/273220.got.cif
#   From: 2010.05.17/outbox.cif.g08.bks.cpg/sg2_137_cif.got.tgz:273220.got - 2010.06.03 11:33:40.
