data_PCOD9073117
_publ_section_title
;
Structure prediction by ZEFSAII (Michael W. Deem and Ramdas Pophale) SiO2 
 PCOD9073117
Probable space group: P -1
;
_chemical_formula_sum "Si O2"
_cell_formula_units_Z 16
_cell_length_a 8.503771
_cell_length_b 7.834992
_cell_length_c 16.426430
_cell_angle_alpha 66.132261
_cell_angle_beta 47.841027
_cell_angle_gamma 94.590804
_cell_volume 634.306030
_symmetry_space_group_name_H-M "P -1"
_symmetry_group_IT_number 2
_symmetry_cell_setting 'triclinic'
loop_
_space_group_symop_operation_xyz
x,y,z
-x,-y,-z
loop_
_atom_site_type_symbol
_atom_site_label
_atom_site_fract_x
_atom_site_fract_y
_atom_site_fract_z
Si Si1 0.417576 0.144650 0.846641
Si Si2 0.469613 0.022322 0.303708
Si Si3 0.735204 0.424838 0.017326
Si Si4 0.445353 0.642147 0.085897
Si Si5 0.077057 0.292282 0.884331
Si Si6 0.258242 0.195590 0.685624
Si Si7 0.212291 0.399337 0.516039
Si Si8 0.960136 0.672361 0.592644
O O1 0.602946 0.144742 0.716619
O O2 0.509180 0.177159 0.899261
O O3 0.321538 0.311662 0.832984
O O4 0.168175 0.919626 0.955579
O O5 0.671800 0.988306 0.287745
O O6 0.210737 0.912003 0.464028
O O7 0.584449 0.255310 0.175378
O O8 0.690131 0.623838 0.001008
O O9 0.615188 0.322506 0.990531
O O10 0.013569 0.473059 0.897959
O O11 0.222701 0.417892 0.248429
O O12 0.074528 0.220864 0.805915
O O13 0.172865 0.198985 0.623808
O O14 0.513567 0.412628 0.585296
O O15 0.172321 0.346681 0.444447
O O16 0.049000 0.497745 0.585803
#
# Coordination Sequence:
#
# PCOD9073117 Si02
#       8
#     2   2   2   2   2   2   2   2
#     4   9  18  32  53  78 100 128 169 213 257 304
#     4   9  19  35  54  78 103 130 169 216 260 303
#     4  10  23  37  50  74 107 141 177 211 252 306
#     4  11  22  36  52  74 106 142 176 211 252 306
#     4   9  17  32  52  74 102 133 165 208 259 303
#     4   9  16  29  51  76 106 131 162 211 262 305
#     4   9  17  28  49  83 105 126 166 214 258 306
#     4  10  18  31  53  75 103 135 168 208 258 303
#
# _framework density 25.224416999999999
#
# number of rings (size 3 to 8) (size 9 to 14) (size 15 to 20)
#    0.000    2.500    0.000    4.500    0.000    4.000 
#    0.000    0.000    0.000    0.750    0.000    0.000 
#    0.000    0.000    0.000    0.000    0.000    0.000 
#
# Total GULP energy -89210.778942 kJ/mol
# GULP energy per Si atom -5575.673684 kJ/mol
# Density = 2.516700 g / cm^3
# Si number density = 25.224417 Si / 1000 Ang^3
#
#
#
# Elastic Constant Matrix: (Units=GPa)
#
#
# Indices 1 2 3 4 5 6 
#
# 1 90.6820 19.9529 46.4905 -14.2344 28.2993 -12.0631
# 2 19.9529 47.3683 3.8618 4.5102 0.5792 -11.9140
# 3 46.4905 3.8618 84.6271 -6.2129 2.5541 -10.4636
# 4 -14.2344 4.5102 -6.2129 15.2810 -11.1642 1.9782
# 5 28.2993 0.5792 2.5541 -11.1642 51.7799 2.0225
# 6 -12.0631 -11.9140 -10.4636 1.9782 2.0225 31.0162
#
#
#
# Elastic Compliance Matrix: (Units=1/GPa)
#
#
# Indices 1 2 3 4 5 6 
#
# 1 0.024700 -0.010288 -0.011594 0.013928 -0.009868 0.001499
# 2 -0.010288 0.029118 0.004238 -0.016923 0.001063 0.009624
# 3 -0.011594 0.004238 0.018107 -0.001449 0.004967 0.002996
# 4 0.013928 -0.016923 -0.001449 0.093505 0.013137 -0.008393
# 5 -0.009868 0.001063 0.004967 0.013137 0.027453 -0.004382
# 6 0.001499 0.009624 0.002996 -0.008393 -0.004382 0.038352
#
#
# Mechanical properties :
#
#
# Convention : Reuss Voigt Hill
#
# Bulk Modulus (GPa) = 27.29436 40.36530 33.82983
# Shear Modulus (GPa) = 17.93815 29.77356 23.85586
#
# Velocity S-wave (km/s) = 2.66962 3.43934 3.07863
# Velocity P-wave (km/s) = 4.51072 5.63998 5.10666
#
# Compressibility (1/GPa) = 0.03663761
#
# Stress axis : x y z
#
# Youngs Moduli (GPa) = 40.48509 34.34303 55.22820
#
# Poissons Ratio (x) = 0.35331 0.64033
# Poissons Ratio (y) = 0.41650 -0.23407
# Poissons Ratio (z) = 0.46940 -0.14556
#
# Static dielectric constant tensor:
#      x y z
#    x 2.015770 -0.059060 -0.018410 
#    y -0.059060 2.077620 -0.043850 
#    z -0.018410 -0.043850 2.128530 
# 
# From -- ./inp_files/492451.got.cif
#   From: 2010.05.17/outbox.cif.g08.bks.cpg/sg2_247_cif.got.tgz:492451.got - 2010.06.03 11:33:40.
