data_PCOD9073802
_publ_section_title
;
Structure prediction by ZEFSAII (Michael W. Deem and Ramdas Pophale) SiO2 
 PCOD9073802
Probable space group: P -1
;
_chemical_formula_sum "Si O2"
_cell_formula_units_Z 16
_cell_length_a 8.315149
_cell_length_b 7.881136
_cell_length_c 12.785505
_cell_angle_alpha 114.126169
_cell_angle_beta 95.794367
_cell_angle_gamma 108.286323
_cell_volume 700.204857
_symmetry_space_group_name_H-M "P -1"
_symmetry_group_IT_number 2
_symmetry_cell_setting 'triclinic'
loop_
_space_group_symop_operation_xyz
x,y,z
-x,-y,-z
loop_
_atom_site_type_symbol
_atom_site_label
_atom_site_fract_x
_atom_site_fract_y
_atom_site_fract_z
Si Si1 0.296788 0.872520 0.244690
Si Si2 0.814602 0.695494 0.727134
Si Si3 0.695932 0.224173 0.173356
Si Si4 0.185023 0.284169 0.500068
Si Si5 0.383263 0.763087 0.604868
Si Si6 0.520809 0.278826 0.615617
Si Si7 0.282655 0.017653 0.069709
Si Si8 0.993787 0.612805 0.304078
O O1 0.430057 0.787192 0.286947
O O2 0.116814 0.770915 0.269738
O O3 0.410895 0.112757 0.325155
O O4 0.265756 0.847152 0.113246
O O5 0.871479 0.791588 0.639921
O O6 0.616682 0.521219 0.676112
O O7 0.822296 0.855820 0.857197
O O8 0.923749 0.555003 0.716585
O O9 0.706659 0.180191 0.286999
O O10 0.490756 0.157483 0.115537
O O11 0.797819 0.463177 0.220611
O O12 0.766337 0.090755 0.071709
O O13 0.301825 0.522230 0.546915
O O14 0.318460 0.210902 0.553225
O O15 0.029024 0.279067 0.564384
O O16 0.383004 0.800316 0.489839
#
# Coordination Sequence:
#
# PCOD9073802 Si02
#       8
#     2   2   2   2   2   2   2   2
#     4  10  20  33  51  83 113 138 168 218 275 313
#     4  10  19  33  55  81 106 142 179 216 263 316
#     4   9  19  36  59  78 100 140 185 221 253 309
#     4  10  18  34  56  78 106 144 182 213 252 318
#     4   9  17  33  56  78 102 137 178 213 254 310
#     4  10  18  31  57  82 109 140 174 215 265 319
#     4  10  20  38  60  76 102 142 187 217 252 317
#     4  10  21  34  52  79 112 137 171 223 273 310
#
# _framework density 22.850455
#
# number of rings (size 3 to 8) (size 9 to 14) (size 15 to 20)
#    0.000    2.250    0.000    6.000    0.000    2.000 
#    0.000    6.250    0.000   48.000    0.000    0.000 
#    0.000    0.000    0.000    0.000    0.000    0.000 
#
# Total GULP energy -89168.922759 kJ/mol
# GULP energy per Si atom -5573.057672 kJ/mol
# Density = 2.279845 g / cm^3
# Si number density = 22.850455 Si / 1000 Ang^3
#
#
#
# Elastic Constant Matrix: (Units=GPa)
#
#
# Indices 1 2 3 4 5 6 
#
# 1 85.1362 31.3978 30.1880 -7.2666 -24.3404 1.3923
# 2 31.3978 90.3438 34.0147 -13.6295 -9.0586 16.8000
# 3 30.1880 34.0147 135.2614 1.6123 -46.1849 -12.6840
# 4 -7.2666 -13.6295 1.6123 25.1395 -0.2355 1.2747
# 5 -24.3404 -9.0586 -46.1849 -0.2355 31.1990 3.1105
# 6 1.3923 16.8000 -12.6840 1.2747 3.1105 44.5493
#
#
#
# Elastic Compliance Matrix: (Units=1/GPa)
#
#
# Indices 1 2 3 4 5 6 
#
# 1 0.017640 -0.005660 0.003406 0.001905 0.017045 0.001308
# 2 -0.005660 0.017627 -0.007068 0.008702 -0.008887 -0.008112
# 3 0.003406 -0.007068 0.018224 -0.004067 0.026955 0.005982
# 4 0.001905 0.008702 -0.004067 0.045588 -0.001092 -0.005727
# 5 0.017045 -0.008887 0.026955 -0.001092 0.082188 0.004786
# 6 0.001308 -0.008112 0.005982 -0.005727 0.004786 0.026998
#
#
# Mechanical properties :
#
#
# Convention : Reuss Voigt Hill
#
# Bulk Modulus (GPa) = 28.69658 55.77136 42.23397
# Shear Modulus (GPa) = 20.96234 34.52027 27.74131
#
# Velocity S-wave (km/s) = 3.03210 3.89099 3.48808
# Velocity P-wave (km/s) = 4.98436 6.68181 5.89451
#
# Compressibility (1/GPa) = 0.03484736
#
# Stress axis : x y z
#
# Youngs Moduli (GPa) = 56.69023 56.73046 54.87383
#
# Poissons Ratio (x) = 0.32108 -0.18693
# Poissons Ratio (y) = 0.32085 0.38786
# Poissons Ratio (z) = -0.19311 0.40099
#
# Static dielectric constant tensor:
#      x y z
#    x 1.954170 -0.005570 0.001500 
#    y -0.005570 1.891420 0.026660 
#    z 0.001500 0.026660 1.910010 
# 
# From -- ./inp_files/379988.got.cif
#   From: 2010.05.17/outbox.cif.g08.bks.cpg/sg2_190_cif.got.tgz:379988.got - 2010.06.03 11:33:40.
