data_PCOD9073598
_publ_section_title
;
Structure prediction by ZEFSAII (Michael W. Deem and Ramdas Pophale) SiO2 
 PCOD9073598
Probable space group: P -1
;
_chemical_formula_sum "Si O2"
_cell_formula_units_Z 16
_cell_length_a 18.000000
_cell_length_b 15.000000
_cell_length_c 6.000000
_cell_angle_alpha 50.000000
_cell_angle_beta 50.000000
_cell_angle_gamma 40.000000
_cell_volume 759.581896
_symmetry_space_group_name_H-M "P -1"
_symmetry_group_IT_number 2
_symmetry_cell_setting 'triclinic'
loop_
_space_group_symop_operation_xyz
x,y,z
-x,-y,-z
loop_
_atom_site_type_symbol
_atom_site_label
_atom_site_fract_x
_atom_site_fract_y
_atom_site_fract_z
Si Si1 0.083053 0.474421 0.178476
Si Si2 0.306735 0.396514 0.130650
Si Si3 0.392521 0.526888 0.420050
Si Si4 0.468946 0.111537 0.574475
Si Si5 0.049145 0.262669 0.309170
Si Si6 0.811119 0.319726 0.813432
Si Si7 0.668695 0.992179 0.745452
Si Si8 0.639088 0.275122 0.447530
O O1 0.219656 0.385153 0.154495
O O2 0.068871 0.373579 0.210248
O O3 0.000000 0.500000 0.500000
O O4 0.024792 0.635047 0.931087
O O5 0.390794 0.268480 0.351578
O O6 0.219617 0.544765 0.197850
O O7 0.378614 0.429124 0.775791
O O8 0.280357 0.603761 0.343856
O O9 0.533085 0.403539 0.282369
O O10 0.380997 0.650650 0.393294
O O11 0.593538 0.056660 0.550835
O O12 0.500000 0.000000 0.500000
O O13 0.383705 0.093024 0.926456
O O14 0.953216 0.235371 0.625616
O O15 0.186263 0.115542 0.312587
O O16 0.764257 0.238756 0.164704
O O17 0.632842 0.141027 0.688007
#
# Coordination Sequence:
#
# PCOD9073598 Si02
#       8
#     2   2   2   2   2   2   2   2
#     4  11  21  38  61  92 125 160 206 249 305 367
#     4  11  21  37  67  94 120 157 206 262 309 359
#     4  10  21  41  65  91 120 156 214 265 302 357
#     4  11  24  41  64  93 126 163 201 254 314 370
#     4  11  24  38  62  92 127 166 200 254 307 369
#     4  11  22  39  63  92 121 160 210 256 304 358
#     4  11  25  43  60  92 132 163 204 248 311 377
#     4  10  23  40  63  87 123 165 209 254 306 363
#
# _framework density 21.064219999999999
#
# number of rings (size 3 to 8) (size 9 to 14) (size 15 to 20)
#    0.000    1.250    2.500    3.375    1.750    5.500 
#    0.000    0.625    0.000    0.000    0.000    0.000 
#    0.000    0.000    0.000    0.000    0.000    0.000 
#
# Total GULP energy -89131.545117 kJ/mol
# GULP energy per Si atom -5570.721570 kJ/mol
# Density = 2.101628 g / cm^3
# Si number density = 21.064220 Si / 1000 Ang^3
#
#
#
# Elastic Constant Matrix: (Units=GPa)
#
#
# Indices 1 2 3 4 5 6 
#
# 1 120.4975 25.8708 17.0537 5.3986 -6.7280 -24.1749
# 2 25.8708 83.5644 13.7260 -3.0219 -2.4341 -18.6903
# 3 17.0537 13.7260 43.5121 -7.5778 -4.7329 -7.8360
# 4 5.3986 -3.0219 -7.5778 25.4442 -9.0690 -9.1149
# 5 -6.7280 -2.4341 -4.7329 -9.0690 30.9483 -3.4683
# 6 -24.1749 -18.6903 -7.8360 -9.1149 -3.4683 43.0300
#
#
#
# Elastic Compliance Matrix: (Units=1/GPa)
#
#
# Indices 1 2 3 4 5 6 
#
# 1 0.010053 -0.001675 -0.002545 -0.000814 0.001924 0.004440
# 2 -0.001675 0.014395 -0.001660 0.004724 0.002596 0.006219
# 3 -0.002545 -0.001660 0.029312 0.014770 0.008915 0.007035
# 4 -0.000814 0.004724 0.014770 0.058817 0.021762 0.018498
# 5 0.001924 0.002596 0.008915 0.021762 0.042000 0.011827
# 6 0.004440 0.006219 0.007035 0.018498 0.011827 0.034588
#
#
# Mechanical properties :
#
#
# Convention : Reuss Voigt Hill
#
# Bulk Modulus (GPa) = 23.80818 40.09721 31.95269
# Shear Modulus (GPa) = 23.26393 32.61273 27.93833
#
# Velocity S-wave (km/s) = 3.32690 3.93905 3.64585
# Velocity P-wave (km/s) = 5.10734 6.30597 5.73803
#
# Compressibility (1/GPa) = 0.04200238
#
# Stress axis : x y z
#
# Youngs Moduli (GPa) = 99.46997 69.46657 34.11583
#
# Poissons Ratio (x) = 0.11634 0.08682
# Poissons Ratio (y) = 0.16659 0.05662
# Poissons Ratio (z) = 0.25312 0.11529
#
# Static dielectric constant tensor:
#      x y z
#    x 1.769090 -0.032320 0.022350 
#    y -0.032320 1.843540 0.051000 
#    z 0.022350 0.051000 1.896290 
# 
# From -- ./inp_files/77911.got.cif
#   From: 2010.05.17/outbox.ucp.g08.bks.cvg/sg2_39_cif.got.tgz:77911.got - 2010.06.11 11:32:03.
