data_PCOD9073295
_publ_section_title
;
Structure prediction by ZEFSAII (Michael W. Deem and Ramdas Pophale) SiO2 
 PCOD9073295
Probable space group: P -1
;
_chemical_formula_sum "Si O2"
_cell_formula_units_Z 16
_cell_length_a 9.000000
_cell_length_b 21.000000
_cell_length_c 9.000000
_cell_angle_alpha 120.000000
_cell_angle_beta 100.000000
_cell_angle_gamma 130.000000
_cell_volume 751.240448
_symmetry_space_group_name_H-M "P -1"
_symmetry_group_IT_number 2
_symmetry_cell_setting 'triclinic'
loop_
_space_group_symop_operation_xyz
x,y,z
-x,-y,-z
loop_
_atom_site_type_symbol
_atom_site_label
_atom_site_fract_x
_atom_site_fract_y
_atom_site_fract_z
Si Si1 0.809856 0.714206 0.769825
Si Si2 0.455373 0.948246 0.194156
Si Si3 0.285370 0.806770 0.312086
Si Si4 0.052207 0.524386 0.331013
Si Si5 0.440575 0.195860 0.435273
Si Si6 0.494337 0.718004 0.884761
Si Si7 0.194230 0.021455 0.884520
Si Si8 0.731681 0.543707 0.775704
O O1 0.678078 0.729582 0.851496
O O2 0.758210 0.624610 0.767466
O O3 0.610122 0.618473 0.477817
O O4 0.154499 0.857425 0.973741
O O5 0.371490 0.861076 0.219543
O O6 0.638301 0.980441 0.142953
O O7 0.644441 0.091795 0.464119
O O8 0.476358 0.821806 0.434057
O O9 0.938814 0.646082 0.070194
O O10 0.253344 0.637368 0.362230
O O11 0.231929 0.632196 0.627125
O O12 0.110076 0.461480 0.271654
O O13 0.703682 0.389731 0.134270
O O14 0.322072 0.101083 0.159610
O O15 0.157252 0.127806 0.341599
O O16 0.713396 0.877633 0.103806
#
# Coordination Sequence:
#
# PCOD9073295 Si02
#       8
#     2   2   2   2   2   2   2   2
#     4   9  17  32  59  88 112 151 204 251 286 348
#     4  10  21  38  63  88 118 160 208 246 295 363
#     4  10  21  38  58  88 125 157 195 254 306 356
#     4   9  18  33  55  83 115 154 195 245 298 353
#     4  10  22  38  59  89 125 154 196 256 312 353
#     4   9  16  31  58  86 110 146 206 251 283 344
#     4  10  21  39  62  88 117 161 207 248 296 365
#     4   9  18  33  54  80 116 152 191 238 296 350
#
# _framework density 21.298107999999999
#
# number of rings (size 3 to 8) (size 9 to 14) (size 15 to 20)
#    0.000    2.500    0.000    2.250    0.000    6.500 
#    0.000    5.000    0.000    9.000    0.000    0.000 
#    0.000    0.000    0.000    0.000    0.000    0.000 
#
# Total GULP energy -89144.349870 kJ/mol
# GULP energy per Si atom -5571.521867 kJ/mol
# Density = 2.124963 g / cm^3
# Si number density = 21.298108 Si / 1000 Ang^3
#
#
#
# Elastic Constant Matrix: (Units=GPa)
#
#
# Indices 1 2 3 4 5 6 
#
# 1 109.1829 34.1350 48.7582 6.4999 19.0642 24.9803
# 2 34.1350 59.1197 21.9053 20.7263 12.4361 15.8613
# 3 48.7582 21.9053 107.8774 8.1783 25.9478 15.8284
# 4 6.4999 20.7263 8.1783 17.5001 -2.8958 6.8863
# 5 19.0642 12.4361 25.9478 -2.8958 29.8248 4.2134
# 6 24.9803 15.8613 15.8284 6.8863 4.2134 32.9808
#
#
#
# Elastic Compliance Matrix: (Units=1/GPa)
#
#
# Indices 1 2 3 4 5 6 
#
# 1 0.014876 -0.008065 -0.004687 0.008926 -0.000216 -0.006975
# 2 -0.008065 0.044346 0.004519 -0.053987 -0.022044 -0.003299
# 3 -0.004687 0.004519 0.014618 -0.011909 -0.012543 -0.001550
# 4 0.008926 -0.053987 -0.011909 0.133393 0.041278 -0.008207
# 5 -0.000216 -0.022044 -0.012543 0.041278 0.057667 0.000799
# 6 -0.006975 -0.003299 -0.001550 -0.008207 0.000799 0.039546
#
#
# Mechanical properties :
#
#
# Convention : Reuss Voigt Hill
#
# Bulk Modulus (GPa) = 17.42937 53.97522 35.70229
# Shear Modulus (GPa) = 14.70440 27.48657 21.09548
#
# Velocity S-wave (km/s) = 2.63041 3.59634 3.15061
# Velocity P-wave (km/s) = 4.17453 6.53013 5.48039
#
# Compressibility (1/GPa) = 0.05737442
#
# Stress axis : x y z
#
# Youngs Moduli (GPa) = 67.22370 22.55000 68.40936
#
# Poissons Ratio (x) = 0.18186 0.32065
# Poissons Ratio (y) = 0.54215 -0.30917
# Poissons Ratio (z) = 0.31509 -0.10191
#
# Static dielectric constant tensor:
#      x y z
#    x 1.752920 -0.012240 -0.011090 
#    y -0.012240 1.841870 0.040150 
#    z -0.011090 0.040150 1.822040 
# 
# From -- ./inp_files/223869.got.cif
#   From: 2010.05.17/outbox.ucp.g08.bks.cvg/sg2_112_cif.got.tgz:223869.got - 2010.06.11 11:32:03.
