data_PCOD9073390
_publ_section_title
;
Structure prediction by ZEFSAII (Michael W. Deem and Ramdas Pophale) SiO2 
 PCOD9073390
Probable space group: P -1
;
_chemical_formula_sum "Si O2"
_cell_formula_units_Z 16
_cell_length_a 18.000000
_cell_length_b 9.000000
_cell_length_c 9.000000
_cell_angle_alpha 80.000000
_cell_angle_beta 120.000000
_cell_angle_gamma 140.000000
_cell_volume 752.029055
_symmetry_space_group_name_H-M "P -1"
_symmetry_group_IT_number 2
_symmetry_cell_setting 'triclinic'
loop_
_space_group_symop_operation_xyz
x,y,z
-x,-y,-z
loop_
_atom_site_type_symbol
_atom_site_label
_atom_site_fract_x
_atom_site_fract_y
_atom_site_fract_z
Si Si1 0.888689 0.316071 0.611873
Si Si2 0.241401 0.476312 0.776362
Si Si3 0.603388 0.790629 0.418983
Si Si4 0.657283 0.544136 0.610787
Si Si5 0.534096 0.722611 0.021247
Si Si6 0.125332 0.360043 0.371061
Si Si7 0.195591 0.743124 0.790882
Si Si8 0.883948 0.896141 0.019934
O O1 0.854170 0.435363 0.611354
O O2 0.864790 0.260025 0.418614
O O3 0.051241 0.507580 0.777614
O O4 0.760888 0.040029 0.592747
O O5 0.138518 0.312657 0.559726
O O6 0.257287 0.672829 0.803945
O O7 0.174462 0.303703 0.883019
O O8 0.393665 0.620041 0.862395
O O9 0.600432 0.604593 0.446352
O O10 0.488428 0.715286 0.417077
O O11 0.569126 0.794558 0.217944
O O12 0.754609 0.560523 0.618340
O O13 0.749134 0.739156 0.807488
O O14 0.681809 0.989739 0.052840
O O15 0.500000 0.500000 0.000000
O O16 0.975763 0.135982 0.174468
O O17 0.000000 0.000000 0.000000
#
# Coordination Sequence:
#
# PCOD9073390 Si02
#       8
#     2   2   2   2   2   2   2   2
#     4   9  20  38  59  87 120 157 200 254 300 352
#     4  11  21  39  64  90 120 163 197 249 301 354
#     4  10  21  39  62  84 123 167 198 245 307 358
#     4  10  21  40  62  86 122 163 206 240 301 365
#     4  11  22  37  62  95 122 154 204 255 295 355
#     4  10  22  38  62  91 121 152 209 250 295 356
#     4   9  21  37  58  90 123 156 198 247 309 359
#     4  10  22  38  62  90 122 158 200 244 301 365
#
# _framework density 21.275773999999998
#
# number of rings (size 3 to 8) (size 9 to 14) (size 15 to 20)
#    0.000    2.000    1.250    1.500    5.250    0.500 
#    0.000    0.625   11.000    0.000    0.000    0.000 
#    0.000    0.000    0.000    0.000    0.000    0.000 
#
# Total GULP energy -89097.724691 kJ/mol
# GULP energy per Si atom -5568.607793 kJ/mol
# Density = 2.122735 g / cm^3
# Si number density = 21.275774 Si / 1000 Ang^3
#
#
#
# Elastic Constant Matrix: (Units=GPa)
#
#
# Indices 1 2 3 4 5 6 
#
# 1 71.9545 20.4967 20.5356 15.8541 23.1438 3.6043
# 2 20.4967 74.9581 25.3138 29.8935 0.5616 14.7700
# 3 20.5356 25.3138 47.2006 3.9626 -16.0937 6.0518
# 4 15.8541 29.8935 3.9626 32.8212 5.1213 3.2950
# 5 23.1438 0.5616 -16.0937 5.1213 22.6700 8.9616
# 6 3.6043 14.7700 6.0518 3.2950 8.9616 23.8310
#
#
#
# Elastic Compliance Matrix: (Units=1/GPa)
#
#
# Indices 1 2 3 4 5 6 
#
# 1 -0.090276 -0.003122 0.129648 0.006217 0.223255 -0.102149
# 2 -0.003122 0.029339 -0.007182 -0.024169 0.009140 -0.015983
# 3 0.129648 -0.007182 -0.144125 -0.007355 -0.283919 0.129227
# 4 0.006217 -0.024169 -0.007355 0.053170 -0.030966 0.020200
# 5 0.223255 0.009140 -0.283919 -0.030966 -0.461863 0.210634
# 6 -0.102149 -0.015983 0.129227 0.020200 0.210634 -0.047501
#
#
# Mechanical properties :
#
#
# Convention : Reuss Voigt Hill
#
# Bulk Modulus (GPa) = 29.73937 36.31174 33.02555
# Shear Modulus (GPa) = -5.62597 24.38221 9.37812
#
# Velocity S-wave (km/s) = -1.62790 3.38895 2.10177
# Velocity P-wave (km/s) = 3.23651 5.69364 4.63101
#
# Compressibility (1/GPa) = 0.03362546
#
# Stress axis : x y z
#
# Youngs Moduli (GPa) = -11.07714 34.08421 -6.93840
#
# Poissons Ratio (x) = 0.10640 0.89955
# Poissons Ratio (y) = -0.03458 -0.04983
# Poissons Ratio (z) = 1.43612 0.24479
#
# Static dielectric constant tensor:
#      x y z
#    x 1.738150 0.045320 0.007520 
#    y 0.045320 1.895030 -0.003360 
#    z 0.007520 -0.003360 1.763340 
# 
# From -- ./inp_files/260293.got.cif
#   From: 2010.05.17/outbox.ucp.g08.bks.cvg/sg2_131_cif.got.tgz:260293.got - 2010.06.11 11:32:03.
