data_PCOD9073982
_publ_section_title
;
Structure prediction by ZEFSAII (Michael W. Deem and Ramdas Pophale) SiO2 
 PCOD9073982
Probable space group: P -1
;
_chemical_formula_sum "Si O2"
_cell_formula_units_Z 16
_cell_length_a 18.000000
_cell_length_b 12.000000
_cell_length_c 9.000000
_cell_angle_alpha 140.000000
_cell_angle_beta 80.000000
_cell_angle_gamma 130.000000
_cell_volume 729.599496
_symmetry_space_group_name_H-M "P -1"
_symmetry_group_IT_number 2
_symmetry_cell_setting 'triclinic'
loop_
_space_group_symop_operation_xyz
x,y,z
-x,-y,-z
loop_
_atom_site_type_symbol
_atom_site_label
_atom_site_fract_x
_atom_site_fract_y
_atom_site_fract_z
Si Si1 0.272512 0.571539 0.345286
Si Si2 0.605044 0.548465 0.681114
Si Si3 0.803295 0.866954 0.675167
Si Si4 0.298410 0.484054 0.936146
Si Si5 0.070088 0.568244 0.886739
Si Si6 0.566788 0.808864 0.179981
Si Si7 0.911827 0.722261 0.636689
Si Si8 0.347527 0.959759 0.290420
O O1 0.323977 0.485218 0.303657
O O2 0.191237 0.519298 0.447743
O O3 0.377033 0.907685 0.613038
O O4 0.223765 0.416806 0.039999
O O5 0.682375 0.702328 0.653597
O O6 0.457195 0.213850 0.393863
O O7 0.599872 0.713132 0.955727
O O8 0.772795 0.771279 0.415904
O O9 0.850854 0.764875 0.604909
O O10 0.908159 0.214829 0.994888
O O11 0.421046 0.593749 0.043789
O O12 0.343442 0.745551 0.105875
O O13 0.034723 0.338344 0.548600
O O14 0.210317 0.765447 0.086487
O O15 0.000000 0.500000 0.000000
O O16 0.624493 0.894354 0.412406
O O17 0.000000 0.000000 0.000000
#
# Coordination Sequence:
#
# PCOD9073982 Si02
#       8
#     2   2   2   2   2   2   2   2
#     4  10  22  40  67  97 139 177 228 278 338 419
#     4  11  22  39  67 103 144 180 219 282 348 421
#     4  11  27  44  71 106 138 181 232 287 356 410
#     4  11  21  41  68 105 140 183 223 273 347 423
#     4  12  29  48  72 103 139 182 242 297 339 407
#     4  11  21  37  66 104 142 184 221 269 347 422
#     4  11  27  50  72  99 133 187 236 293 353 404
#     4  11  22  42  67 104 141 181 228 278 349 409
#
# _framework density 21.929839999999999
#
# number of rings (size 3 to 8) (size 9 to 14) (size 15 to 20)
#    0.000    1.000    3.750    2.625    3.500    7.500 
#    0.000    0.000    0.000    0.000    0.000    0.000 
#    0.000    0.000    0.000    0.000    0.000    0.000 
#
# Total GULP energy -89161.691244 kJ/mol
# GULP energy per Si atom -5572.605703 kJ/mol
# Density = 2.187993 g / cm^3
# Si number density = 21.929840 Si / 1000 Ang^3
#
#
#
# Elastic Constant Matrix: (Units=GPa)
#
#
# Indices 1 2 3 4 5 6 
#
# 1 47.9974 15.2666 21.0394 -6.2780 -33.9695 8.4721
# 2 15.2666 119.4281 18.6653 -5.2185 -18.5618 16.7369
# 3 21.0394 18.6653 97.7643 -18.7513 -27.0180 4.5952
# 4 -6.2780 -5.2185 -18.7513 38.1876 5.2439 -13.2084
# 5 -33.9695 -18.5618 -27.0180 5.2439 52.6018 -10.0802
# 6 8.4721 16.7369 4.5952 -13.2084 -10.0802 39.1246
#
#
#
# Elastic Compliance Matrix: (Units=1/GPa)
#
#
# Indices 1 2 3 4 5 6 
#
# 1 0.038953 -0.000846 -0.001191 0.002050 0.023830 -0.001102
# 2 -0.000846 0.009371 -0.001180 -0.000892 0.001556 -0.003587
# 3 -0.001191 -0.001180 0.013344 0.006395 0.005565 0.002788
# 4 0.002050 -0.000892 0.006395 0.032958 0.003140 0.011122
# 5 0.023830 0.001556 0.005565 0.003140 0.038349 0.004461
# 6 -0.001102 -0.003587 0.002788 0.011122 0.004461 0.031909
#
#
# Mechanical properties :
#
#
# Convention : Reuss Voigt Hill
#
# Bulk Modulus (GPa) = 18.10399 41.68136 29.89267
# Shear Modulus (GPa) = 26.35333 39.99736 33.17535
#
# Velocity S-wave (km/s) = 3.47033 4.27532 3.89369
# Velocity P-wave (km/s) = 4.93264 6.58932 5.82023
#
# Compressibility (1/GPa) = 0.05523645
#
# Stress axis : x y z
#
# Youngs Moduli (GPa) = 25.67166 106.70801 74.94135
#
# Poissons Ratio (x) = 0.09024 0.08925
# Poissons Ratio (y) = 0.02171 0.08840
# Poissons Ratio (z) = 0.03057 0.12587
#
# Static dielectric constant tensor:
#      x y z
#    x 1.831760 -0.031440 0.077200 
#    y -0.031440 2.002530 0.081560 
#    z 0.077200 0.081560 1.951940 
# 
# From -- ./inp_files/333331.got.cif
#   From: 2010.05.17/outbox.ucp.g08.bks.cvg/sg2_167_cif.got.tgz:333331.got - 2010.06.11 11:32:03.
