data_PCOD9073165
_publ_section_title
;
Structure prediction by ZEFSAII (Michael W. Deem and Ramdas Pophale) SiO2 
 PCOD9073165
Probable space group: P -1
;
_chemical_formula_sum "Si O2"
_cell_formula_units_Z 16
_cell_length_a 12.000000
_cell_length_b 9.000000
_cell_length_c 9.000000
_cell_angle_alpha 130.000000
_cell_angle_beta 90.000000
_cell_angle_gamma 80.000000
_cell_volume 725.212580
_symmetry_space_group_name_H-M "P -1"
_symmetry_group_IT_number 2
_symmetry_cell_setting 'triclinic'
loop_
_space_group_symop_operation_xyz
x,y,z
-x,-y,-z
loop_
_atom_site_type_symbol
_atom_site_label
_atom_site_fract_x
_atom_site_fract_y
_atom_site_fract_z
Si Si1 0.107486 0.325593 0.709208
Si Si2 0.447509 0.083546 0.712768
Si Si3 0.325845 0.503609 0.916940
Si Si4 0.650978 0.847940 0.763455
Si Si5 0.978954 0.750931 0.014056
Si Si6 0.177341 0.932075 0.246401
Si Si7 0.726821 0.991772 0.140830
Si Si8 0.623064 0.448841 0.384640
O O1 0.223678 0.398914 0.794100
O O2 0.048691 0.290796 0.841408
O O3 0.129105 0.114146 0.482395
O O4 0.024347 0.538887 0.792550
O O5 0.418457 0.324208 0.878353
O O6 0.500000 0.000000 0.500000
O O7 0.536223 0.961148 0.752964
O O8 0.325145 0.031693 0.711619
O O9 0.385577 0.543938 0.789054
O O10 0.262581 0.708674 0.134863
O O11 0.679565 0.622184 0.560667
O O12 0.744721 0.962844 0.785202
O O13 0.654267 0.878308 0.958780
O O14 0.077021 0.873771 0.111909
O O15 0.858229 0.884781 0.047976
O O16 0.696371 0.227550 0.269829
O O17 0.500000 0.500000 0.500000
#
# Coordination Sequence:
#
# PCOD9073165 Si02
#       8
#     2   2   2   2   2   2   2   2
#     4  10  20  45  71 102 137 180 233 298 344 409
#     4  12  23  45  76 100 138 187 238 289 345 409
#     4  11  22  43  71 105 135 184 231 293 345 408
#     4  12  26  44  70 102 144 189 226 289 348 419
#     4  10  24  42  73 101 141 182 232 292 352 407
#     4  11  23  43  72 101 141 179 234 285 351 417
#     4  12  26  47  68 107 145 181 231 288 354 417
#     4  12  24  45  70  97 144 187 226 282 353 409
#
# _framework density 22.062495999999999
#
# number of rings (size 3 to 8) (size 9 to 14) (size 15 to 20)
#    0.000    0.750    6.250    0.750    0.000    2.000 
#    2.250    1.250    0.000    0.000    0.000    0.000 
#    0.000    0.000    0.000    0.000    0.000    0.000 
#
# Total GULP energy -89249.370685 kJ/mol
# GULP energy per Si atom -5578.085668 kJ/mol
# Density = 2.201228 g / cm^3
# Si number density = 22.062496 Si / 1000 Ang^3
#
#
#
# Elastic Constant Matrix: (Units=GPa)
#
#
# Indices 1 2 3 4 5 6 
#
# 1 52.3612 12.2380 14.3011 4.9895 -10.7531 -7.6403
# 2 12.2380 100.3587 44.3479 45.8794 -7.1294 -13.8283
# 3 14.3011 44.3479 165.7239 54.3496 -12.1092 -19.3734
# 4 4.9895 45.8794 54.3496 40.8918 -1.7266 -11.2037
# 5 -10.7531 -7.1294 -12.1092 -1.7266 36.1076 9.5894
# 6 -7.6403 -13.8283 -19.3734 -11.2037 9.5894 39.7232
#
#
#
# Elastic Compliance Matrix: (Units=1/GPa)
#
#
# Indices 1 2 3 4 5 6 
#
# 1 0.021169 -0.002870 -0.001642 0.003606 0.004793 0.002132
# 2 -0.002870 0.022838 0.004688 -0.031364 0.003744 -0.000065
# 3 -0.001642 0.004688 0.012041 -0.020780 0.003343 0.000521
# 4 0.003606 -0.031364 -0.020780 0.088299 -0.009694 0.006886
# 5 0.004793 0.003744 0.003343 -0.009694 0.032292 -0.006674
# 6 0.002132 -0.000065 0.000521 0.006886 -0.006674 0.029369
#
#
# Mechanical properties :
#
#
# Convention : Reuss Voigt Hill
#
# Bulk Modulus (GPa) = 17.73040 51.13530 34.43285
# Shear Modulus (GPa) = 22.27615 39.84831 31.06223
#
# Velocity S-wave (km/s) = 3.18100 4.25450 3.75630
# Velocity P-wave (km/s) = 4.64172 6.88202 5.86974
#
# Compressibility (1/GPa) = 0.05640029
#
# Stress axis : x y z
#
# Youngs Moduli (GPa) = 47.23854 43.78747 83.04829
#
# Poissons Ratio (x) = 0.12567 0.13635
# Poissons Ratio (y) = 0.13558 -0.38933
# Poissons Ratio (z) = 0.07756 -0.20528
#
# Static dielectric constant tensor:
#      x y z
#    x 1.895170 0.005040 0.004860 
#    y 0.005040 1.912670 -0.023140 
#    z 0.004860 -0.023140 1.830490 
# 
# From -- ./inp_files/245954.got.cif
#   From: 2010.05.17/outbox.ucp.g08.bks.cvg/sg2_123_cif.got.tgz:245954.got - 2010.06.11 11:32:03.
