data_PCOD9073869
_publ_section_title
;
Structure prediction by ZEFSAII (Michael W. Deem and Ramdas Pophale) SiO2 
 PCOD9073869
Probable space group: P -1
;
_chemical_formula_sum "Si O2"
_cell_formula_units_Z 16
_cell_length_a 15.000000
_cell_length_b 9.000000
_cell_length_c 9.000000
_cell_angle_alpha 50.000000
_cell_angle_beta 110.000000
_cell_angle_gamma 80.000000
_cell_volume 732.374747
_symmetry_space_group_name_H-M "P -1"
_symmetry_group_IT_number 2
_symmetry_cell_setting 'triclinic'
loop_
_space_group_symop_operation_xyz
x,y,z
-x,-y,-z
loop_
_atom_site_type_symbol
_atom_site_label
_atom_site_fract_x
_atom_site_fract_y
_atom_site_fract_z
Si Si1 0.188133 0.076131 0.378607
Si Si2 0.277273 0.362456 0.733758
Si Si3 0.942815 0.112267 0.737346
Si Si4 0.850546 0.041198 0.255618
Si Si5 0.381860 0.539183 0.865944
Si Si6 0.387324 0.392742 0.526332
Si Si7 0.342633 0.871513 0.128532
Si Si8 0.733241 0.568310 0.869420
O O1 0.220057 0.262064 0.230078
O O2 0.107105 0.039145 0.249299
O O3 0.134584 0.102580 0.495283
O O4 0.299632 0.814828 0.621121
O O5 0.159741 0.614099 0.506530
O O6 0.375594 0.408066 0.804432
O O7 0.315763 0.302956 0.623810
O O8 0.286996 0.144305 0.961461
O O9 0.041919 0.089744 0.705726
O O10 0.000000 0.000000 0.000000
O O11 0.732943 0.100988 0.075348
O O12 0.833096 0.293819 0.102707
O O13 0.500000 0.500000 0.000000
O O14 0.332860 0.434223 0.021041
O O15 0.339667 0.668583 0.347133
O O16 0.522313 0.240036 0.730256
O O17 0.355860 0.380543 0.345309
#
# Coordination Sequence:
#
# PCOD9073869 Si02
#       8
#     2   2   2   2   2   2   2   2
#     4  10  23  43  67  91 126 176 218 262 325 389
#     4  11  24  41  64  93 130 173 212 262 332 384
#     4  11  24  44  65  97 132 170 222 283 324 374
#     4  10  22  42  66  93 130 168 224 270 315 384
#     4  10  25  39  60  96 138 165 207 265 326 394
#     4  10  22  39  66  96 130 166 218 262 312 394
#     4  10  22  38  65  96 126 170 215 262 317 387
#     4  10  22  42  64  96 128 172 217 259 326 391
#
# _framework density 21.846738999999999
#
# number of rings (size 3 to 8) (size 9 to 14) (size 15 to 20)
#    0.000    1.750    0.000    3.000    8.750    4.500 
#    0.000    3.750    0.000    0.000    0.000    0.000 
#    0.000    0.000    0.000    0.000    0.000    0.000 
#
# Total GULP energy -89154.599208 kJ/mol
# GULP energy per Si atom -5572.162450 kJ/mol
# Density = 2.179701 g / cm^3
# Si number density = 21.846739 Si / 1000 Ang^3
#
#
#
# Elastic Constant Matrix: (Units=GPa)
#
#
# Indices 1 2 3 4 5 6 
#
# 1 99.4087 39.7383 60.6142 -2.7598 -13.8968 20.5409
# 2 39.7383 64.3888 44.7216 -10.9737 -9.8736 24.7462
# 3 60.6142 44.7216 110.9061 -10.4707 -9.8903 16.5498
# 4 -2.7598 -10.9737 -10.4707 32.3910 18.3903 -5.4542
# 5 -13.8968 -9.8736 -9.8903 18.3903 41.1978 -8.3198
# 6 20.5409 24.7462 16.5498 -5.4542 -8.3198 38.2684
#
#
#
# Elastic Compliance Matrix: (Units=1/GPa)
#
#
# Indices 1 2 3 4 5 6 
#
# 1 0.017629 -0.004921 -0.007330 -0.005887 0.005060 -0.002849
# 2 -0.004921 0.028778 -0.006611 0.005953 -0.001552 -0.012597
# 3 -0.007330 -0.006611 0.015630 0.003278 -0.001444 0.001603
# 4 -0.005887 0.005953 0.003278 0.044627 -0.019699 -0.000029
# 5 0.005060 -0.001552 -0.001444 -0.019699 0.034796 0.003669
# 6 -0.002849 -0.012597 0.001603 -0.000029 0.003669 0.035907
#
#
# Mechanical properties :
#
#
# Convention : Reuss Voigt Hill
#
# Bulk Modulus (GPa) = 41.13185 62.76129 51.94657
# Shear Modulus (GPa) = 22.40200 31.01343 26.70772
#
# Velocity S-wave (km/s) = 3.20569 3.77183 3.50022
# Velocity P-wave (km/s) = 5.70703 6.91081 6.33757
#
# Compressibility (1/GPa) = 0.02431206
#
# Stress axis : x y z
#
# Youngs Moduli (GPa) = 56.72583 34.74907 63.97994
#
# Poissons Ratio (x) = 0.17101 0.46895
# Poissons Ratio (y) = 0.27917 0.42298
# Poissons Ratio (z) = 0.41578 0.22973
#
# Static dielectric constant tensor:
#      x y z
#    x 1.774410 -0.050660 -0.011190 
#    y -0.050660 1.907920 0.047880 
#    z -0.011190 0.047880 1.797530 
# 
# From -- ./inp_files/297520.got.cif
#   From: 2010.05.17/outbox.ucp.g08.bks.cvg/sg2_149_cif.got.tgz:297520.got - 2010.06.11 11:32:03.
