data_PCOD9073304
_publ_section_title
;
Structure prediction by ZEFSAII (Michael W. Deem and Ramdas Pophale) SiO2 
 PCOD9073304
Probable space group: P -1
;
_chemical_formula_sum "Si O2"
_cell_formula_units_Z 16
_cell_length_a 12.000000
_cell_length_b 12.000000
_cell_length_c 12.000000
_cell_angle_alpha 70.000000
_cell_angle_beta 120.000000
_cell_angle_gamma 150.000000
_cell_volume 731.538865
_symmetry_space_group_name_H-M "P -1"
_symmetry_group_IT_number 2
_symmetry_cell_setting 'triclinic'
loop_
_space_group_symop_operation_xyz
x,y,z
-x,-y,-z
loop_
_atom_site_type_symbol
_atom_site_label
_atom_site_fract_x
_atom_site_fract_y
_atom_site_fract_z
Si Si1 0.006367 0.433132 0.640639
Si Si2 0.574554 0.201815 0.657679
Si Si3 0.848459 0.760853 0.990083
Si Si4 0.962801 0.180236 0.552631
Si Si5 0.376419 0.842593 0.840843
Si Si6 0.211926 0.986546 0.921249
Si Si7 0.944362 0.670258 0.706567
Si Si8 0.319959 0.339370 0.822436
O O1 0.772680 0.295167 0.642788
O O2 0.996591 0.296006 0.632883
O O3 0.000000 0.500000 0.500000
O O4 0.257203 0.657462 0.755985
O O5 0.686608 0.408550 0.696159
O O6 0.331155 0.056614 0.523733
O O7 0.504536 0.048737 0.765444
O O8 0.602994 0.594879 0.852934
O O9 0.032294 0.820995 0.993641
O O10 0.762766 0.659199 0.105539
O O11 0.000000 0.000000 0.000000
O O12 0.045325 0.291218 0.433022
O O13 0.135938 0.211384 0.670955
O O14 0.135950 0.714883 0.814643
O O15 0.560724 0.923996 0.987780
O O16 0.042769 0.848237 0.774559
O O17 0.321935 0.203791 0.904507
#
# Coordination Sequence:
#
# PCOD9073304 Si02
#       8
#     2   2   2   2   2   2   2   2
#     4  11  20  36  60  95 125 152 203 257 313 358
#     4  10  21  38  59  92 120 160 203 251 314 354
#     4   9  22  41  59  89 118 160 207 247 299 352
#     4  11  23  38  64  90 124 162 199 255 305 366
#     4  10  23  37  62  94 120 160 202 254 311 360
#     4  11  24  42  63  88 127 165 207 246 299 373
#     4  10  23  42  60  92 126 159 206 252 301 365
#     4  10  24  42  62  89 126 159 206 255 302 354
#
# _framework density 21.871701999999999
#
# number of rings (size 3 to 8) (size 9 to 14) (size 15 to 20)
#    0.000    1.750    3.750    0.750    7.000    6.000 
#    0.000    1.250    0.000    0.000    0.000    0.000 
#    0.000    0.000    0.000    0.000    0.000    0.000 
#
# Total GULP energy -89121.751025 kJ/mol
# GULP energy per Si atom -5570.109439 kJ/mol
# Density = 2.182192 g / cm^3
# Si number density = 21.871702 Si / 1000 Ang^3
#
#
#
# Elastic Constant Matrix: (Units=GPa)
#
#
# Indices 1 2 3 4 5 6 
#
# 1 17.3642 13.1066 11.8147 3.8021 6.6754 -8.2327
# 2 13.1066 93.4051 37.6768 18.1854 -5.0252 -10.6538
# 3 11.8147 37.6768 115.9321 23.0593 21.1752 -13.8832
# 4 3.8021 18.1854 23.0593 -22.4846 -35.4972 -20.3845
# 5 6.6754 -5.0252 21.1752 -35.4972 13.9168 1.6275
# 6 -8.2327 -10.6538 -13.8832 -20.3845 1.6275 13.1219
#
#
#
# Elastic Compliance Matrix: (Units=1/GPa)
#
#
# Indices 1 2 3 4 5 6 
#
# 1 0.145865 -0.019518 0.016203 0.018333 -0.070109 0.129988
# 2 -0.019518 0.016100 -0.006744 -0.005127 0.014235 -0.016041
# 3 0.016203 -0.006744 0.014850 0.007816 -0.016918 0.034643
# 4 0.018333 -0.005127 0.007816 -0.002597 -0.030964 0.015416
# 5 -0.070109 0.014235 -0.016918 -0.030964 0.069911 -0.107101
# 6 0.129988 -0.016041 0.034643 0.015416 -0.107101 0.218624
#
#
# Mechanical properties :
#
#
# Convention : Reuss Voigt Hill
#
# Bulk Modulus (GPa) = 6.38178 39.09974 22.74076
# Shear Modulus (GPa) = 9.34399 11.85104 10.59752
#
# Velocity S-wave (km/s) = 2.06917 2.33028 2.20359
# Velocity P-wave (km/s) = 2.93816 5.01557 4.11027
#
# Compressibility (1/GPa) = 0.15669621
#
# Stress axis : x y z
#
# Youngs Moduli (GPa) = 6.85567 62.11247 67.33919
#
# Poissons Ratio (x) = 1.21233 -1.09113
# Poissons Ratio (y) = 0.13381 0.45416
# Poissons Ratio (z) = -0.11109 0.41891
#
# Static dielectric constant tensor:
#      x y z
#    x 2.010450 -0.056120 0.024370 
#    y -0.056120 1.874320 0.028820 
#    z 0.024370 0.028820 1.829480 
# 
# From -- ./inp_files/69205.got.cif
#   From: 2010.05.17/outbox.ucp.g08.bks.cvg/sg2_35_cif.got.tgz:69205.got - 2010.06.11 11:32:03.
