data_PCOD9073612
_publ_section_title
;
Structure prediction by ZEFSAII (Michael W. Deem and Ramdas Pophale) SiO2 
 PCOD9073612
Probable space group: P -1
;
_chemical_formula_sum "Si O2"
_cell_formula_units_Z 16
_cell_length_a 9.000000
_cell_length_b 12.000000
_cell_length_c 15.000000
_cell_angle_alpha 70.000000
_cell_angle_beta 30.000000
_cell_angle_gamma 80.000000
_cell_volume 734.803614
_symmetry_space_group_name_H-M "P -1"
_symmetry_group_IT_number 2
_symmetry_cell_setting 'triclinic'
loop_
_space_group_symop_operation_xyz
x,y,z
-x,-y,-z
loop_
_atom_site_type_symbol
_atom_site_label
_atom_site_fract_x
_atom_site_fract_y
_atom_site_fract_z
Si Si1 0.252936 0.282114 0.449948
Si Si2 0.837540 0.984528 0.347472
Si Si3 0.348549 0.748703 0.346241
Si Si4 0.609663 0.258651 0.100274
Si Si5 0.992249 0.769512 0.699083
Si Si6 0.786795 0.010865 0.026247
Si Si7 0.611495 0.491794 0.547615
Si Si8 0.849675 0.509789 0.839173
O O1 0.175812 0.141888 0.561339
O O2 0.518737 0.283326 0.240301
O O3 0.363840 0.387657 0.438361
O O4 0.948734 0.295476 0.551500
O O5 0.500000 0.000000 0.500000
O O6 0.990121 0.110395 0.285859
O O7 0.012198 0.970037 0.171375
O O8 0.260970 0.783526 0.482616
O O9 0.520753 0.639650 0.298295
O O10 0.540079 0.880784 0.175655
O O11 0.311945 0.253316 0.195964
O O12 0.865222 0.382030 0.908707
O O13 0.674618 0.129893 0.078731
O O14 0.974498 0.638414 0.791545
O O15 0.000000 0.000000 0.000000
O O16 0.500000 0.500000 0.500000
O O17 0.960099 0.481986 0.352473
O O18 0.500000 0.500000 0.000000
#
# Coordination Sequence:
#
# PCOD9073612 Si02
#       8
#     2   2   2   2   2   2   2   2
#     4  11  24  43  69  97 133 179 221 271 333 404
#     4  12  26  41  64  94 134 174 222 275 332 392
#     4  10  23  43  67  96 136 176 221 268 332 400
#     4  10  21  41  66  96 130 171 217 268 323 392
#     4   9  20  40  65  94 130 171 214 265 327 389
#     4  12  26  41  63  95 136 172 222 277 328 390
#     4  11  25  42  70 102 135 176 221 283 341 391
#     4   9  20  39  66  94 132 173 216 267 324 397
#
# _framework density 21.774525000000001
#
# number of rings (size 3 to 8) (size 9 to 14) (size 15 to 20)
#    0.000    1.500    0.000    4.875    7.000    7.000 
#    0.000    0.625    0.000    0.000    0.000    0.000 
#    0.000    0.000    0.000    0.000    0.000    0.000 
#
# Total GULP energy -89195.442967 kJ/mol
# GULP energy per Si atom -5574.715185 kJ/mol
# Density = 2.172497 g / cm^3
# Si number density = 21.774525 Si / 1000 Ang^3
#
#
#
# Elastic Constant Matrix: (Units=GPa)
#
#
# Indices 1 2 3 4 5 6 
#
# 1 81.5655 53.9521 19.2465 -5.1441 3.9155 12.8095
# 2 53.9521 199.5255 29.4269 -20.9844 -0.2355 21.8724
# 3 19.2465 29.4269 61.6335 -6.6931 0.2503 -4.1216
# 4 -5.1441 -20.9844 -6.6931 30.4098 -12.6550 16.0076
# 5 3.9155 -0.2355 0.2503 -12.6550 8.5998 11.1620
# 6 12.8095 21.8724 -4.1216 16.0076 11.1620 36.3225
#
#
#
# Elastic Compliance Matrix: (Units=1/GPa)
#
#
# Indices 1 2 3 4 5 6 
#
# 1 0.016022 -0.003414 -0.003556 0.000283 -0.002524 -0.003347
# 2 -0.003414 0.004904 -0.001549 -0.006308 -0.014403 0.005281
# 3 -0.003556 -0.001549 0.018531 0.003514 0.004409 0.001386
# 4 0.000283 -0.006308 0.003514 -0.018131 -0.071155 0.033954
# 5 -0.002524 -0.014403 0.004409 -0.071155 -0.069137 0.062668
# 6 -0.003347 0.005281 0.001386 0.033954 0.062668 -0.008533
#
#
# Mechanical properties :
#
#
# Convention : Reuss Voigt Hill
#
# Bulk Modulus (GPa) = 44.60365 60.88617 52.74491
# Shear Modulus (GPa) = -157.07010 31.07303 -62.99853
#
# Velocity S-wave (km/s) = -8.50243 3.78171 -5.38470
# Velocity P-wave (km/s) = 8.70975 6.86231 3.79266
#
# Compressibility (1/GPa) = 0.02241969
#
# Stress axis : x y z
#
# Youngs Moduli (GPa) = 62.41333 203.90600 53.96317
#
# Poissons Ratio (x) = 0.69619 0.19189
# Poissons Ratio (y) = 0.21310 0.08357
# Poissons Ratio (z) = 0.22194 0.31579
#
# Static dielectric constant tensor:
#      x y z
#    x 1.787720 0.025450 -0.042160 
#    y 0.025450 1.572920 0.007840 
#    z -0.042160 0.007840 1.832990 
# 
# From -- ./inp_files/500231.got.cif
#   From: 2010.05.17/outbox.ucp.g08.bks.cvg/sg2_251_cif.got.tgz:500231.got - 2010.06.11 11:32:03.
