data_PCOD9073119
_publ_section_title
;
Structure prediction by ZEFSAII (Michael W. Deem and Ramdas Pophale) SiO2 
 PCOD9073119
Probable space group: P -1
;
_chemical_formula_sum "Si O2"
_cell_formula_units_Z 16
_cell_length_a 9.000000
_cell_length_b 24.000000
_cell_length_c 6.000000
_cell_angle_alpha 90.000000
_cell_angle_beta 60.000000
_cell_angle_gamma 130.000000
_cell_volume 752.153660
_symmetry_space_group_name_H-M "P -1"
_symmetry_group_IT_number 2
_symmetry_cell_setting 'triclinic'
loop_
_space_group_symop_operation_xyz
x,y,z
-x,-y,-z
loop_
_atom_site_type_symbol
_atom_site_label
_atom_site_fract_x
_atom_site_fract_y
_atom_site_fract_z
Si Si1 0.843314 0.380393 0.160029
Si Si2 0.789533 0.491552 0.761562
Si Si3 0.392301 0.760426 0.313910
Si Si4 0.204776 0.092286 0.677834
Si Si5 0.082012 0.368328 0.590971
Si Si6 0.759303 0.024463 0.339781
Si Si7 0.811100 0.817996 0.682418
Si Si8 0.386710 0.341092 0.322070
O O1 0.723096 0.307123 0.415089
O O2 0.619497 0.369098 0.276230
O O3 0.089229 0.466513 0.088684
O O4 0.932920 0.368086 0.881745
O O5 0.780193 0.549429 0.651508
O O6 0.000000 0.500000 0.500000
O O7 0.516706 0.396746 0.998599
O O8 0.583103 0.849725 0.286345
O O9 0.139176 0.718707 0.375952
O O10 0.568073 0.764510 0.026340
O O11 0.240329 0.147177 0.463177
O O12 0.253579 0.041618 0.546024
O O13 0.930847 0.045582 0.994207
O O14 0.271489 0.366606 0.531772
O O15 0.941641 0.105535 0.360232
O O16 0.500000 0.000000 0.500000
O O17 0.809490 0.756172 0.580256
#
# Coordination Sequence:
#
# PCOD9073119 Si02
#       8
#     2   2   2   2   2   2   2   2
#     4  11  22  45  62  92 130 170 211 263 318 369
#     4  11  23  44  67  88 131 173 211 266 319 370
#     4  10  20  42  65  90 133 166 212 261 319 370
#     4  10  21  43  66  94 129 168 207 257 318 383
#     4  11  24  40  62  95 126 173 214 266 314 368
#     4  10  24  42  67  99 126 164 210 260 316 380
#     4  11  22  44  67  92 132 170 208 261 322 376
#     4  12  23  41  64  95 127 167 218 262 315 377
#
# _framework density 21.272248999999999
#
# number of rings (size 3 to 8) (size 9 to 14) (size 15 to 20)
#    0.000    1.250    3.750    1.875    1.750    1.000 
#   13.500    0.000    0.000    0.000    0.000    0.000 
#    0.000    0.000    0.000    0.000    0.000    0.000 
#
# Total GULP energy -89190.615890 kJ/mol
# GULP energy per Si atom -5574.413493 kJ/mol
# Density = 2.122383 g / cm^3
# Si number density = 21.272249 Si / 1000 Ang^3
#
#
#
# Elastic Constant Matrix: (Units=GPa)
#
#
# Indices 1 2 3 4 5 6 
#
# 1 106.7456 37.1700 -26.1548 -0.6695 -25.4017 14.6118
# 2 37.1700 91.0851 -41.5768 -25.8273 -1.2278 17.0405
# 3 -26.1548 -41.5768 -228.0831 -57.8424 -12.3210 164.3859
# 4 -0.6695 -25.8273 -57.8424 2.7968 0.6961 25.7351
# 5 -25.4017 -1.2278 -12.3210 0.6961 20.2519 13.9987
# 6 14.6118 17.0405 164.3859 25.7351 13.9987 -70.6269
#
#
#
# Elastic Compliance Matrix: (Units=1/GPa)
#
#
# Indices 1 2 3 4 5 6 
#
# 1 -0.399140 0.455494 0.121852 1.276066 -0.861103 0.605234
# 2 0.455494 -0.502074 -0.137812 -1.422520 0.971444 -0.673455
# 3 0.121852 -0.137812 -0.029750 -0.385107 0.255090 -0.167051
# 4 1.276066 -1.422520 -0.385107 -3.921608 2.706127 -1.868153
# 5 -0.861103 0.971444 0.255090 2.706127 -1.794610 1.280320
# 6 0.605234 -0.673455 -0.167051 -1.868153 1.280320 -0.867201
#
#
# Mechanical properties :
#
#
# Convention : Reuss Voigt Hill
#
# Bulk Modulus (GPa) = -19.26945 -10.15285 -14.71115
# Shear Modulus (GPa) = -0.59448 -9.49502 -5.04475
#
# Velocity S-wave (km/s) = -0.52921 -2.11501 -1.54164
# Velocity P-wave (km/s) = 3.07434 3.27834 3.17798
#
# Compressibility (1/GPa) = -0.05189563
#
# Stress axis : x y z
#
# Youngs Moduli (GPa) = -2.50539 -1.99174 -33.61289
#
# Poissons Ratio (x) = 0.90722 4.09579
# Poissons Ratio (y) = 1.14119 -4.63224
# Poissons Ratio (z) = 0.30529 -0.27448
#
# Static dielectric constant tensor:
#      x y z
#    x 0.000000 0.000000 0.000000 
#    y 0.000000 0.000000 0.000000 
#    z 0.000000 0.000000 0.000000 
# 
# From -- ./inp_files/55494.got.cif
#   From: 2010.05.17/outbox.ucp.g08.bks.cvg/sg2_28_cif.got.tgz:55494.got - 2010.06.11 11:32:03.
