data_PCOD9073174
_publ_section_title
;
Structure prediction by ZEFSAII (Michael W. Deem and Ramdas Pophale) SiO2 
 PCOD9073174
Probable space group: P -1
;
_chemical_formula_sum "Si O2"
_cell_formula_units_Z 16
_cell_length_a 18.000000
_cell_length_b 21.000000
_cell_length_c 9.000000
_cell_angle_alpha 150.000000
_cell_angle_beta 140.000000
_cell_angle_gamma 30.000000
_cell_volume 848.746679
_symmetry_space_group_name_H-M "P -1"
_symmetry_group_IT_number 2
_symmetry_cell_setting 'triclinic'
loop_
_space_group_symop_operation_xyz
x,y,z
-x,-y,-z
loop_
_atom_site_type_symbol
_atom_site_label
_atom_site_fract_x
_atom_site_fract_y
_atom_site_fract_z
Si Si1 0.015819 0.585775 0.053991
Si Si2 0.526761 0.771489 0.640392
Si Si3 0.234619 0.436836 0.673846
Si Si4 0.364396 0.993999 0.300486
Si Si5 0.572093 0.308851 0.386622
Si Si6 0.311361 0.086020 0.741466
Si Si7 0.093173 0.319273 0.389253
Si Si8 0.716772 0.437858 0.717724
O O1 0.143017 0.605519 0.253078
O O2 0.858437 0.767675 0.178648
O O3 0.052021 0.458869 0.724846
O O4 0.000000 0.500000 0.000000
O O5 0.652184 0.635122 0.437307
O O6 0.457329 0.717711 0.541581
O O7 0.397195 0.934229 0.680039
O O8 0.609494 0.829591 0.971144
O O9 0.182292 0.328168 0.410401
O O10 0.071781 0.618762 0.776689
O O11 0.307878 0.440209 0.942937
O O12 0.500000 0.000000 0.500000
O O13 0.328759 0.012941 0.458409
O O14 0.212733 0.145367 0.294859
O O15 0.407336 0.832902 0.964128
O O16 0.702398 0.316809 0.549422
O O17 0.417322 0.476745 0.432392
#
# Coordination Sequence:
#
# PCOD9073174 Si02
#       8
#     2   2   2   2   2   2   2   2
#     4  11  19  38  64  92 117 155 200 252 295 353
#     4  11  22  36  60  92 122 158 197 253 301 354
#     4  10  21  38  58  90 123 153 196 256 298 357
#     4  12  21  37  60  88 121 160 201 249 299 352
#     4  11  24  41  62  85 120 167 203 242 302 369
#     4  11  22  34  59  95 123 149 202 255 300 348
#     4  10  21  33  60  91 121 152 198 250 310 346
#     4  10  24  43  61  86 122 161 201 246 304 365
#
# _framework density 18.851326
#
# number of rings (size 3 to 8) (size 9 to 14) (size 15 to 20)
#    0.000    1.250    3.750    3.750    1.750    0.500 
#    0.000    3.125    0.000    0.000    0.000    0.000 
#    0.000    0.000    0.000    0.000    0.000    0.000 
#
# Total GULP energy -89137.747665 kJ/mol
# GULP energy per Si atom -5571.109229 kJ/mol
# Density = 1.880842 g / cm^3
# Si number density = 18.851326 Si / 1000 Ang^3
#
#
#
# Elastic Constant Matrix: (Units=GPa)
#
#
# Indices 1 2 3 4 5 6 
#
# 1 172.7667 40.9766 33.8393 4.7112 9.3779 -0.7335
# 2 40.9766 88.9761 -2.8161 4.0001 8.1361 -6.3563
# 3 33.8393 -2.8161 38.1769 2.7518 0.1757 -1.6099
# 4 4.7112 4.0001 2.7518 19.5220 -2.6929 -3.4877
# 5 9.3779 8.1361 0.1757 -2.6929 33.7840 -0.6560
# 6 -0.7335 -6.3563 -1.6099 -3.4877 -0.6560 32.4674
#
#
#
# Elastic Compliance Matrix: (Units=1/GPa)
#
#
# Indices 1 2 3 4 5 6 
#
# 1 0.008325 -0.004006 -0.007678 -0.000483 -0.001365 -0.001056
# 2 -0.004006 0.013743 0.004856 -0.002407 -0.002366 0.002534
# 3 -0.007678 0.004856 0.033691 -0.003442 0.000553 0.002089
# 4 -0.000483 -0.002407 -0.003442 0.053965 0.005135 0.005248
# 5 -0.001365 -0.002366 0.000553 0.005135 0.030969 0.000711
# 6 -0.001056 0.002534 0.002089 0.005248 0.000711 0.031954
#
#
# Mechanical properties :
#
#
# Convention : Reuss Voigt Hill
#
# Bulk Modulus (GPa) = 23.75121 49.32435 36.53778
# Shear Modulus (GPa) = 24.95785 32.34933 28.65359
#
# Velocity S-wave (km/s) = 3.64253 4.14699 3.90292
# Velocity P-wave (km/s) = 5.50612 7.01083 6.30353
#
# Compressibility (1/GPa) = 0.04210312
#
# Stress axis : x y z
#
# Youngs Moduli (GPa) = 120.12149 72.76380 29.68129
#
# Poissons Ratio (x) = 0.29148 0.22789
# Poissons Ratio (y) = 0.48119 -0.14412
# Poissons Ratio (z) = 0.92229 -0.35332
#
# Static dielectric constant tensor:
#      x y z
#    x 1.680300 0.030570 0.006360 
#    y 0.030570 1.731760 -0.034340 
#    z 0.006360 -0.034340 1.656170 
# 
# From -- ./inp_files/263508.got.cif
#   From: 2010.05.17/outbox.ucp.g08.bks.cvg/sg2_132_cif.got.tgz:263508.got - 2010.06.11 11:32:03.
