data_PCOD9073019
_publ_section_title
;
Structure prediction by ZEFSAII (Michael W. Deem and Ramdas Pophale) SiO2 
 PCOD9073019
Probable space group: P -1
;
_chemical_formula_sum "Si O2"
_cell_formula_units_Z 16
_cell_length_a 9.754388
_cell_length_b 11.454463
_cell_length_c 20.142295
_cell_angle_alpha 30.028935
_cell_angle_beta 44.064854
_cell_angle_gamma 63.901508
_cell_volume 667.383735
_symmetry_space_group_name_H-M "P -1"
_symmetry_group_IT_number 2
_symmetry_cell_setting 'triclinic'
loop_
_space_group_symop_operation_xyz
x,y,z
-x,-y,-z
loop_
_atom_site_type_symbol
_atom_site_label
_atom_site_fract_x
_atom_site_fract_y
_atom_site_fract_z
Si Si1 0.171315 0.872295 0.901799
Si Si2 0.429117 0.814570 0.970638
Si Si3 0.945500 0.262613 0.249084
Si Si4 0.242778 0.226323 0.274918
Si Si5 0.596500 0.125977 0.546909
Si Si6 0.234655 0.396290 0.660869
Si Si7 0.957419 0.115305 0.674957
Si Si8 0.121925 0.654429 0.281714
O O1 0.303311 0.861323 0.928845
O O2 0.338604 0.037335 0.699356
O O3 0.088893 0.071088 0.860727
O O4 0.006495 0.573427 0.074657
O O5 0.703962 0.000990 0.787165
O O6 0.362548 0.501901 0.139132
O O7 0.320065 0.819691 0.076992
O O8 0.160946 0.291227 0.203303
O O9 0.702581 0.096736 0.455879
O O10 0.954047 0.091376 0.268816
O O11 0.379792 0.073373 0.310720
O O12 0.000000 0.000000 0.500000
O O13 0.753411 0.447765 0.352699
O O14 0.500000 0.500000 0.500000
O O15 0.114990 0.500198 0.601484
O O16 0.913398 0.165175 0.741034
O O17 0.133525 0.413815 0.434354
#
# Coordination Sequence:
#
# PCOD9073019 Si02
#       8
#     2   2   2   2   2   2   2   2
#     4  10  21  33  55  83 109 140 182 232 278 325
#     4  11  21  36  59  87 116 146 184 232 286 339
#     4  10  19  32  52  79 110 143 181 223 275 329
#     4   9  16  28  51  80 107 135 173 224 279 322
#     4  10  18  31  52  79 109 139 175 229 281 322
#     4  10  20  37  59  82 110 145 188 236 281 328
#     4  11  23  38  57  83 115 153 189 226 278 342
#     4  11  23  39  58  81 115 152 189 232 279 333
#
# _framework density 23.974214
#
# number of rings (size 3 to 8) (size 9 to 14) (size 15 to 20)
#    0.000    1.750    0.000    7.875    0.000    4.000 
#    0.000    0.625    0.000    3.000    0.000    0.000 
#    0.000    1.000    0.000    0.000    0.000    0.000 
#
# Total GULP energy -89190.226460 kJ/mol
# GULP energy per Si atom -5574.389154 kJ/mol
# Density = 2.391965 g / cm^3
# Si number density = 23.974214 Si / 1000 Ang^3
#
#
#
# Elastic Constant Matrix: (Units=GPa)
#
#
# Indices 1 2 3 4 5 6 
#
# 1 17.2990 4.6808 -1.3352 7.5824 5.2757 7.2363
# 2 4.6808 174.1180 61.6685 6.6196 12.5536 14.6169
# 3 -1.3352 61.6685 96.4069 0.7267 9.2085 7.4236
# 4 7.5824 6.6196 0.7267 46.3884 -5.1997 3.6300
# 5 5.2757 12.5536 9.2085 -5.1997 12.6026 -0.8210
# 6 7.2363 14.6169 7.4236 3.6300 -0.8210 26.0781
#
#
#
# Elastic Compliance Matrix: (Units=1/GPa)
#
#
# Indices 1 2 3 4 5 6 
#
# 1 0.097260 0.002026 0.008117 -0.020635 -0.059094 -0.029422
# 2 0.002026 0.008049 -0.004156 -0.001882 -0.006857 -0.003845
# 3 0.008117 -0.004156 0.014518 -0.001859 -0.010903 -0.004140
# 4 -0.020635 -0.001882 -0.001859 0.027533 0.023506 0.004218
# 5 -0.059094 -0.006857 -0.010903 0.023506 0.130156 0.024170
# 6 -0.029422 -0.003845 -0.004140 0.004218 0.024170 0.050018
#
#
# Mechanical properties :
#
#
# Convention : Reuss Voigt Hill
#
# Bulk Modulus (GPa) = 7.58725 46.42801 27.00763
# Shear Modulus (GPa) = 13.90850 31.86780 22.88815
#
# Velocity S-wave (km/s) = 2.41123 3.64985 3.09317
# Velocity P-wave (km/s) = 3.30510 6.09670 4.90374
#
# Compressibility (1/GPa) = 0.13179999
#
# Stress axis : x y z
#
# Youngs Moduli (GPa) = 10.28177 124.23478 68.88195
#
# Poissons Ratio (x) = -0.25165 -0.55911
# Poissons Ratio (y) = -0.02083 0.28625
# Poissons Ratio (z) = -0.08346 0.51628
#
# Static dielectric constant tensor:
#      x y z
#    x 1.948640 -0.002340 0.015040 
#    y -0.002340 1.969870 0.005250 
#    z 0.015040 0.005250 1.950060 
# 
# From -- ./inp_files/595054.got.cif
#   From: 2010.05.17/outbox.cif.g08.bks.cpg/sg2_298_cif.got.tgz:595054.got - 2010.06.03 11:33:40.
