data_PCOD9073756
_publ_section_title
;
Structure prediction by ZEFSAII (Michael W. Deem and Ramdas Pophale) SiO2 
 PCOD9073756
Probable space group: P -1
;
_chemical_formula_sum "Si O2"
_cell_formula_units_Z 12
_cell_length_a 15.000000
_cell_length_b 15.000000
_cell_length_c 9.000000
_cell_angle_alpha 130.000000
_cell_angle_beta 130.000000
_cell_angle_gamma 20.000000
_cell_volume 524.716012
_symmetry_space_group_name_H-M "P -1"
_symmetry_group_IT_number 2
_symmetry_cell_setting 'triclinic'
loop_
_space_group_symop_operation_xyz
x,y,z
-x,-y,-z
loop_
_atom_site_type_symbol
_atom_site_label
_atom_site_fract_x
_atom_site_fract_y
_atom_site_fract_z
Si Si1 0.703372 0.523169 0.377128
Si Si2 0.232434 0.927157 0.626585
Si Si3 0.766413 0.230168 0.276737
Si Si4 0.086114 0.269748 0.015354
Si Si5 0.687755 0.700429 0.809973
Si Si6 0.201604 0.024046 0.170088
O O1 0.622550 0.475597 0.325790
O O2 0.819424 0.513123 0.609410
O O3 0.463944 0.789645 0.305249
O O4 0.942409 0.268549 0.254946
O O5 0.352621 0.728806 0.662091
O O6 0.429311 0.850248 0.697104
O O7 0.054270 0.171700 0.799735
O O8 0.048893 0.025521 0.418499
O O9 0.788078 0.110395 0.047188
O O10 0.829621 0.560550 0.973668
O O11 0.302782 0.172064 0.090316
O O12 0.162452 0.161203 0.148781
#
# Coordination Sequence:
#
# PCOD9073756 Si02
#       6
#     2   2   2   2   2   2
#     4  12  25  46  67 106 140 183 224 281 347 411
#     4  10  21  43  69 104 132 174 233 288 338 399
#     4  10  22  43  70 102 138 177 227 281 342 411
#     4  10  24  46  67 103 128 184 231 287 334 406
#     4  11  24  43  75  93 138 177 236 282 340 403
#     4  11  27  45  70 102 143 180 228 279 349 409
#
# _framework density 22.869513999999999
#
# number of rings (size 3 to 8) (size 9 to 14) (size 15 to 20)
#    0.000    1.333    1.667    2.500    4.667    3.333 
#    3.000    0.000    0.000    0.000    0.000    0.000 
#    0.000    0.000    0.000    0.000    0.000    0.000 
#
# Total GULP energy -66936.443427 kJ/mol
# GULP energy per Si atom -5578.036952 kJ/mol
# Density = 2.281746 g / cm^3
# Si number density = 22.869514 Si / 1000 Ang^3
#
#
#
# Elastic Constant Matrix: (Units=GPa)
#
#
# Indices 1 2 3 4 5 6 
#
# 1 142.1139 28.3814 25.7527 -13.5070 14.9483 37.2203
# 2 28.3814 92.1199 21.8123 -14.2343 -10.0453 24.2747
# 3 25.7527 21.8123 90.5292 -14.9542 7.8850 4.0386
# 4 -13.5070 -14.2343 -14.9542 37.4802 10.9312 0.9428
# 5 14.9483 -10.0453 7.8850 10.9312 40.2043 -11.1954
# 6 37.2203 24.2747 4.0386 0.9428 -11.1954 47.4486
#
#
#
# Elastic Compliance Matrix: (Units=1/GPa)
#
#
# Indices 1 2 3 4 5 6 
#
# 1 0.011891 -0.000439 -0.000825 0.006815 -0.009392 -0.011384
# 2 -0.000439 0.014002 -0.002416 0.003985 0.001272 -0.006392
# 3 -0.000825 -0.002416 0.013148 0.005334 -0.004434 -0.000388
# 4 0.006815 0.003985 0.005334 0.037858 -0.016343 -0.012447
# 5 -0.009392 0.001272 -0.004434 -0.016343 0.038598 0.016526
# 6 -0.011384 -0.006392 -0.000388 -0.012447 0.016526 0.037455
#
#
# Mechanical properties :
#
#
# Convention : Reuss Voigt Hill
#
# Bulk Modulus (GPa) = 31.56655 52.96173 42.26414
# Shear Modulus (GPa) = 29.26168 41.61441 35.43804
#
# Velocity S-wave (km/s) = 3.58090 4.27036 3.94074
# Velocity P-wave (km/s) = 5.56147 6.89370 6.26311
#
# Compressibility (1/GPa) = 0.03167910
#
# Stress axis : x y z
#
# Youngs Moduli (GPa) = 84.09668 71.41987 76.06008
#
# Poissons Ratio (x) = 0.03139 0.06276
# Poissons Ratio (y) = 0.03696 0.18376
# Poissons Ratio (z) = 0.06939 0.17255
#
# Static dielectric constant tensor:
#      x y z
#    x 1.920340 -0.043290 -0.085300 
#    y -0.043290 1.938010 0.078370 
#    z -0.085300 0.078370 1.893420 
# 
# From -- ./inp_files/18925.got.cif
#   From: 2010.05.17/outbox.ucp.g08.bks.cvg/sg2_10_cif.got.tgz:18925.got - 2010.06.11 11:32:03.
