data_PCOD9073114
_publ_section_title
;
Structure prediction by ZEFSAII (Michael W. Deem and Ramdas Pophale) SiO2 
 PCOD9073114
Probable space group: P -1
;
_chemical_formula_sum "Si O2"
_cell_formula_units_Z 14
_cell_length_a 6.000000
_cell_length_b 6.000000
_cell_length_c 21.000000
_cell_angle_alpha 110.000000
_cell_angle_beta 60.000000
_cell_angle_gamma 100.000000
_cell_volume 615.227814
_symmetry_space_group_name_H-M "P -1"
_symmetry_group_IT_number 2
_symmetry_cell_setting 'triclinic'
loop_
_space_group_symop_operation_xyz
x,y,z
-x,-y,-z
loop_
_atom_site_type_symbol
_atom_site_label
_atom_site_fract_x
_atom_site_fract_y
_atom_site_fract_z
Si Si1 0.579056 0.806992 0.749937
Si Si2 0.895551 0.518301 0.171835
Si Si3 0.562951 0.703226 0.595345
Si Si4 0.084277 0.048990 0.690924
Si Si5 0.778399 0.810668 0.098061
Si Si6 0.256955 0.164156 0.037555
Si Si7 0.712941 0.792090 0.449301
O O1 0.372406 0.620002 0.788710
O O2 0.633233 0.729005 0.661544
O O3 0.431076 0.049845 0.815081
O O4 0.871104 0.869897 0.733214
O O5 0.911408 0.727483 0.241109
O O6 0.872872 0.605050 0.110662
O O7 0.163300 0.370534 0.119041
O O8 0.768439 0.744498 0.512298
O O9 0.426754 0.449300 0.577978
O O10 0.349174 0.907339 0.639922
O O11 0.068600 0.138464 0.627515
O O12 0.694161 0.740976 0.032087
O O13 0.010898 0.990378 0.065608
O O14 0.500000 0.000000 0.000000
O O15 0.500000 0.000000 0.500000
#
# Coordination Sequence:
#
# PCOD9073114 Si02
#       7
#     2   2   2   2   2   2   2
#     4  11  24  40  67 101 135 173 228 278 329 405
#     4  11  23  45  70  97 142 178 221 286 335 396
#     4  10  20  42  64  95 140 169 225 290 316 399
#     4  11  23  41  66 100 130 183 227 267 344 395
#     4  10  23  45  65 100 136 174 222 284 335 397
#     4  10  24  45  70  98 134 177 229 274 335 409
#     4   9  20  40  68  92 133 179 219 277 338 389
#
# _framework density 22.755797999999999
#
# number of rings (size 3 to 8) (size 9 to 14) (size 15 to 20)
#    0.000    1.714    2.857    0.429    2.000    2.286 
#    7.714    6.429    0.000    0.000    0.000    0.000 
#    0.000    0.000    0.000    0.000    0.000    0.000 
#
# Total GULP energy -78068.243541 kJ/mol
# GULP energy per Si atom -5576.303110 kJ/mol
# Density = 2.270401 g / cm^3
# Si number density = 22.755798 Si / 1000 Ang^3
#
#
#
# Elastic Constant Matrix: (Units=GPa)
#
#
# Indices 1 2 3 4 5 6 
#
# 1 15.9241 0.8723 38.2893 5.3105 0.9599 4.3788
# 2 0.8723 67.7451 56.4810 8.8688 14.7497 3.9656
# 3 38.2893 56.4810 151.3838 6.0504 10.0935 -3.6264
# 4 5.3105 8.8688 6.0504 51.9994 -3.7984 -0.1675
# 5 0.9599 14.7497 10.0935 -3.7984 20.4771 -4.0411
# 6 4.3788 3.9656 -3.6264 -0.1675 -4.0411 24.0464
#
#
#
# Elastic Compliance Matrix: (Units=1/GPa)
#
#
# Indices 1 2 3 4 5 6 
#
# 1 -0.835193 -0.337848 0.326008 0.120662 0.201762 0.291714
# 2 -0.337848 -0.109297 0.122845 0.043853 0.063673 0.109077
# 3 0.326008 0.122845 -0.117381 -0.046520 -0.076341 -0.110479
# 4 0.120662 0.043853 -0.046520 0.003136 -0.021591 -0.039826
# 5 0.201762 0.063673 -0.076341 -0.021591 0.016045 -0.056207
# 6 0.291714 0.109077 -0.110479 -0.039826 -0.056207 -0.055907
#
#
# Mechanical properties :
#
#
# Convention : Reuss Voigt Hill
#
# Bulk Modulus (GPa) = -1.19067 47.37091 23.09012
# Shear Modulus (GPa) = -3.12391 28.59860 12.73735
#
# Velocity S-wave (km/s) = -1.17294 3.54893 2.36845
# Velocity P-wave (km/s) = 1.53582 6.13640 4.20099
#
# Compressibility (1/GPa) = -0.83986164
#
# Stress axis : x y z
#
# Youngs Moduli (GPa) = -1.19733 -9.14941 -8.51925
#
# Poissons Ratio (x) = -3.09111 2.77734
# Poissons Ratio (y) = -0.40451 1.04654
# Poissons Ratio (z) = 0.39034 1.12396
#
# Static dielectric constant tensor:
#      x y z
#    x 1.916700 -0.035060 0.047240 
#    y -0.035060 1.899690 -0.006490 
#    z 0.047240 -0.006490 1.851180 
# 
# From -- ./inp_files/7967.got.cif
#   From: 2010.05.17/outbox.ucp.g08.bks.cvg/sg2_4_cif.got.tgz:7967.got - 2010.06.11 11:32:03.
