data_PCOD9073619
_publ_section_title
;
Structure prediction by ZEFSAII (Michael W. Deem and Ramdas Pophale) SiO2 
 PCOD9073619
Probable space group: P -1
;
_chemical_formula_sum "Si O2"
_cell_formula_units_Z 16
_cell_length_a 12.000000
_cell_length_b 9.000000
_cell_length_c 15.000000
_cell_angle_alpha 110.000000
_cell_angle_beta 150.000000
_cell_angle_gamma 70.000000
_cell_volume 757.522634
_symmetry_space_group_name_H-M "P -1"
_symmetry_group_IT_number 2
_symmetry_cell_setting 'triclinic'
loop_
_space_group_symop_operation_xyz
x,y,z
-x,-y,-z
loop_
_atom_site_type_symbol
_atom_site_label
_atom_site_fract_x
_atom_site_fract_y
_atom_site_fract_z
Si Si1 0.051278 0.659504 0.265591
Si Si2 0.667087 0.734006 0.899034
Si Si3 0.368589 0.768003 0.239868
Si Si4 0.114454 0.313820 0.640669
Si Si5 0.400988 0.033782 0.685186
Si Si6 0.649289 0.485266 0.283448
Si Si7 0.436103 0.834801 0.505427
Si Si8 0.121318 0.330410 0.149052
O O1 0.304548 0.694542 0.427770
O O2 0.054266 0.479293 0.196789
O O3 0.951830 0.686540 0.301264
O O4 0.891930 0.771378 0.112255
O O5 0.540949 0.633433 0.862753
O O6 0.751358 0.635272 0.848524
O O7 0.503231 0.882959 0.781833
O O8 0.397318 0.870854 0.191236
O O9 0.560281 0.621847 0.321877
O O10 0.406359 0.839648 0.379245
O O11 0.113586 0.728864 0.053659
O O12 0.216304 0.144650 0.634931
O O13 0.296869 0.430435 0.755195
O O14 0.880300 0.384092 0.449064
O O15 0.327546 0.975777 0.524086
O O16 0.698648 0.795063 0.702793
#
# Coordination Sequence:
#
# PCOD9073619 Si02
#       8
#     2   2   2   2   2   2   2   2
#     4  12  22  39  65  98 126 168 214 262 321 376
#     4  11  22  39  64  93 129 164 208 263 323 370
#     4  11  21  44  68  96 129 164 214 266 322 375
#     4  10  23  42  65  90 127 170 217 261 313 377
#     4  10  25  43  61  93 132 176 208 259 315 383
#     4  10  21  41  67  90 121 166 213 269 314 366
#     4  11  23  38  67  99 127 169 210 258 327 385
#     4  11  22  40  68  98 130 160 209 278 316 371
#
# _framework density 21.121480999999999
#
# number of rings (size 3 to 8) (size 9 to 14) (size 15 to 20)
#    0.000    1.250    2.500    4.125    0.000    5.000 
#    2.250    0.000    0.000    0.000    0.000    0.000 
#    0.000    0.000    0.000    0.000    0.000    0.000 
#
# Total GULP energy -89200.924114 kJ/mol
# GULP energy per Si atom -5575.057757 kJ/mol
# Density = 2.107341 g / cm^3
# Si number density = 21.121481 Si / 1000 Ang^3
#
#
#
# Elastic Constant Matrix: (Units=GPa)
#
#
# Indices 1 2 3 4 5 6 
#
# 1 129.1773 33.0756 18.1813 -10.9078 -2.7825 -24.9507
# 2 33.0756 77.8710 16.9601 -11.6572 -0.9151 -26.6403
# 3 18.1813 16.9601 66.9963 -9.6434 5.8963 -19.4905
# 4 -10.9078 -11.6572 -9.6434 15.1559 1.2966 2.9327
# 5 -2.7825 -0.9151 5.8963 1.2966 37.6014 1.9599
# 6 -24.9507 -26.6403 -19.4905 2.9327 1.9599 36.6644
#
#
#
# Elastic Compliance Matrix: (Units=1/GPa)
#
#
# Indices 1 2 3 4 5 6 
#
# 1 0.009505 -0.001691 -0.000133 0.004505 0.000278 0.004794
# 2 -0.001691 0.019437 0.001009 0.012014 -0.000881 0.012595
# 3 -0.000133 0.001009 0.019765 0.011581 -0.004028 0.010439
# 4 0.004505 0.012014 0.011581 0.084011 -0.004686 0.011482
# 5 0.000278 -0.000881 -0.004028 -0.004686 0.027579 -0.003692
# 6 0.004794 0.012595 0.010439 0.011482 -0.003692 0.044517
#
#
# Mechanical properties :
#
#
# Convention : Reuss Voigt Hill
#
# Bulk Modulus (GPa) = 21.24095 45.60875 33.42485
# Shear Modulus (GPa) = 22.50871 31.60620 27.05746
#
# Velocity S-wave (km/s) = 3.26801 3.87253 3.58304
# Velocity P-wave (km/s) = 4.93136 6.45258 5.74256
#
# Compressibility (1/GPa) = 0.04707888
#
# Stress axis : x y z
#
# Youngs Moduli (GPa) = 105.20501 51.44823 50.59409
#
# Poissons Ratio (x) = 0.08698 0.00672
# Poissons Ratio (y) = 0.17787 -0.05106
# Poissons Ratio (z) = 0.01398 -0.05192
#
# Static dielectric constant tensor:
#      x y z
#    x 1.728690 0.062290 0.018240 
#    y 0.062290 1.891760 0.081270 
#    z 0.018240 0.081270 1.804900 
# 
# From -- ./inp_files/398579.got.cif
#   From: 2010.05.17/outbox.ucp.g08.bks.cvg/sg2_200_cif.got.tgz:398579.got - 2010.06.11 11:32:03.
