data_PCOD9073731
_publ_section_title
;
Structure prediction by ZEFSAII (Michael W. Deem and Ramdas Pophale) SiO2 
 PCOD9073731
Probable space group: P -1
;
_chemical_formula_sum "Si O2"
_cell_formula_units_Z 16
_cell_length_a 22.834407
_cell_length_b 9.178250
_cell_length_c 24.517161
_cell_angle_alpha 35.280245
_cell_angle_beta 160.551814
_cell_angle_gamma 155.491351
_cell_volume 676.671121
_symmetry_space_group_name_H-M "P -1"
_symmetry_group_IT_number 2
_symmetry_cell_setting 'triclinic'
loop_
_space_group_symop_operation_xyz
x,y,z
-x,-y,-z
loop_
_atom_site_type_symbol
_atom_site_label
_atom_site_fract_x
_atom_site_fract_y
_atom_site_fract_z
Si Si1 0.109797 0.852914 0.423228
Si Si2 0.472025 0.845409 0.863671
Si Si3 0.549240 0.504918 0.952102
Si Si4 0.705480 0.827709 0.622914
Si Si5 0.498447 0.161719 0.353456
Si Si6 0.939176 0.181000 0.010204
Si Si7 0.848057 0.643838 0.413928
Si Si8 0.614663 0.708591 0.365508
O O1 0.252813 0.733623 0.581445
O O2 0.829179 0.511767 0.304901
O O3 0.078606 0.895276 0.319514
O O4 0.261450 0.181192 0.499097
O O5 0.610886 0.779200 0.969579
O O6 0.555283 0.214780 0.811002
O O7 0.481136 0.786351 0.953328
O O8 0.273252 0.263858 0.756248
O O9 0.732917 0.780049 0.980712
O O10 0.500000 0.500000 0.500000
O O11 0.812084 0.742680 0.786924
O O12 0.591422 0.970773 0.500877
O O13 0.725244 0.511766 0.406224
O O14 0.496092 0.331628 0.352981
O O15 0.222278 0.899439 0.160406
O O16 0.000000 0.500000 0.000000
O O17 0.148659 0.966134 0.566968
#
# Coordination Sequence:
#
# PCOD9073731 Si02
#       8
#     2   2   2   2   2   2   2   2
#     4  10  18  34  59  84 110 154 197 233 281 354
#     4  10  18  31  56  85 123 148 189 236 288 354
#     4  10  18  32  54  90 111 147 202 239 277 338
#     4  11  22  41  65  83 108 153 210 249 283 341
#     4  10  23  37  58  87 120 153 188 245 299 343
#     4  11  22  40  64  83 109 153 212 244 280 344
#     4   9  17  33  54  80 112 159 190 219 281 356
#     4  11  19  35  54  88 124 153 181 234 305 353
#
# _framework density 23.645164999999999
#
# number of rings (size 3 to 8) (size 9 to 14) (size 15 to 20)
#    0.000    1.750    5.000    1.125    0.000    0.000 
#    2.250    1.875    0.000    1.500    0.000    0.000 
#    0.000    0.000    0.000    0.000    0.000    0.000 
#
# Total GULP energy -89186.415059 kJ/mol
# GULP energy per Si atom -5574.150941 kJ/mol
# Density = 2.359135 g / cm^3
# Si number density = 23.645165 Si / 1000 Ang^3
#
#
#
# Elastic Constant Matrix: (Units=GPa)
#
#
# Indices 1 2 3 4 5 6 
#
# 1 59.1615 34.1599 23.9957 -10.3922 -15.5323 -12.9658
# 2 34.1599 88.2523 44.1154 -20.9402 -11.8082 -29.0377
# 3 23.9957 44.1154 123.4431 -33.8409 -8.2644 -20.1157
# 4 -10.3922 -20.9402 -33.8409 34.6772 7.0449 -3.7265
# 5 -15.5323 -11.8082 -8.2644 7.0449 25.6372 3.3401
# 6 -12.9658 -29.0377 -20.1157 -3.7265 3.3401 52.5574
#
#
#
# Elastic Compliance Matrix: (Units=1/GPa)
#
#
# Indices 1 2 3 4 5 6 
#
# 1 0.024673 -0.007178 -0.001523 -0.000623 0.011220 0.000781
# 2 -0.007178 0.020401 -0.001750 0.009336 0.000687 0.009449
# 3 -0.001523 -0.001750 0.012921 0.011871 -0.001416 0.004534
# 4 -0.000623 0.009336 0.011871 0.048830 -0.007425 0.013482
# 5 0.011220 0.000687 -0.001416 -0.007425 0.047829 -0.000961
# 6 0.000781 0.009449 0.004534 0.013482 -0.000961 0.027192
#
#
# Mechanical properties :
#
#
# Convention : Reuss Voigt Hill
#
# Bulk Modulus (GPa) = 26.96081 52.82209 39.89145
# Shear Modulus (GPa) = 23.24368 33.81342 28.52855
#
# Velocity S-wave (km/s) = 3.13872 3.78568 3.47728
# Velocity P-wave (km/s) = 4.95605 6.44178 5.74713
#
# Compressibility (1/GPa) = 0.03709088
#
# Stress axis : x y z
#
# Youngs Moduli (GPa) = 40.53022 49.01834 77.39449
#
# Poissons Ratio (x) = 0.35188 0.11787
# Poissons Ratio (y) = 0.29095 0.13546
# Poissons Ratio (z) = 0.06173 0.08579
#
# Static dielectric constant tensor:
#      x y z
#    x 2.083290 0.108720 0.078030 
#    y 0.108720 1.975010 0.029590 
#    z 0.078030 0.029590 2.006970 
# 
# From -- ./inp_files/180354.got.cif
#   From: 2010.05.17/outbox.cif.g08.bks.cpg/sg2_91_cif.got.tgz:180354.got - 2010.06.03 11:33:40.
