data_PCOD9073315
_publ_section_title
;
Structure prediction by ZEFSAII (Michael W. Deem and Ramdas Pophale) SiO2 
 PCOD9073315
Probable space group: P -1
;
_chemical_formula_sum "Si O2"
_cell_formula_units_Z 12
_cell_length_a 9.507318
_cell_length_b 6.553019
_cell_length_c 18.109540
_cell_angle_alpha 114.970919
_cell_angle_beta 154.642780
_cell_angle_gamma 73.756288
_cell_volume 422.704306
_symmetry_space_group_name_H-M "P -1"
_symmetry_group_IT_number 2
_symmetry_cell_setting 'triclinic'
loop_
_space_group_symop_operation_xyz
x,y,z
-x,-y,-z
loop_
_atom_site_type_symbol
_atom_site_label
_atom_site_fract_x
_atom_site_fract_y
_atom_site_fract_z
Si Si1 0.699112 0.826911 0.179887
Si Si2 0.817305 0.923048 0.675117
Si Si3 0.217239 0.470713 0.497780
Si Si4 0.508194 0.451232 0.834827
Si Si5 0.587738 0.941743 0.380714
Si Si6 0.298543 0.153826 0.115737
O O1 0.475103 0.585339 0.074281
O O2 0.851529 0.913132 0.183936
O O3 0.478110 0.003992 0.124837
O O4 0.053111 0.869644 0.402630
O O5 0.722802 0.967794 0.720408
O O6 0.500000 0.000000 0.500000
O O7 0.795522 0.651384 0.607654
O O8 0.343890 0.274865 0.572492
O O9 0.447043 0.706929 0.677379
O O10 0.835881 0.474402 0.333727
O O11 0.470377 0.193296 0.744622
O O12 0.771510 0.643333 0.940931
O O13 0.000000 0.000000 0.000000
#
# Coordination Sequence:
#
# PCOD9073315 Si02
#       6
#     2   2   2   2   2   2
#     4  10  18  31  54  79 104 131 172 214 259 296
#     4   8  16  31  53  78 111 127 165 216 264 304
#     4   9  16  32  53  75  99 135 170 207 256 302
#     4  11  18  32  60  77 100 134 176 216 255 296
#     4   9  16  31  53  83 107 128 164 220 264 301
#     4  11  21  33  50  76 110 138 170 214 252 300
#
# _framework density 28.388636999999999
#
# number of rings (size 3 to 8) (size 9 to 14) (size 15 to 20)
#    0.000    2.667    5.000    1.500    0.000    0.667 
#    0.000    7.500    0.000   16.000    0.000   19.833 
#    0.000    0.000    0.000    0.000    0.000    0.000 
#
# Total GULP energy -66978.947074 kJ/mol
# GULP energy per Si atom -5581.578923 kJ/mol
# Density = 2.832402 g / cm^3
# Si number density = 28.388637 Si / 1000 Ang^3
#
#
#
# Elastic Constant Matrix: (Units=GPa)
#
#
# Indices 1 2 3 4 5 6 
#
# 1 193.0216 46.3432 25.0995 -8.2136 57.1579 -6.9080
# 2 46.3432 111.9319 63.1890 -14.0124 35.6984 -33.4251
# 3 25.0995 63.1890 107.0802 12.5384 43.3485 -16.2337
# 4 -8.2136 -14.0124 12.5384 49.5627 3.9775 17.0160
# 5 57.1579 35.6984 43.3485 3.9775 53.2409 -5.0354
# 6 -6.9080 -33.4251 -16.2337 17.0160 -5.0354 63.3075
#
#
#
# Elastic Compliance Matrix: (Units=1/GPa)
#
#
# Indices 1 2 3 4 5 6 
#
# 1 0.008328 -0.001956 0.003226 0.000974 -0.010365 -0.000383
# 2 -0.001956 0.017780 -0.008835 0.005329 -0.002528 0.005275
# 3 0.003226 -0.008835 0.020205 -0.006540 -0.013354 0.001564
# 4 0.000974 0.005329 -0.006540 0.025626 -0.001756 -0.005784
# 5 -0.010365 -0.002528 -0.013354 -0.001756 0.042415 -0.002044
# 6 -0.000383 0.005275 0.001564 -0.005784 -0.002044 0.020333
#
#
# Mechanical properties :
#
#
# Convention : Reuss Voigt Hill
#
# Bulk Modulus (GPa) = 32.06865 75.69968 53.88417
# Shear Modulus (GPa) = 31.20917 51.71568 41.46243
#
# Velocity S-wave (km/s) = 3.31925 4.27277 3.82583
# Velocity P-wave (km/s) = 5.10007 7.14601 6.20791
#
# Compressibility (1/GPa) = 0.03118311
#
# Stress axis : x y z
#
# Youngs Moduli (GPa) = 120.07964 56.24372 49.49327
#
# Poissons Ratio (x) = 0.11001 -0.15965
# Poissons Ratio (y) = 0.23486 0.43725
# Poissons Ratio (z) = -0.38735 0.49689
#
# Static dielectric constant tensor:
#      x y z
#    x 2.453470 0.045660 -0.106660 
#    y 0.045660 2.266080 0.116720 
#    z -0.106660 0.116720 2.338530 
# 
# From -- ./inp_files/622905.got.cif
#   From: 2010.05.17/outbox.cif.g08.bks.cpg/sg2_312_cif.got.tgz:622905.got - 2010.06.03 11:33:40.
