data_PCOD9073169
_publ_section_title
;
Structure prediction by ZEFSAII (Michael W. Deem and Ramdas Pophale) SiO2 
 PCOD9073169
Probable space group: P -1
;
_chemical_formula_sum "Si O2"
_cell_formula_units_Z 16
_cell_length_a 28.523968
_cell_length_b 18.583894
_cell_length_c 14.454375
_cell_angle_alpha 19.020079
_cell_angle_beta 27.886054
_cell_angle_gamma 19.589843
_cell_volume 835.603251
_symmetry_space_group_name_H-M "P -1"
_symmetry_group_IT_number 2
_symmetry_cell_setting 'triclinic'
loop_
_space_group_symop_operation_xyz
x,y,z
-x,-y,-z
loop_
_atom_site_type_symbol
_atom_site_label
_atom_site_fract_x
_atom_site_fract_y
_atom_site_fract_z
Si Si1 0.799275 0.294344 0.680842
Si Si2 0.970944 0.386835 0.822045
Si Si3 0.898187 0.355601 0.779485
Si Si4 0.867074 0.491597 0.067669
Si Si5 0.533454 0.651585 0.823291
Si Si6 0.700505 0.871363 0.063560
Si Si7 0.419133 0.242130 0.205433
Si Si8 0.173917 0.942382 0.268047
O O1 0.690347 0.471236 0.738396
O O2 0.804003 0.532213 0.343473
O O3 0.754904 0.220508 0.757400
O O4 0.934216 0.964588 0.883330
O O5 0.914439 0.402695 0.801309
O O6 0.058575 0.481165 0.546134
O O7 0.864361 0.571335 0.869312
O O8 0.739479 0.517383 0.843975
O O9 0.000000 0.000000 0.000000
O O10 0.748548 0.790507 0.972379
O O11 0.849386 0.255181 0.400146
O O12 0.024068 0.284252 0.087929
O O13 0.539280 0.628873 0.951118
O O14 0.434558 0.999217 0.537145
O O15 0.500000 0.500000 0.000000
O O16 0.541159 0.047867 0.151303
O O17 0.735135 0.045291 0.840725
#
# Coordination Sequence:
#
# PCOD9073169 Si02
#       8
#     2   2   2   2   2   2   2   2
#     4   9  18  31  52  83 111 139 175 217 274 332
#     4  10  22  39  58  80 109 145 192 235 270 321
#     4  11  24  41  58  78 107 148 195 238 274 316
#     4   9  19  33  54  83 110 145 184 219 270 330
#     4  10  18  31  53  79 110 144 171 216 283 332
#     4  10  19  33  55  86 119 144 169 222 285 333
#     4  10  22  35  53  84 112 141 187 226 272 341
#     4   9  17  31  52  84 118 143 175 218 271 336
#
# _framework density 19.147843999999999
#
# number of rings (size 3 to 8) (size 9 to 14) (size 15 to 20)
#    0.000    2.250    0.000    3.375    0.000    9.000 
#    0.000    0.625    0.000    1.500    0.000    0.000 
#    0.000    0.000    0.000    0.000    0.000    0.000 
#
# Total GULP energy -89128.858713 kJ/mol
# GULP energy per Si atom -5570.553670 kJ/mol
# Density = 1.910426 g / cm^3
# Si number density = 19.147844 Si / 1000 Ang^3
#
#
#
# Elastic Constant Matrix: (Units=GPa)
#
#
# Indices 1 2 3 4 5 6 
#
# 1 102.9842 63.1627 33.0607 9.6532 -6.9041 17.2836
# 2 63.1627 110.2589 31.1586 -3.8102 2.3632 17.9308
# 3 33.0607 31.1586 35.9758 0.4666 -10.3772 -1.3999
# 4 9.6532 -3.8102 0.4666 16.6174 3.9662 2.8382
# 5 -6.9041 2.3632 -10.3772 3.9662 25.2668 8.2546
# 6 17.2836 17.9308 -1.3999 2.8382 8.2546 41.0688
#
#
#
# Elastic Compliance Matrix: (Units=1/GPa)
#
#
# Indices 1 2 3 4 5 6 
#
# 1 0.021220 -0.009204 -0.009567 -0.014857 0.006890 -0.005596
# 2 -0.009204 0.018588 -0.010679 0.012782 -0.009474 -0.003585
# 3 -0.009567 -0.010679 0.051270 -0.003775 0.017702 0.007139
# 4 -0.014857 0.012782 -0.003775 0.076429 -0.018467 -0.001027
# 5 0.006890 -0.009474 0.017702 -0.018467 0.055117 -0.007962
# 6 -0.005596 -0.003585 0.007139 -0.001027 -0.007962 0.030184
#
#
# Mechanical properties :
#
#
# Convention : Reuss Voigt Hill
#
# Bulk Modulus (GPa) = 31.07652 55.99809 43.53731
# Shear Modulus (GPa) = 15.50713 24.71306 20.11009
#
# Velocity S-wave (km/s) = 2.84890 3.59645 3.24428
# Velocity P-wave (km/s) = 5.20448 6.82309 6.06800
#
# Compressibility (1/GPa) = 0.03217863
#
# Stress axis : x y z
#
# Youngs Moduli (GPa) = 47.12531 53.79952 19.50456
#
# Poissons Ratio (x) = 0.49514 0.18660
# Poissons Ratio (y) = 0.43372 0.20829
# Poissons Ratio (z) = 0.45084 0.57453
#
# Static dielectric constant tensor:
#      x y z
#    x 1.737420 0.055430 -0.007730 
#    y 0.055430 1.738810 0.021920 
#    z -0.007730 0.021920 1.704770 
# 
# From -- ./inp_files/535069.got.cif
#   From: 2010.05.17/outbox.cif.g08.bks.cpg/sg2_268_cif.got.tgz:535069.got - 2010.06.03 11:33:40.
