data_PCOD9073158
_publ_section_title
;
Structure prediction by ZEFSAII (Michael W. Deem and Ramdas Pophale) SiO2 
 PCOD9073158
Probable space group: P -1
;
_chemical_formula_sum "Si O2"
_cell_formula_units_Z 14
_cell_length_a 9.000000
_cell_length_b 18.000000
_cell_length_c 21.000000
_cell_angle_alpha 20.000000
_cell_angle_beta 140.000000
_cell_angle_gamma 140.000000
_cell_volume 731.217405
_symmetry_space_group_name_H-M "P -1"
_symmetry_group_IT_number 2
_symmetry_cell_setting 'triclinic'
loop_
_space_group_symop_operation_xyz
x,y,z
-x,-y,-z
loop_
_atom_site_type_symbol
_atom_site_label
_atom_site_fract_x
_atom_site_fract_y
_atom_site_fract_z
Si Si1 0.487670 0.203072 0.992431
Si Si2 0.527946 0.837468 0.524097
Si Si3 0.572867 0.329564 0.609510
Si Si4 0.552928 0.472930 0.925900
Si Si5 0.906696 0.529409 0.374445
Si Si6 0.256127 0.662465 0.778497
Si Si7 0.273621 0.381522 0.345441
O O1 0.515639 0.276803 0.017804
O O2 0.242702 0.276319 0.833860
O O3 0.671449 0.384053 0.864559
O O4 0.493245 0.944930 0.187680
O O5 0.604500 0.695075 0.721606
O O6 0.268971 0.693588 0.532012
O O7 0.688228 0.805495 0.541933
O O8 0.569348 0.093489 0.353066
O O9 0.500000 0.500000 0.500000
O O10 0.460057 0.386884 0.459325
O O11 0.856638 0.396009 0.648172
O O12 0.342176 0.512349 0.872799
O O13 0.742064 0.441801 0.066103
O O14 0.000000 0.500000 0.500000
O O15 0.988899 0.678424 0.664835
#
# Coordination Sequence:
#
# PCOD9073158 Si02
#       7
#     2   2   2   2   2   2   2
#     4  10  23  44  65  89 128 173 203 255 321 371
#     4  10  21  39  64  87 125 168 199 253 312 369
#     4  12  25  42  64  98 124 165 214 261 315 365
#     4   9  22  38  60  89 123 163 214 241 318 376
#     4  10  20  44  66  92 125 167 214 250 309 385
#     4  11  21  39  61  96 125 158 208 265 301 371
#     4  10  23  40  61  94 129 159 213 254 317 369
#
# _framework density 19.146153000000002
#
# number of rings (size 3 to 8) (size 9 to 14) (size 15 to 20)
#    0.000    2.000    2.857    2.143    4.000    4.000 
#    5.143    0.000    0.000    0.000    0.000    0.000 
#    0.000    0.000    0.000    0.000    0.000    0.000 
#
# Total GULP energy -77993.563255 kJ/mol
# GULP energy per Si atom -5570.968804 kJ/mol
# Density = 1.910258 g / cm^3
# Si number density = 19.146153 Si / 1000 Ang^3
#
#
#
# Elastic Constant Matrix: (Units=GPa)
#
#
# Indices 1 2 3 4 5 6 
#
# 1 62.3375 25.3447 28.2258 -11.4876 10.8564 -16.0593
# 2 25.3447 79.2332 42.9673 -13.5282 4.3386 0.2887
# 3 28.2258 42.9673 92.8044 -12.8019 1.5023 -12.7880
# 4 -11.4876 -13.5282 -12.8019 42.6533 -8.9622 -0.1570
# 5 10.8564 4.3386 1.5023 -8.9622 28.9925 4.0740
# 6 -16.0593 0.2887 -12.7880 -0.1570 4.0740 42.4449
#
#
#
# Elastic Compliance Matrix: (Units=1/GPa)
#
#
# Indices 1 2 3 4 5 6 
#
# 1 0.023708 -0.005044 -0.003234 0.002047 -0.008568 0.008860
# 2 -0.005044 0.018616 -0.007349 0.002506 0.000866 -0.004323
# 3 -0.003234 -0.007349 0.015876 0.001911 0.001592 0.003464
# 4 0.002047 0.002506 0.001911 0.026827 0.006944 0.000766
# 5 -0.008568 0.000866 0.001592 0.006944 0.040567 -0.006636
# 6 0.008860 -0.004323 0.003464 0.000766 -0.006636 0.028625
#
#
# Mechanical properties :
#
#
# Convention : Reuss Voigt Hill
#
# Bulk Modulus (GPa) = 37.10808 47.49454 42.30131
# Shear Modulus (GPa) = 25.71298 32.00729 28.86013
#
# Velocity S-wave (km/s) = 3.66865 4.09312 3.88668
# Velocity P-wave (km/s) = 6.11301 6.87011 6.50259
#
# Compressibility (1/GPa) = 0.02694831
#
# Stress axis : x y z
#
# Youngs Moduli (GPa) = 42.17904 53.71779 62.98679
#
# Poissons Ratio (x) = 0.27094 0.20367
# Poissons Ratio (y) = 0.21274 0.46288
# Poissons Ratio (z) = 0.13639 0.39476
#
# Static dielectric constant tensor:
#      x y z
#    x 1.696050 0.009350 -0.009270 
#    y 0.009350 1.657320 0.006730 
#    z -0.009270 0.006730 1.682190 
# 
# From -- ./inp_files/204374.got.cif
#   From: 2010.05.17/outbox.ucp.g08.bks.cvg/sg2_103_cif.got.tgz:204374.got - 2010.06.11 11:32:03.
