data_PCOD9073401
_publ_section_title
;
Structure prediction by ZEFSAII (Michael W. Deem and Ramdas Pophale) SiO2 
 PCOD9073401
Probable space group: P -1
;
_chemical_formula_sum "Si O2"
_cell_formula_units_Z 14
_cell_length_a 21.000000
_cell_length_b 15.000000
_cell_length_c 12.000000
_cell_angle_alpha 40.000000
_cell_angle_beta 30.000000
_cell_angle_gamma 20.000000
_cell_volume 620.704002
_symmetry_space_group_name_H-M "P -1"
_symmetry_group_IT_number 2
_symmetry_cell_setting 'triclinic'
loop_
_space_group_symop_operation_xyz
x,y,z
-x,-y,-z
loop_
_atom_site_type_symbol
_atom_site_label
_atom_site_fract_x
_atom_site_fract_y
_atom_site_fract_z
Si Si1 0.303179 0.420729 0.872144
Si Si2 0.233681 0.472025 0.183749
Si Si3 0.262240 0.566031 0.265735
Si Si4 0.368840 0.110503 0.782620
Si Si5 0.802015 0.068371 0.021190
Si Si6 0.325219 0.928525 0.556025
Si Si7 0.031372 0.410512 0.214324
O O1 0.536039 0.241090 0.609119
O O2 0.343696 0.390533 0.972409
O O3 0.220926 0.337080 0.057950
O O4 0.051460 0.747764 0.921306
O O5 0.286266 0.549211 0.112016
O O6 0.383868 0.211081 0.270153
O O7 0.932207 0.742396 0.383086
O O8 0.531426 0.275511 0.185971
O O9 0.061644 0.639023 0.535718
O O10 0.173570 0.804277 0.196005
O O11 0.459883 0.178251 0.612927
O O12 0.215605 0.269172 0.749589
O O13 0.170338 0.243290 0.048295
O O14 0.762698 0.095202 0.190392
#
# Coordination Sequence:
#
# PCOD9073401 Si02
#       7
#     2   2   2   2   2   2   2
#     4  10  24  42  66  96 130 166 210 259 320 374
#     4  11  25  38  65  99 130 167 206 259 324 379
#     4  11  24  42  66  94 129 165 215 264 313 376
#     4  10  21  39  63 100 127 162 215 261 316 368
#     4  10  23  47  65  92 125 170 216 262 312 373
#     4  10  22  42  65  93 130 169 207 264 306 387
#     4  10  22  39  68  95 128 164 213 265 311 375
#
# _framework density 22.555033999999999
#
# number of rings (size 3 to 8) (size 9 to 14) (size 15 to 20)
#    0.000    1.714    1.429    1.286    8.000    4.571 
#    2.571    2.857    0.000    0.000    0.000    0.000 
#    0.000    0.000    0.000    0.000    0.000    0.000 
#
# Total GULP energy -78088.102606 kJ/mol
# GULP energy per Si atom -5577.721615 kJ/mol
# Density = 2.250370 g / cm^3
# Si number density = 22.555034 Si / 1000 Ang^3
#
#
#
# Elastic Constant Matrix: (Units=GPa)
#
#
# Indices 1 2 3 4 5 6 
#
# 1 55.9858 14.2684 16.2087 1.4002 16.5511 -14.1298
# 2 14.2684 86.9125 66.7287 15.4931 -15.0259 -9.1788
# 3 16.2087 66.7287 108.4367 9.4138 35.5604 7.6989
# 4 1.4002 15.4931 9.4138 28.1880 11.0143 -0.9232
# 5 16.5511 -15.0259 35.5604 11.0143 15.7396 6.2262
# 6 -14.1298 -9.1788 7.6989 -0.9232 6.2262 30.2298
#
#
#
# Elastic Compliance Matrix: (Units=1/GPa)
#
#
# Indices 1 2 3 4 5 6 
#
# 1 0.020628 0.007481 -0.010211 -0.003550 0.005776 0.013215
# 2 0.007481 0.001851 0.004792 0.007112 -0.025161 0.008238
# 3 -0.010211 0.004792 0.002326 -0.011655 0.021666 -0.008728
# 4 -0.003550 0.007112 -0.011655 0.029516 0.015755 0.001125
# 5 0.005776 -0.025161 0.021666 0.015755 -0.024592 -0.004911
# 6 0.013215 0.008238 -0.008728 0.001125 -0.004911 0.045027
#
#
# Mechanical properties :
#
#
# Convention : Reuss Voigt Hill
#
# Bulk Modulus (GPa) = 34.56918 49.52742 42.04830
# Shear Modulus (GPa) = 62.28515 25.10676 43.69595
#
# Velocity S-wave (km/s) = 5.26067 3.33998 4.40626
# Velocity P-wave (km/s) = 7.22907 6.07290 6.67606
#
# Compressibility (1/GPa) = 0.02892750
#
# Stress axis : x y z
#
# Youngs Moduli (GPa) = 48.47805 540.31762 429.91118
#
# Poissons Ratio (x) = -4.04185 4.38985
# Poissons Ratio (y) = -0.36264 -2.06011
# Poissons Ratio (z) = 0.49501 -2.58917
#
# Static dielectric constant tensor:
#      x y z
#    x 1.927770 0.016270 -0.000600 
#    y 0.016270 1.886260 -0.027370 
#    z -0.000600 -0.027370 1.782210 
# 
# From -- ./inp_files/458106.got.cif
#   From: 2010.05.17/outbox.ucp.g08.bks.cvg/sg2_230_cif.got.tgz:458106.got - 2010.06.11 11:32:03.
