data_PCOD9073491
_publ_section_title
;
Structure prediction by ZEFSAII (Michael W. Deem and Ramdas Pophale) SiO2 
 PCOD9073491
Probable space group: P -1
;
_chemical_formula_sum "Si O2"
_cell_formula_units_Z 16
_cell_length_a 6.000000
_cell_length_b 18.000000
_cell_length_c 9.000000
_cell_angle_alpha 100.000000
_cell_angle_beta 90.000000
_cell_angle_gamma 130.000000
_cell_volume 725.212580
_symmetry_space_group_name_H-M "P -1"
_symmetry_group_IT_number 2
_symmetry_cell_setting 'triclinic'
loop_
_space_group_symop_operation_xyz
x,y,z
-x,-y,-z
loop_
_atom_site_type_symbol
_atom_site_label
_atom_site_fract_x
_atom_site_fract_y
_atom_site_fract_z
Si Si1 0.101361 0.239067 0.111339
Si Si2 0.095454 0.382578 0.352230
Si Si3 0.728473 0.559890 0.294310
Si Si4 0.879850 0.295973 0.891464
Si Si5 0.292129 0.959102 0.843920
Si Si6 0.287607 0.110998 0.700611
Si Si7 0.638022 0.970830 0.602405
Si Si8 0.240555 0.603199 0.857412
O O1 0.096891 0.297332 0.267040
O O2 0.422693 0.314005 0.070424
O O3 0.020514 0.138378 0.130841
O O4 0.892678 0.229371 0.983204
O O5 0.381337 0.483079 0.305072
O O6 0.124368 0.395954 0.531184
O O7 0.817200 0.366103 0.285952
O O8 0.813441 0.496144 0.208389
O O9 0.858352 0.647861 0.208557
O O10 0.563438 0.221992 0.786691
O O11 0.925782 0.382279 0.017594
O O12 0.418016 0.922076 0.722037
O O13 0.286569 0.035878 0.780269
O O14 0.500000 0.000000 0.000000
O O15 0.324509 0.094483 0.521882
O O16 0.956459 0.068928 0.693951
O O17 0.500000 0.000000 0.500000
#
# Coordination Sequence:
#
# PCOD9073491 Si02
#       8
#     2   2   2   2   2   2   2   2
#     4  10  23  40  57  91 123 157 203 246 292 356
#     4   9  21  41  64  86 118 155 199 248 301 361
#     4  10  21  40  63  87 118 154 195 251 305 354
#     4  11  23  37  61  90 122 156 201 244 298 358
#     4  11  22  39  63  87 124 163 198 249 299 347
#     4  10  22  41  62  89 121 164 203 243 298 360
#     4   9  22  42  61  84 122 158 203 250 296 352
#     4  10  22  39  59  88 121 153 201 245 300 362
#
# _framework density 22.062495999999999
#
# number of rings (size 3 to 8) (size 9 to 14) (size 15 to 20)
#    0.000    2.000    1.250    0.750    3.500    8.000 
#    4.500    0.000    0.000    0.000    0.000    0.000 
#    0.000    0.000    0.000    0.000    0.000    0.000 
#
# Total GULP energy -89246.851132 kJ/mol
# GULP energy per Si atom -5577.928196 kJ/mol
# Density = 2.201228 g / cm^3
# Si number density = 22.062496 Si / 1000 Ang^3
#
#
#
# Elastic Constant Matrix: (Units=GPa)
#
#
# Indices 1 2 3 4 5 6 
#
# 1 42.9701 -9.0756 14.1548 -3.2547 12.1485 4.1180
# 2 -9.0756 59.2460 43.1296 -10.7769 -4.0478 -3.2570
# 3 14.1548 43.1296 110.1181 -3.6252 5.6588 15.6061
# 4 -3.2547 -10.7769 -3.6252 21.1856 11.8079 2.9286
# 5 12.1485 -4.0478 5.6588 11.8079 18.8669 10.5759
# 6 4.1180 -3.2570 15.6061 2.9286 10.5759 9.7306
#
#
#
# Elastic Compliance Matrix: (Units=1/GPa)
#
#
# Indices 1 2 3 4 5 6 
#
# 1 -0.005526 -0.025866 0.022738 -0.041505 0.087389 -0.125276
# 2 -0.025866 -0.003455 0.012940 -0.043437 0.097340 -0.103686
# 3 0.022738 0.012940 -0.003959 0.043548 -0.079792 0.074675
# 4 -0.041505 -0.043437 0.043548 -0.016869 0.126708 -0.199455
# 5 0.087389 0.097340 -0.079792 0.126708 -0.219178 0.323652
# 6 -0.125276 -0.103686 0.074675 -0.199455 0.323652 -0.290424
#
#
# Mechanical properties :
#
#
# Convention : Reuss Voigt Hill
#
# Bulk Modulus (GPa) = 149.56050 34.30575 91.93313
# Shear Modulus (GPa) = -8.97978 20.89832 5.95927
#
# Velocity S-wave (km/s) = -2.01965 3.08105 1.64528
# Velocity P-wave (km/s) = 7.90557 5.31416 6.73566
#
# Compressibility (1/GPa) = 0.00668626
#
# Stress axis : x y z
#
# Youngs Moduli (GPa) = -180.96373 -289.46639 -252.59192
#
# Poissons Ratio (x) = -7.48721 5.74346
# Poissons Ratio (y) = -4.68073 3.26863
# Poissons Ratio (z) = 4.11477 3.74580
#
# Static dielectric constant tensor:
#      x y z
#    x 1.845430 0.016420 -0.031170 
#    y 0.016420 1.830170 -0.000680 
#    z -0.031170 -0.000680 1.812910 
# 
# From -- ./inp_files/81644.got.cif
#   From: 2010.05.17/outbox.ucp.g08.bks.cvg/sg2_41_cif.got.tgz:81644.got - 2010.06.11 11:32:03.
