data_PCOD9073938
_publ_section_title
;
Structure prediction by ZEFSAII (Michael W. Deem and Ramdas Pophale) SiO2 
 PCOD9073938
Probable space group: P -1
;
_chemical_formula_sum "Si O2"
_cell_formula_units_Z 16
_cell_length_a 12.000000
_cell_length_b 12.000000
_cell_length_c 9.000000
_cell_angle_alpha 50.000000
_cell_angle_beta 120.000000
_cell_angle_gamma 130.000000
_cell_volume 752.153660
_symmetry_space_group_name_H-M "P -1"
_symmetry_group_IT_number 2
_symmetry_cell_setting 'triclinic'
loop_
_space_group_symop_operation_xyz
x,y,z
-x,-y,-z
loop_
_atom_site_type_symbol
_atom_site_label
_atom_site_fract_x
_atom_site_fract_y
_atom_site_fract_z
Si Si1 0.555552 0.832963 0.737773
Si Si2 0.792873 0.795927 0.122056
Si Si3 0.597046 0.440156 0.400086
Si Si4 0.667796 0.522409 0.698175
Si Si5 0.997007 0.853538 0.950353
Si Si6 0.714591 0.133718 0.374428
Si Si7 0.164842 0.097427 0.465481
Si Si8 0.096268 0.503759 0.921657
O O1 0.470536 0.705518 0.647976
O O2 0.433591 0.847277 0.747023
O O3 0.668752 0.017226 0.591362
O O4 0.656656 0.779489 0.945560
O O5 0.739152 0.609886 0.303299
O O6 0.854382 0.966635 0.115343
O O7 0.936879 0.831873 0.094215
O O8 0.634058 0.412440 0.619478
O O9 0.478109 0.500847 0.300373
O O10 0.749144 0.723654 0.549354
O O11 0.761582 0.487611 0.910802
O O12 0.870573 0.861289 0.758771
O O13 0.991942 0.679573 0.054667
O O14 0.846536 0.325507 0.282786
O O15 0.757170 0.018826 0.393007
O O16 0.000000 0.000000 0.500000
O O17 0.000000 0.500000 0.000000
#
# Coordination Sequence:
#
# PCOD9073938 Si02
#       8
#     2   2   2   2   2   2   2   2
#     4  11  22  40  63  93 131 157 204 257 315 373
#     4  11  21  39  65  91 120 162 206 259 304 360
#     4  11  21  39  65  91 120 162 206 259 304 360
#     4  10  22  40  60  92 120 155 217 246 302 372
#     4  10  22  40  60  92 120 155 217 246 302 372
#     4  11  22  39  66  91 125 168 200 252 322 361
#     4  11  20  40  67  88 125 161 204 255 302 365
#     4  11  23  43  60  89 125 164 204 254 308 368
#
# _framework density 21.272248999999999
#
# number of rings (size 3 to 8) (size 9 to 14) (size 15 to 20)
#    0.000    1.250    2.500    4.875    0.000    0.000 
#    4.500    1.250    0.000    0.000    0.000    0.000 
#    0.000    0.000    0.000    0.000    0.000    0.000 
#
# Total GULP energy -89075.324462 kJ/mol
# GULP energy per Si atom -5567.207779 kJ/mol
# Density = 2.122383 g / cm^3
# Si number density = 21.272249 Si / 1000 Ang^3
#
#
#
# Elastic Constant Matrix: (Units=GPa)
#
#
# Indices 1 2 3 4 5 6 
#
# 1 89.2323 13.3864 -2.3825 -15.7691 -8.8407 -5.5719
# 2 13.3864 148.4285 26.1428 -13.1790 -7.0554 -15.2856
# 3 -2.3825 26.1428 41.2609 -19.3146 -6.3687 -3.3148
# 4 -15.7691 -13.1790 -19.3146 42.8884 8.2643 -2.5291
# 5 -8.8407 -7.0554 -6.3687 8.2643 20.6793 -14.0671
# 6 -5.5719 -15.2856 -3.3148 -2.5291 -14.0671 37.2658
#
#
#
# Elastic Compliance Matrix: (Units=1/GPa)
#
#
# Indices 1 2 3 4 5 6 
#
# 1 0.013893 -0.000679 0.006094 0.006205 0.009396 0.006309
# 2 -0.000679 0.008208 -0.004323 -0.000245 0.004339 0.004502
# 3 0.006094 -0.004323 0.037194 0.015891 0.011615 0.007909
# 4 0.006205 -0.000245 0.015891 0.033609 -0.003892 0.003053
# 5 0.009396 0.004339 0.011615 -0.003892 0.082986 0.035279
# 6 0.006309 0.004502 0.007909 0.003053 0.035279 0.043852
#
#
# Mechanical properties :
#
#
# Convention : Reuss Voigt Hill
#
# Bulk Modulus (GPa) = 16.26567 39.24614 27.75591
# Shear Modulus (GPa) = 21.00399 36.28502 28.64451
#
# Velocity S-wave (km/s) = 3.14568 4.13455 3.67354
# Velocity P-wave (km/s) = 4.56692 6.42512 5.57400
#
# Compressibility (1/GPa) = 0.06147918
#
# Stress axis : x y z
#
# Youngs Moduli (GPa) = 71.97983 121.83156 26.88624
#
# Poissons Ratio (x) = 0.08273 -0.16386
# Poissons Ratio (y) = 0.04888 0.11623
# Poissons Ratio (z) = -0.43867 0.52669
#
# Static dielectric constant tensor:
#      x y z
#    x 1.859210 0.048030 -0.069590 
#    y 0.048030 1.849150 -0.012070 
#    z -0.069590 -0.012070 1.833520 
# 
# From -- ./inp_files/261749.got.cif
#   From: 2010.05.17/outbox.ucp.g08.bks.cvg/sg2_131_cif.got.tgz:261749.got - 2010.06.11 11:32:03.
