data_PCOD9073456
_publ_section_title
;
Structure prediction by ZEFSAII (Michael W. Deem and Ramdas Pophale) SiO2 
 PCOD9073456
Probable space group: P -1
;
_chemical_formula_sum "Si O2"
_cell_formula_units_Z 14
_cell_length_a 24.000000
_cell_length_b 12.000000
_cell_length_c 15.000000
_cell_angle_alpha 150.000000
_cell_angle_beta 20.000000
_cell_angle_gamma 150.000000
_cell_volume 703.466731
_symmetry_space_group_name_H-M "P -1"
_symmetry_group_IT_number 2
_symmetry_cell_setting 'triclinic'
loop_
_space_group_symop_operation_xyz
x,y,z
-x,-y,-z
loop_
_atom_site_type_symbol
_atom_site_label
_atom_site_fract_x
_atom_site_fract_y
_atom_site_fract_z
Si Si1 0.098791 0.793705 0.392834
Si Si2 0.786825 0.652477 0.054635
Si Si3 0.054668 0.051327 0.821563
Si Si4 0.745044 0.775153 0.677649
Si Si5 0.478719 0.330776 0.688451
Si Si6 0.560006 0.866192 0.199469
Si Si7 0.157177 0.572301 0.595843
O O1 0.209202 0.613295 0.120570
O O2 0.926302 0.598958 0.479926
O O3 0.086891 0.942198 0.602794
O O4 0.168452 0.990481 0.347014
O O5 0.789475 0.787138 0.238973
O O6 0.642700 0.658411 0.203949
O O7 0.958173 0.821862 0.866487
O O8 0.938556 0.229316 0.109347
O O9 0.601176 0.589821 0.706358
O O10 0.860345 0.612214 0.424143
O O11 0.664080 0.835286 0.933980
O O12 0.390897 0.230711 0.846973
O O13 0.570694 0.136316 0.387973
O O14 0.359379 0.713662 0.380863
#
# Coordination Sequence:
#
# PCOD9073456 Si02
#       7
#     2   2   2   2   2   2   2
#     4  11  25  40  63  92 131 165 193 251 318 366
#     4  10  22  41  62  93 117 163 213 254 293 361
#     4  10  22  40  64  91 121 158 217 252 297 355
#     4  11  25  40  60  99 129 159 198 248 320 376
#     4  10  21  39  67  89 122 162 207 255 305 350
#     4  10  22  40  66  95 120 157 212 256 300 361
#     4  10  21  40  66  93 120 159 211 255 297 358
#
# _framework density 19.901439
#
# number of rings (size 3 to 8) (size 9 to 14) (size 15 to 20)
#    0.000    1.714    1.429    2.571    4.000    4.571 
#    0.000    1.429    0.000    0.000    0.000    0.000 
#    0.000    0.000    0.000    0.000    0.000    0.000 
#
# Total GULP energy -78125.185367 kJ/mol
# GULP energy per Si atom -5580.370383 kJ/mol
# Density = 1.985614 g / cm^3
# Si number density = 19.901439 Si / 1000 Ang^3
#
#
#
# Elastic Constant Matrix: (Units=GPa)
#
#
# Indices 1 2 3 4 5 6 
#
# 1 137.0586 34.2332 37.8521 15.1816 4.8711 13.5673
# 2 34.2332 118.6006 36.5693 35.3010 13.5229 -9.6323
# 3 37.8521 36.5693 59.1246 29.1536 13.7595 1.3257
# 4 15.1816 35.3010 29.1536 31.5570 2.9656 -0.7070
# 5 4.8711 13.5229 13.7595 2.9656 45.1871 11.9178
# 6 13.5673 -9.6323 1.3257 -0.7070 11.9178 51.0152
#
#
#
# Elastic Compliance Matrix: (Units=1/GPa)
#
#
# Indices 1 2 3 4 5 6 
#
# 1 0.009716 -0.002450 -0.007562 0.004735 0.002570 -0.003385
# 2 -0.002450 0.014142 0.001347 -0.015375 -0.004454 0.004114
# 3 -0.007562 0.001347 0.039844 -0.033634 -0.010352 0.003182
# 4 0.004735 -0.015375 -0.033634 0.076586 0.010543 -0.004690
# 5 0.002570 -0.004454 -0.010352 0.010543 0.027642 -0.007567
# 6 -0.003385 0.004114 0.003182 -0.004690 -0.007567 0.022899
#
#
# Mechanical properties :
#
#
# Convention : Reuss Voigt Hill
#
# Bulk Modulus (GPa) = 21.56503 59.12144 40.34323
# Shear Modulus (GPa) = 22.35985 39.29381 30.82683
#
# Velocity S-wave (km/s) = 3.35554 4.44827 3.93997
# Velocity P-wave (km/s) = 5.08649 7.49362 6.40417
#
# Compressibility (1/GPa) = 0.04637137
#
# Stress axis : x y z
#
# Youngs Moduli (GPa) = 102.92614 70.71290 25.09808
#
# Poissons Ratio (x) = 0.17326 0.18979
# Poissons Ratio (y) = 0.25219 -0.03381
# Poissons Ratio (z) = 0.77831 -0.09526
#
# Static dielectric constant tensor:
#      x y z
#    x 1.746350 0.018750 -0.035760 
#    y 0.018750 1.693840 -0.017890 
#    z -0.035760 -0.017890 1.738960 
# 
# From -- ./inp_files/345187.got.cif
#   From: 2010.05.17/outbox.ucp.g08.bks.cvg/sg2_173_cif.got.tgz:345187.got - 2010.06.11 11:32:03.
