data_PCOD9073270
_publ_section_title
;
Structure prediction by ZEFSAII (Michael W. Deem and Ramdas Pophale) SiO2 
 PCOD9073270
Probable space group: P -1
;
_chemical_formula_sum "Si O2"
_cell_formula_units_Z 14
_cell_length_a 9.000000
_cell_length_b 9.000000
_cell_length_c 9.000000
_cell_angle_alpha 70.000000
_cell_angle_beta 70.000000
_cell_angle_gamma 90.000000
_cell_volume 638.049704
_symmetry_space_group_name_H-M "P -1"
_symmetry_group_IT_number 2
_symmetry_cell_setting 'triclinic'
loop_
_space_group_symop_operation_xyz
x,y,z
-x,-y,-z
loop_
_atom_site_type_symbol
_atom_site_label
_atom_site_fract_x
_atom_site_fract_y
_atom_site_fract_z
Si Si1 0.587351 0.887924 0.617144
Si Si2 0.708925 0.552154 0.042510
Si Si3 0.577328 0.268051 0.987565
Si Si4 0.171913 0.836680 0.497504
Si Si5 0.003410 0.803290 0.894426
Si Si6 0.562902 0.364679 0.431649
Si Si7 0.131114 0.861989 0.171266
O O1 0.475884 0.833373 0.812781
O O2 0.588839 0.736215 0.562771
O O3 0.500000 0.000000 0.500000
O O4 0.752160 0.976983 0.590581
O O5 0.674586 0.437476 0.950691
O O6 0.671591 0.441938 0.234889
O O7 0.582264 0.679334 0.044250
O O8 0.881916 0.645463 0.964380
O O9 0.684622 0.167708 0.887155
O O10 0.324436 0.738806 0.480358
O O11 0.081536 0.802020 0.380340
O O12 0.100773 0.816616 0.698131
O O13 0.912815 0.959722 0.877300
O O14 0.074660 0.796925 0.043323
O O15 0.500000 0.500000 0.500000
#
# Coordination Sequence:
#
# PCOD9073270 Si02
#       7
#     2   2   2   2   2   2   2
#     4   9  19  36  61  89 125 164 204 262 317 361
#     4  10  22  41  63  90 132 168 203 263 324 373
#     4  10  21  40  65  93 121 165 218 262 313 374
#     4  11  23  42  64  91 131 170 208 259 319 378
#     4  11  25  43  63  93 132 169 206 260 321 377
#     4  10  21  37  63  96 126 164 212 264 316 371
#     4  11  24  41  65  95 124 167 220 257 309 381
#
# _framework density 21.941863999999999
#
# number of rings (size 3 to 8) (size 9 to 14) (size 15 to 20)
#    0.000    1.714    0.000    4.714    0.000    9.143 
#    0.000    5.714    0.000    0.000    0.000    0.000 
#    0.000    0.000    0.000    0.000    0.000    0.000 
#
# Total GULP energy -77985.678765 kJ/mol
# GULP energy per Si atom -5570.405626 kJ/mol
# Density = 2.189192 g / cm^3
# Si number density = 21.941864 Si / 1000 Ang^3
#
#
#
# Elastic Constant Matrix: (Units=GPa)
#
#
# Indices 1 2 3 4 5 6 
#
# 1 70.8643 38.6379 46.2674 1.3194 11.5826 -0.2752
# 2 38.6379 77.0380 32.6229 17.7821 -12.3393 -5.4159
# 3 46.2674 32.6229 109.0848 11.5494 26.8819 19.9920
# 4 1.3194 17.7821 11.5494 34.2273 -1.1623 0.6574
# 5 11.5826 -12.3393 26.8819 -1.1623 34.6003 -4.0684
# 6 -0.2752 -5.4159 19.9920 0.6574 -4.0684 48.7267
#
#
#
# Elastic Compliance Matrix: (Units=1/GPa)
#
#
# Indices 1 2 3 4 5 6 
#
# 1 0.027254 -0.014785 -0.005558 0.008175 -0.009819 -0.000139
# 2 -0.014785 0.032089 -0.009982 -0.012076 0.024898 0.009821
# 3 -0.005558 -0.009982 0.021902 -0.002449 -0.020182 -0.011779
# 4 0.008175 -0.012076 -0.002449 0.035885 -0.004066 -0.001115
# 5 -0.009819 0.024898 -0.020182 -0.004066 0.058485 0.015931
# 6 -0.000139 0.009821 -0.011779 -0.001115 0.015931 0.027791
#
#
# Mechanical properties :
#
#
# Convention : Reuss Voigt Hill
#
# Bulk Modulus (GPa) = 48.55952 54.67150 51.61551
# Shear Modulus (GPa) = 18.45562 32.80814 25.63188
#
# Velocity S-wave (km/s) = 2.90334 3.87102 3.42156
# Velocity P-wave (km/s) = 5.78085 6.70450 6.25973
#
# Compressibility (1/GPa) = 0.02059328
#
# Stress axis : x y z
#
# Youngs Moduli (GPa) = 36.69198 31.16357 45.65883
#
# Poissons Ratio (x) = 0.46075 0.25378
# Poissons Ratio (y) = 0.54249 0.45578
# Poissons Ratio (z) = 0.20394 0.31109
#
# Static dielectric constant tensor:
#      x y z
#    x 1.840070 0.002620 -0.022010 
#    y 0.002620 1.808430 -0.110100 
#    z -0.022010 -0.110100 1.487820 
# 
# From -- ./inp_files/157259.got.cif
#   From: 2010.05.17/outbox.ucp.g08.bks.cvg/sg2_79_cif.got.tgz:157259.got - 2010.06.11 11:32:03.
