data_PCOD9073149
_publ_section_title
;
Structure prediction by ZEFSAII (Michael W. Deem and Ramdas Pophale) SiO2 
 PCOD9073149
Probable space group: P -1
;
_chemical_formula_sum "Si O2"
_cell_formula_units_Z 14
_cell_length_a 9.000000
_cell_length_b 18.000000
_cell_length_c 9.000000
_cell_angle_alpha 130.000000
_cell_angle_beta 100.000000
_cell_angle_gamma 120.000000
_cell_volume 643.920384
_symmetry_space_group_name_H-M "P -1"
_symmetry_group_IT_number 2
_symmetry_cell_setting 'triclinic'
loop_
_space_group_symop_operation_xyz
x,y,z
-x,-y,-z
loop_
_atom_site_type_symbol
_atom_site_label
_atom_site_fract_x
_atom_site_fract_y
_atom_site_fract_z
Si Si1 0.825424 0.463427 0.547138
Si Si2 0.134637 0.827286 0.082488
Si Si3 0.457154 0.529112 0.877767
Si Si4 0.626959 0.043402 0.242974
Si Si5 0.012723 0.588722 0.243796
Si Si6 0.346795 0.336097 0.345081
Si Si7 0.038717 0.907198 0.435344
O O1 0.826050 0.383610 0.570430
O O2 0.522849 0.337339 0.325066
O O3 0.000000 0.500000 0.500000
O O4 0.975749 0.643147 0.842434
O O5 0.188552 0.917296 0.354970
O O6 0.382582 0.927637 0.160033
O O7 0.948412 0.806103 0.935262
O O8 0.362300 0.389601 0.580776
O O9 0.247827 0.505779 0.841593
O O10 0.500000 0.500000 0.000000
O O11 0.741607 0.715160 0.125464
O O12 0.832306 0.236416 0.555934
O O13 0.800060 0.037745 0.314197
O O14 0.500000 0.000000 0.000000
O O15 0.000000 0.500000 0.000000
O O16 0.500000 0.500000 0.500000
O O17 0.000000 0.000000 0.500000
#
# Coordination Sequence:
#
# PCOD9073149 Si02
#       7
#     2   2   2   2   2   2   2
#     4  11  22  39  71 106 138 184 236 292 357 436
#     4  11  25  46  73 102 149 187 242 300 358 439
#     4  12  23  45  73  98 145 187 240 303 360 421
#     4  12  27  51  69 107 151 190 236 305 371 425
#     4  12  26  43  71 106 140 186 241 298 363 427
#     4  10  20  43  68 104 137 184 238 294 359 423
#     4  12  28  47  73 105 142 198 243 293 360 435
#
# _framework density 21.741817999999999
#
# number of rings (size 3 to 8) (size 9 to 14) (size 15 to 20)
#    0.000    0.571    4.286    5.571    4.000    1.143 
#    0.000    1.429    0.000    0.000    0.000    0.000 
#    0.000    0.000    0.000    0.000    0.000    0.000 
#
# Total GULP energy -77945.791435 kJ/mol
# GULP energy per Si atom -5567.556531 kJ/mol
# Density = 2.169233 g / cm^3
# Si number density = 21.741818 Si / 1000 Ang^3
#
#
#
# Elastic Constant Matrix: (Units=GPa)
#
#
# Indices 1 2 3 4 5 6 
#
# 1 175.0699 22.9227 27.3548 -3.4056 24.2216 -14.3362
# 2 22.9227 64.2256 20.5473 -0.5808 3.4337 -15.4222
# 3 27.3548 20.5473 71.5989 -8.8554 8.5225 -3.2526
# 4 -3.4056 -0.5808 -8.8554 43.6553 1.3220 5.5833
# 5 24.2216 3.4337 8.5225 1.3220 57.0881 -1.3540
# 6 -14.3362 -15.4222 -3.2526 5.5833 -1.3540 48.0941
#
#
#
# Elastic Compliance Matrix: (Units=1/GPa)
#
#
# Indices 1 2 3 4 5 6 
#
# 1 0.006613 -0.001334 -0.001789 0.000036 -0.002427 0.001350
# 2 -0.001334 0.018908 -0.004898 -0.001563 0.000327 0.005525
# 3 -0.001789 -0.004898 0.016593 0.003389 -0.001536 -0.001418
# 4 0.000036 -0.001563 0.003389 0.024002 -0.001056 -0.003077
# 5 -0.002427 0.000327 -0.001536 -0.001056 0.018779 -0.000071
# 6 0.001350 0.005525 -0.001418 -0.003077 -0.000071 0.023226
#
#
# Mechanical properties :
#
#
# Convention : Reuss Voigt Hill
#
# Bulk Modulus (GPa) = 38.35328 50.28266 44.31797
# Shear Modulus (GPa) = 37.63526 45.77216 41.70371
#
# Velocity S-wave (km/s) = 4.16505 4.59329 4.38440
# Velocity P-wave (km/s) = 6.38818 7.16299 6.78665
#
# Compressibility (1/GPa) = 0.02607339
#
# Stress axis : x y z
#
# Youngs Moduli (GPa) = 151.21067 52.88731 60.26502
#
# Poissons Ratio (x) = 0.07053 0.10783
# Poissons Ratio (y) = 0.20166 0.29517
# Poissons Ratio (z) = 0.27054 0.25904
#
# Static dielectric constant tensor:
#      x y z
#    x 1.513940 -0.239680 0.116120 
#    y -0.239680 1.618170 0.071810 
#    z 0.116120 0.071810 1.648350 
# 
# From -- ./inp_files/218679.got.cif
#   From: 2010.05.17/outbox.ucp.g08.bks.cvg/sg2_110_cif.got.tgz:218679.got - 2010.06.11 11:32:03.
