data_PCOD9073789
_publ_section_title
;
Structure prediction by ZEFSAII (Michael W. Deem and Ramdas Pophale) SiO2 
 PCOD9073789
Probable space group: P -1
;
_chemical_formula_sum "Si O2"
_cell_formula_units_Z 16
_cell_length_a 16.684499
_cell_length_b 7.738508
_cell_length_c 29.356344
_cell_angle_alpha 35.003786
_cell_angle_beta 17.287509
_cell_angle_gamma 39.980654
_cell_volume 643.308620
_symmetry_space_group_name_H-M "P -1"
_symmetry_group_IT_number 2
_symmetry_cell_setting 'triclinic'
loop_
_space_group_symop_operation_xyz
x,y,z
-x,-y,-z
loop_
_atom_site_type_symbol
_atom_site_label
_atom_site_fract_x
_atom_site_fract_y
_atom_site_fract_z
Si Si1 0.200792 0.053696 0.253194
Si Si2 0.292246 0.248360 0.071101
Si Si3 0.400892 0.165390 0.384340
Si Si4 0.195212 0.839996 0.709793
Si Si5 0.030800 0.858840 0.891023
Si Si6 0.761183 0.847510 0.131922
Si Si7 0.245327 0.788166 0.380968
Si Si8 0.639404 0.576683 0.743494
O O1 0.267942 0.025718 0.275538
O O2 0.282726 0.738320 0.254624
O O3 0.877167 0.037782 0.426914
O O4 0.309358 0.301490 0.104254
O O5 0.991363 0.148795 0.236445
O O6 0.409395 0.519440 0.917716
O O7 0.500000 0.000000 0.000000
O O8 0.655048 0.024250 0.297524
O O9 0.344940 0.471058 0.375791
O O10 0.480416 0.263122 0.269095
O O11 0.002733 0.937006 0.836004
O O12 0.231891 0.503547 0.780556
O O13 0.500000 0.000000 0.500000
O O14 0.000000 0.500000 0.000000
O O15 0.843822 0.958863 0.011233
O O16 0.438149 0.871044 0.300895
O O17 0.000000 0.000000 0.000000
O O18 0.927297 0.709103 0.578856
#
# Coordination Sequence:
#
# PCOD9073789 Si02
#       8
#     2   2   2   2   2   2   2   2
#     4   8  16  25  46  77 111 140 174 237 292 340
#     4  10  19  28  50  87 124 136 182 245 306 331
#     4   9  13  27  47  77 105 136 184 241 284 328
#     4  11  23  37  62  94 121 152 198 253 298 347
#     4  10  18  31  57  80 112 150 197 242 285 342
#     4  11  24  39  58  83 122 161 201 243 296 357
#     4   9  16  30  52  75 110 148 192 231 293 341
#     4   8  15  24  45  76 110 141 175 234 289 336
#
# _framework density 24.871421999999999
#
# number of rings (size 3 to 8) (size 9 to 14) (size 15 to 20)
#    0.000    2.500    2.500    3.750    7.000    0.000 
#    0.000    0.625    0.000    7.500    0.000    0.000 
#    0.000    0.000    0.000    0.000    0.000    0.000 
#
# Total GULP energy -89256.087183 kJ/mol
# GULP energy per Si atom -5578.505449 kJ/mol
# Density = 2.481481 g / cm^3
# Si number density = 24.871422 Si / 1000 Ang^3
#
#
#
# Elastic Constant Matrix: (Units=GPa)
#
#
# Indices 1 2 3 4 5 6 
#
# 1 123.5251 6.0160 44.2923 4.0001 -5.2543 -4.0227
# 2 6.0160 35.3112 23.3882 11.6459 -8.2950 4.5180
# 3 44.2923 23.3882 120.4755 10.2402 -7.9355 -1.6075
# 4 4.0001 11.6459 10.2402 34.6191 -9.7454 -6.6997
# 5 -5.2543 -8.2950 -7.9355 -9.7454 59.7808 4.1110
# 6 -4.0227 4.5180 -1.6075 -6.6997 4.1110 22.4441
#
#
#
# Elastic Compliance Matrix: (Units=1/GPa)
#
#
# Indices 1 2 3 4 5 6 
#
# 1 0.009388 0.000642 -0.003543 0.000096 0.000373 0.001260
# 2 0.000642 0.039322 -0.006726 -0.012818 0.003406 -0.012732
# 3 -0.003543 -0.006726 0.010955 -0.000277 0.000068 0.001408
# 4 0.000096 -0.012818 -0.000277 0.036696 0.003286 0.012930
# 5 0.000373 0.003406 0.000068 0.003286 0.017979 -0.002926
# 6 0.001260 -0.012732 0.001408 0.012930 -0.002926 0.051840
#
#
# Mechanical properties :
#
#
# Convention : Reuss Voigt Hill
#
# Bulk Modulus (GPa) = 24.74517 47.41163 36.07840
# Shear Modulus (GPa) = 25.13762 37.07648 31.10705
#
# Velocity S-wave (km/s) = 3.18260 3.86518 3.54038
# Velocity P-wave (km/s) = 4.84522 6.24689 5.59016
#
# Compressibility (1/GPa) = 0.04041192
#
# Stress axis : x y z
#
# Youngs Moduli (GPa) = 106.51366 25.43135 91.27846
#
# Poissons Ratio (x) = -0.01632 0.32340
# Poissons Ratio (y) = -0.06837 0.61390
# Poissons Ratio (z) = 0.37738 0.17104
#
# Static dielectric constant tensor:
#      x y z
#    x 2.013720 0.066190 0.012810 
#    y 0.066190 2.256430 0.009500 
#    z 0.012810 0.009500 1.996210 
# 
# From -- ./inp_files/619256.got.cif
#   From: 2010.05.17/outbox.cif.g08.bks.cpg/sg2_310_cif.got.tgz:619256.got - 2010.06.03 11:33:40.
