data_PCOD9073127
_publ_section_title
;
Structure prediction by ZEFSAII (Michael W. Deem and Ramdas Pophale) SiO2 
 PCOD9073127
Probable space group: P -1
;
_chemical_formula_sum "Si O2"
_cell_formula_units_Z 12
_cell_length_a 10.515267
_cell_length_b 17.552388
_cell_length_c 7.027374
_cell_angle_alpha 123.556313
_cell_angle_beta 106.420497
_cell_angle_gamma 31.228557
_cell_volume 503.297342
_symmetry_space_group_name_H-M "P -1"
_symmetry_group_IT_number 2
_symmetry_cell_setting 'triclinic'
loop_
_space_group_symop_operation_xyz
x,y,z
-x,-y,-z
loop_
_atom_site_type_symbol
_atom_site_label
_atom_site_fract_x
_atom_site_fract_y
_atom_site_fract_z
Si Si1 0.371569 0.820186 0.537593
Si Si2 0.327069 0.046263 0.760586
Si Si3 0.182742 0.915565 0.152005
Si Si4 0.781995 0.900146 0.667948
Si Si5 0.715645 0.451673 0.055180
Si Si6 0.641869 0.507044 0.656029
O O1 0.298942 0.858100 0.334736
O O2 0.452321 0.877419 0.666193
O O3 0.592434 0.605461 0.348730
O O4 0.103352 0.958817 0.737624
O O5 0.291182 0.062628 0.537281
O O6 0.011679 0.242216 0.960551
O O7 0.521609 0.016110 0.826339
O O8 0.149659 0.033902 0.203861
O O9 0.399532 0.727165 0.860783
O O10 0.047777 0.684035 0.551380
O O11 0.733164 0.465911 0.860508
O O12 0.500000 0.500000 0.000000
O O13 0.500000 0.500000 0.500000
#
# Coordination Sequence:
#
# PCOD9073127 Si02
#       6
#     2   2   2   2   2   2
#     4   9  16  28  49  75  97 123 162 205 246 287
#     4   9  17  29  48  74 101 125 157 205 251 289
#     4   9  17  30  49  72  98 128 164 202 241 290
#     4   9  18  31  46  71 103 129 157 200 251 293
#     4  10  18  31  53  76  98 128 167 206 243 290
#     4  10  20  32  49  74 102 132 165 201 244 294
#
# _framework density 23.842763000000001
#
# number of rings (size 3 to 8) (size 9 to 14) (size 15 to 20)
#    0.000    2.667    0.000    5.000    0.000    2.000 
#    0.000    6.667    0.000    4.000    0.000    8.167 
#    0.000    0.000    0.000    0.000    0.000    0.000 
#
# Total GULP energy -66822.886750 kJ/mol
# GULP energy per Si atom -5568.573896 kJ/mol
# Density = 2.378850 g / cm^3
# Si number density = 23.842763 Si / 1000 Ang^3
#
#
#
# Elastic Constant Matrix: (Units=GPa)
#
#
# Indices 1 2 3 4 5 6 
#
# 1 139.8881 30.6377 63.9220 28.5405 0.4839 -5.9696
# 2 30.6377 56.7855 49.4956 12.6913 2.7865 -3.8412
# 3 63.9220 49.4956 143.5575 10.1339 8.8738 -3.3467
# 4 28.5405 12.6913 10.1339 49.4783 -2.3094 1.9610
# 5 0.4839 2.7865 8.8738 -2.3094 21.4856 7.3774
# 6 -5.9696 -3.8412 -3.3467 1.9610 7.3774 28.0769
#
#
#
# Elastic Compliance Matrix: (Units=1/GPa)
#
#
# Indices 1 2 3 4 5 6 
#
# 1 0.010189 -0.000943 -0.003843 -0.004906 0.000322 0.001838
# 2 -0.000943 0.026703 -0.008269 -0.004818 -0.001657 0.003239
# 3 -0.003843 -0.008269 0.011626 0.001782 -0.003534 0.000242
# 4 -0.004906 -0.004818 0.001782 0.024270 0.004069 -0.004254
# 5 0.000322 -0.001657 -0.003534 0.004069 0.053798 -0.014999
# 6 0.001838 0.003239 0.000242 -0.004254 -0.014999 0.040717
#
#
# Mechanical properties :
#
#
# Convention : Reuss Voigt Hill
#
# Bulk Modulus (GPa) = 44.62341 69.81575 57.21958
# Shear Modulus (GPa) = 24.89011 32.88656 28.88833
#
# Velocity S-wave (km/s) = 3.23449 3.71794 3.48461
# Velocity P-wave (km/s) = 5.71888 6.91202 6.34356
#
# Compressibility (1/GPa) = 0.02240976
#
# Stress axis : x y z
#
# Youngs Moduli (GPa) = 98.14219 37.44849 86.01383
#
# Poissons Ratio (x) = 0.03532 0.33051
# Poissons Ratio (y) = 0.09257 0.71123
# Poissons Ratio (z) = 0.37711 0.30965
#
# Static dielectric constant tensor:
#      x y z
#    x 1.893260 0.053120 -0.014300 
#    y 0.053120 1.979190 -0.016270 
#    z -0.014300 -0.016270 2.020200 
# 
# From -- ./inp_files/282325.got.cif
#   From: 2010.05.17/outbox.cif.g08.bks.cpg/sg2_142_cif.got.tgz:282325.got - 2010.06.03 11:33:40.
