data_PCOD9073713
_publ_section_title
;
Structure prediction by ZEFSAII (Michael W. Deem and Ramdas Pophale) SiO2 
 PCOD9073713
Probable space group: P -1
;
_chemical_formula_sum "Si O2"
_cell_formula_units_Z 16
_cell_length_a 9.000000
_cell_length_b 15.000000
_cell_length_c 12.000000
_cell_angle_alpha 40.000000
_cell_angle_beta 110.000000
_cell_angle_gamma 130.000000
_cell_volume 759.581896
_symmetry_space_group_name_H-M "P -1"
_symmetry_group_IT_number 2
_symmetry_cell_setting 'triclinic'
loop_
_space_group_symop_operation_xyz
x,y,z
-x,-y,-z
loop_
_atom_site_type_symbol
_atom_site_label
_atom_site_fract_x
_atom_site_fract_y
_atom_site_fract_z
Si Si1 0.984709 0.114110 0.642988
Si Si2 0.334795 0.820226 0.566496
Si Si3 0.301274 0.529295 0.491659
Si Si4 0.512281 0.098238 0.719771
Si Si5 0.359077 0.468706 0.314861
Si Si6 0.032360 0.829709 0.905121
Si Si7 0.815143 0.495675 0.999381
Si Si8 0.080396 0.815685 0.199332
O O1 0.848907 0.171050 0.514119
O O2 0.987175 0.120290 0.774670
O O3 0.198106 0.255962 0.497702
O O4 0.934418 0.929445 0.773722
O O5 0.426981 0.833419 0.457383
O O6 0.500000 0.000000 0.500000
O O7 0.295800 0.668795 0.783350
O O8 0.420294 0.733129 0.353819
O O9 0.307831 0.524638 0.362644
O O10 0.419556 0.473397 0.648178
O O11 0.068664 0.393070 0.603059
O O12 0.676690 0.072112 0.826273
O O13 0.271313 0.942417 0.822760
O O14 0.307496 0.512745 0.137349
O O15 0.906371 0.664149 0.944319
O O16 0.037920 0.810503 0.060901
O O17 0.000000 0.500000 0.000000
#
# Coordination Sequence:
#
# PCOD9073713 Si02
#       8
#     2   2   2   2   2   2   2   2
#     4  10  22  45  68  98 142 185 227 287 347 413
#     4  11  25  47  68  99 141 185 227 286 354 413
#     4  10  21  42  71  99 138 181 232 291 349 404
#     4  11  23  41  68 102 140 183 236 285 353 414
#     4  10  22  42  70 103 138 184 231 287 346 411
#     4  12  25  43  71 105 142 184 233 289 348 419
#     4  12  26  44  70 104 142 183 235 284 347 423
#     4  10  23  41  67 104 140 181 236 294 343 409
#
# _framework density 21.064219999999999
#
# number of rings (size 3 to 8) (size 9 to 14) (size 15 to 20)
#    0.000    1.250    2.500    2.625    1.750    2.500 
#    4.500    1.875    0.000    0.000    0.000    0.000 
#    0.000    0.000    0.000    0.000    0.000    0.000 
#
# Total GULP energy -89073.115352 kJ/mol
# GULP energy per Si atom -5567.069709 kJ/mol
# Density = 2.101628 g / cm^3
# Si number density = 21.064220 Si / 1000 Ang^3
#
#
#
# Elastic Constant Matrix: (Units=GPa)
#
#
# Indices 1 2 3 4 5 6 
#
# 1 68.9731 24.4708 38.1344 -1.4124 -1.0856 -3.2457
# 2 24.4708 150.9898 71.0679 12.9465 7.9031 -16.9398
# 3 38.1344 71.0679 114.0692 17.3372 -9.2361 -26.9461
# 4 -1.4124 12.9465 17.3372 50.6729 -2.4055 -2.9029
# 5 -1.0856 7.9031 -9.2361 -2.4055 31.9353 -3.7715
# 6 -3.2457 -16.9398 -26.9461 -2.9029 -3.7715 35.0684
#
#
#
# Elastic Compliance Matrix: (Units=1/GPa)
#
#
# Indices 1 2 3 4 5 6 
#
# 1 0.018659 0.000061 -0.007877 0.002863 -0.001947 -0.004269
# 2 0.000061 0.009962 -0.006727 -0.000509 -0.004551 -0.000882
# 3 -0.007877 -0.006727 0.019631 -0.004165 0.008135 0.011636
# 4 0.002863 -0.000509 -0.004165 0.021313 0.000463 -0.001367
# 5 -0.001947 -0.004551 0.008135 0.000463 0.035676 0.007747
# 6 -0.004269 -0.000882 0.011636 -0.001367 0.007747 0.037356
#
#
# Mechanical properties :
#
#
# Convention : Reuss Voigt Hill
#
# Bulk Modulus (GPa) = 52.17278 66.81981 59.49630
# Shear Modulus (GPa) = 28.07874 36.89256 32.48565
#
# Velocity S-wave (km/s) = 3.65500 4.18955 3.93137
# Velocity P-wave (km/s) = 6.52949 7.42926 6.99386
#
# Compressibility (1/GPa) = 0.01916708
#
# Stress axis : x y z
#
# Youngs Moduli (GPa) = 53.59360 100.38152 50.93907
#
# Poissons Ratio (x) = -0.00613 0.40125
# Poissons Ratio (y) = -0.00327 0.34265
# Poissons Ratio (z) = 0.42216 0.67523
#
# Static dielectric constant tensor:
#      x y z
#    x 1.780520 0.060170 0.039720 
#    y 0.060170 1.739100 -0.022300 
#    z 0.039720 -0.022300 1.790720 
# 
# From -- ./inp_files/398440.got.cif
#   From: 2010.05.17/outbox.ucp.g08.bks.cvg/sg2_200_cif.got.tgz:398440.got - 2010.06.11 11:32:03.
