data_PCOD9073854
_publ_section_title
;
Structure prediction by ZEFSAII (Michael W. Deem and Ramdas Pophale) SiO2 
 PCOD9073854
Probable space group: P -1
;
_chemical_formula_sum "Si O2"
_cell_formula_units_Z 16
_cell_length_a 24.000000
_cell_length_b 15.000000
_cell_length_c 15.000000
_cell_angle_alpha 20.000000
_cell_angle_beta 150.000000
_cell_angle_gamma 150.000000
_cell_volume 879.333414
_symmetry_space_group_name_H-M "P -1"
_symmetry_group_IT_number 2
_symmetry_cell_setting 'triclinic'
loop_
_space_group_symop_operation_xyz
x,y,z
-x,-y,-z
loop_
_atom_site_type_symbol
_atom_site_label
_atom_site_fract_x
_atom_site_fract_y
_atom_site_fract_z
Si Si1 0.641704 0.304859 0.083187
Si Si2 0.522847 0.324326 0.519179
Si Si3 0.382296 0.771319 0.081291
Si Si4 0.831868 0.137356 0.196170
Si Si5 0.783388 0.534623 0.613275
Si Si6 0.038966 0.949442 0.946699
Si Si7 0.891349 0.624770 0.204626
Si Si8 0.051756 0.392957 0.392064
O O1 0.764321 0.405189 0.213755
O O2 0.560241 0.994382 0.287652
O O3 0.558287 0.499070 0.793770
O O4 0.671860 0.338417 0.986790
O O5 0.574877 0.401013 0.620588
O O6 0.641836 0.398650 0.554733
O O7 0.287727 0.879091 0.901091
O O8 0.500000 0.000000 0.000000
O O9 0.939704 0.284779 0.272201
O O10 0.823116 0.833241 0.435815
O O11 0.835805 0.331311 0.933861
O O12 0.836879 0.571563 0.552908
O O13 0.065570 0.686416 0.184189
O O14 0.930384 0.797782 0.004374
O O15 0.118188 0.164031 0.928371
O O16 0.031274 0.155156 0.662614
O O17 0.000000 0.500000 0.500000
#
# Coordination Sequence:
#
# PCOD9073854 Si02
#       8
#     2   2   2   2   2   2   2   2
#     4  11  23  37  65  89 123 166 207 249 315 378
#     4  10  22  38  58  92 124 169 206 246 303 373
#     4   9  19  34  55  87 127 158 200 242 294 373
#     4  11  22  36  58  91 129 170 210 253 307 373
#     4  11  22  40  61  86 133 166 210 261 301 363
#     4  11  25  40  65  91 126 153 205 260 324 372
#     4  11  25  45  66  95 129 156 203 268 328 375
#     4  12  23  40  63  94 120 171 213 256 315 367
#
# _framework density 18.195601
#
# number of rings (size 3 to 8) (size 9 to 14) (size 15 to 20)
#    0.000    1.250    1.250    5.625    3.500    5.000 
#    0.000    0.000    0.000    4.500    0.000    0.000 
#    0.000    0.000    0.000    0.000    0.000    0.000 
#
# Total GULP energy -89222.106355 kJ/mol
# GULP energy per Si atom -5576.381647 kJ/mol
# Density = 1.815419 g / cm^3
# Si number density = 18.195601 Si / 1000 Ang^3
#
#
#
# Elastic Constant Matrix: (Units=GPa)
#
#
# Indices 1 2 3 4 5 6 
#
# 1 123.3541 41.5188 36.1942 -2.3216 -6.0773 1.4955
# 2 41.5188 129.6243 44.7289 -6.4315 8.0933 -7.1565
# 3 36.1942 44.7289 127.5095 -15.9363 -9.8078 1.2699
# 4 -2.3216 -6.4315 -15.9363 35.6094 -1.7527 2.7526
# 5 -6.0773 8.0933 -9.8078 -1.7527 33.9345 -7.9415
# 6 1.4955 -7.1565 1.2699 2.7526 -7.9415 30.1609
#
#
#
# Elastic Compliance Matrix: (Units=1/GPa)
#
#
# Indices 1 2 3 4 5 6 
#
# 1 0.009579 -0.002634 -0.001721 -0.000497 0.001695 -0.000536
# 2 -0.002634 0.009892 -0.002996 -0.000022 -0.003291 0.001739
# 3 -0.001721 -0.002996 0.010164 0.004105 0.003433 -0.000524
# 4 -0.000497 -0.000022 0.004105 0.030169 0.002111 -0.002351
# 5 0.001695 -0.003291 0.003433 0.002111 0.033437 0.007602
# 6 -0.000536 0.001739 -0.000524 -0.002351 0.007602 0.035833
#
#
# Mechanical properties :
#
#
# Convention : Reuss Voigt Hill
#
# Bulk Modulus (GPa) = 66.96402 69.48574 68.22488
# Shear Modulus (GPa) = 33.61214 37.14402 35.37808
#
# Velocity S-wave (km/s) = 4.30265 4.52306 4.41423
# Velocity P-wave (km/s) = 7.84639 8.09620 7.97228
#
# Compressibility (1/GPa) = 0.01493339
#
# Stress axis : x y z
#
# Youngs Moduli (GPa) = 104.39347 101.08689 98.38291
#
# Poissons Ratio (x) = 0.26629 0.16935
# Poissons Ratio (y) = 0.27500 0.29472
# Poissons Ratio (z) = 0.17970 0.30282
#
# Static dielectric constant tensor:
#      x y z
#    x 1.639160 -0.009810 0.015050 
#    y -0.009810 1.639480 -0.001510 
#    z 0.015050 -0.001510 1.661730 
# 
# From -- ./inp_files/542984.got.cif
#   From: 2010.05.17/outbox.ucp.g08.bks.cvg/sg2_272_cif.got.tgz:542984.got - 2010.06.11 11:32:03.
