data_PCOD9073314
_publ_section_title
;
Structure prediction by ZEFSAII (Michael W. Deem and Ramdas Pophale) SiO2 
 PCOD9073314
Probable space group: P -1
;
_chemical_formula_sum "Si O2"
_cell_formula_units_Z 16
_cell_length_a 18.000000
_cell_length_b 21.000000
_cell_length_c 9.000000
_cell_angle_alpha 140.000000
_cell_angle_beta 40.000000
_cell_angle_gamma 160.000000
_cell_volume 731.217405
_symmetry_space_group_name_H-M "P -1"
_symmetry_group_IT_number 2
_symmetry_cell_setting 'triclinic'
loop_
_space_group_symop_operation_xyz
x,y,z
-x,-y,-z
loop_
_atom_site_type_symbol
_atom_site_label
_atom_site_fract_x
_atom_site_fract_y
_atom_site_fract_z
Si Si1 0.079976 0.473829 0.223171
Si Si2 0.199665 0.253000 0.119714
Si Si3 0.534823 0.321209 0.810453
Si Si4 0.840980 0.996595 0.959368
Si Si5 0.432336 0.630122 0.470518
Si Si6 0.745261 0.066023 0.949401
Si Si7 0.942387 0.035743 0.424190
Si Si8 0.763399 0.350881 0.015264
O O1 0.000000 0.500000 0.500000
O O2 0.861810 0.256212 0.117523
O O3 0.245280 0.519844 0.141098
O O4 0.197470 0.614177 0.157044
O O5 0.397314 0.319285 0.969824
O O6 0.319466 0.443395 0.295762
O O7 0.066740 0.168713 0.017909
O O8 0.015656 0.097107 0.249782
O O9 0.592505 0.324686 0.563528
O O10 0.355365 0.135949 0.857331
O O11 0.788779 0.035308 0.979500
O O12 0.874717 0.907163 0.688117
O O13 0.692816 0.812999 0.431071
O O14 0.302680 0.588201 0.724111
O O15 0.900105 0.115294 0.688185
O O16 0.478921 0.878687 0.991803
O O17 0.000000 0.500000 0.000000
#
# Coordination Sequence:
#
# PCOD9073314 Si02
#       8
#     2   2   2   2   2   2   2   2
#     4  12  27  48  69  95 126 169 225 278 323 385
#     4  11  21  37  64  99 136 178 211 255 318 385
#     4  11  21  41  63  97 135 169 219 266 310 384
#     4  11  20  40  64  99 140 172 210 260 314 392
#     4  11  21  38  66  96 132 176 211 261 321 382
#     4  11  25  44  69  96 130 174 211 270 336 378
#     4  10  21  38  60  96 138 170 211 254 316 389
#     4  11  26  49  67  94 129 165 225 276 325 389
#
# _framework density 21.881316999999999
#
# number of rings (size 3 to 8) (size 9 to 14) (size 15 to 20)
#    0.000    1.000    3.750    3.750    1.750    1.000 
#    2.250    1.875    0.000    0.000    0.000    0.000 
#    0.000    0.000    0.000    0.000    0.000    0.000 
#
# Total GULP energy -89118.365044 kJ/mol
# GULP energy per Si atom -5569.897815 kJ/mol
# Density = 2.183151 g / cm^3
# Si number density = 21.881317 Si / 1000 Ang^3
#
#
#
# Elastic Constant Matrix: (Units=GPa)
#
#
# Indices 1 2 3 4 5 6 
#
# 1 -8.3089 -3.7821 -34.5401 0.5876 -1.9427 23.2052
# 2 -3.7821 60.6649 21.3080 4.3472 -21.9409 18.8045
# 3 -34.5401 21.3080 71.2406 -0.1720 3.0066 -12.7797
# 4 0.5876 4.3472 -0.1720 32.9364 -3.4777 5.9820
# 5 -1.9427 -21.9409 3.0066 -3.4777 20.0350 -7.2432
# 6 23.2052 18.8045 -12.7797 5.9820 -7.2432 29.2600
#
#
#
# Elastic Compliance Matrix: (Units=1/GPa)
#
#
# Indices 1 2 3 4 5 6 
#
# 1 -0.026426 -0.006183 -0.006937 -0.002877 -0.000726 0.022310
# 2 -0.006183 0.051562 -0.025491 0.003502 0.050312 -0.027629
# 3 -0.006937 -0.025491 0.024199 -0.003811 -0.022918 0.027559
# 4 -0.002877 0.003502 -0.003811 0.031857 0.007373 -0.006321
# 5 -0.000726 0.050312 -0.022918 0.007373 0.103255 -0.017715
# 6 0.022310 -0.027629 0.027559 -0.006321 -0.017715 0.043183
#
#
# Mechanical properties :
#
#
# Convention : Reuss Voigt Hill
#
# Bulk Modulus (GPa) = -35.85892 9.95204 -12.95344
# Shear Modulus (GPa) = 16.91728 25.82035 21.36881
#
# Velocity S-wave (km/s) = 2.78355 3.43887 3.12842
# Velocity P-wave (km/s) = 2.46832 4.50841 2.66769
#
# Compressibility (1/GPa) = -0.02788707
#
# Stress axis : x y z
#
# Youngs Moduli (GPa) = -37.84094 19.39426 41.32323
#
# Poissons Ratio (x) = 0.11991 0.28668
# Poissons Ratio (y) = -0.23396 1.05336
# Poissons Ratio (z) = -0.26252 0.49437
#
# Static dielectric constant tensor:
#      x y z
#    x 1.814090 -0.032600 -0.128350 
#    y -0.032600 1.854080 0.251790 
#    z -0.128350 0.251790 3.138150 
# 
# From -- ./inp_files/338183.got.cif
#   From: 2010.05.17/outbox.ucp.g08.bks.cvg/sg2_170_cif.got.tgz:338183.got - 2010.06.11 11:32:03.
