data_PCOD9073496
_publ_section_title
;
Structure prediction by ZEFSAII (Michael W. Deem and Ramdas Pophale) SiO2 
 PCOD9073496
Probable space group: P -1
;
_chemical_formula_sum "Si O2"
_cell_formula_units_Z 12
_cell_length_a 11.233852
_cell_length_b 7.660509
_cell_length_c 7.810873
_cell_angle_alpha 100.120334
_cell_angle_beta 87.199920
_cell_angle_gamma 136.963426
_cell_volume 448.422630
_symmetry_space_group_name_H-M "P -1"
_symmetry_group_IT_number 2
_symmetry_cell_setting 'triclinic'
loop_
_space_group_symop_operation_xyz
x,y,z
-x,-y,-z
loop_
_atom_site_type_symbol
_atom_site_label
_atom_site_fract_x
_atom_site_fract_y
_atom_site_fract_z
Si Si1 0.749348 0.892450 0.418925
Si Si2 0.410791 0.639002 0.513713
Si Si3 0.198956 0.320920 0.903790
Si Si4 0.453919 0.151039 0.079549
Si Si5 0.907257 0.542422 0.378754
Si Si6 0.935573 0.267900 0.087652
O O1 0.566799 0.799261 0.393246
O O2 0.686346 0.656658 0.501766
O O3 0.816593 0.878499 0.234988
O O4 0.907700 0.163902 0.546703
O O5 0.515601 0.793482 0.709725
O O6 0.250557 0.600980 0.498910
O O7 0.401796 0.570173 0.976690
O O8 0.165941 0.427581 0.772512
O O9 0.071540 0.255365 0.047533
O O10 0.500000 0.000000 0.000000
O O11 0.257240 0.984733 0.014851
O O12 0.925831 0.360892 0.285056
O O13 0.000000 0.500000 0.000000
#
# Coordination Sequence:
#
# PCOD9073496 Si02
#       6
#     2   2   2   2   2   2
#     4   9  16  22  26  32  39  45  48  54  61  68
#     4   9  15  21  28  31  37  45  51  54  59  66
#     4   9  17  21  26  33  38  45  49  53  62  66
#     4  10  14  21  26  33  38  42  50  55  60  65
#     4   9  15  20  28  33  37  43  50  56  61  64
#     4  10  15  20  28  34  37  43  49  57  60  65
#
# _framework density 26.760466999999998
#
# number of rings (size 3 to 8) (size 9 to 14) (size 15 to 20)
#    0.000    3.000    5.000    4.000    0.000    2.667 
#    0.000    0.000    0.000    0.000    0.000    0.000 
#    0.000    0.000    0.000    0.000    0.000    0.000 
#
# Total GULP energy -67152.843882 kJ/mol
# GULP energy per Si atom -5596.070324 kJ/mol
# Density = 2.669956 g / cm^3
# Si number density = 26.760467 Si / 1000 Ang^3
#
#
#
# Elastic Constant Matrix: (Units=GPa)
#
#
# Indices 1 2 3 4 5 6 
#
# 1 99.6282 57.2563 54.1388 4.2729 -24.2257 28.3354
# 2 57.2563 171.0265 80.5083 17.9533 -16.9737 66.3618
# 3 54.1388 80.5083 124.6494 27.7045 -52.2526 32.5458
# 4 4.2729 17.9533 27.7045 62.5895 7.3432 -9.1622
# 5 -24.2257 -16.9737 -52.2526 7.3432 58.1708 -12.6289
# 6 28.3354 66.3618 32.5458 -9.1622 -12.6289 61.9441
#
#
#
# Elastic Compliance Matrix: (Units=1/GPa)
#
#
# Indices 1 2 3 4 5 6 
#
# 1 0.014218 -0.002218 -0.004138 0.001142 0.001073 -0.001566
# 2 -0.002218 0.014075 -0.006768 -0.002016 -0.005218 -0.011871
# 3 -0.004138 -0.006768 0.026237 -0.012164 0.020933 -0.002173
# 4 0.001142 -0.002016 -0.012164 0.024633 -0.012152 0.009194
# 5 0.001073 -0.005218 0.020933 -0.012152 0.036393 -0.000277
# 6 -0.001566 -0.011871 -0.002173 0.009194 -0.000277 0.032023
#
#
# Mechanical properties :
#
#
# Convention : Reuss Voigt Hill
#
# Bulk Modulus (GPa) = 35.35685 86.56786 60.96236
# Shear Modulus (GPa) = 27.28477 50.10092 38.69285
#
# Velocity S-wave (km/s) = 3.19657 4.33159 3.80662
# Velocity P-wave (km/s) = 5.18316 7.57867 6.49235
#
# Compressibility (1/GPa) = 0.02828306
#
# Stress axis : x y z
#
# Youngs Moduli (GPa) = 70.33463 71.04799 38.11412
#
# Poissons Ratio (x) = 0.15756 0.15772
# Poissons Ratio (y) = 0.15597 0.25794
# Poissons Ratio (z) = 0.29105 0.48083
#
# Static dielectric constant tensor:
#      x y z
#    x 2.172060 -0.008160 -0.074660 
#    y -0.008160 2.155870 -0.073570 
#    z -0.074660 -0.073570 2.121460 
# 
# From -- ./inp_files/347893.got.cif
#   From: 2010.05.17/outbox.cif.g08.bks.cpg/sg2_174_cif.got.tgz:347893.got - 2010.06.03 11:33:40.
