data_PCOD9073577
_publ_section_title
;
Structure prediction by ZEFSAII (Michael W. Deem and Ramdas Pophale) SiO2 
 PCOD9073577
Probable space group: P -1
;
_chemical_formula_sum "Si O2"
_cell_formula_units_Z 14
_cell_length_a 7.333171
_cell_length_b 8.291463
_cell_length_c 12.942443
_cell_angle_alpha 131.771207
_cell_angle_beta 81.853379
_cell_angle_gamma 94.075954
_cell_volume 580.692626
_symmetry_space_group_name_H-M "P -1"
_symmetry_group_IT_number 2
_symmetry_cell_setting 'triclinic'
loop_
_space_group_symop_operation_xyz
x,y,z
-x,-y,-z
loop_
_atom_site_type_symbol
_atom_site_label
_atom_site_fract_x
_atom_site_fract_y
_atom_site_fract_z
Si Si1 0.627313 0.716117 0.236698
Si Si2 0.847331 0.495349 0.598082
Si Si3 0.522542 0.207266 0.405934
Si Si4 0.042563 0.235853 0.136933
Si Si5 0.025598 0.789533 0.340132
Si Si6 0.814511 0.493740 0.944662
Si Si7 0.641537 0.449966 0.309163
O O1 0.543991 0.554464 0.259749
O O2 0.829088 0.758758 0.287852
O O3 0.540747 0.956243 0.326590
O O4 0.659384 0.580738 0.072160
O O5 0.687620 0.344509 0.502964
O O6 0.915846 0.374995 0.644578
O O7 0.000000 0.500000 0.500000
O O8 0.844943 0.736576 0.752735
O O9 0.542073 0.271690 0.311610
O O10 0.347963 0.336742 0.525822
O O11 0.835695 0.341809 0.215065
O O12 0.156011 0.337256 0.077134
O O13 0.000000 0.000000 0.000000
O O14 0.175076 0.738089 0.214656
O O15 0.000000 0.000000 0.500000
O O16 0.000000 0.500000 0.000000
#
# Coordination Sequence:
#
# PCOD9073577 Si02
#       7
#     2   2   2   2   2   2   2
#     4  11  19  38  61  87 115 160 196 243 301 346
#     4  11  20  36  56  87 115 148 201 248 288 349
#     4  11  23  36  62  87 123 160 190 253 304 340
#     4  11  21  36  60  86 114 155 198 246 296 351
#     4  10  18  31  55  84 115 141 195 248 287 337
#     4   9  18  31  53  82 110 141 191 246 279 339
#     4  11  22  39  56  93 122 151 207 242 287 377
#
# _framework density 24.109138999999999
#
# number of rings (size 3 to 8) (size 9 to 14) (size 15 to 20)
#    0.000    1.429    7.143    1.286    0.000    0.000 
#    0.000    0.714    0.000    3.429    0.000    0.000 
#    0.000    0.000    0.000    0.000    0.000    0.000 
#
# Total GULP energy -77997.637591 kJ/mol
# GULP energy per Si atom -5571.259828 kJ/mol
# Density = 2.405427 g / cm^3
# Si number density = 24.109139 Si / 1000 Ang^3
#
#
#
# Elastic Constant Matrix: (Units=GPa)
#
#
# Indices 1 2 3 4 5 6 
#
# 1 95.7837 30.9582 47.1692 8.7146 15.5596 -3.0322
# 2 30.9582 119.5155 67.6300 -14.2503 -12.9777 -14.2713
# 3 47.1692 67.6300 213.8663 -4.2059 -7.2177 5.5220
# 4 8.7146 -14.2503 -4.2059 50.2145 2.4923 -10.3124
# 5 15.5596 -12.9777 -7.2177 2.4923 48.0640 6.4655
# 6 -3.0322 -14.2713 5.5220 -10.3124 6.4655 21.7306
#
#
#
# Elastic Compliance Matrix: (Units=1/GPa)
#
#
# Indices 1 2 3 4 5 6 
#
# 1 0.013813 -0.003170 -0.002310 -0.003082 -0.005600 0.000636
# 2 -0.003170 0.013759 -0.003758 0.006486 0.002232 0.011962
# 3 -0.002310 -0.003758 0.006542 -0.001331 0.001530 -0.005539
# 4 -0.003082 0.006486 -0.001331 0.025647 -0.001019 0.016642
# 5 -0.005600 0.002232 0.001530 -0.001019 0.024510 -0.007481
# 6 0.000636 0.011962 -0.005539 0.016642 -0.007481 0.065494
#
#
# Mechanical properties :
#
#
# Convention : Reuss Voigt Hill
#
# Bulk Modulus (GPa) = 63.94872 80.07560 72.01216
# Shear Modulus (GPa) = 28.82632 42.89571 35.86101
#
# Velocity S-wave (km/s) = 3.46158 4.22267 3.86092
# Velocity P-wave (km/s) = 6.52373 7.55384 7.05760
#
# Compressibility (1/GPa) = 0.01563753
#
# Stress axis : x y z
#
# Youngs Moduli (GPa) = 72.39726 72.68090 152.85831
#
# Poissons Ratio (x) = 0.23043 0.35309
# Poissons Ratio (y) = 0.22953 0.57438
# Poissons Ratio (z) = 0.16723 0.27311
#
# Static dielectric constant tensor:
#      x y z
#    x 2.137980 0.124970 0.174340 
#    y 0.124970 2.050970 0.211080 
#    z 0.174340 0.211080 2.270110 
# 
# From -- ./inp_files/196183.got.cif
#   From: 2010.05.17/outbox.cif.g08.bks.cpg/sg2_99_cif.got.tgz:196183.got - 2010.06.03 11:33:40.
