data_PCOD9073293
_publ_section_title
;
Structure prediction by ZEFSAII (Michael W. Deem and Ramdas Pophale) SiO2 
 PCOD9073293
Probable space group: P -1
;
_chemical_formula_sum "Si O2"
_cell_formula_units_Z 16
_cell_length_a 12.000000
_cell_length_b 18.000000
_cell_length_c 9.000000
_cell_angle_alpha 150.000000
_cell_angle_beta 60.000000
_cell_angle_gamma 120.000000
_cell_volume 831.642886
_symmetry_space_group_name_H-M "P -1"
_symmetry_group_IT_number 2
_symmetry_cell_setting 'triclinic'
loop_
_space_group_symop_operation_xyz
x,y,z
-x,-y,-z
loop_
_atom_site_type_symbol
_atom_site_label
_atom_site_fract_x
_atom_site_fract_y
_atom_site_fract_z
Si Si1 0.201647 0.621863 0.633052
Si Si2 0.825873 0.961804 0.914998
Si Si3 0.026957 0.242213 0.333821
Si Si4 0.569682 0.889711 0.158103
Si Si5 0.464396 0.831951 0.805463
Si Si6 0.723258 0.748689 0.363037
Si Si7 0.281963 0.311876 0.088011
Si Si8 0.056850 0.460315 0.162703
O O1 0.313245 0.760837 0.758845
O O2 0.286459 0.491986 0.402010
O O3 0.124179 0.551727 0.418332
O O4 0.082282 0.634780 0.851341
O O5 0.913707 0.842661 0.717076
O O6 0.782334 0.900216 0.674621
O O7 0.703912 0.960570 0.106820
O O8 0.907761 0.125804 0.148908
O O9 0.140096 0.259631 0.164453
O O10 0.984878 0.404526 0.675344
O O11 0.500000 0.000000 0.500000
O O12 0.481458 0.839054 0.985423
O O13 0.612547 0.757549 0.003440
O O14 0.572568 0.732530 0.496520
O O15 0.500000 0.000000 0.000000
O O16 0.715042 0.744859 0.182635
O O17 0.828665 0.633575 0.128164
#
# Coordination Sequence:
#
# PCOD9073293 Si02
#       8
#     2   2   2   2   2   2   2   2
#     4   9  20  39  59  87 120 161 195 239 304 352
#     4   9  20  36  57  86 122 153 194 249 297 345
#     4   9  18  37  58  82 119 162 190 242 302 346
#     4  10  21  40  57  81 120 158 200 238 298 355
#     4  11  24  40  60  89 124 154 198 252 297 356
#     4  10  21  38  57  94 114 150 204 247 293 348
#     4   9  19  38  61  80 119 156 196 242 292 360
#     4   9  19  37  62  87 119 156 200 244 292 357
#
# _framework density 19.239027
#
# number of rings (size 3 to 8) (size 9 to 14) (size 15 to 20)
#    0.000    2.500    0.000    1.500    3.500    3.500 
#   11.250    0.000    0.000    0.000    0.000    0.000 
#    0.000    0.000    0.000    0.000    0.000    0.000 
#
# Total GULP energy -89114.660434 kJ/mol
# GULP energy per Si atom -5569.666277 kJ/mol
# Density = 1.919524 g / cm^3
# Si number density = 19.239027 Si / 1000 Ang^3
#
#
#
# Elastic Constant Matrix: (Units=GPa)
#
#
# Indices 1 2 3 4 5 6 
#
# 1 95.0482 27.8968 36.5817 1.6834 -11.3921 8.5348
# 2 27.8968 70.7313 37.3263 10.7968 1.2607 8.3300
# 3 36.5817 37.3263 92.2330 -12.6452 -21.3582 0.0634
# 4 1.6834 10.7968 -12.6452 30.8985 -1.4460 6.9234
# 5 -11.3921 1.2607 -21.3582 -1.4460 45.9217 0.5565
# 6 8.5348 8.3300 0.0634 6.9234 0.5565 40.6804
#
#
#
# Elastic Compliance Matrix: (Units=1/GPa)
#
#
# Indices 1 2 3 4 5 6 
#
# 1 0.013222 -0.002874 -0.003813 -0.000737 0.001587 -0.002076
# 2 -0.002874 0.024001 -0.012072 -0.013075 -0.007375 -0.001967
# 3 -0.003813 -0.012072 0.021331 0.013427 0.009719 0.000821
# 4 -0.000737 -0.013075 0.013427 0.043904 0.007861 -0.004769
# 5 0.001587 -0.007375 0.009719 0.007861 0.027147 -0.000547
# 6 -0.002076 -0.001967 0.000821 -0.004769 -0.000547 0.026238
#
#
# Mechanical properties :
#
#
# Convention : Reuss Voigt Hill
#
# Bulk Modulus (GPa) = 47.53860 51.29136 49.41498
# Shear Modulus (GPa) = 24.95338 33.91397 29.43368
#
# Velocity S-wave (km/s) = 3.60532 4.20309 3.91563
# Velocity P-wave (km/s) = 6.48801 7.09031 6.79584
#
# Compressibility (1/GPa) = 0.02103554
#
# Stress axis : x y z
#
# Youngs Moduli (GPa) = 75.63326 41.66453 46.87990
#
# Poissons Ratio (x) = 0.11973 0.17876
# Poissons Ratio (y) = 0.21735 0.56595
# Poissons Ratio (z) = 0.28840 0.50299
#
# Static dielectric constant tensor:
#      x y z
#    x 1.719010 -0.018280 -0.017840 
#    y -0.018280 1.698060 0.029590 
#    z -0.017840 0.029590 1.663160 
# 
# From -- ./inp_files/278586.got.cif
#   From: 2010.05.17/outbox.ucp.g08.bks.cvg/sg2_140_cif.got.tgz:278586.got - 2010.06.11 11:32:03.
