data_PCOD9073716
_publ_section_title
;
Structure prediction by ZEFSAII (Michael W. Deem and Ramdas Pophale) SiO2 
 PCOD9073716
Probable space group: P -1
;
_chemical_formula_sum "Si O2"
_cell_formula_units_Z 16
_cell_length_a 12.000000
_cell_length_b 9.000000
_cell_length_c 9.000000
_cell_angle_alpha 60.000000
_cell_angle_beta 100.000000
_cell_angle_gamma 120.000000
_cell_volume 725.212580
_symmetry_space_group_name_H-M "P -1"
_symmetry_group_IT_number 2
_symmetry_cell_setting 'triclinic'
loop_
_space_group_symop_operation_xyz
x,y,z
-x,-y,-z
loop_
_atom_site_type_symbol
_atom_site_label
_atom_site_fract_x
_atom_site_fract_y
_atom_site_fract_z
Si Si1 0.930710 0.807206 0.473667
Si Si2 0.900351 0.256997 0.972247
Si Si3 0.102198 0.660287 0.723723
Si Si4 0.794224 0.820837 0.145515
Si Si5 0.369631 0.515167 0.954725
Si Si6 0.279199 0.547576 0.228971
Si Si7 0.393231 0.905927 0.647071
Si Si8 0.548030 0.719669 0.339273
O O1 0.898814 0.832654 0.285024
O O2 0.793916 0.642944 0.590057
O O3 0.018014 0.704127 0.566467
O O4 0.000000 0.000000 0.500000
O O5 0.803508 0.341734 0.869420
O O6 0.037376 0.430148 0.860789
O O7 0.900161 0.248776 0.157982
O O8 0.855774 0.046750 0.994232
O O9 0.244900 0.766000 0.638965
O O10 0.734004 0.641790 0.105284
O O11 0.664121 0.775665 0.226077
O O12 0.414981 0.744916 0.821896
O O13 0.500000 0.500000 0.000000
O O14 0.299075 0.467649 0.118794
O O15 0.418888 0.699380 0.245825
O O16 0.500000 0.000000 0.500000
O O17 0.400972 0.095423 0.633121
O O18 0.500000 0.500000 0.500000
#
# Coordination Sequence:
#
# PCOD9073716 Si02
#       8
#     2   2   2   2   2   2   2   2
#     4  11  22  40  72  99 131 187 238 284 343 423
#     4  10  21  42  73  98 134 182 237 282 344 426
#     4  10  21  43  70  97 133 182 234 285 350 415
#     4  12  23  42  72 107 139 183 240 285 350 417
#     4  12  27  44  66 107 148 180 229 298 357 404
#     4  11  24  42  71  98 140 182 236 291 348 415
#     4  12  27  46  71 101 147 179 226 298 358 412
#     4  12  23  42  72 104 137 186 240 284 348 423
#
# _framework density 22.062495999999999
#
# number of rings (size 3 to 8) (size 9 to 14) (size 15 to 20)
#    0.000    0.750    6.250    0.750    1.750    1.000 
#    0.000    3.125    0.000    0.000    0.000    0.000 
#    0.000    0.000    0.000    0.000    0.000    0.000 
#
# Total GULP energy -89374.288519 kJ/mol
# GULP energy per Si atom -5585.893032 kJ/mol
# Density = 2.201228 g / cm^3
# Si number density = 22.062496 Si / 1000 Ang^3
#
#
#
# Elastic Constant Matrix: (Units=GPa)
#
#
# Indices 1 2 3 4 5 6 
#
# 1 115.0563 15.3691 31.1462 -7.4632 -1.1957 21.6941
# 2 15.3691 90.7342 22.5130 -35.1353 -0.3247 15.7549
# 3 31.1462 22.5130 42.4290 -16.5973 2.0379 5.4463
# 4 -7.4632 -35.1353 -16.5973 25.5083 6.1297 6.3423
# 5 -1.1957 -0.3247 2.0379 6.1297 38.1309 -2.0391
# 6 21.6941 15.7549 5.4463 6.3423 -2.0391 39.7616
#
#
#
# Elastic Compliance Matrix: (Units=1/GPa)
#
#
# Indices 1 2 3 4 5 6 
#
# 1 0.012059 0.002741 -0.007746 0.004129 -0.000237 -0.007275
# 2 0.002741 0.048060 0.012635 0.088411 -0.016382 -0.037211
# 3 -0.007746 0.012635 0.045172 0.051236 -0.011627 -0.015736
# 4 0.004129 0.088411 0.051236 0.226310 -0.042653 -0.082588
# 5 -0.000237 -0.016382 -0.011627 -0.042653 0.034454 0.016784
# 6 -0.007275 -0.037211 -0.015736 -0.082588 0.016784 0.060053
#
#
# Mechanical properties :
#
#
# Convention : Reuss Voigt Hill
#
# Bulk Modulus (GPa) = 8.29531 42.91956 25.60744
# Shear Modulus (GPa) = 11.08567 32.62624 21.85595
#
# Velocity S-wave (km/s) = 2.24401 3.84970 3.15086
# Velocity P-wave (km/s) = 3.23762 6.26547 4.98690
#
# Compressibility (1/GPa) = 0.12055002
#
# Stress axis : x y z
#
# Youngs Moduli (GPa) = 82.92293 20.80726 22.13780
#
# Poissons Ratio (x) = -0.05703 0.17148
# Poissons Ratio (y) = -0.22726 -0.27971
# Poissons Ratio (z) = 0.64234 -0.26290
#
# Static dielectric constant tensor:
#      x y z
#    x 1.824200 0.282090 -0.095890 
#    y 0.282090 -2.634930 1.893460 
#    z -0.095890 1.893460 1.032100 
# 
# From -- ./inp_files/242580.got.cif
#   From: 2010.05.17/outbox.ucp.g08.bks.cvg/sg2_122_cif.got.tgz:242580.got - 2010.06.11 11:32:03.
