data_PCOD9073108
_publ_section_title
;
Structure prediction by ZEFSAII (Michael W. Deem and Ramdas Pophale) SiO2 
 PCOD9073108
Probable space group: P -1
;
_chemical_formula_sum "Si O2"
_cell_formula_units_Z 14
_cell_length_a 9.000000
_cell_length_b 18.000000
_cell_length_c 18.000000
_cell_angle_alpha 30.000000
_cell_angle_beta 140.000000
_cell_angle_gamma 150.000000
_cell_volume 727.497153
_symmetry_space_group_name_H-M "P -1"
_symmetry_group_IT_number 2
_symmetry_cell_setting 'triclinic'
loop_
_space_group_symop_operation_xyz
x,y,z
-x,-y,-z
loop_
_atom_site_type_symbol
_atom_site_label
_atom_site_fract_x
_atom_site_fract_y
_atom_site_fract_z
Si Si1 0.656706 0.893580 0.957031
Si Si2 0.521400 0.928526 0.149040
Si Si3 0.761597 0.487245 0.626056
Si Si4 0.268674 0.886262 0.703195
Si Si5 0.914239 0.788295 0.803349
Si Si6 0.557472 0.161278 0.438884
Si Si7 0.875476 0.458341 0.866021
O O1 0.552994 0.915929 0.819852
O O2 0.591015 0.995982 0.901752
O O3 0.420463 0.671922 0.083288
O O4 0.000000 0.000000 0.000000
O O5 0.335634 0.705273 0.282262
O O6 0.865746 0.039493 0.204239
O O7 0.500000 0.000000 0.000000
O O8 0.500000 0.500000 0.500000
O O9 0.782904 0.447064 0.755500
O O10 0.087080 0.673363 0.564183
O O11 0.073003 0.866734 0.714933
O O12 0.068987 0.678060 0.770672
O O13 0.392913 0.050493 0.548431
O O14 0.600977 0.746355 0.724079
O O15 0.945895 0.625144 0.978325
O O16 0.500000 0.000000 0.500000
#
# Coordination Sequence:
#
# PCOD9073108 Si02
#       7
#     2   2   2   2   2   2   2
#     4  10  22  38  68  94 123 163 211 262 308 368
#     4  10  20  42  63  89 124 164 207 254 315 369
#     4  12  25  41  62  96 131 163 209 263 316 371
#     4  10  22  43  63  94 128 162 211 257 318 369
#     4  10  22  42  67  91 126 161 213 264 309 371
#     4  12  25  41  63  97 124 169 209 258 316 375
#     4  10  21  43  65  92 125 168 207 260 313 363
#
# _framework density 19.244062
#
# number of rings (size 3 to 8) (size 9 to 14) (size 15 to 20)
#    0.000    1.714    4.286    3.000    2.000    4.000 
#    0.000    2.857    0.000    0.000    0.000    0.000 
#    0.000    0.000    0.000    0.000    0.000    0.000 
#
# Total GULP energy -78061.298259 kJ/mol
# GULP energy per Si atom -5575.807019 kJ/mol
# Density = 1.920026 g / cm^3
# Si number density = 19.244062 Si / 1000 Ang^3
#
#
#
# Elastic Constant Matrix: (Units=GPa)
#
#
# Indices 1 2 3 4 5 6 
#
# 1 32.2496 18.4530 26.3010 14.4147 -0.0559 18.6350
# 2 18.4530 111.9696 39.0373 -4.6536 13.0363 24.9644
# 3 26.3010 39.0373 97.5717 0.6523 -10.6633 20.4564
# 4 14.4147 -4.6536 0.6523 37.5417 3.0581 4.0488
# 5 -0.0559 13.0363 -10.6633 3.0581 20.9919 14.8714
# 6 18.6350 24.9644 20.4564 4.0488 14.8714 34.4576
#
#
#
# Elastic Compliance Matrix: (Units=1/GPa)
#
#
# Indices 1 2 3 4 5 6 
#
# 1 0.081966 -0.007143 -0.002806 -0.030242 0.045625 -0.053625
# 2 -0.007143 0.013219 -0.005537 0.005292 -0.013903 0.002951
# 3 -0.002806 -0.005537 0.019597 -0.000185 0.025527 -0.017101
# 4 -0.030242 0.005292 -0.000185 0.038783 -0.021362 0.017293
# 5 0.045625 -0.013903 0.025527 -0.021362 0.132192 -0.084299
# 6 -0.053625 0.002951 -0.017101 0.017293 -0.084299 0.100386
#
#
# Mechanical properties :
#
#
# Convention : Reuss Voigt Hill
#
# Bulk Modulus (GPa) = 11.93160 45.48594 28.70877
# Shear Modulus (GPa) = 11.23467 29.13156 20.18311
#
# Velocity S-wave (km/s) = 2.41881 3.89497 3.24203
# Velocity P-wave (km/s) = 3.74359 6.62687 5.38191
#
# Compressibility (1/GPa) = 0.08381103
#
# Stress axis : x y z
#
# Youngs Moduli (GPa) = 12.20015 75.64784 51.02918
#
# Poissons Ratio (x) = 0.54036 0.14316
# Poissons Ratio (y) = 0.08715 0.28254
# Poissons Ratio (z) = 0.03423 0.41885
#
# Static dielectric constant tensor:
#      x y z
#    x 1.678980 -0.042300 -0.058780 
#    y -0.042300 1.774970 0.079840 
#    z -0.058780 0.079840 1.778250 
# 
# From -- ./inp_files/175266.got.cif
#   From: 2010.05.17/outbox.ucp.g08.bks.cvg/sg2_88_cif.got.tgz:175266.got - 2010.06.11 11:32:03.
