data_PCOD9073492
_publ_section_title
;
Structure prediction by ZEFSAII (Michael W. Deem and Ramdas Pophale) SiO2 
 PCOD9073492
Probable space group: P -1
;
_chemical_formula_sum "Si O2"
_cell_formula_units_Z 14
_cell_length_a 12.000000
_cell_length_b 24.000000
_cell_length_c 9.000000
_cell_angle_alpha 150.000000
_cell_angle_beta 140.000000
_cell_angle_gamma 30.000000
_cell_volume 646.664136
_symmetry_space_group_name_H-M "P -1"
_symmetry_group_IT_number 2
_symmetry_cell_setting 'triclinic'
loop_
_space_group_symop_operation_xyz
x,y,z
-x,-y,-z
loop_
_atom_site_type_symbol
_atom_site_label
_atom_site_fract_x
_atom_site_fract_y
_atom_site_fract_z
Si Si1 0.641662 0.046987 0.680916
Si Si2 0.175503 0.008840 0.780798
Si Si3 0.468719 0.216140 0.593218
Si Si4 0.845809 0.117824 0.260752
Si Si5 0.265482 0.612277 0.100785
Si Si6 0.549791 0.436796 0.242700
Si Si7 0.005650 0.325355 0.295748
O O1 0.537477 0.110938 0.560075
O O2 0.500000 0.000000 0.500000
O O3 0.648688 0.160975 0.045835
O O4 0.916789 0.931870 0.675588
O O5 0.414894 0.878429 0.655439
O O6 0.136089 0.000842 0.895578
O O7 0.000000 0.000000 0.500000
O O8 0.122334 0.157357 0.034998
O O9 0.200786 0.327728 0.555746
O O10 0.573107 0.294668 0.917438
O O11 0.777935 0.239147 0.589238
O O12 0.323352 0.553952 0.190473
O O13 0.500000 0.500000 0.000000
O O14 0.076664 0.626839 0.847915
O O15 0.500000 0.500000 0.500000
O O16 0.774160 0.406156 0.338473
#
# Coordination Sequence:
#
# PCOD9073492 Si02
#       7
#     2   2   2   2   2   2   2
#     4  11  24  40  62  95 127 160 200 253 318 375
#     4  12  19  40  69  94 124 158 200 257 323 367
#     4  12  24  41  66  95 126 162 207 261 314 367
#     4  11  22  41  65  91 127 162 203 256 308 370
#     4  10  21  40  63  87 120 164 208 249 302 361
#     4  11  24  43  63  86 123 173 213 249 301 366
#     4  11  23  40  63  95 126 158 206 259 312 372
#
# _framework density 21.649569
#
# number of rings (size 3 to 8) (size 9 to 14) (size 15 to 20)
#    0.000    0.857    4.286    3.000    0.000    5.714 
#    0.000    2.857    0.000    0.000    0.000    0.000 
#    0.000    0.000    0.000    0.000    0.000    0.000 
#
# Total GULP energy -78081.030096 kJ/mol
# GULP energy per Si atom -5577.216435 kJ/mol
# Density = 2.160029 g / cm^3
# Si number density = 21.649569 Si / 1000 Ang^3
#
#
#
# Elastic Constant Matrix: (Units=GPa)
#
#
# Indices 1 2 3 4 5 6 
#
# 1 110.4743 53.1406 22.8892 -24.9445 -3.7462 -3.0557
# 2 53.1406 93.4072 23.4460 -25.8973 -3.7359 -5.6064
# 3 22.8892 23.4460 64.1289 -22.9967 -10.3769 -10.3155
# 4 -24.9445 -25.8973 -22.9967 37.7946 -1.9202 5.2214
# 5 -3.7462 -3.7359 -10.3769 -1.9202 35.5894 -8.6919
# 6 -3.0557 -5.6064 -10.3155 5.2214 -8.6919 42.5415
#
#
#
# Elastic Compliance Matrix: (Units=1/GPa)
#
#
# Indices 1 2 3 4 5 6 
#
# 1 0.013095 -0.006113 -0.001024 0.003926 0.000531 -0.000486
# 2 -0.006113 0.016357 -0.001134 0.006423 0.001315 0.000922
# 3 -0.001024 -0.001134 0.023036 0.012223 0.008518 0.005603
# 4 0.003926 0.006423 0.012223 0.041178 0.006987 0.000466
# 5 0.000531 0.001315 0.008518 0.006987 0.033154 0.008193
# 6 -0.000486 0.000922 0.005603 0.000466 0.008193 0.026568
#
#
# Mechanical properties :
#
#
# Convention : Reuss Voigt Hill
#
# Bulk Modulus (GPa) = 27.81862 51.88467 39.85165
# Shear Modulus (GPa) = 27.48578 34.42074 30.95326
#
# Velocity S-wave (km/s) = 3.56698 3.99169 3.78529
# Velocity P-wave (km/s) = 5.46277 6.72774 6.12798
#
# Compressibility (1/GPa) = 0.03594715
#
# Stress axis : x y z
#
# Youngs Moduli (GPa) = 76.36342 61.13702 43.40982
#
# Poissons Ratio (x) = 0.37371 0.04444
# Poissons Ratio (y) = 0.46678 0.04924
# Poissons Ratio (z) = 0.07817 0.06934
#
# Static dielectric constant tensor:
#      x y z
#    x 1.870170 0.086590 -0.033510 
#    y 0.086590 1.881120 0.032840 
#    z -0.033510 0.032840 1.833750 
# 
# From -- ./inp_files/244826.got.cif
#   From: 2010.05.17/outbox.ucp.g08.bks.cvg/sg2_123_cif.got.tgz:244826.got - 2010.06.11 11:32:03.
