data_PCOD9073433
_publ_section_title
;
Structure prediction by ZEFSAII (Michael W. Deem and Ramdas Pophale) SiO2 
 PCOD9073433
Probable space group: P -1
;
_chemical_formula_sum "Si O2"
_cell_formula_units_Z 14
_cell_length_a 21.000000
_cell_length_b 9.000000
_cell_length_c 12.000000
_cell_angle_alpha 120.000000
_cell_angle_beta 30.000000
_cell_angle_gamma 140.000000
_cell_volume 627.666119
_symmetry_space_group_name_H-M "P -1"
_symmetry_group_IT_number 2
_symmetry_cell_setting 'triclinic'
loop_
_space_group_symop_operation_xyz
x,y,z
-x,-y,-z
loop_
_atom_site_type_symbol
_atom_site_label
_atom_site_fract_x
_atom_site_fract_y
_atom_site_fract_z
Si Si1 0.502975 0.717907 0.889870
Si Si2 0.828842 0.121629 0.374394
Si Si3 0.703283 0.778800 0.235892
Si Si4 0.367110 0.731883 0.316763
Si Si5 0.875375 0.619395 0.800442
Si Si6 0.025085 0.823044 0.408631
Si Si7 0.401139 0.216220 0.842235
O O1 0.433365 0.450059 0.912884
O O2 0.698208 0.903289 0.588967
O O3 0.519514 0.831495 0.024956
O O4 0.335783 0.640349 0.037474
O O5 0.688545 0.127785 0.544049
O O6 0.025774 0.378712 0.243957
O O7 0.840572 0.009205 0.208396
O O8 0.500000 0.500000 0.500000
O O9 0.635581 0.825110 0.250166
O O10 0.826034 0.752095 0.981604
O O11 0.422340 0.711076 0.344297
O O12 0.166972 0.446494 0.463105
O O13 0.015649 0.769654 0.534432
O O14 0.000000 0.000000 0.500000
O O15 0.211972 0.960359 0.104173
#
# Coordination Sequence:
#
# PCOD9073433 Si02
#       7
#     2   2   2   2   2   2   2
#     4  10  21  39  65  95 122 161 208 251 308 365
#     4  12  24  40  62  95 128 163 203 253 314 364
#     4  11  22  43  64  90 119 168 215 247 297 372
#     4  11  25  38  63  98 127 159 201 258 320 357
#     4  10  22  39  67  91 120 163 206 257 299 364
#     4  11  21  40  66  96 122 155 210 255 307 362
#     4  11  22  41  68  90 124 164 209 255 297 368
#
# _framework density 22.304852
#
# number of rings (size 3 to 8) (size 9 to 14) (size 15 to 20)
#    0.000    1.143    7.143    2.143    2.000    4.000 
#    2.571    0.714    0.000    0.000    0.000    0.000 
#    0.000    0.000    0.000    0.000    0.000    0.000 
#
# Total GULP energy -78097.885432 kJ/mol
# GULP energy per Si atom -5578.420388 kJ/mol
# Density = 2.225409 g / cm^3
# Si number density = 22.304852 Si / 1000 Ang^3
#
#
#
# Elastic Constant Matrix: (Units=GPa)
#
#
# Indices 1 2 3 4 5 6 
#
# 1 190.8726 11.1111 34.0178 -1.4943 -3.5669 19.7251
# 2 11.1111 21.1115 10.7729 -10.6070 13.4295 -4.3167
# 3 34.0178 10.7729 70.8413 -5.4571 11.5798 2.9677
# 4 -1.4943 -10.6070 -5.4571 10.9784 3.8551 2.5427
# 5 -3.5669 13.4295 11.5798 3.8551 32.5300 8.1916
# 6 19.7251 -4.3167 2.9677 2.5427 8.1916 27.0562
#
#
#
# Elastic Compliance Matrix: (Units=1/GPa)
#
#
# Indices 1 2 3 4 5 6 
#
# 1 0.000050 0.057761 0.001524 0.065930 -0.035621 0.013600
# 2 0.057761 -0.520124 -0.045233 -0.601111 0.351198 -0.169970
# 3 0.001524 -0.045233 0.014028 -0.041297 0.021920 -0.012622
# 4 0.065930 -0.601111 -0.041297 -0.591753 0.391147 -0.202253
# 5 -0.035621 0.351198 0.021920 0.391147 -0.198208 0.102847
# 6 0.013600 -0.169970 -0.012622 -0.202253 0.102847 -0.010820
#
#
# Mechanical properties :
#
#
# Convention : Reuss Voigt Hill
#
# Bulk Modulus (GPa) = -2.09230 43.84769 20.87769
# Shear Modulus (GPa) = -3.34617 29.24114 12.94748
#
# Velocity S-wave (km/s) = -1.22616 3.62467 2.41193
# Velocity P-wave (km/s) = 1.71601 6.10071 4.13968
#
# Compressibility (1/GPa) = -0.47794207
#
# Stress axis : x y z
#
# Youngs Moduli (GPa) = 19947.15945 -1.92262 71.28830
#
# Poissons Ratio (x) = 0.11105 -0.10862
# Poissons Ratio (y) = -1152.16945 3.22457
# Poissons Ratio (z) = -30.39422 -0.08697
#
# Static dielectric constant tensor:
#      x y z
#    x 1.896140 -0.182290 -0.141940 
#    y -0.182290 2.160750 0.130970 
#    z -0.141940 0.130970 1.987160 
# 
# From -- ./inp_files/282365.got.cif
#   From: 2010.05.17/outbox.ucp.g08.bks.cvg/sg2_142_cif.got.tgz:282365.got - 2010.06.11 11:32:03.
