data_PCOD9073608
_publ_section_title
;
Structure prediction by ZEFSAII (Michael W. Deem and Ramdas Pophale) SiO2 
 PCOD9073608
Probable space group: P -1
;
_chemical_formula_sum "Si O2"
_cell_formula_units_Z 14
_cell_length_a 9.000000
_cell_length_b 9.000000
_cell_length_c 24.000000
_cell_angle_alpha 40.000000
_cell_angle_beta 30.000000
_cell_angle_gamma 50.000000
_cell_volume 623.501542
_symmetry_space_group_name_H-M "P -1"
_symmetry_group_IT_number 2
_symmetry_cell_setting 'triclinic'
loop_
_space_group_symop_operation_xyz
x,y,z
-x,-y,-z
loop_
_atom_site_type_symbol
_atom_site_label
_atom_site_fract_x
_atom_site_fract_y
_atom_site_fract_z
Si Si1 0.246924 0.177905 0.948210
Si Si2 0.203963 0.240493 0.179032
Si Si3 0.781711 0.784302 0.611850
Si Si4 0.046399 0.696373 0.310045
Si Si5 0.099709 0.708971 0.080691
Si Si6 0.915404 0.163107 0.171393
Si Si7 0.217130 0.154983 0.536417
O O1 0.604853 0.207814 0.821785
O O2 0.103039 0.916500 0.062950
O O3 0.123409 0.282595 0.901163
O O4 0.118528 0.252851 0.027689
O O5 0.558930 0.264921 0.059873
O O6 0.073050 0.240309 0.157649
O O7 0.067313 0.458546 0.189638
O O8 0.077375 0.015767 0.315635
O O9 0.924850 0.554209 0.652646
O O10 0.428886 0.783102 0.741205
O O11 0.764998 0.755005 0.557972
O O12 0.000000 0.000000 0.500000
O O13 0.848326 0.685944 0.434460
O O14 0.911680 0.885759 0.260068
O O15 0.500000 0.000000 0.500000
#
# Coordination Sequence:
#
# PCOD9073608 Si02
#       7
#     2   2   2   2   2   2   2
#     4  11  23  41  66  98 132 166 215 268 330 387
#     4  10  21  41  66  93 130 170 213 264 325 381
#     4  12  28  44  67  99 131 172 226 272 318 383
#     4  11  24  46  72  90 132 180 216 264 334 386
#     4  10  22  38  65 101 127 164 215 268 321 387
#     4  11  24  46  65  98 133 171 215 268 329 392
#     4  11  22  47  69  91 130 177 223 263 319 399
#
# _framework density 22.453834000000001
#
# number of rings (size 3 to 8) (size 9 to 14) (size 15 to 20)
#    0.000    1.143    5.714    1.714    2.000    4.000 
#    2.571    0.000    0.000    0.000    0.000    0.000 
#    0.000    0.000    0.000    0.000    0.000    0.000 
#
# Total GULP energy -78106.656752 kJ/mol
# GULP energy per Si atom -5579.046911 kJ/mol
# Density = 2.240273 g / cm^3
# Si number density = 22.453834 Si / 1000 Ang^3
#
#
#
# Elastic Constant Matrix: (Units=GPa)
#
#
# Indices 1 2 3 4 5 6 
#
# 1 35.7954 12.1920 3.4419 17.3769 -0.7856 6.7383
# 2 12.1920 129.0211 19.4011 -2.2255 2.0876 -14.4788
# 3 3.4419 19.4011 48.6711 29.5618 -3.1288 14.2675
# 4 17.3769 -2.2255 29.5618 46.3059 2.5127 -3.2975
# 5 -0.7856 2.0876 -3.1288 2.5127 25.1837 17.5290
# 6 6.7383 -14.4788 14.2675 -3.2975 17.5290 2.3673
#
#
#
# Elastic Compliance Matrix: (Units=1/GPa)
#
#
# Indices 1 2 3 4 5 6 
#
# 1 0.027821 -0.000036 -0.003982 -0.006086 -0.010941 0.017132
# 2 -0.000036 0.006552 0.000945 -0.001180 0.005577 -0.008457
# 3 -0.003982 0.000945 0.015779 -0.005941 -0.015020 0.024956
# 4 -0.006086 -0.001180 -0.005941 0.025031 0.014337 -0.025378
# 5 -0.010941 0.005577 -0.015020 0.014337 0.020876 0.021165
# 6 0.017132 -0.008457 0.024956 -0.025378 0.021165 -0.020541
#
#
# Mechanical properties :
#
#
# Convention : Reuss Voigt Hill
#
# Bulk Modulus (GPa) = 22.72417 31.50641 27.11529
# Shear Modulus (GPa) = 51.90337 26.66821 39.28579
#
# Velocity S-wave (km/s) = 4.81308 3.45003 4.18739
# Velocity P-wave (km/s) = 6.40547 5.47105 5.95661
#
# Compressibility (1/GPa) = 0.04400601
#
# Stress axis : x y z
#
# Youngs Moduli (GPa) = 35.94417 152.61657 63.37650
#
# Poissons Ratio (x) = 0.00543 0.25237
# Poissons Ratio (y) = 0.00128 -0.05987
# Poissons Ratio (z) = 0.14313 -0.14417
#
# Static dielectric constant tensor:
#      x y z
#    x 1.773840 0.007390 0.023100 
#    y 0.007390 1.973760 -0.059610 
#    z 0.023100 -0.059610 1.798650 
# 
# From -- ./inp_files/207871.got.cif
#   From: 2010.05.17/outbox.ucp.g08.bks.cvg/sg2_104_cif.got.tgz:207871.got - 2010.06.11 11:32:03.
