data_PCOD9073404
_publ_section_title
;
Structure prediction by ZEFSAII (Michael W. Deem and Ramdas Pophale) SiO2 
 PCOD9073404
Probable space group: P -1
;
_chemical_formula_sum "Si O2"
_cell_formula_units_Z 16
_cell_length_a 15.000000
_cell_length_b 9.000000
_cell_length_c 12.000000
_cell_angle_alpha 110.000000
_cell_angle_beta 150.000000
_cell_angle_gamma 80.000000
_cell_volume 734.803614
_symmetry_space_group_name_H-M "P -1"
_symmetry_group_IT_number 2
_symmetry_cell_setting 'triclinic'
loop_
_space_group_symop_operation_xyz
x,y,z
-x,-y,-z
loop_
_atom_site_type_symbol
_atom_site_label
_atom_site_fract_x
_atom_site_fract_y
_atom_site_fract_z
Si Si1 0.900243 0.648388 0.812720
Si Si2 0.014532 0.269038 0.549354
Si Si3 0.367772 0.823664 0.166534
Si Si4 0.749919 0.293612 0.657527
Si Si5 0.963828 0.602082 0.633614
Si Si6 0.386835 0.000230 0.709643
Si Si7 0.618726 0.818311 0.650982
Si Si8 0.731481 0.922395 0.164403
O O1 0.829264 0.457963 0.717846
O O2 0.789574 0.745190 0.793748
O O3 0.872283 0.666304 0.655990
O O4 0.116664 0.701550 0.091227
O O5 0.090771 0.345595 0.532651
O O6 0.930542 0.406037 0.549161
O O7 0.167210 0.220099 0.779427
O O8 0.863946 0.098108 0.318455
O O9 0.503299 0.804657 0.407824
O O10 0.491784 0.858324 0.199062
O O11 0.319590 0.995334 0.190162
O O12 0.183989 0.682309 0.908200
O O13 0.751247 0.131687 0.548970
O O14 0.539104 0.277712 0.460104
O O15 0.291191 0.063811 0.724035
O O16 0.532363 0.905911 0.892842
#
# Coordination Sequence:
#
# PCOD9073404 Si02
#       8
#     2   2   2   2   2   2   2   2
#     4  11  23  39  65  91 123 165 200 249 311 369
#     4  10  23  40  61  90 120 161 205 257 306 358
#     4  10  21  40  58  89 127 161 199 255 306 364
#     4  10  22  42  59  95 126 156 204 255 302 368
#     4  11  22  41  60  89 130 158 200 262 305 361
#     4  10  21  39  63  87 122 159 205 256 299 364
#     4  10  22  40  62  89 125 164 202 246 306 366
#     4  10  21  41  64  88 116 163 212 247 305 366
#
# _framework density 21.774525000000001
#
# number of rings (size 3 to 8) (size 9 to 14) (size 15 to 20)
#    0.000    1.750    2.500    1.125    1.750    2.500 
#   11.250    0.625    0.000    0.000    0.000    0.000 
#    0.000    0.000    0.000    0.000    0.000    0.000 
#
# Total GULP energy -89373.028770 kJ/mol
# GULP energy per Si atom -5585.814298 kJ/mol
# Density = 2.172497 g / cm^3
# Si number density = 21.774525 Si / 1000 Ang^3
#
#
#
# Elastic Constant Matrix: (Units=GPa)
#
#
# Indices 1 2 3 4 5 6 
#
# 1 81.1811 3.0513 -6.3229 0.2752 -5.4975 0.4741
# 2 3.0513 41.7936 27.4054 5.4640 8.1397 -0.2254
# 3 -6.3229 27.4054 23.7956 3.8645 5.2529 -4.8745
# 4 0.2752 5.4640 3.8645 13.1189 -4.2634 3.8312
# 5 -5.4975 8.1397 5.2529 -4.2634 21.5929 -6.8995
# 6 0.4741 -0.2254 -4.8745 3.8312 -6.8995 15.0025
#
#
#
# Elastic Compliance Matrix: (Units=1/GPa)
#
#
# Indices 1 2 3 4 5 6 
#
# 1 0.016948 -0.027907 0.037894 -0.001273 0.010665 0.016587
# 2 -0.027907 0.186476 -0.230725 0.002061 -0.051355 -0.095425
# 3 0.037894 -0.230725 0.338609 -0.027236 0.052466 0.136437
# 4 -0.001273 0.002061 -0.027236 0.096260 0.016261 -0.025882
# 5 0.010665 -0.051355 0.052466 0.016261 0.073382 0.045533
# 6 0.016587 -0.095425 0.136437 -0.025882 0.045533 0.136577
#
#
# Mechanical properties :
#
#
# Convention : Reuss Voigt Hill
#
# Bulk Modulus (GPa) = 9.94460 21.67088 15.80774
# Shear Modulus (GPa) = 3.77859 18.11863 10.94861
#
# Velocity S-wave (km/s) = 1.31875 2.88775 2.24479
# Velocity P-wave (km/s) = 2.62598 4.59269 3.74089
#
# Compressibility (1/GPa) = 0.10055709
#
# Stress axis : x y z
#
# Youngs Moduli (GPa) = 59.00366 5.36263 2.95326
#
# Poissons Ratio (x) = 0.14965 -0.11191
# Poissons Ratio (y) = 1.64659 0.68139
# Poissons Ratio (z) = -2.23586 1.23729
#
# Static dielectric constant tensor:
#      x y z
#    x 1.803540 0.026180 -0.013960 
#    y 0.026180 1.774130 -0.008940 
#    z -0.013960 -0.008940 1.753310 
# 
# From -- ./inp_files/331978.got.cif
#   From: 2010.05.17/outbox.ucp.g08.bks.cvg/sg2_166_cif.got.tgz:331978.got - 2010.06.11 11:32:03.
