data_PCOD9073380
_publ_section_title
;
Structure prediction by ZEFSAII (Michael W. Deem and Ramdas Pophale) SiO2 
 PCOD9073380
Probable space group: P -1
;
_chemical_formula_sum "Si O2"
_cell_formula_units_Z 16
_cell_length_a 9.000000
_cell_length_b 12.000000
_cell_length_c 15.000000
_cell_angle_alpha 150.000000
_cell_angle_beta 70.000000
_cell_angle_gamma 100.000000
_cell_volume 734.803614
_symmetry_space_group_name_H-M "P -1"
_symmetry_group_IT_number 2
_symmetry_cell_setting 'triclinic'
loop_
_space_group_symop_operation_xyz
x,y,z
-x,-y,-z
loop_
_atom_site_type_symbol
_atom_site_label
_atom_site_fract_x
_atom_site_fract_y
_atom_site_fract_z
Si Si1 0.359381 0.030764 0.876607
Si Si2 0.858009 0.065859 0.802970
Si Si3 0.795053 0.833117 0.170758
Si Si4 0.796631 0.787387 0.788054
Si Si5 0.382622 0.510426 0.946396
Si Si6 0.703653 0.760415 0.533591
Si Si7 0.509412 0.187717 0.554397
Si Si8 0.822895 0.369703 0.359236
O O1 0.266480 0.211131 0.945862
O O2 0.545851 0.910976 0.726108
O O3 0.259510 0.836763 0.755171
O O4 0.333097 0.134022 0.052216
O O5 0.021324 0.148033 0.842799
O O6 0.797708 0.991165 0.858390
O O7 0.864831 0.839959 0.584086
O O8 0.730851 0.250358 0.897520
O O9 0.741132 0.647439 0.115148
O O10 0.676154 0.082668 0.395244
O O11 0.778645 0.565277 0.581449
O O12 0.980748 0.718972 0.743513
O O13 0.493978 0.414581 0.771510
O O14 0.500000 0.500000 0.000000
O O15 0.641898 0.786904 0.464108
O O16 0.745431 0.498447 0.374833
O O17 0.500000 0.000000 0.500000
#
# Coordination Sequence:
#
# PCOD9073380 Si02
#       8
#     2   2   2   2   2   2   2   2
#     4  11  21  41  64  91 132 166 211 260 312 369
#     4  11  22  41  62  92 127 159 207 260 308 376
#     4  10  22  41  63  93 122 165 206 253 314 375
#     4  10  23  39  63  94 129 169 207 263 311 376
#     4  11  23  43  65  91 122 159 209 259 312 373
#     4  10  23  40  61  93 126 163 210 260 309 376
#     4   9  20  41  63  84 119 159 204 254 306 365
#     4  10  21  39  60  93 127 166 212 254 316 371
#
# _framework density 21.774525000000001
#
# number of rings (size 3 to 8) (size 9 to 14) (size 15 to 20)
#    0.000    1.750    1.250    3.375    1.750    2.000 
#    9.000    6.875    0.000    0.000    0.000    0.000 
#    0.000    0.000    0.000    0.000    0.000    0.000 
#
# Total GULP energy -89304.175686 kJ/mol
# GULP energy per Si atom -5581.510980 kJ/mol
# Density = 2.172497 g / cm^3
# Si number density = 21.774525 Si / 1000 Ang^3
#
#
#
# Elastic Constant Matrix: (Units=GPa)
#
#
# Indices 1 2 3 4 5 6 
#
# 1 80.7785 18.7386 0.6820 -7.7698 -1.2977 -21.5023
# 2 18.7386 101.8135 29.4476 -3.4154 -7.0814 -29.0646
# 3 0.6820 29.4476 33.1088 -8.4171 11.0698 3.9427
# 4 -7.7698 -3.4154 -8.4171 28.9855 -9.1634 7.1684
# 5 -1.2977 -7.0814 11.0698 -9.1634 14.9668 7.0456
# 6 -21.5023 -29.0646 3.9427 7.1684 7.0456 37.8232
#
#
#
# Elastic Compliance Matrix: (Units=1/GPa)
#
#
# Indices 1 2 3 4 5 6 
#
# 1 0.014752 -0.000693 0.000484 0.001275 -0.002396 0.008008
# 2 -0.000693 0.030152 -0.041061 -0.003864 0.031928 0.021841
# 3 0.000484 -0.041061 0.096257 0.007737 -0.072021 -0.029362
# 4 0.001275 -0.003864 0.007737 0.051886 0.033314 -0.019090
# 5 -0.002396 0.031928 -0.072021 0.033314 0.157741 -0.005017
# 6 0.008008 0.021841 -0.029362 -0.019090 -0.005017 0.055388
#
#
# Mechanical properties :
#
#
# Convention : Reuss Voigt Hill
#
# Bulk Modulus (GPa) = 17.05891 34.82635 25.94263
# Shear Modulus (GPa) = 9.83754 27.47726 18.65740
#
# Velocity S-wave (km/s) = 2.12784 3.55618 2.93037
# Velocity P-wave (km/s) = 3.72670 5.73504 4.83627
#
# Compressibility (1/GPa) = 0.05862038
#
# Stress axis : x y z
#
# Youngs Moduli (GPa) = 67.78728 33.16581 10.38880
#
# Poissons Ratio (x) = 0.02298 -0.00503
# Poissons Ratio (y) = 0.04696 0.42658
# Poissons Ratio (z) = -0.03280 1.36183
#
# Static dielectric constant tensor:
#      x y z
#    x 1.758480 -0.021980 -0.012040 
#    y -0.021980 1.886180 0.142800 
#    z -0.012040 0.142800 2.185420 
# 
# From -- ./inp_files/343091.got.cif
#   From: 2010.05.17/outbox.ucp.g08.bks.cvg/sg2_172_cif.got.tgz:343091.got - 2010.06.11 11:32:03.
