data_PCOD9073758
_publ_section_title
;
Structure prediction by ZEFSAII (Michael W. Deem and Ramdas Pophale) SiO2 
 PCOD9073758
Probable space group: P -1
;
_chemical_formula_sum "Si O2"
_cell_formula_units_Z 16
_cell_length_a 12.000000
_cell_length_b 12.000000
_cell_length_c 12.000000
_cell_angle_alpha 100.000000
_cell_angle_beta 40.000000
_cell_angle_gamma 70.000000
_cell_volume 722.981415
_symmetry_space_group_name_H-M "P -1"
_symmetry_group_IT_number 2
_symmetry_cell_setting 'triclinic'
loop_
_space_group_symop_operation_xyz
x,y,z
-x,-y,-z
loop_
_atom_site_type_symbol
_atom_site_label
_atom_site_fract_x
_atom_site_fract_y
_atom_site_fract_z
Si Si1 0.016800 0.819550 0.063941
Si Si2 0.296425 0.806727 0.641359
Si Si3 0.216021 0.925347 0.235703
Si Si4 0.869350 0.258710 0.426742
Si Si5 0.839423 0.662455 0.234985
Si Si6 0.514422 0.383827 0.167327
Si Si7 0.751114 0.747257 0.818578
Si Si8 0.875678 0.621917 0.461239
O O1 0.858013 0.778843 0.184497
O O2 0.851753 0.009923 0.260605
O O3 0.131092 0.814113 0.859170
O O4 0.262710 0.682958 0.932430
O O5 0.326909 0.699490 0.503473
O O6 0.561126 0.733853 0.468884
O O7 0.349560 0.746895 0.059267
O O8 0.443995 0.895871 0.098788
O O9 0.000000 0.000000 0.500000
O O10 0.058603 0.067480 0.286592
O O11 0.682027 0.419870 0.680996
O O12 0.084013 0.248960 0.230180
O O13 0.909566 0.642828 0.310554
O O14 0.000000 0.500000 0.000000
O O15 0.347300 0.367345 0.355968
O O16 0.802578 0.737783 0.643688
O O17 0.861357 0.569947 0.734208
#
# Coordination Sequence:
#
# PCOD9073758 Si02
#       8
#     2   2   2   2   2   2   2   2
#     4  11  24  44  71  99 142 191 230 294 362 417
#     4  11  25  47  67 104 146 186 238 291 360 433
#     4  11  24  42  63 103 142 174 236 296 348 421
#     4  11  23  42  72  98 134 191 236 281 360 425
#     4  12  26  40  71 111 140 183 241 297 358 426
#     4  10  21  43  69  94 138 186 227 287 357 414
#     4   9  21  41  72  97 132 196 229 282 362 411
#     4   9  20  43  68 100 141 179 241 293 344 432
#
# _framework density 22.130583000000001
#
# number of rings (size 3 to 8) (size 9 to 14) (size 15 to 20)
#    0.000    1.500    2.500    2.250    3.500    4.500 
#    0.000    1.250    0.000    0.000    0.000    0.000 
#    0.000    0.000    0.000    0.000    0.000    0.000 
#
# Total GULP energy -89072.742079 kJ/mol
# GULP energy per Si atom -5567.046380 kJ/mol
# Density = 2.208021 g / cm^3
# Si number density = 22.130583 Si / 1000 Ang^3
#
#
#
# Elastic Constant Matrix: (Units=GPa)
#
#
# Indices 1 2 3 4 5 6 
#
# 1 40.5295 67.4774 43.7924 16.3761 -36.5853 32.7120
# 2 67.4774 67.1070 51.9682 -18.3677 13.7274 19.0502
# 3 43.7924 51.9682 88.8914 10.2417 19.9023 1.7607
# 4 16.3761 -18.3677 10.2417 25.0427 -1.9832 -2.3519
# 5 -36.5853 13.7274 19.9023 -1.9832 -3.6372 18.9040
# 6 32.7120 19.0502 1.7607 -2.3519 18.9040 22.4623
#
#
#
# Elastic Compliance Matrix: (Units=1/GPa)
#
#
# Indices 1 2 3 4 5 6 
#
# 1 -0.002767 0.019890 -0.011538 0.020194 -0.004146 -0.006331
# 2 0.019890 -0.047521 0.031159 -0.060367 -0.030263 0.028042
# 3 -0.011538 0.031159 -0.010194 0.034078 0.024559 -0.025924
# 4 0.020194 -0.060367 0.034078 -0.029991 -0.027000 0.038700
# 5 -0.004146 -0.030263 0.024559 -0.027000 -0.010842 0.036077
# 6 -0.006331 0.028042 -0.025924 0.038700 0.036077 0.005679
#
#
# Mechanical properties :
#
#
# Convention : Reuss Voigt Hill
#
# Bulk Modulus (GPa) = 53.93777 58.11154 56.02465
# Shear Modulus (GPa) = -29.67756 10.99288 -9.34234
#
# Velocity S-wave (km/s) = -3.66597 2.23116 -2.05685
# Velocity P-wave (km/s) = 2.55075 5.74046 4.44180
#
# Compressibility (1/GPa) = 0.01853989
#
# Stress axis : x y z
#
# Youngs Moduli (GPa) = -361.36912 -21.04339 -98.10045
#
# Poissons Ratio (x) = 0.41856 -1.13189
# Poissons Ratio (y) = 7.18775 3.05667
# Poissons Ratio (z) = -4.16952 0.65568
#
# Static dielectric constant tensor:
#      x y z
#    x 1.853690 0.000390 -0.015060 
#    y 0.000390 1.785720 0.041280 
#    z -0.015060 0.041280 1.873280 
# 
# From -- ./inp_files/428319.got.cif
#   From: 2010.05.17/outbox.ucp.g08.bks.cvg/sg2_215_cif.got.tgz:428319.got - 2010.06.11 11:32:03.
