data_PCOD9073666
_publ_section_title
;
Structure prediction by ZEFSAII (Michael W. Deem and Ramdas Pophale) SiO2 
 PCOD9073666
Probable space group: P -1
;
_chemical_formula_sum "Si O2"
_cell_formula_units_Z 12
_cell_length_a 12.000000
_cell_length_b 18.000000
_cell_length_c 15.000000
_cell_angle_alpha 160.000000
_cell_angle_beta 150.000000
_cell_angle_gamma 30.000000
_cell_volume 527.600048
_symmetry_space_group_name_H-M "P -1"
_symmetry_group_IT_number 2
_symmetry_cell_setting 'triclinic'
loop_
_space_group_symop_operation_xyz
x,y,z
-x,-y,-z
loop_
_atom_site_type_symbol
_atom_site_label
_atom_site_fract_x
_atom_site_fract_y
_atom_site_fract_z
Si Si1 0.569010 0.607592 0.304813
Si Si2 0.084717 0.674222 0.141211
Si Si3 0.285619 0.854392 0.642015
Si Si4 0.206352 0.335437 0.300062
Si Si5 0.937202 0.281548 0.500454
Si Si6 0.737470 0.202009 0.849940
O O1 0.318421 0.679893 0.259462
O O2 0.738065 0.673586 0.566254
O O3 0.495822 0.726386 0.292306
O O4 0.664972 0.339739 0.046513
O O5 0.165707 0.693613 0.320321
O O6 0.869575 0.894139 0.213218
O O7 0.026274 0.454187 0.817235
O O8 0.554450 0.810146 0.748720
O O9 0.242270 0.799990 0.653253
O O10 0.172498 0.581661 0.509738
O O11 0.959187 0.283646 0.060084
O O12 0.151122 0.066736 0.377641
#
# Coordination Sequence:
#
# PCOD9073666 Si02
#       6
#     2   2   2   2   2   2
#     4  10  22  47  65  88 128 171 205 258 315 365
#     4  10  21  42  65  93 126 165 212 253 313 370
#     4  10  22  40  65  92 129 167 203 258 312 375
#     4  11  24  42  65  94 128 162 210 260 311 370
#     4  12  22  39  63 100 125 161 212 257 312 372
#     4  11  24  44  66  91 127 166 213 256 310 372
#
# _framework density 22.744501
#
# number of rings (size 3 to 8) (size 9 to 14) (size 15 to 20)
#    0.000    1.333    3.333    1.500    0.000    5.333 
#    6.000    0.000    0.000    0.000    0.000    0.000 
#    0.000    0.000    0.000    0.000    0.000    0.000 
#
# Total GULP energy -67002.145215 kJ/mol
# GULP energy per Si atom -5583.512101 kJ/mol
# Density = 2.269273 g / cm^3
# Si number density = 22.744501 Si / 1000 Ang^3
#
#
#
# Elastic Constant Matrix: (Units=GPa)
#
#
# Indices 1 2 3 4 5 6 
#
# 1 12.9186 16.8570 -16.0874 -7.5281 -16.8322 8.0832
# 2 16.8570 116.7222 45.7478 2.9084 -13.9633 -6.2521
# 3 -16.0874 45.7478 63.6253 -2.6055 -9.9055 -0.7970
# 4 -7.5281 2.9084 -2.6055 45.2662 -8.7453 -13.9581
# 5 -16.8322 -13.9633 -9.9055 -8.7453 30.2757 9.0978
# 6 8.0832 -6.2521 -0.7970 -13.9581 9.0978 21.2814
#
#
#
# Elastic Compliance Matrix: (Units=1/GPa)
#
#
# Indices 1 2 3 4 5 6 
#
# 1 -0.041132 0.013407 -0.025550 -0.007068 -0.035894 0.029313
# 2 0.013407 0.007898 -0.000134 0.002142 0.013864 -0.007299
# 3 -0.025550 -0.000134 0.006730 -0.002344 -0.017509 0.015865
# 4 -0.007068 0.002142 -0.002344 0.026929 -0.002532 0.021971
# 5 -0.035894 0.013864 -0.017509 -0.002532 0.009619 0.011278
# 6 0.029313 -0.007299 0.015865 0.021971 0.011278 0.043894
#
#
# Mechanical properties :
#
#
# Convention : Reuss Voigt Hill
#
# Bulk Modulus (GPa) = -19.58520 31.81122 6.11301
# Shear Modulus (GPa) = 81.33388 29.14791 55.24090
#
# Velocity S-wave (km/s) = 5.98644 3.58374 4.93359
# Velocity P-wave (km/s) = 6.25728 5.58041 5.92851
#
# Compressibility (1/GPa) = -0.05105896
#
# Stress axis : x y z
#
# Youngs Moduli (GPa) = -24.31212 126.61367 148.58327
#
# Poissons Ratio (x) = -1.69745 3.79630
# Poissons Ratio (y) = 0.32594 0.01996
# Poissons Ratio (z) = -0.62117 0.01700
#
# Static dielectric constant tensor:
#      x y z
#    x 1.893680 0.040610 -0.043100 
#    y 0.040610 1.827140 0.018910 
#    z -0.043100 0.018910 1.896290 
# 
# From -- ./inp_files/22047.got.cif
#   From: 2010.05.17/outbox.ucp.g08.bks.cvg/sg2_12_cif.got.tgz:22047.got - 2010.06.11 11:32:03.
