data_PCOD9073977
_publ_section_title
;
Structure prediction by ZEFSAII (Michael W. Deem and Ramdas Pophale) SiO2 
 PCOD9073977
Probable space group: P -1
;
_chemical_formula_sum "Si O2"
_cell_formula_units_Z 16
_cell_length_a 12.000000
_cell_length_b 9.000000
_cell_length_c 18.000000
_cell_angle_alpha 100.000000
_cell_angle_beta 40.000000
_cell_angle_gamma 130.000000
_cell_volume 729.599496
_symmetry_space_group_name_H-M "P -1"
_symmetry_group_IT_number 2
_symmetry_cell_setting 'triclinic'
loop_
_space_group_symop_operation_xyz
x,y,z
-x,-y,-z
loop_
_atom_site_type_symbol
_atom_site_label
_atom_site_fract_x
_atom_site_fract_y
_atom_site_fract_z
Si Si1 0.189347 0.672746 0.348693
Si Si2 0.945870 0.072086 0.249306
Si Si3 0.994886 0.588502 0.085713
Si Si4 0.924872 0.498559 0.816946
Si Si5 0.733397 0.491128 0.448265
Si Si6 0.383515 0.155196 0.958154
Si Si7 0.623675 0.874232 0.676293
Si Si8 0.966243 0.978460 0.638105
O O1 0.393981 0.685517 0.211548
O O2 0.000000 0.500000 0.500000
O O3 0.942140 0.556174 0.407611
O O4 0.391338 0.957465 0.289400
O O5 0.939865 0.246069 0.251890
O O6 0.612701 0.776638 0.388278
O O7 0.067960 0.125983 0.274667
O O8 0.177090 0.150474 0.083744
O O9 0.653262 0.388618 0.245957
O O10 0.106730 0.546875 0.084446
O O11 0.000000 0.500000 0.000000
O O12 0.177279 0.867556 0.025377
O O13 0.608758 0.272412 0.919708
O O14 0.141921 0.512050 0.686572
O O15 0.828189 0.731894 0.423798
O O16 0.886054 0.026892 0.498333
O O17 0.694071 0.852449 0.718957
#
# Coordination Sequence:
#
# PCOD9073977 Si02
#       8
#     2   2   2   2   2   2   2   2
#     4  10  23  42  69  95 139 181 222 276 347 408
#     4  12  24  41  71 100 140 173 233 286 340 394
#     4  12  24  42  72  96 133 176 237 275 333 412
#     4  11  26  43  67 101 137 181 231 276 347 407
#     4  10  22  42  67  99 132 185 232 269 332 413
#     4  11  25  46  67 101 138 183 221 286 343 402
#     4  10  22  41  66 101 132 179 231 271 339 406
#     4  10  22  40  67 100 136 180 224 281 337 405
#
# _framework density 21.929839999999999
#
# number of rings (size 3 to 8) (size 9 to 14) (size 15 to 20)
#    0.000    1.250    1.250    3.750    7.000    0.000 
#    0.000    2.500    0.000    0.000    0.000    0.000 
#    0.000    0.000    0.000    0.000    0.000    0.000 
#
# Total GULP energy -89336.586799 kJ/mol
# GULP energy per Si atom -5583.536675 kJ/mol
# Density = 2.187993 g / cm^3
# Si number density = 21.929840 Si / 1000 Ang^3
#
#
#
# Elastic Constant Matrix: (Units=GPa)
#
#
# Indices 1 2 3 4 5 6 
#
# 1 11.8336 20.9418 19.7717 7.2523 5.4453 22.1464
# 2 20.9418 74.9408 15.8384 6.3565 -15.4154 33.6724
# 3 19.7717 15.8384 97.2687 14.2792 -21.2683 22.6445
# 4 7.2523 6.3565 14.2792 41.0499 10.5815 -17.4076
# 5 5.4453 -15.4154 -21.2683 10.5815 26.8674 11.1359
# 6 22.1464 33.6724 22.6445 -17.4076 11.1359 5.6419
#
#
#
# Elastic Compliance Matrix: (Units=1/GPa)
#
#
# Indices 1 2 3 4 5 6 
#
# 1 -0.232392 0.065255 0.057435 -0.007851 0.121009 0.029165
# 2 0.065255 -0.010080 -0.022248 0.008985 -0.040832 0.001623
# 3 0.057435 -0.022248 -0.005417 0.003772 -0.030811 0.001525
# 4 -0.007851 0.008985 0.003772 0.014098 0.010324 -0.014823
# 5 0.121009 -0.040832 -0.030811 0.010324 -0.042749 0.008589
# 6 0.029165 0.001623 0.001525 -0.014823 0.008589 -0.015739
#
#
# Mechanical properties :
#
#
# Convention : Reuss Voigt Hill
#
# Bulk Modulus (GPa) = -21.27396 33.01634 5.87119
# Shear Modulus (GPa) = -9.82642 23.21125 6.69242
#
# Velocity S-wave (km/s) = -2.11910 3.25689 1.74882
# Velocity P-wave (km/s) = 3.96351 5.40659 2.60017
#
# Compressibility (1/GPa) = -0.04700582
#
# Stress axis : x y z
#
# Youngs Moduli (GPa) = -4.30307 -99.20539 -184.60439
#
# Poissons Ratio (x) = 6.47367 10.60269
# Poissons Ratio (y) = 0.28080 -4.10710
# Poissons Ratio (z) = 0.24715 -2.20714
#
# Static dielectric constant tensor:
#      x y z
#    x 1.888690 0.053270 -0.066060 
#    y 0.053270 1.810080 0.037750 
#    z -0.066060 0.037750 2.117680 
# 
# From -- ./inp_files/283013.got.cif
#   From: 2010.05.17/outbox.ucp.g08.bks.cvg/sg2_142_cif.got.tgz:283013.got - 2010.06.11 11:32:03.
