data_PCOD9073328
_publ_section_title
;
Structure prediction by ZEFSAII (Michael W. Deem and Ramdas Pophale) SiO2 
 PCOD9073328
Probable space group: P -1
;
_chemical_formula_sum "Si O2"
_cell_formula_units_Z 10
_cell_length_a 15.000000
_cell_length_b 12.000000
_cell_length_c 21.000000
_cell_angle_alpha 160.000000
_cell_angle_beta 160.000000
_cell_angle_gamma 30.000000
_cell_volume 437.483503
_symmetry_space_group_name_H-M "P -1"
_symmetry_group_IT_number 2
_symmetry_cell_setting 'triclinic'
loop_
_space_group_symop_operation_xyz
x,y,z
-x,-y,-z
loop_
_atom_site_type_symbol
_atom_site_label
_atom_site_fract_x
_atom_site_fract_y
_atom_site_fract_z
Si Si1 0.631123 0.277964 0.379372
Si Si2 0.109789 0.317767 0.109520
Si Si3 0.888918 0.534469 0.555926
Si Si4 0.537836 0.466146 0.082104
Si Si5 0.575423 0.352324 0.770709
O O1 0.328846 0.343448 0.215565
O O2 0.772521 0.503011 0.651579
O O3 0.783414 0.379963 0.470288
O O4 0.590563 0.896548 0.172449
O O5 0.864926 0.492670 0.018044
O O6 0.999260 0.933120 0.845686
O O7 0.651394 0.455089 0.303653
O O8 0.149770 0.420545 0.641594
O O9 0.412898 0.691045 0.168852
O O10 0.500000 0.500000 0.000000
O O11 0.500000 0.000000 0.500000
#
# Coordination Sequence:
#
# PCOD9073328 Si02
#       5
#     2   2   2   2   2
#     4  10  21  38  62  90 119 158 202 245 295 353
#     4   9  20  38  60  91 123 156 198 241 297 359
#     4  10  21  39  62  87 123 156 195 248 299 354
#     4  11  24  41  62  88 120 160 204 247 293 352
#     4  10  22  40  62  88 122 160 195 244 304 353
#
# _framework density 22.858004999999999
#
# number of rings (size 3 to 8) (size 9 to 14) (size 15 to 20)
#    0.000    2.000    0.000    2.400    0.000   12.800 
#    0.000    4.000    0.000    0.000    0.000    0.000 
#    0.000    0.000    0.000    0.000    0.000    0.000 
#
# Total GULP energy -55733.372501 kJ/mol
# GULP energy per Si atom -5573.337250 kJ/mol
# Density = 2.280598 g / cm^3
# Si number density = 22.858005 Si / 1000 Ang^3
#
#
#
# Elastic Constant Matrix: (Units=GPa)
#
#
# Indices 1 2 3 4 5 6 
#
# 1 101.2392 -5.2390 35.7636 18.9110 15.8718 -6.3002
# 2 -5.2390 25.0146 19.4477 -20.5603 9.0466 -12.3438
# 3 35.7636 19.4477 86.3065 -10.9833 25.0378 -5.0137
# 4 18.9110 -20.5603 -10.9833 25.4391 -1.8834 9.1345
# 5 15.8718 9.0466 25.0378 -1.8834 47.1948 0.0621
# 6 -6.3002 -12.3438 -5.0137 9.1345 0.0621 34.3409
#
#
#
# Elastic Compliance Matrix: (Units=1/GPa)
#
#
# Indices 1 2 3 4 5 6 
#
# 1 0.017445 -0.005686 -0.008165 -0.023416 -0.001388 0.006196
# 2 -0.005686 0.175501 -0.013590 0.129565 -0.019382 0.025628
# 3 -0.008165 -0.013590 0.019830 0.005007 -0.004963 -0.004811
# 4 -0.023416 0.129565 0.005007 0.162714 -0.013124 -0.000250
# 5 -0.001388 -0.019382 -0.004963 -0.013124 0.027486 -0.004505
# 6 0.006196 0.025628 -0.004811 -0.000250 -0.004505 0.038841
#
#
# Mechanical properties :
#
#
# Convention : Reuss Voigt Hill
#
# Bulk Modulus (GPa) = 6.33337 34.72278 20.52808
# Shear Modulus (GPa) = 9.10199 32.23417 20.66808
#
# Velocity S-wave (km/s) = 1.99765 3.75933 3.01024
# Velocity P-wave (km/s) = 2.84562 5.83669 4.59155
#
# Compressibility (1/GPa) = 0.15789383
#
# Stress axis : x y z
#
# Youngs Moduli (GPa) = 57.32319 5.69797 50.42883
#
# Poissons Ratio (x) = 0.03240 0.41175
# Poissons Ratio (y) = 0.32593 0.68534
# Poissons Ratio (z) = 0.46804 0.07744
#
# Static dielectric constant tensor:
#      x y z
#    x 1.612030 0.011670 0.085470 
#    y 0.011670 2.049850 -0.092540 
#    z 0.085470 -0.092540 1.788750 
# 
# From -- ./inp_files/15550.got.cif
#   From: 2010.05.17/outbox.ucp.g08.bks.cvg/sg2_8_cif.got.tgz:15550.got - 2010.06.11 11:32:03.
