data_PCOD9073243
_publ_section_title
;
Structure prediction by ZEFSAII (Michael W. Deem and Ramdas Pophale) SiO2 
 PCOD9073243
Probable space group: P -1
;
_chemical_formula_sum "Si O2"
_cell_formula_units_Z 16
_cell_length_a 14.992332
_cell_length_b 8.143064
_cell_length_c 7.618373
_cell_angle_alpha 102.259234
_cell_angle_beta 71.544643
_cell_angle_gamma 131.035113
_cell_volume 665.470316
_symmetry_space_group_name_H-M "P -1"
_symmetry_group_IT_number 2
_symmetry_cell_setting 'triclinic'
loop_
_space_group_symop_operation_xyz
x,y,z
-x,-y,-z
loop_
_atom_site_type_symbol
_atom_site_label
_atom_site_fract_x
_atom_site_fract_y
_atom_site_fract_z
Si Si1 0.856348 0.868176 0.040949
Si Si2 0.994572 0.416416 0.740277
Si Si3 0.797397 0.943979 0.717738
Si Si4 0.605465 0.172217 0.338216
Si Si5 0.198462 0.548317 0.139894
Si Si6 0.181148 0.394066 0.513181
Si Si7 0.614035 0.968396 0.749883
Si Si8 0.769605 0.091081 0.328159
O O1 0.790778 0.613605 0.006622
O O2 0.838121 0.944527 0.886987
O O3 0.800737 0.935873 0.228452
O O4 0.000000 0.000000 0.000000
O O5 0.078934 0.347147 0.698842
O O6 0.103569 0.664822 0.673322
O O7 0.886131 0.194710 0.655607
O O8 0.903962 0.451332 0.893186
O O9 0.816891 0.801213 0.559397
O O10 0.659548 0.854845 0.796239
O O11 0.692006 0.398592 0.439869
O O12 0.527017 0.160502 0.226923
O O13 0.691982 0.109134 0.234882
O O14 0.500000 0.000000 0.500000
O O15 0.158273 0.448106 0.343153
O O16 0.318924 0.794278 0.154193
O O17 0.682535 0.010294 0.531129
#
# Coordination Sequence:
#
# PCOD9073243 Si02
#       8
#     2   2   2   2   2   2   2   2
#     4  11  23  39  53  83 124 155 175 232 296 344
#     4  10  18  32  54  81 112 151 189 225 276 338
#     4  10  24  33  55  87 120 145 188 236 288 331
#     4   9  17  35  62  84 107 146 199 236 277 324
#     4  10  18  32  57  79 115 147 184 227 283 337
#     4  10  18  31  53  87 114 143 188 240 277 329
#     4  10  20  39  63  85 107 150 201 239 269 332
#     4  10  20  36  62  84 113 152 194 228 283 340
#
# _framework density 24.043144999999999
#
# number of rings (size 3 to 8) (size 9 to 14) (size 15 to 20)
#    0.000    2.000    5.000    0.750    1.750    2.000 
#    0.000    1.250    0.000    0.000    0.000    0.000 
#    0.000    0.000    0.000    0.000    0.000    0.000 
#
# Total GULP energy -89191.219001 kJ/mol
# GULP energy per Si atom -5574.451188 kJ/mol
# Density = 2.398842 g / cm^3
# Si number density = 24.043145 Si / 1000 Ang^3
#
#
#
# Elastic Constant Matrix: (Units=GPa)
#
#
# Indices 1 2 3 4 5 6 
#
# 1 165.6236 33.1865 53.7250 8.3416 -5.6843 3.0700
# 2 33.1865 59.0701 38.8263 21.6134 -28.9065 4.4685
# 3 53.7250 38.8263 99.8660 8.2736 -27.9078 -9.5816
# 4 8.3416 21.6134 8.2736 34.3700 -19.9084 -10.7929
# 5 -5.6843 -28.9065 -27.9078 -19.9084 47.8039 14.0035
# 6 3.0700 4.4685 -9.5816 -10.7929 14.0035 35.3570
#
#
#
# Elastic Compliance Matrix: (Units=1/GPa)
#
#
# Indices 1 2 3 4 5 6 
#
# 1 0.007907 -0.003208 -0.003978 -0.001189 -0.003748 -0.000238
# 2 -0.003208 0.043232 -0.010598 -0.020521 0.017221 -0.021142
# 3 -0.003978 -0.010598 0.017605 0.008417 0.004817 0.007117
# 4 -0.001189 -0.020521 0.008417 0.050479 0.008387 0.017065
# 5 -0.003748 0.017221 0.004817 0.008387 0.041405 -0.014384
# 6 -0.000238 -0.021142 0.007117 0.017065 -0.014384 0.043810
#
#
# Mechanical properties :
#
#
# Convention : Reuss Voigt Hill
#
# Bulk Modulus (GPa) = 30.14240 64.00393 47.07317
# Shear Modulus (GPa) = 19.91515 36.76099 28.33807
#
# Velocity S-wave (km/s) = 2.88116 3.91443 3.43685
# Velocity P-wave (km/s) = 4.86129 6.86357 5.94730
#
# Compressibility (1/GPa) = 0.03317586
#
# Stress axis : x y z
#
# Youngs Moduli (GPa) = 126.47584 23.13086 56.80099
#
# Poissons Ratio (x) = 0.07421 0.22594
# Poissons Ratio (y) = 0.40578 0.60198
# Poissons Ratio (z) = 0.50309 0.24514
#
# Static dielectric constant tensor:
#      x y z
#    x 2.033130 -0.046320 0.092030 
#    y -0.046320 1.912110 -0.067320 
#    z 0.092030 -0.067320 2.029440 
# 
# From -- ./inp_files/299197.got.cif
#   From: 2010.05.17/outbox.cif.g08.bks.cpg/sg2_150_cif.got.tgz:299197.got - 2010.06.03 11:33:40.
