data_PCOD9073673
_publ_section_title
;
Structure prediction by ZEFSAII (Michael W. Deem and Ramdas Pophale) SiO2 
 PCOD9073673
Probable space group: P -1
;
_chemical_formula_sum "Si O2"
_cell_formula_units_Z 16
_cell_length_a 12.000000
_cell_length_b 27.000000
_cell_length_c 9.000000
_cell_angle_alpha 130.000000
_cell_angle_beta 50.000000
_cell_angle_gamma 160.000000
_cell_volume 755.591058
_symmetry_space_group_name_H-M "P -1"
_symmetry_group_IT_number 2
_symmetry_cell_setting 'triclinic'
loop_
_space_group_symop_operation_xyz
x,y,z
-x,-y,-z
loop_
_atom_site_type_symbol
_atom_site_label
_atom_site_fract_x
_atom_site_fract_y
_atom_site_fract_z
Si Si1 0.452046 0.138692 0.228981
Si Si2 0.713513 0.664849 0.027075
Si Si3 0.413713 0.076937 0.477855
Si Si4 0.511906 0.339168 0.050497
Si Si5 0.195860 0.449045 0.291954
Si Si6 0.036864 0.599359 0.306497
Si Si7 0.611270 0.067239 0.873798
Si Si8 0.165193 0.120253 0.192985
O O1 0.303342 0.059045 0.369301
O O2 0.349267 0.155341 0.238834
O O3 0.821866 0.298273 0.269667
O O4 0.462482 0.078295 0.001814
O O5 0.398792 0.556030 0.185906
O O6 0.998075 0.777793 0.128976
O O7 0.715638 0.714160 0.978650
O O8 0.701520 0.584994 0.831056
O O9 0.718367 0.242251 0.586532
O O10 0.513200 0.041541 0.325008
O O11 0.122881 0.962483 0.624484
O O12 0.346262 0.239213 0.146275
O O13 0.793567 0.499394 0.181959
O O14 0.718010 0.364223 0.841371
O O15 0.192521 0.489151 0.521643
O O16 0.500000 0.000000 0.000000
O O17 0.000000 0.000000 0.000000
#
# Coordination Sequence:
#
# PCOD9073673 Si02
#       8
#     2   2   2   2   2   2   2   2
#     4   9  21  41  66  90 123 164 208 264 306 366
#     4  10  22  41  66  96 122 162 208 267 309 367
#     4  10  21  42  66  92 122 163 218 258 305 368
#     4  11  26  41  62  90 137 166 205 252 319 377
#     4   9  21  42  68  92 120 162 220 257 308 363
#     4  10  23  44  59  95 124 172 203 254 315 371
#     4   9  20  38  68  90 117 156 214 258 309 358
#     4  12  25  40  60  95 131 168 207 253 319 373
#
# _framework density 21.175476
#
# number of rings (size 3 to 8) (size 9 to 14) (size 15 to 20)
#    0.000    2.000    1.250    1.125    8.750    3.000 
#    0.000    1.875    0.000    0.000    0.000    0.000 
#    0.000    0.000    0.000    0.000    0.000    0.000 
#
# Total GULP energy -89074.685095 kJ/mol
# GULP energy per Si atom -5567.167818 kJ/mol
# Density = 2.112728 g / cm^3
# Si number density = 21.175476 Si / 1000 Ang^3
#
#
#
# Elastic Constant Matrix: (Units=GPa)
#
#
# Indices 1 2 3 4 5 6 
#
# 1 47.1744 24.0238 4.3719 1.9124 12.2142 -19.6582
# 2 24.0238 53.3414 41.9301 -5.2238 -2.7094 -13.2808
# 3 4.3719 41.9301 116.8577 -0.3874 1.5271 -8.6564
# 4 1.9124 -5.2238 -0.3874 45.2449 -8.5626 5.9707
# 5 12.2142 -2.7094 1.5271 -8.5626 13.9137 -2.8375
# 6 -19.6582 -13.2808 -8.6564 5.9707 -2.8375 22.6039
#
#
#
# Elastic Compliance Matrix: (Units=1/GPa)
#
#
# Indices 1 2 3 4 5 6 
#
# 1 0.124055 -0.072439 0.028337 -0.049693 -0.142125 0.071464
# 2 -0.072439 0.074094 -0.026981 0.033031 0.095907 -0.026485
# 3 0.028337 -0.026981 0.018715 -0.013153 -0.037270 0.014755
# 4 -0.049693 0.033031 -0.013153 0.045972 0.073307 -0.031788
# 5 -0.142125 0.095907 -0.037270 0.073307 0.250349 -0.069464
# 6 0.071464 -0.026485 0.014755 -0.031788 -0.069464 0.096158
#
#
# Mechanical properties :
#
#
# Convention : Reuss Voigt Hill
#
# Bulk Modulus (GPa) = 13.38742 39.78058 26.58400
# Shear Modulus (GPa) = 6.43991 26.15568 16.29780
#
# Velocity S-wave (km/s) = 1.74580 3.51834 2.77727
# Velocity P-wave (km/s) = 3.22484 5.94406 4.78181
#
# Compressibility (1/GPa) = 0.07469700
#
# Stress axis : x y z
#
# Youngs Moduli (GPa) = 8.06093 13.49640 53.43314
#
# Poissons Ratio (x) = 0.97767 -1.51416
# Poissons Ratio (y) = 0.58393 1.44170
# Poissons Ratio (z) = -0.22843 0.36415
#
# Static dielectric constant tensor:
#      x y z
#    x 1.751300 -0.096200 0.008290 
#    y -0.096200 1.570430 0.097410 
#    z 0.008290 0.097410 1.733700 
# 
# From -- ./inp_files/285828.got.cif
#   From: 2010.05.17/outbox.ucp.g08.bks.cvg/sg2_143_cif.got.tgz:285828.got - 2010.06.11 11:32:03.
