data_PCOD9073670
_publ_section_title
;
Structure prediction by ZEFSAII (Michael W. Deem and Ramdas Pophale) SiO2 
 PCOD9073670
Probable space group: P -1
;
_chemical_formula_sum "Si O2"
_cell_formula_units_Z 16
_cell_length_a 13.825419
_cell_length_b 26.137962
_cell_length_c 17.570100
_cell_angle_alpha 162.163564
_cell_angle_beta 151.271154
_cell_angle_gamma 21.131604
_cell_volume 697.619745
_symmetry_space_group_name_H-M "P -1"
_symmetry_group_IT_number 2
_symmetry_cell_setting 'triclinic'
loop_
_space_group_symop_operation_xyz
x,y,z
-x,-y,-z
loop_
_atom_site_type_symbol
_atom_site_label
_atom_site_fract_x
_atom_site_fract_y
_atom_site_fract_z
Si Si1 0.366585 0.818415 0.444199
Si Si2 0.808404 0.504107 0.930221
Si Si3 0.538205 0.016335 0.637940
Si Si4 0.124710 0.297562 0.007354
Si Si5 0.108551 0.364462 0.547172
Si Si6 0.070121 0.030660 0.397800
Si Si7 0.601006 0.689738 0.571638
Si Si8 0.681478 0.021209 0.061997
O O1 0.641359 0.728705 0.466106
O O2 0.458663 0.675222 0.381970
O O3 0.186025 0.860056 0.307427
O O4 0.190064 0.068964 0.711436
O O5 0.841375 0.292164 0.633949
O O6 0.000000 0.500000 0.000000
O O7 0.936108 0.462429 0.042603
O O8 0.527487 0.751011 0.072615
O O9 0.801373 0.818360 0.585798
O O10 0.500000 0.000000 0.500000
O O11 0.311866 0.019121 0.523149
O O12 0.429492 0.202637 0.090203
O O13 0.983539 0.422885 0.166159
O O14 0.849236 0.456683 0.450072
O O15 0.952912 0.975276 0.173991
O O16 0.411613 0.866848 0.759069
O O17 0.717251 0.802519 0.778394
#
# Coordination Sequence:
#
# PCOD9073670 Si02
#       8
#     2   2   2   2   2   2   2   2
#     4   9  18  32  53  82 106 139 182 218 270 322
#     4   9  17  32  54  79 100 139 184 220 271 317
#     4  10  18  32  55  76 106 143 180 220 273 320
#     4   9  17  32  55  75 104 147 174 219 268 324
#     4  10  18  31  56  81 103 141 191 216 258 332
#     4   9  19  33  55  85 108 133 182 234 263 321
#     4   9  18  33  56  77 109 151 172 216 274 332
#     4   9  18  34  55  82 110 138 184 217 273 332
#
# _framework density 22.935130000000001
#
# number of rings (size 3 to 8) (size 9 to 14) (size 15 to 20)
#    0.000    2.750    1.250    1.875    0.000    0.500 
#    0.000    5.000   13.750    3.000    0.000    0.000 
#    0.000    0.000    0.000    0.000    0.000    0.000 
#
# Total GULP energy -89180.239805 kJ/mol
# GULP energy per Si atom -5573.764988 kJ/mol
# Density = 2.288293 g / cm^3
# Si number density = 22.935130 Si / 1000 Ang^3
#
#
#
# Elastic Constant Matrix: (Units=GPa)
#
#
# Indices 1 2 3 4 5 6 
#
# 1 57.4956 21.5376 15.6103 3.8963 -9.8000 17.1231
# 2 21.5376 139.3519 38.8981 19.3245 14.8911 31.5609
# 3 15.6103 38.8981 46.6973 -2.7601 2.8930 5.3625
# 4 3.8963 19.3245 -2.7601 33.1939 -5.1395 4.9810
# 5 -9.8000 14.8911 2.8930 -5.1395 23.1805 2.5057
# 6 17.1231 31.5609 5.3625 4.9810 2.5057 22.9419
#
#
#
# Elastic Compliance Matrix: (Units=1/GPa)
#
#
# Indices 1 2 3 4 5 6 
#
# 1 0.028722 0.001807 -0.009288 0.000627 0.014821 -0.023506
# 2 0.001807 0.016867 -0.012554 -0.009622 -0.008629 -0.018586
# 3 -0.009288 -0.012554 0.033854 0.009135 0.000396 0.014263
# 4 0.000627 -0.009622 0.009135 0.038422 0.013740 0.000792
# 5 0.014821 -0.008629 0.000396 0.013740 0.058886 -0.008698
# 6 -0.023506 -0.018586 0.014263 0.000792 -0.008698 0.084146
#
#
# Mechanical properties :
#
#
# Convention : Reuss Voigt Hill
#
# Bulk Modulus (GPa) = 25.39840 43.95965 34.67902
# Shear Modulus (GPa) = 15.91895 27.02986 21.47440
#
# Velocity S-wave (km/s) = 2.63741 3.43670 3.06324
# Velocity P-wave (km/s) = 4.51360 5.91240 5.25971
#
# Compressibility (1/GPa) = 0.03937256
#
# Stress axis : x y z
#
# Youngs Moduli (GPa) = 34.81660 59.28737 29.53869
#
# Poissons Ratio (x) = -0.10711 0.27436
# Poissons Ratio (y) = -0.06290 0.37082
# Poissons Ratio (z) = 0.32338 0.74427
#
# Static dielectric constant tensor:
#      x y z
#    x 1.895360 -0.014430 -0.016970 
#    y -0.014430 1.919180 0.024100 
#    z -0.016970 0.024100 1.890790 
# 
# From -- ./inp_files/177705.got.cif
#   From: 2010.05.17/outbox.cif.g08.bks.cpg/sg2_89_cif.got.tgz:177705.got - 2010.06.03 11:33:40.
