data_PCOD9073902
_publ_section_title
;
Structure prediction by ZEFSAII (Michael W. Deem and Ramdas Pophale) SiO2 
 PCOD9073902
Probable space group: P -1
;
_chemical_formula_sum "Si O2"
_cell_formula_units_Z 16
_cell_length_a 5.581036
_cell_length_b 17.121866
_cell_length_c 17.401873
_cell_angle_alpha 154.194191
_cell_angle_beta 120.719986
_cell_angle_gamma 71.184247
_cell_volume 578.867075
_symmetry_space_group_name_H-M "P -1"
_symmetry_group_IT_number 2
_symmetry_cell_setting 'triclinic'
loop_
_space_group_symop_operation_xyz
x,y,z
-x,-y,-z
loop_
_atom_site_type_symbol
_atom_site_label
_atom_site_fract_x
_atom_site_fract_y
_atom_site_fract_z
Si Si1 0.685684 0.152561 0.727521
Si Si2 0.350510 0.171735 0.845003
Si Si3 0.275691 0.983961 0.126337
Si Si4 0.779588 0.306809 0.443622
Si Si5 0.781531 0.285700 0.254794
Si Si6 0.195040 0.335531 0.158084
Si Si7 0.668956 0.637765 0.312012
Si Si8 0.043297 0.559443 0.186691
O O1 0.477980 0.123409 0.743248
O O2 0.998944 0.117738 0.750337
O O3 0.500000 0.000000 0.500000
O O4 0.821744 0.387873 0.945520
O O5 0.462053 0.076853 0.848500
O O6 0.515344 0.403751 0.082459
O O7 0.456521 0.209773 0.347266
O O8 0.161807 0.872220 0.928824
O O9 0.020009 0.883596 0.057093
O O10 0.716899 0.209736 0.264276
O O11 0.839395 0.533698 0.660601
O O12 0.071554 0.290753 0.517927
O O13 0.518860 0.331282 0.210140
O O14 0.000000 0.500000 0.500000
O O15 0.114840 0.441185 0.166028
O O16 0.371850 0.685832 0.320334
O O17 0.853168 0.676938 0.296498
#
# Coordination Sequence:
#
# PCOD9073902 Si02
#       8
#     2   2   2   2   2   2   2   2
#     4  10  18  31  59  95 122 154 204 252 300 374
#     4  10  19  37  57  85 127 161 201 250 312 367
#     4  12  24  40  61  87 123 162 207 265 304 379
#     4  11  23  40  59  91 114 162 219 254 322 360
#     4  12  23  41  62  81 123 165 206 271 320 360
#     4  11  22  42  60  80 122 163 205 260 314 368
#     4   9  17  36  56  79 111 157 202 240 297 365
#     4   9  17  32  59  79 116 155 196 240 302 362
#
# _framework density 27.640198999999999
#
# number of rings (size 3 to 8) (size 9 to 14) (size 15 to 20)
#    0.000    1.500    5.000    3.375    0.000    0.500 
#    6.750    0.000    0.000    0.000    0.000   33.250 
#    0.000    0.000    0.000    0.000    0.000    0.000 
#
# Total GULP energy -89532.834656 kJ/mol
# GULP energy per Si atom -5595.802166 kJ/mol
# Density = 2.757729 g / cm^3
# Si number density = 27.640199 Si / 1000 Ang^3
#
#
#
# Elastic Constant Matrix: (Units=GPa)
#
#
# Indices 1 2 3 4 5 6 
#
# 1 170.7104 22.8476 42.3483 -3.1346 10.3160 23.7790
# 2 22.8476 54.5783 38.1608 0.3823 -10.1383 14.8841
# 3 42.3483 38.1608 128.7909 -1.9503 1.2896 15.8107
# 4 -3.1346 0.3823 -1.9503 42.0016 9.5618 -8.4657
# 5 10.3160 -10.1383 1.2896 9.5618 47.7461 -7.7647
# 6 23.7790 14.8841 15.8107 -8.4657 -7.7647 31.8573
#
#
#
# Elastic Compliance Matrix: (Units=1/GPa)
#
#
# Indices 1 2 3 4 5 6 
#
# 1 0.007177 -0.001230 -0.001393 0.000121 -0.002560 -0.004683
# 2 -0.001230 0.026668 -0.006646 -0.003479 0.005533 -0.007820
# 3 -0.001393 -0.006646 0.010373 0.000572 -0.001711 -0.001268
# 4 0.000121 -0.003479 0.000572 0.026422 -0.004921 0.007073
# 5 -0.002560 0.005533 -0.001711 -0.004921 0.024490 0.004836
# 6 -0.004683 -0.007820 -0.001268 0.007073 0.004836 0.042227
#
#
# Mechanical properties :
#
#
# Convention : Reuss Voigt Hill
#
# Bulk Modulus (GPa) = 38.93814 62.31033 50.62424
# Shear Modulus (GPa) = 30.40333 41.03586 35.71959
#
# Velocity S-wave (km/s) = 3.32017 3.85729 3.59877
# Velocity P-wave (km/s) = 5.36807 6.51387 5.96853
#
# Compressibility (1/GPa) = 0.02568176
#
# Stress axis : x y z
#
# Youngs Moduli (GPa) = 139.32722 37.49777 96.40168
#
# Poissons Ratio (x) = 0.04611 0.13432
# Poissons Ratio (y) = 0.17132 0.64065
# Poissons Ratio (z) = 0.19412 0.24920
#
# Static dielectric constant tensor:
#      x y z
#    x 2.280870 0.118710 -0.043250 
#    y 0.118710 2.241610 -0.043340 
#    z -0.043250 -0.043340 2.130770 
# 
# From -- ./inp_files/550914.got.cif
#   From: 2010.05.17/outbox.cif.g08.bks.cpg/sg2_276_cif.got.tgz:550914.got - 2010.06.03 11:33:40.
