data_PCOD9073745
_publ_section_title
;
Structure prediction by ZEFSAII (Michael W. Deem and Ramdas Pophale) SiO2 
 PCOD9073745
Probable space group: P -1
;
_chemical_formula_sum "Si O2"
_cell_formula_units_Z 14
_cell_length_a 12.000000
_cell_length_b 9.000000
_cell_length_c 9.000000
_cell_angle_alpha 110.000000
_cell_angle_beta 130.000000
_cell_angle_gamma 100.000000
_cell_volume 585.899798
_symmetry_space_group_name_H-M "P -1"
_symmetry_group_IT_number 2
_symmetry_cell_setting 'triclinic'
loop_
_space_group_symop_operation_xyz
x,y,z
-x,-y,-z
loop_
_atom_site_type_symbol
_atom_site_label
_atom_site_fract_x
_atom_site_fract_y
_atom_site_fract_z
Si Si1 0.741672 0.009238 0.374626
Si Si2 0.300529 0.123936 0.201506
Si Si3 0.244338 0.276725 0.488116
Si Si4 0.719703 0.324577 0.629744
Si Si5 0.084676 0.343563 0.626197
Si Si6 0.928902 0.339169 0.108143
Si Si7 0.386891 0.324181 0.037439
O O1 0.771317 0.894185 0.486755
O O2 0.696582 0.149535 0.455496
O O3 0.597315 0.832579 0.092178
O O4 0.914849 0.151990 0.477158
O O5 0.218418 0.193308 0.274711
O O6 0.514411 0.247164 0.454914
O O7 0.296828 0.212631 0.072552
O O8 0.188368 0.892224 0.034985
O O9 0.110008 0.318076 0.464790
O O10 0.431693 0.475964 0.723313
O O11 0.866936 0.521558 0.736339
O O12 0.814328 0.339187 0.869880
O O13 0.085161 0.526930 0.736185
O O14 0.252805 0.359590 0.850428
#
# Coordination Sequence:
#
# PCOD9073745 Si02
#       7
#     2   2   2   2   2   2   2
#     4  10  21  43  67  96 122 177 225 266 310 398
#     4  12  25  42  66 101 138 166 210 282 333 380
#     4  11  22  40  65  94 126 175 217 259 324 390
#     4  10  22  41  69  98 127 172 227 260 321 400
#     4  10  22  44  70  93 124 173 232 262 310 406
#     4  10  22  43  72  94 126 176 224 267 318 386
#     4  11  24  39  63  99 135 167 214 269 338 379
#
# _framework density 23.894870999999998
#
# number of rings (size 3 to 8) (size 9 to 14) (size 15 to 20)
#    0.000    1.429    1.429    5.143    4.000    0.571 
#    7.714    4.286    0.000    0.000    0.000    0.000 
#    0.000    0.000    0.000    0.000    0.000    0.000 
#
# Total GULP energy -78267.570968 kJ/mol
# GULP energy per Si atom -5590.540783 kJ/mol
# Density = 2.384049 g / cm^3
# Si number density = 23.894871 Si / 1000 Ang^3
#
#
#
# Elastic Constant Matrix: (Units=GPa)
#
#
# Indices 1 2 3 4 5 6 
#
# 1 140.9090 67.1785 39.0909 15.5144 -25.9830 0.3653
# 2 67.1785 158.6998 34.0279 43.7471 -6.2663 10.4006
# 3 39.0909 34.0279 105.7747 42.1122 2.6152 -9.6234
# 4 15.5144 43.7471 42.1122 43.5129 4.3437 -0.7006
# 5 -25.9830 -6.2663 2.6152 4.3437 52.7055 4.2300
# 6 0.3653 10.4006 -9.6234 -0.7006 4.2300 44.9587
#
#
#
# Elastic Compliance Matrix: (Units=1/GPa)
#
#
# Indices 1 2 3 4 5 6 
#
# 1 0.010999 -0.004813 -0.004619 0.004912 0.004701 -0.000330
# 2 -0.004813 0.011304 0.002932 -0.012525 0.000030 -0.002146
# 3 -0.004619 0.002932 0.017846 -0.018370 -0.001544 0.003038
# 4 0.004912 -0.012525 -0.018370 0.051842 -0.002425 -0.000038
# 5 0.004701 0.000030 -0.001544 -0.002425 0.021769 -0.002462
# 6 -0.000330 -0.002146 0.003038 -0.000038 -0.002462 0.023623
#
#
# Mechanical properties :
#
#
# Convention : Reuss Voigt Hill
#
# Bulk Modulus (GPa) = 36.83054 76.21979 56.52517
# Shear Modulus (GPa) = 31.36145 45.90783 38.63464
#
# Velocity S-wave (km/s) = 3.62674 4.38795 4.02538
# Velocity P-wave (km/s) = 5.74323 7.59206 6.73142
#
# Compressibility (1/GPa) = 0.02715138
#
# Stress axis : x y z
#
# Youngs Moduli (GPa) = 90.91378 88.46422 56.03574
#
# Poissons Ratio (x) = 0.42574 0.25882
# Poissons Ratio (y) = 0.43753 -0.16432
# Poissons Ratio (z) = 0.41991 -0.25942
#
# Static dielectric constant tensor:
#      x y z
#    x 1.937420 -0.002580 -0.039170 
#    y -0.002580 1.897890 -0.099640 
#    z -0.039170 -0.099640 1.960060 
# 
# From -- ./inp_files/240782.got.cif
#   From: 2010.05.17/outbox.ucp.g08.bks.cvg/sg2_121_cif.got.tgz:240782.got - 2010.06.11 11:32:03.
