data_PCOD9073179
_publ_section_title
;
Structure prediction by ZEFSAII (Michael W. Deem and Ramdas Pophale) SiO2 
 PCOD9073179
Probable space group: P -1
;
_chemical_formula_sum "Si O2"
_cell_formula_units_Z 16
_cell_length_a 12.000000
_cell_length_b 12.000000
_cell_length_c 6.000000
_cell_angle_alpha 100.000000
_cell_angle_beta 100.000000
_cell_angle_gamma 100.000000
_cell_volume 819.237248
_symmetry_space_group_name_H-M "P -1"
_symmetry_group_IT_number 2
_symmetry_cell_setting 'triclinic'
loop_
_space_group_symop_operation_xyz
x,y,z
-x,-y,-z
loop_
_atom_site_type_symbol
_atom_site_label
_atom_site_fract_x
_atom_site_fract_y
_atom_site_fract_z
Si Si1 0.713185 0.248697 0.171782
Si Si2 0.853311 0.092387 0.920755
Si Si3 0.510239 0.846356 0.236530
Si Si4 0.419896 0.442163 0.158667
Si Si5 0.663315 0.472109 0.434727
Si Si6 0.668772 0.071687 0.473426
Si Si7 0.079821 0.079170 0.741232
Si Si8 0.290747 0.282165 0.722473
O O1 0.725884 0.381489 0.300643
O O2 0.725737 0.175494 0.371052
O O3 0.804041 0.204051 0.024777
O O4 0.583535 0.207584 0.003482
O O5 0.759862 0.040314 0.674565
O O6 0.982380 0.123810 0.871617
O O7 0.861743 0.001520 0.095675
O O8 0.429998 0.881305 0.412098
O O9 0.595628 0.766131 0.324550
O O10 0.603204 0.965337 0.260279
O O11 0.525343 0.418898 0.334344
O O12 0.341606 0.514844 0.294090
O O13 0.500000 0.500000 0.000000
O O14 0.330636 0.332655 0.997993
O O15 0.707660 0.602238 0.389593
O O16 0.175882 0.180884 0.688825
O O17 0.000000 0.000000 0.500000
#
# Coordination Sequence:
#
# PCOD9073179 Si02
#       8
#     2   2   2   2   2   2   2   2
#     4  11  21  37  61  87 129 170 203 254 307 375
#     4  10  23  42  64  90 120 162 214 260 324 366
#     4  10  21  34  55  90 127 164 206 248 310 376
#     4   9  20  36  55  86 127 164 205 243 295 364
#     4  10  22  36  59  92 128 171 206 244 307 370
#     4  10  22  36  58  89 126 163 202 256 315 374
#     4  11  24  44  69  91 119 159 211 273 319 369
#     4  11  22  37  62  91 127 160 211 257 307 370
#
# _framework density 19.530362
#
# number of rings (size 3 to 8) (size 9 to 14) (size 15 to 20)
#    0.000    1.750    1.250    2.625    5.250    6.000 
#    0.000    0.625    0.000    3.750    0.000    0.000 
#    0.000    0.000    0.000    0.000    0.000    0.000 
#
# Total GULP energy -89075.177189 kJ/mol
# GULP energy per Si atom -5567.198574 kJ/mol
# Density = 1.948591 g / cm^3
# Si number density = 19.530362 Si / 1000 Ang^3
#
#
#
# Elastic Constant Matrix: (Units=GPa)
#
#
# Indices 1 2 3 4 5 6 
#
# 1 128.1949 53.0052 33.1305 8.1137 -8.6215 -8.9646
# 2 53.0052 118.7747 38.9896 6.2741 -2.9588 -4.8925
# 3 33.1305 38.9896 68.5490 6.2251 2.0238 4.9230
# 4 8.1137 6.2741 6.2251 31.7164 -2.3471 -2.3516
# 5 -8.6215 -2.9588 2.0238 -2.3471 30.1705 6.7092
# 6 -8.9646 -4.8925 4.9230 -2.3516 6.7092 38.4023
#
#
#
# Elastic Compliance Matrix: (Units=1/GPa)
#
#
# Indices 1 2 3 4 5 6 
#
# 1 0.010390 -0.003391 -0.003206 -0.001041 0.002341 0.001932
# 2 -0.003391 0.011672 -0.005068 -0.000336 0.000203 0.001289
# 3 -0.003206 -0.005068 0.019569 -0.002447 -0.002096 -0.003686
# 4 -0.001041 -0.000336 -0.002447 0.032615 0.001998 0.001676
# 5 0.002341 0.000203 -0.002096 0.001998 0.035287 -0.005201
# 6 0.001932 0.001289 -0.003686 0.001676 -0.005201 0.028139
#
#
# Mechanical properties :
#
#
# Convention : Reuss Voigt Hill
#
# Bulk Modulus (GPa) = 54.64271 62.86324 58.75297
# Shear Modulus (GPa) = 29.92188 32.75074 31.33631
#
# Velocity S-wave (km/s) = 3.91841 4.09946 4.00996
# Velocity P-wave (km/s) = 6.96499 7.39356 7.18247
#
# Compressibility (1/GPa) = 0.01830070
#
# Stress axis : x y z
#
# Youngs Moduli (GPa) = 96.24842 85.67293 51.10143
#
# Poissons Ratio (x) = 0.29055 0.16382
# Poissons Ratio (y) = 0.32641 0.25898
# Poissons Ratio (z) = 0.30855 0.43419
#
# Static dielectric constant tensor:
#      x y z
#    x 1.691140 -0.034180 -0.029280 
#    y -0.034180 1.730080 0.011390 
#    z -0.029280 0.011390 1.812030 
# 
# From -- ./inp_files/67320.got.cif
#   From: 2010.05.17/outbox.ucp.g08.bks.cvg/sg2_34_cif.got.tgz:67320.got - 2010.06.11 11:32:03.
