data_PCOD9073814
_publ_section_title
;
Structure prediction by ZEFSAII (Michael W. Deem and Ramdas Pophale) SiO2 
 PCOD9073814
Probable space group: P -1
;
_chemical_formula_sum "Si O2"
_cell_formula_units_Z 13
_cell_length_a 9.000000
_cell_length_b 15.000000
_cell_length_c 6.000000
_cell_angle_alpha 70.000000
_cell_angle_beta 110.000000
_cell_angle_gamma 130.000000
_cell_volume 574.616229
_symmetry_space_group_name_H-M "P -1"
_symmetry_group_IT_number 2
_symmetry_cell_setting 'triclinic'
loop_
_space_group_symop_operation_xyz
x,y,z
-x,-y,-z
loop_
_atom_site_type_symbol
_atom_site_label
_atom_site_fract_x
_atom_site_fract_y
_atom_site_fract_z
Si Si1 0.039675 0.696297 0.184865
Si Si2 0.236512 0.868190 0.744011
Si Si3 0.850264 0.768755 0.328016
Si Si4 0.230873 0.077111 0.629511
Si Si5 0.500000 0.500000 0.500000
Si Si6 0.786247 0.466576 0.996676
Si Si7 0.398564 0.770403 0.630201
O O1 0.200008 0.710769 0.426150
O O2 0.934603 0.756719 0.153183
O O3 0.165469 0.766965 0.973684
O O4 0.859860 0.562067 0.152227
O O5 0.398184 0.870350 0.678892
O O6 0.042575 0.822541 0.536865
O O7 0.289349 0.988375 0.776746
O O8 0.773686 0.849020 0.234422
O O9 0.675822 0.638479 0.431252
O O10 0.399637 0.169780 0.458390
O O11 0.000000 0.000000 0.500000
O O12 0.663808 0.484582 0.737638
O O13 0.649412 0.335376 0.143296
O O14 0.000000 0.500000 0.000000
#
# Coordination Sequence:
#
# PCOD9073814 Si02
#       7
#     2   2   2   2   1   2   2
#     4  11  23  44  73 106 151 193 242 309 371 446
#     4  10  21  47  70 102 147 190 251 300 357 446
#     4  10  24  42  65 107 145 195 242 299 374 438
#     4  10  24  44  70 101 153 194 245 306 362 444
#     4  12  26  44  74 106 154 192 252 302 380 440
#     4  12  25  47  75 112 153 192 247 311 374 453
#     4  11  24  43  75 107 143 196 247 302 377 436
#
# _framework density 22.623795000000001
#
# number of rings (size 3 to 8) (size 9 to 14) (size 15 to 20)
#    0.000    1.231    3.077    1.846    4.308    4.308 
#    0.000    3.077    0.000    0.000    0.000    0.000 
#    0.000    0.000    0.000    0.000    0.000    0.000 
#
# Total GULP energy -72368.503885 kJ/mol
# GULP energy per Si atom -5566.807991 kJ/mol
# Density = 2.257230 g / cm^3
# Si number density = 22.623795 Si / 1000 Ang^3
#
#
#
# Elastic Constant Matrix: (Units=GPa)
#
#
# Indices 1 2 3 4 5 6 
#
# 1 149.9595 41.6539 25.3716 10.7708 0.1239 -4.6019
# 2 41.6539 86.6842 10.6021 -11.6600 -7.4333 -1.6020
# 3 25.3716 10.6021 41.4926 -5.0671 20.1052 -15.5246
# 4 10.7708 -11.6600 -5.0671 28.2179 -1.2668 -3.3930
# 5 0.1239 -7.4333 20.1052 -1.2668 33.9671 2.7663
# 6 -4.6019 -1.6020 -15.5246 -3.3930 2.7663 40.2186
#
#
#
# Elastic Compliance Matrix: (Units=1/GPa)
#
#
# Indices 1 2 3 4 5 6 
#
# 1 0.009877 -0.004256 -0.009495 -0.007463 0.004672 -0.003656
# 2 -0.004256 0.015552 -0.003798 0.007506 0.006038 -0.001116
# 3 -0.009495 -0.003798 0.061168 0.014462 -0.038601 0.026249
# 4 -0.007463 0.007506 0.014462 0.044826 -0.005970 0.009220
# 5 0.004672 0.006038 -0.038601 -0.005970 0.054868 -0.018402
# 6 -0.003656 -0.001116 0.026249 0.009220 -0.018402 0.036577
#
#
# Mechanical properties :
#
#
# Convention : Reuss Voigt Hill
#
# Bulk Modulus (GPa) = 19.41768 48.15459 33.78614
# Shear Modulus (GPa) = 18.17293 33.84797 26.01045
#
# Velocity S-wave (km/s) = 2.83727 3.87217 3.39439
# Velocity P-wave (km/s) = 4.39715 6.42828 5.50716
#
# Compressibility (1/GPa) = 0.05149946
#
# Stress axis : x y z
#
# Youngs Moduli (GPa) = 101.24434 64.29906 16.34830
#
# Poissons Ratio (x) = 0.27363 0.15523
# Poissons Ratio (y) = 0.43086 0.06209
# Poissons Ratio (z) = 0.96136 0.24422
#
# Static dielectric constant tensor:
#      x y z
#    x 1.846400 -0.073260 -0.021360 
#    y -0.073260 1.876560 0.055140 
#    z -0.021360 0.055140 1.867200 
# 
# From -- ./inp_files/33962.got.cif
#   From: 2010.05.17/outbox.ucp.g08.bks.cvg/sg2_17_cif.got.tgz:33962.got - 2010.06.11 11:32:03.
