data_PCOD9073652
_publ_section_title
;
Structure prediction by ZEFSAII (Michael W. Deem and Ramdas Pophale) SiO2 
 PCOD9073652
Probable space group: P -1
;
_chemical_formula_sum "Si O2"
_cell_formula_units_Z 12
_cell_length_a 18.000000
_cell_length_b 9.000000
_cell_length_c 12.000000
_cell_angle_alpha 130.000000
_cell_angle_beta 20.000000
_cell_angle_gamma 130.000000
_cell_volume 503.727372
_symmetry_space_group_name_H-M "P -1"
_symmetry_group_IT_number 2
_symmetry_cell_setting 'triclinic'
loop_
_space_group_symop_operation_xyz
x,y,z
-x,-y,-z
loop_
_atom_site_type_symbol
_atom_site_label
_atom_site_fract_x
_atom_site_fract_y
_atom_site_fract_z
Si Si1 0.850134 0.227696 0.764241
Si Si2 0.539341 0.100772 0.823867
Si Si3 0.027117 0.083387 0.876444
Si Si4 0.737589 0.890819 0.991598
Si Si5 0.723073 0.492293 0.254789
Si Si6 0.591282 0.465383 0.085517
O O1 0.074040 0.149767 0.381397
O O2 0.823966 0.311979 0.967621
O O3 0.782972 0.395641 0.858546
O O4 0.658116 0.051591 0.923639
O O5 0.759378 0.015549 0.505647
O O6 0.475046 0.082372 0.772739
O O7 0.545459 0.312997 0.973963
O O8 0.096115 0.315112 0.910666
O O9 0.842910 0.029661 0.012925
O O10 0.000000 0.000000 0.000000
O O11 0.676522 0.681405 0.031795
O O12 0.500000 0.500000 0.500000
O O13 0.623843 0.508298 0.525772
#
# Coordination Sequence:
#
# PCOD9073652 Si02
#       6
#     2   2   2   2   2   2
#     4  11  22  44  72  97 137 179 225 272 336 403
#     4  12  25  45  70  99 138 177 225 280 331 399
#     4  12  25  45  72  98 137 180 224 277 340 395
#     4  12  27  43  71 105 132 176 231 273 334 405
#     4  10  21  41  72  97 131 183 219 273 338 391
#     4  11  22  44  69  97 140 179 219 278 337 392
#
# _framework density 23.822410000000001
#
# number of rings (size 3 to 8) (size 9 to 14) (size 15 to 20)
#    0.000    0.667    5.000    5.000    2.333    0.667 
#    0.000    1.667    0.000    0.000    0.000    0.000 
#    0.000    0.000    0.000    0.000    0.000    0.000 
#
# Total GULP energy -67052.221694 kJ/mol
# GULP energy per Si atom -5587.685141 kJ/mol
# Density = 2.376819 g / cm^3
# Si number density = 23.822410 Si / 1000 Ang^3
#
#
#
# Elastic Constant Matrix: (Units=GPa)
#
#
# Indices 1 2 3 4 5 6 
#
# 1 141.0501 23.1050 -5.8400 2.0152 -3.2118 29.3626
# 2 23.1050 96.8695 -11.9801 -11.8952 8.3823 38.6856
# 3 -5.8400 -11.9801 41.4406 10.1932 23.1151 15.4407
# 4 2.0152 -11.8952 10.1932 26.5655 -1.2775 11.2958
# 5 -3.2118 8.3823 23.1151 -1.2775 31.6947 9.2128
# 6 29.3626 38.6856 15.4407 11.2958 9.2128 63.1583
#
#
#
# Elastic Compliance Matrix: (Units=1/GPa)
#
#
# Indices 1 2 3 4 5 6 
#
# 1 0.008147 0.000432 0.002977 0.000501 -0.000025 -0.004866
# 2 0.000432 0.021976 0.018147 0.009810 -0.013405 -0.017897
# 3 0.002977 0.018147 0.066718 -0.011605 -0.047883 -0.019750
# 4 0.000501 0.009810 -0.011605 0.053312 0.012354 -0.014741
# 5 -0.000025 -0.013405 -0.047883 0.012354 0.068256 0.007763
# 6 -0.004866 -0.017897 -0.019750 -0.014741 0.007763 0.035390
#
#
# Mechanical properties :
#
#
# Convention : Reuss Voigt Hill
#
# Bulk Modulus (GPa) = 7.14527 32.21446 19.67986
# Shear Modulus (GPa) = 19.42943 42.55539 30.99241
#
# Velocity S-wave (km/s) = 2.85896 4.23112 3.61082
# Velocity P-wave (km/s) = 3.72882 6.11735 5.06587
#
# Compressibility (1/GPa) = 0.13995275
#
# Stress axis : x y z
#
# Youngs Moduli (GPa) = 122.73824 45.50319 14.98840
#
# Poissons Ratio (x) = -0.01965 -0.04462
# Poissons Ratio (y) = -0.05299 -0.27199
# Poissons Ratio (z) = -0.36535 -0.82574
#
# Static dielectric constant tensor:
#      x y z
#    x 1.960260 -0.097940 0.083270 
#    y -0.097940 1.931920 -0.057540 
#    z 0.083270 -0.057540 2.031270 
# 
# From -- ./inp_files/148538.got.cif
#   From: 2010.05.17/outbox.ucp.g08.bks.cvg/sg2_75_cif.got.tgz:148538.got - 2010.06.11 11:32:03.
