data_PCOD9073533
_publ_section_title
;
Structure prediction by ZEFSAII (Michael W. Deem and Ramdas Pophale) SiO2 
 PCOD9073533
Probable space group: P -1
;
_chemical_formula_sum "Si O2"
_cell_formula_units_Z 16
_cell_length_a 15.000000
_cell_length_b 18.000000
_cell_length_c 24.000000
_cell_angle_alpha 20.000000
_cell_angle_beta 160.000000
_cell_angle_gamma 150.000000
_cell_volume 749.971719
_symmetry_space_group_name_H-M "P -1"
_symmetry_group_IT_number 2
_symmetry_cell_setting 'triclinic'
loop_
_space_group_symop_operation_xyz
x,y,z
-x,-y,-z
loop_
_atom_site_type_symbol
_atom_site_label
_atom_site_fract_x
_atom_site_fract_y
_atom_site_fract_z
Si Si1 0.696731 0.037233 0.816087
Si Si2 0.396037 0.447543 0.415203
Si Si3 0.130039 0.013000 0.326328
Si Si4 0.824255 0.583455 0.009558
Si Si5 0.183583 0.355963 0.641947
Si Si6 0.683028 0.641818 0.153971
Si Si7 0.639298 0.211346 0.937915
Si Si8 0.567171 0.734748 0.853151
O O1 0.570158 0.908939 0.781942
O O2 0.559531 0.272712 0.592282
O O3 0.659116 0.894771 0.948988
O O4 0.000000 0.000000 0.000000
O O5 0.500000 0.500000 0.500000
O O6 0.379246 0.673652 0.212955
O O7 0.088701 0.423452 0.260846
O O8 0.360300 0.852803 0.603571
O O9 0.214554 0.203019 0.203677
O O10 0.949297 0.865676 0.288632
O O11 0.945709 0.133370 0.182345
O O12 0.573381 0.458034 0.943911
O O13 0.830483 0.671254 0.015025
O O14 0.253696 0.399723 0.715376
O O15 0.459145 0.356868 0.772724
O O16 0.950262 0.534224 0.355752
O O17 0.500000 0.000000 0.000000
O O18 0.500000 0.500000 0.000000
#
# Coordination Sequence:
#
# PCOD9073533 Si02
#       8
#     2   2   2   2   2   2   2   2
#     4  12  27  44  69  99 137 182 231 277 351 406
#     4  11  26  45  70 101 138 181 227 286 349 409
#     4  10  22  40  71  96 127 181 227 274 346 392
#     4  11  24  44  66 100 139 177 226 284 341 404
#     4  10  21  40  66  95 135 170 232 274 333 404
#     4  11  24  40  64 101 134 178 223 282 338 407
#     4   9  21  41  65  97 127 172 223 276 334 399
#     4  12  24  45  68 101 141 178 228 284 339 412
#
# _framework density 21.334137999999999
#
# number of rings (size 3 to 8) (size 9 to 14) (size 15 to 20)
#    0.000    1.250    2.500    1.875    7.000    6.500 
#    0.000    2.500    0.000    0.000    0.000    0.000 
#    0.000    0.000    0.000    0.000    0.000    0.000 
#
# Total GULP energy -89098.293686 kJ/mol
# GULP energy per Si atom -5568.643355 kJ/mol
# Density = 2.128558 g / cm^3
# Si number density = 21.334138 Si / 1000 Ang^3
#
#
#
# Elastic Constant Matrix: (Units=GPa)
#
#
# Indices 1 2 3 4 5 6 
#
# 1 87.3962 17.2397 37.4807 10.4094 31.1655 0.4430
# 2 17.2397 59.1848 37.9645 -1.2925 7.7207 -3.4823
# 3 37.4807 37.9645 97.8171 -6.2386 24.9233 7.5205
# 4 10.4094 -1.2925 -6.2386 25.7091 4.8413 -2.8822
# 5 31.1655 7.7207 24.9233 4.8413 28.8919 -4.8387
# 6 0.4430 -3.4823 7.5205 -2.8822 -4.8387 36.3798
#
#
#
# Elastic Compliance Matrix: (Units=1/GPa)
#
#
# Indices 1 2 3 4 5 6 
#
# 1 0.020266 -0.002347 -0.002160 -0.005618 -0.018929 -0.002988
# 2 -0.002347 0.023675 -0.010304 -0.000932 0.006114 0.005164
# 3 -0.002160 -0.010304 0.019557 0.007035 -0.014023 -0.006310
# 4 -0.005618 -0.000932 0.007035 0.044272 -0.006994 0.001102
# 5 -0.018929 0.006114 -0.014023 -0.006994 0.068725 0.012301
# 6 -0.002988 0.005164 -0.006310 0.001102 0.012301 0.031046
#
#
# Mechanical properties :
#
#
# Convention : Reuss Voigt Hill
#
# Bulk Modulus (GPa) = 29.51926 47.75202 38.63564
# Shear Modulus (GPa) = 20.12439 28.31039 24.21739
#
# Velocity S-wave (km/s) = 3.07464 3.64675 3.37285
# Velocity P-wave (km/s) = 5.14502 6.33745 5.77211
#
# Compressibility (1/GPa) = 0.03387619
#
# Stress axis : x y z
#
# Youngs Moduli (GPa) = 49.34429 42.23821 51.13324
#
# Poissons Ratio (x) = 0.09912 0.11045
# Poissons Ratio (y) = 0.11580 0.52688
# Poissons Ratio (z) = 0.10659 0.43522
#
# Static dielectric constant tensor:
#      x y z
#    x 1.822880 -0.002180 0.036910 
#    y -0.002180 1.779450 0.044660 
#    z 0.036910 0.044660 1.783130 
# 
# From -- ./inp_files/612194.got.cif
#   From: 2010.05.17/outbox.ucp.g08.bks.cvg/sg2_307_cif.got.tgz:612194.got - 2010.06.11 11:32:03.
