data_PCOD9073281
_publ_section_title
;
Structure prediction by ZEFSAII (Michael W. Deem and Ramdas Pophale) SiO2 
 PCOD9073281
Probable space group: P -1
;
_chemical_formula_sum "Si O2"
_cell_formula_units_Z 16
_cell_length_a 18.000000
_cell_length_b 12.000000
_cell_length_c 9.000000
_cell_angle_alpha 80.000000
_cell_angle_beta 50.000000
_cell_angle_gamma 40.000000
_cell_volume 729.599496
_symmetry_space_group_name_H-M "P -1"
_symmetry_group_IT_number 2
_symmetry_cell_setting 'triclinic'
loop_
_space_group_symop_operation_xyz
x,y,z
-x,-y,-z
loop_
_atom_site_type_symbol
_atom_site_label
_atom_site_fract_x
_atom_site_fract_y
_atom_site_fract_z
Si Si1 0.754101 0.321145 0.362281
Si Si2 0.386521 0.294692 0.674081
Si Si3 0.252502 0.063664 0.492171
Si Si4 0.048412 0.465282 0.120452
Si Si5 0.455348 0.736317 0.039558
Si Si6 0.655426 0.027350 0.144679
Si Si7 0.816574 0.047279 0.164081
Si Si8 0.227249 0.743436 0.298707
O O1 0.673261 0.519495 0.350416
O O2 0.700553 0.265804 0.344374
O O3 0.719804 0.336877 0.577689
O O4 0.987303 0.096225 0.112204
O O5 0.541740 0.139101 0.641581
O O6 0.505500 0.118073 0.426371
O O7 0.207479 0.402929 0.932266
O O8 0.133959 0.301266 0.604639
O O9 0.313855 0.942585 0.289217
O O10 0.136334 0.089868 0.734791
O O11 0.159003 0.237393 0.074989
O O12 0.000000 0.500000 0.000000
O O13 0.335623 0.750908 0.127132
O O14 0.663308 0.470057 0.880393
O O15 0.472108 0.807095 0.868678
O O16 0.726724 0.063398 0.142870
O O17 0.000000 0.000000 0.500000
#
# Coordination Sequence:
#
# PCOD9073281 Si02
#       8
#     2   2   2   2   2   2   2   2
#     4  11  20  38  66  96 130 164 218 261 323 385
#     4  11  23  40  69  97 122 168 217 268 321 377
#     4  11  24  41  64  95 133 169 212 274 318 378
#     4  12  23  43  70  96 126 166 222 275 318 369
#     4  11  25  44  60  95 136 169 215 257 327 389
#     4  11  23  42  66  93 129 172 217 266 317 381
#     4  10  21  37  65  98 124 167 214 267 319 375
#     4  11  24  40  65  92 134 178 209 258 325 392
#
# _framework density 21.929839999999999
#
# number of rings (size 3 to 8) (size 9 to 14) (size 15 to 20)
#    0.000    1.000    6.250    1.125    0.000    7.500 
#    0.000    0.625    0.000    0.000    0.000    0.000 
#    0.000    0.000    0.000    0.000    0.000    0.000 
#
# Total GULP energy -89209.008506 kJ/mol
# GULP energy per Si atom -5575.563032 kJ/mol
# Density = 2.187993 g / cm^3
# Si number density = 21.929840 Si / 1000 Ang^3
#
#
#
# Elastic Constant Matrix: (Units=GPa)
#
#
# Indices 1 2 3 4 5 6 
#
# 1 41.8827 41.1257 37.2656 5.9040 16.4842 18.7243
# 2 41.1257 75.3568 3.8738 26.3183 6.8976 -2.0493
# 3 37.2656 3.8738 62.7986 18.0900 11.8624 -7.2811
# 4 5.9040 26.3183 18.0900 41.2329 9.0383 0.9509
# 5 16.4842 6.8976 11.8624 9.0383 36.5222 10.1541
# 6 18.7243 -2.0493 -7.2811 0.9509 10.1541 15.2915
#
#
#
# Elastic Compliance Matrix: (Units=1/GPa)
#
#
# Indices 1 2 3 4 5 6 
#
# 1 -0.014823 0.013383 0.017098 -0.013037 -0.007601 0.033943
# 2 0.013383 0.005956 -0.011300 -0.000914 0.003122 -0.022986
# 3 0.017098 -0.011300 0.003429 0.004216 -0.002305 -0.019549
# 4 -0.013037 -0.000914 0.004216 0.026047 -0.007690 0.021336
# 5 -0.007601 0.003122 -0.002305 -0.007690 0.037212 -0.015603
# 6 0.033943 -0.022986 -0.019549 0.021336 -0.015603 0.020478
#
#
# Mechanical properties :
#
#
# Convention : Reuss Voigt Hill
#
# Bulk Modulus (GPa) = 30.37477 38.28537 34.33007
# Shear Modulus (GPa) = 98.20900 25.12751 61.66825
#
# Velocity S-wave (km/s) = 6.69929 3.38866 5.30865
# Velocity P-wave (km/s) = 8.58613 5.72771 7.29823
#
# Compressibility (1/GPa) = 0.03292206
#
# Stress axis : x y z
#
# Youngs Moduli (GPa) = -67.46244 167.90070 291.61397
#
# Poissons Ratio (x) = -2.24699 -4.98591
# Poissons Ratio (y) = 0.90284 3.29538
# Poissons Ratio (z) = 1.15345 1.89736
#
# Static dielectric constant tensor:
#      x y z
#    x 1.775630 -0.089140 0.280060 
#    y -0.089140 1.680140 0.307560 
#    z 0.280060 0.307560 1.235030 
# 
# From -- ./inp_files/333227.got.cif
#   From: 2010.05.17/outbox.ucp.g08.bks.cvg/sg2_167_cif.got.tgz:333227.got - 2010.06.11 11:32:03.
