data_PCOD9073770
_publ_section_title
;
Structure prediction by ZEFSAII (Michael W. Deem and Ramdas Pophale) SiO2 
 PCOD9073770
Probable space group: P -1
;
_chemical_formula_sum "Si O2"
_cell_formula_units_Z 16
_cell_length_a 15.000000
_cell_length_b 9.000000
_cell_length_c 12.000000
_cell_angle_alpha 100.000000
_cell_angle_beta 150.000000
_cell_angle_gamma 90.000000
_cell_volume 759.581896
_symmetry_space_group_name_H-M "P -1"
_symmetry_group_IT_number 2
_symmetry_cell_setting 'triclinic'
loop_
_space_group_symop_operation_xyz
x,y,z
-x,-y,-z
loop_
_atom_site_type_symbol
_atom_site_label
_atom_site_fract_x
_atom_site_fract_y
_atom_site_fract_z
Si Si1 0.810700 0.954170 0.082485
Si Si2 0.407016 0.869679 0.973629
Si Si3 0.299165 0.524923 0.302883
Si Si4 0.123126 0.553466 0.529061
Si Si5 0.784545 0.607577 0.035412
Si Si6 0.440525 0.885250 0.524560
Si Si7 0.657699 0.578084 0.428415
Si Si8 0.755819 0.918660 0.516419
O O1 0.735622 0.070762 0.094521
O O2 0.803499 0.788362 0.110501
O O3 0.639266 0.896900 0.800292
O O4 0.026724 0.028598 0.282812
O O5 0.283370 0.713588 0.757351
O O6 0.588390 0.855759 0.235698
O O7 0.500000 0.000000 0.000000
O O8 0.500000 0.500000 0.500000
O O9 0.186645 0.415310 0.068727
O O10 0.329877 0.709503 0.341695
O O11 0.257218 0.489433 0.382576
O O12 0.239607 0.453073 0.577097
O O13 0.000000 0.500000 0.500000
O O14 0.958287 0.567529 0.272192
O O15 0.571076 0.501235 0.825892
O O16 0.500000 0.000000 0.500000
O O17 0.306043 0.944185 0.470074
O O18 0.716604 0.766336 0.533671
#
# Coordination Sequence:
#
# PCOD9073770 Si02
#       8
#     2   2   2   2   2   2   2   2
#     4  11  24  43  67 103 136 173 234 277 338 418
#     4  11  25  44  68  97 138 180 228 288 345 401
#     4  10  21  43  71  98 136 181 220 278 343 407
#     4  12  27  43  68 101 134 180 239 283 338 406
#     4  11  24  44  72  97 136 182 230 277 347 414
#     4  11  23  43  69 100 143 179 221 280 340 411
#     4  11  24  45  69  98 142 178 227 284 346 410
#     4  11  26  42  68 101 138 179 225 283 347 396
#
# _framework density 21.064219999999999
#
# number of rings (size 3 to 8) (size 9 to 14) (size 15 to 20)
#    0.000    1.000    2.500    4.500    3.500   10.000 
#    0.000    0.000    0.000    0.000    0.000    0.000 
#    0.000    0.000    0.000    0.000    0.000    0.000 
#
# Total GULP energy -89298.157473 kJ/mol
# GULP energy per Si atom -5581.134842 kJ/mol
# Density = 2.101628 g / cm^3
# Si number density = 21.064220 Si / 1000 Ang^3
#
#
#
# Elastic Constant Matrix: (Units=GPa)
#
#
# Indices 1 2 3 4 5 6 
#
# 1 88.3206 3.0116 18.9117 -0.6466 22.1273 -9.5833
# 2 3.0116 65.1674 -8.9120 6.4128 9.3363 -7.3832
# 3 18.9117 -8.9120 68.4224 -7.6487 14.9883 -14.1439
# 4 -0.6466 6.4128 -7.6487 30.4860 -0.5169 3.5745
# 5 22.1273 9.3363 14.9883 -0.5169 48.2107 0.9817
# 6 -9.5833 -7.3832 -14.1439 3.5745 0.9817 40.4032
#
#
#
# Elastic Compliance Matrix: (Units=1/GPa)
#
#
# Indices 1 2 3 4 5 6 
#
# 1 0.013448 0.000311 -0.001933 -0.000687 -0.005695 0.002769
# 2 0.000311 0.017472 0.003931 -0.003359 -0.004887 0.005058
# 3 -0.001933 0.003931 0.018630 0.002927 -0.005770 0.006663
# 4 -0.000687 -0.003359 0.002927 0.034567 0.000484 -0.002822
# 5 -0.005695 -0.004887 -0.005770 0.000484 0.026202 -0.004943
# 6 0.002769 0.005058 0.006663 -0.002822 -0.004943 0.029034
#
#
# Mechanical properties :
#
#
# Convention : Reuss Voigt Hill
#
# Bulk Modulus (GPa) = 18.46135 27.54813 23.00474
# Shear Modulus (GPa) = 32.72428 37.74660 35.23544
#
# Velocity S-wave (km/s) = 3.94578 4.23777 4.09438
# Velocity P-wave (km/s) = 5.43528 6.08699 5.77034
#
# Compressibility (1/GPa) = 0.05416722
#
# Stress axis : x y z
#
# Youngs Moduli (GPa) = 74.36056 57.23428 53.67740
#
# Poissons Ratio (x) = -0.01782 0.10377
# Poissons Ratio (y) = -0.02315 -0.21098
# Poissons Ratio (z) = 0.14375 -0.22496
#
# Static dielectric constant tensor:
#      x y z
#    x 1.785370 0.037970 -0.047520 
#    y 0.037970 1.805550 -0.050060 
#    z -0.047520 -0.050060 1.745560 
# 
# From -- ./inp_files/447716.got.cif
#   From: 2010.05.17/outbox.ucp.g08.bks.cvg/sg2_224_cif.got.tgz:447716.got - 2010.06.11 11:32:03.
