data_PCOD9073366
_publ_section_title
;
Structure prediction by ZEFSAII (Michael W. Deem and Ramdas Pophale) SiO2 
 PCOD9073366
Probable space group: P -1
;
_chemical_formula_sum "Si O2"
_cell_formula_units_Z 14
_cell_length_a 9.000000
_cell_length_b 12.000000
_cell_length_c 9.000000
_cell_angle_alpha 110.000000
_cell_angle_beta 110.000000
_cell_angle_gamma 120.000000
_cell_volume 614.029152
_symmetry_space_group_name_H-M "P -1"
_symmetry_group_IT_number 2
_symmetry_cell_setting 'triclinic'
loop_
_space_group_symop_operation_xyz
x,y,z
-x,-y,-z
loop_
_atom_site_type_symbol
_atom_site_label
_atom_site_fract_x
_atom_site_fract_y
_atom_site_fract_z
Si Si1 0.395280 0.682092 0.538765
Si Si2 0.486831 0.359465 0.988217
Si Si3 0.891118 0.590094 0.461239
Si Si4 0.414441 0.923900 0.771409
Si Si5 0.818256 0.760346 0.726679
Si Si6 0.002452 0.108254 0.851258
Si Si7 0.428753 0.126780 0.614002
O O1 0.164626 0.525120 0.467652
O O2 0.517573 0.849670 0.747056
O O3 0.560715 0.659596 0.608184
O O4 0.405549 0.743847 0.404440
O O5 0.251357 0.230048 0.930998
O O6 0.449253 0.248787 0.788868
O O7 0.500000 0.500000 0.000000
O O8 0.711797 0.459168 0.211732
O O9 0.825054 0.680654 0.550677
O O10 0.150288 0.755072 0.592660
O O11 0.472662 0.041811 0.707475
O O12 0.500000 0.000000 0.000000
O O13 0.949700 0.788293 0.934252
O O14 0.937107 0.943212 0.804173
O O15 0.806500 0.028345 0.623354
#
# Coordination Sequence:
#
# PCOD9073366 Si02
#       7
#     2   2   2   2   2   2   2
#     4  11  24  46  68 105 138 176 232 283 340 400
#     4  12  23  39  66 106 143 174 221 290 344 399
#     4  12  25  44  72 102 138 178 230 282 350 396
#     4  12  28  49  70  94 139 191 232 272 339 422
#     4  10  22  40  73 104 133 176 225 286 335 403
#     4  10  21  38  68 101 141 169 228 270 345 396
#     4  11  25  44  69 100 139 184 228 276 339 410
#
# _framework density 22.800219999999999
#
# number of rings (size 3 to 8) (size 9 to 14) (size 15 to 20)
#    0.000    0.857    1.429    6.000    8.000    0.000 
#    0.000    1.429    0.000    0.000    0.000    0.000 
#    0.000    0.000    0.000    0.000    0.000    0.000 
#
# Total GULP energy -77966.121516 kJ/mol
# GULP energy per Si atom -5569.008680 kJ/mol
# Density = 2.274833 g / cm^3
# Si number density = 22.800220 Si / 1000 Ang^3
#
#
#
# Elastic Constant Matrix: (Units=GPa)
#
#
# Indices 1 2 3 4 5 6 
#
# 1 47.8115 19.1286 10.4838 6.6855 -11.6430 -3.9527
# 2 19.1286 137.9715 15.6386 -0.5967 18.1366 15.5679
# 3 10.4838 15.6386 122.4832 -19.8081 3.8681 1.1461
# 4 6.6855 -0.5967 -19.8081 42.5586 -0.0131 3.5496
# 5 -11.6430 18.1366 3.8681 -0.0131 38.9910 10.4759
# 6 -3.9527 15.5679 1.1461 3.5496 10.4759 45.0830
#
#
#
# Elastic Compliance Matrix: (Units=1/GPa)
#
#
# Indices 1 2 3 4 5 6 
#
# 1 0.027046 -0.005025 -0.002966 -0.005888 0.010087 0.002301
# 2 -0.005025 0.008917 -0.000377 0.000940 -0.004957 -0.002432
# 3 -0.002966 -0.000377 0.009298 0.004820 -0.001526 -0.000391
# 4 -0.005888 0.000940 0.004820 0.026897 -0.001959 -0.002626
# 5 0.010087 -0.004957 -0.001526 -0.001959 0.032388 -0.004737
# 6 0.002301 -0.002432 -0.000391 -0.002626 -0.004737 0.024540
#
#
# Mechanical properties :
#
#
# Convention : Reuss Voigt Hill
#
# Bulk Modulus (GPa) = 35.05567 44.30758 39.68163
# Shear Modulus (GPa) = 32.18931 42.86087 37.52509
#
# Velocity S-wave (km/s) = 3.76147 4.34042 4.06127
# Velocity P-wave (km/s) = 5.85435 6.67789 6.27963
#
# Compressibility (1/GPa) = 0.02852606
#
# Stress axis : x y z
#
# Youngs Moduli (GPa) = 36.97381 112.14027 107.55273
#
# Poissons Ratio (x) = 0.56347 0.31898
# Poissons Ratio (y) = 0.18578 0.04056
# Poissons Ratio (z) = 0.10966 0.04229
#
# Static dielectric constant tensor:
#      x y z
#    x 2.228000 0.046470 0.003280 
#    y 0.046470 1.906960 -0.022430 
#    z 0.003280 -0.022430 1.851990 
# 
# From -- ./inp_files/189490.got.cif
#   From: 2010.05.17/outbox.ucp.g08.bks.cvg/sg2_95_cif.got.tgz:189490.got - 2010.06.11 11:32:03.
