data_PCOD9073627
_publ_section_title
;
Structure prediction by ZEFSAII (Michael W. Deem and Ramdas Pophale) SiO2 
 PCOD9073627
Probable space group: P -1
;
_chemical_formula_sum "Si O2"
_cell_formula_units_Z 16
_cell_length_a 21.000000
_cell_length_b 6.000000
_cell_length_c 9.000000
_cell_angle_alpha 50.000000
_cell_angle_beta 60.000000
_cell_angle_gamma 60.000000
_cell_volume 724.534506
_symmetry_space_group_name_H-M "P -1"
_symmetry_group_IT_number 2
_symmetry_cell_setting 'triclinic'
loop_
_space_group_symop_operation_xyz
x,y,z
-x,-y,-z
loop_
_atom_site_type_symbol
_atom_site_label
_atom_site_fract_x
_atom_site_fract_y
_atom_site_fract_z
Si Si1 0.329753 0.201911 0.746932
Si Si2 0.398932 0.362271 0.302820
Si Si3 0.119807 0.350410 0.156046
Si Si4 0.538756 0.058571 0.079135
Si Si5 0.248487 0.768321 0.155677
Si Si6 0.867151 0.620086 0.549220
Si Si7 0.824528 0.272115 0.277358
Si Si8 0.033822 0.701820 0.685906
O O1 0.382008 0.232244 0.535022
O O2 0.254578 0.481772 0.704958
O O3 0.385282 0.168007 0.841097
O O4 0.294103 0.913571 0.919641
O O5 0.467343 0.113638 0.251651
O O6 0.314696 0.508499 0.268313
O O7 0.433523 0.648228 0.123443
O O8 0.091189 0.375407 0.346165
O O9 0.047026 0.339719 0.143703
O O10 0.195348 0.065093 0.177248
O O11 0.146890 0.638010 0.951462
O O12 0.500000 0.000000 0.000000
O O13 0.183021 0.609435 0.264097
O O14 0.923161 0.546288 0.376736
O O15 0.811774 0.946588 0.441780
O O16 0.896225 0.271772 0.302196
O O17 0.000000 0.000000 0.500000
#
# Coordination Sequence:
#
# PCOD9073627 Si02
#       8
#     2   2   2   2   2   2   2   2
#     4  10  22  44  67  93 132 170 209 260 318 379
#     4  10  21  41  67  97 127 168 212 252 312 381
#     4  11  24  42  63  93 130 169 218 270 320 378
#     4  10  23  42  67  98 131 164 204 260 315 374
#     4  10  23  41  65  93 134 169 211 266 319 372
#     4  12  23  41  65  94 125 173 218 265 321 377
#     4  11  26  42  64  96 128 168 217 268 319 379
#     4  12  23  43  66  88 130 173 214 270 327 372
#
# _framework density 22.083144000000001
#
# number of rings (size 3 to 8) (size 9 to 14) (size 15 to 20)
#    0.000    1.250    2.500    2.625    0.000    8.000 
#    0.000    6.250    0.000    0.000    0.000    0.000 
#    0.000    0.000    0.000    0.000    0.000    0.000 
#
# Total GULP energy -89078.328720 kJ/mol
# GULP energy per Si atom -5567.395545 kJ/mol
# Density = 2.203288 g / cm^3
# Si number density = 22.083144 Si / 1000 Ang^3
#
#
#
# Elastic Constant Matrix: (Units=GPa)
#
#
# Indices 1 2 3 4 5 6 
#
# 1 87.8824 25.5658 1.8940 -6.9718 -11.0791 -34.9831
# 2 25.5658 37.0116 28.4514 -13.5207 2.2443 -15.5804
# 3 1.8940 28.4514 105.7082 -0.2916 -8.8154 -2.7133
# 4 -6.9718 -13.5207 -0.2916 21.0456 -21.0369 -2.6974
# 5 -11.0791 2.2443 -8.8154 -21.0369 21.2012 -2.0856
# 6 -34.9831 -15.5804 -2.7133 -2.6974 -2.0856 23.3078
#
#
#
# Elastic Compliance Matrix: (Units=1/GPa)
#
#
# Indices 1 2 3 4 5 6 
#
# 1 0.011996 -0.021946 0.003851 -0.030831 -0.020559 -0.001625
# 2 -0.021946 0.050191 -0.016259 -0.011500 -0.035523 -0.005791
# 3 0.003851 -0.016259 0.014252 -0.002516 0.006858 -0.003107
# 4 -0.030831 -0.011500 -0.002516 -0.031692 -0.053556 -0.062715
# 5 -0.020559 -0.035523 0.006858 -0.053556 -0.016150 -0.061447
# 6 -0.001625 -0.005791 -0.003107 -0.062715 -0.061447 0.023476
#
#
# Mechanical properties :
#
#
# Convention : Reuss Voigt Hill
#
# Bulk Modulus (GPa) = 129.34932 38.04719 83.69825
# Shear Modulus (GPa) = 40.53219 24.75699 32.64459
#
# Velocity S-wave (km/s) = 4.28885 3.35189 3.84898
# Velocity P-wave (km/s) = 9.12286 5.67861 7.59846
#
# Compressibility (1/GPa) = 0.00773100
#
# Stress axis : x y z
#
# Youngs Moduli (GPa) = 83.36263 19.92371 70.16464
#
# Poissons Ratio (x) = 0.43725 -0.27019
# Poissons Ratio (y) = 1.82951 1.14078
# Poissons Ratio (z) = -0.32101 0.32393
#
# Static dielectric constant tensor:
#      x y z
#    x 1.796580 0.139660 0.352880 
#    y 0.139660 1.791740 -0.248230 
#    z 0.352880 -0.248230 0.874470 
# 
# From -- ./inp_files/323205.got.cif
#   From: 2010.05.17/outbox.ucp.g08.bks.cvg/sg2_162_cif.got.tgz:323205.got - 2010.06.11 11:32:03.
