data_PCOD9073966
_publ_section_title
;
Structure prediction by ZEFSAII (Michael W. Deem and Ramdas Pophale) SiO2 
 PCOD9073966
Probable space group: P -1
;
_chemical_formula_sum "Si O2"
_cell_formula_units_Z 14
_cell_length_a 15.000000
_cell_length_b 9.000000
_cell_length_c 15.000000
_cell_angle_alpha 50.000000
_cell_angle_beta 150.000000
_cell_angle_gamma 110.000000
_cell_volume 642.379314
_symmetry_space_group_name_H-M "P -1"
_symmetry_group_IT_number 2
_symmetry_cell_setting 'triclinic'
loop_
_space_group_symop_operation_xyz
x,y,z
-x,-y,-z
loop_
_atom_site_type_symbol
_atom_site_label
_atom_site_fract_x
_atom_site_fract_y
_atom_site_fract_z
Si Si1 0.722735 0.354211 0.557286
Si Si2 0.855744 0.657957 0.016024
Si Si3 0.995041 0.930553 0.818003
Si Si4 0.444259 0.113168 0.812874
Si Si5 0.963631 0.881045 0.601171
Si Si6 0.313860 0.388741 0.285621
Si Si7 0.625592 0.028018 0.822921
O O1 0.615690 0.623140 0.329109
O O2 0.529607 0.371501 0.441385
O O3 0.805850 0.150620 0.630329
O O4 0.936566 0.320834 0.804400
O O5 0.745256 0.732053 0.795016
O O6 0.702694 0.821141 0.900187
O O7 0.888600 0.404780 0.156117
O O8 0.963979 0.978150 0.663987
O O9 0.099921 0.648806 0.015589
O O10 0.198574 0.911860 0.046783
O O11 0.258724 0.091088 0.621330
O O12 0.621533 0.978854 0.942044
O O13 0.500000 0.000000 0.000000
O O14 0.000000 0.000000 0.500000
O O15 0.396905 0.244429 0.505298
#
# Coordination Sequence:
#
# PCOD9073966 Si02
#       7
#     2   2   2   2   2   2   2
#     4  10  23  43  65  99 129 176 213 255 338 377
#     4   9  23  41  63  99 133 165 218 267 315 397
#     4  10  22  40  65  96 127 169 217 261 316 390
#     4  11  24  42  65  92 130 167 218 273 320 384
#     4  10  22  42  63  91 128 170 220 273 318 382
#     4  11  22  43  68  93 141 169 209 272 313 391
#     4  11  22  42  64  96 129 173 211 262 330 375
#
# _framework density 21.793977000000002
#
# number of rings (size 3 to 8) (size 9 to 14) (size 15 to 20)
#    0.000    1.714    1.429    1.714    4.000    3.429 
#    5.143    7.857    0.000    0.000    0.000    0.000 
#    0.000    0.000    0.000    0.000    0.000    0.000 
#
# Total GULP energy -78040.424670 kJ/mol
# GULP energy per Si atom -5574.316048 kJ/mol
# Density = 2.174437 g / cm^3
# Si number density = 21.793977 Si / 1000 Ang^3
#
#
#
# Elastic Constant Matrix: (Units=GPa)
#
#
# Indices 1 2 3 4 5 6 
#
# 1 132.9237 52.6463 40.8230 -6.1731 -4.3481 -18.7052
# 2 52.6463 140.4790 27.7643 -3.8862 -1.5757 -27.4475
# 3 40.8230 27.7643 64.6571 10.3273 -10.6186 -11.6343
# 4 -6.1731 -3.8862 10.3273 23.3163 -14.6444 1.9340
# 5 -4.3481 -1.5757 -10.6186 -14.6444 37.9068 2.2346
# 6 -18.7052 -27.4475 -11.6343 1.9340 2.2346 46.8905
#
#
#
# Elastic Compliance Matrix: (Units=1/GPa)
#
#
# Indices 1 2 3 4 5 6 
#
# 1 0.010955 -0.002447 -0.006412 0.006350 0.001753 0.001001
# 2 -0.002447 0.009216 -0.001951 0.001330 -0.000160 0.003887
# 3 -0.006412 -0.001951 0.022810 -0.011770 0.000884 0.002403
# 4 0.006350 0.001330 -0.011770 0.064470 0.022591 -0.003344
# 5 0.001753 -0.000160 0.000884 0.022591 0.035656 -0.001806
# 6 0.001001 0.003887 0.002403 -0.003344 -0.001806 0.024821
#
#
# Mechanical properties :
#
#
# Convention : Reuss Voigt Hill
#
# Bulk Modulus (GPa) = 46.81815 64.50300 55.66057
# Shear Modulus (GPa) = 25.42338 36.07779 30.75058
#
# Velocity S-wave (km/s) = 3.41916 4.07308 3.76036
# Velocity P-wave (km/s) = 6.09232 7.19589 6.66698
#
# Compressibility (1/GPa) = 0.02135924
#
# Stress axis : x y z
#
# Youngs Moduli (GPa) = 91.28481 108.51011 43.84033
#
# Poissons Ratio (x) = 0.26555 0.28110
# Poissons Ratio (y) = 0.22339 0.08555
# Poissons Ratio (z) = 0.58532 0.21175
#
# Static dielectric constant tensor:
#      x y z
#    x 1.946950 0.035920 0.018460 
#    y 0.035920 1.800280 -0.013930 
#    z 0.018460 -0.013930 1.890610 
# 
# From -- ./inp_files/188191.got.cif
#   From: 2010.05.17/outbox.ucp.g08.bks.cvg/sg2_95_cif.got.tgz:188191.got - 2010.06.11 11:32:03.
