data_PCOD9073166
_publ_section_title
;
Structure prediction by ZEFSAII (Michael W. Deem and Ramdas Pophale) SiO2 
 PCOD9073166
Probable space group: P -1
;
_chemical_formula_sum "Si O2"
_cell_formula_units_Z 14
_cell_length_a 9.615733
_cell_length_b 7.177074
_cell_length_c 9.110005
_cell_angle_alpha 104.702229
_cell_angle_beta 67.369695
_cell_angle_gamma 75.023922
_cell_volume 514.726097
_symmetry_space_group_name_H-M "P -1"
_symmetry_group_IT_number 2
_symmetry_cell_setting 'triclinic'
loop_
_space_group_symop_operation_xyz
x,y,z
-x,-y,-z
loop_
_atom_site_type_symbol
_atom_site_label
_atom_site_fract_x
_atom_site_fract_y
_atom_site_fract_z
Si Si1 0.622525 0.827834 0.600170
Si Si2 0.742583 0.125564 0.247063
Si Si3 0.771604 0.238660 0.951867
Si Si4 0.909855 0.856309 0.361121
Si Si5 0.514685 0.804795 0.064257
Si Si6 0.883435 0.652730 0.958199
Si Si7 0.113232 0.227528 0.319009
O O1 0.545767 0.200937 0.357194
O O2 0.744450 0.701728 0.658127
O O3 0.746461 0.801020 0.410082
O O4 0.567599 0.069099 0.728036
O O5 0.827722 0.888503 0.098400
O O6 0.833867 0.086619 0.358215
O O7 0.779121 0.257518 0.128479
O O8 0.916748 0.268238 0.811747
O O9 0.583184 0.316254 0.997571
O O10 0.815412 0.995469 0.836032
O O11 0.950111 0.821971 0.510738
O O12 0.700748 0.662156 0.002483
O O13 0.500000 0.000000 0.000000
O O14 0.968515 0.627864 0.757258
O O15 0.000000 0.500000 0.000000
#
# Coordination Sequence:
#
# PCOD9073166 Si02
#       7
#     2   2   2   2   2   2   2
#     4   8  15  26  45  65  95 117 144 183 233 255
#     4  10  17  29  43  70  98 117 150 194 219 270
#     4  10  16  27  46  70  96 119 148 182 229 277
#     4  10  18  25  44  74  98 120 139 186 243 269
#     4  10  13  29  49  68  89 116 155 196 214 261
#     4  10  18  31  50  67  85 123 162 191 220 262
#     4   8  16  28  43  65  91 117 148 184 219 268
#
# _framework density 27.198933
#
# number of rings (size 3 to 8) (size 9 to 14) (size 15 to 20)
#    0.857    1.714    5.714    1.286    0.000    0.000 
#    0.000    0.714    0.000    1.714    0.000    0.000 
#    0.000    0.000    0.000    0.000    0.000    0.000 
#
# Total GULP energy -77974.622802 kJ/mol
# GULP energy per Si atom -5569.615914 kJ/mol
# Density = 2.713703 g / cm^3
# Si number density = 27.198933 Si / 1000 Ang^3
#
#
#
# Elastic Constant Matrix: (Units=GPa)
#
#
# Indices 1 2 3 4 5 6 
#
# 1 161.5802 42.5427 90.2058 -34.7125 -0.5018 -34.2331
# 2 42.5427 85.4118 55.2767 -23.8929 -2.3911 -39.2284
# 3 90.2058 55.2767 206.9694 -51.2262 -14.5667 -36.7025
# 4 -34.7125 -23.8929 -51.2262 39.2958 -6.9565 12.0345
# 5 -0.5018 -2.3911 -14.5667 -6.9565 51.7695 -3.6821
# 6 -34.2331 -39.2284 -36.7025 12.0345 -3.6821 43.7261
#
#
#
# Elastic Compliance Matrix: (Units=1/GPa)
#
#
# Indices 1 2 3 4 5 6 
#
# 1 0.009196 -0.000118 -0.002262 0.003878 0.000263 0.004149
# 2 -0.000118 0.022667 -0.000662 0.007937 0.003190 0.017771
# 3 -0.002262 -0.000662 0.009101 0.009226 0.003966 0.003069
# 4 0.003878 0.007937 0.009226 0.045528 0.009557 0.006175
# 5 0.000263 0.003190 0.003966 0.009557 0.022268 0.005642
# 6 0.004149 0.017771 0.003069 0.006175 0.005642 0.043413
#
#
# Mechanical properties :
#
#
# Convention : Reuss Voigt Hill
#
# Bulk Modulus (GPa) = 28.66995 92.22352 60.44673
# Shear Modulus (GPa) = 29.43177 44.68735 37.05956
#
# Velocity S-wave (km/s) = 3.29309 4.05777 3.69526
# Velocity P-wave (km/s) = 5.00229 7.47895 6.36229
#
# Compressibility (1/GPa) = 0.03487973
#
# Stress axis : x y z
#
# Youngs Moduli (GPa) = 108.74230 44.11699 109.87525
#
# Poissons Ratio (x) = 0.00522 0.24855
# Poissons Ratio (y) = 0.01288 0.07271
# Poissons Ratio (z) = 0.24598 0.02920
#
# Static dielectric constant tensor:
#      x y z
#    x 2.249470 0.067050 -0.026600 
#    y 0.067050 2.330860 -0.007100 
#    z -0.026600 -0.007100 2.179740 
# 
# From -- ./inp_files/237455.got.cif
#   From: 2010.05.17/outbox.cif.g08.bks.cpg/sg2_119_cif.got.tgz:237455.got - 2010.06.03 11:33:40.
