data_PCOD9073271
_publ_section_title
;
Structure prediction by ZEFSAII (Michael W. Deem and Ramdas Pophale) SiO2 
 PCOD9073271
Probable space group: P -1
;
_chemical_formula_sum "Si O2"
_cell_formula_units_Z 16
_cell_length_a 9.000000
_cell_length_b 12.000000
_cell_length_c 18.000000
_cell_angle_alpha 130.000000
_cell_angle_beta 40.000000
_cell_angle_gamma 100.000000
_cell_volume 729.599496
_symmetry_space_group_name_H-M "P -1"
_symmetry_group_IT_number 2
_symmetry_cell_setting 'triclinic'
loop_
_space_group_symop_operation_xyz
x,y,z
-x,-y,-z
loop_
_atom_site_type_symbol
_atom_site_label
_atom_site_fract_x
_atom_site_fract_y
_atom_site_fract_z
Si Si1 0.263107 0.309147 0.581675
Si Si2 0.860389 0.863773 0.793811
Si Si3 0.170339 0.980342 0.649640
Si Si4 0.966876 0.326206 0.121885
Si Si5 0.766442 0.007807 0.544062
Si Si6 0.641394 0.583891 0.568813
Si Si7 0.084756 0.304712 0.911123
Si Si8 0.752272 0.021986 0.054456
O O1 0.015807 0.510247 0.801780
O O2 0.329714 0.352377 0.494836
O O3 0.543906 0.181408 0.477183
O O4 0.158249 0.190201 0.557240
O O5 0.065596 0.634821 0.618035
O O6 0.922486 0.929809 0.872877
O O7 0.937745 0.942721 0.732855
O O8 0.500000 0.000000 0.000000
O O9 0.079191 0.178420 0.798496
O O10 0.234017 0.963408 0.531505
O O11 0.651765 0.402166 0.313350
O O12 0.895074 0.326570 0.063520
O O13 0.250246 0.131480 0.968565
O O14 0.414863 0.178148 0.769009
O O15 0.000000 0.000000 0.500000
O O16 0.546260 0.756807 0.734334
O O17 0.000000 0.500000 0.000000
O O18 0.000000 0.000000 0.000000
#
# Coordination Sequence:
#
# PCOD9073271 Si02
#       8
#     2   2   2   2   2   2   2   2
#     4  11  20  41  75  97 130 184 229 282 345 406
#     4  12  26  43  64 103 146 181 225 279 351 417
#     4  11  22  44  70  94 136 182 230 284 346 411
#     4  11  19  36  70 104 132 166 232 287 334 404
#     4  11  26  47  66  97 138 183 229 292 360 405
#     4  11  22  40  69 104 143 177 221 289 344 401
#     4  11  23  42  69 101 127 177 248 285 328 418
#     4  10  21  37  63  98 128 173 226 266 332 405
#
# _framework density 21.929839999999999
#
# number of rings (size 3 to 8) (size 9 to 14) (size 15 to 20)
#    0.000    1.000    2.500    7.875    0.000    2.500 
#    2.250    1.250    0.000    0.000    0.000    0.000 
#    0.000    0.000    0.000    0.000    0.000    0.000 
#
# Total GULP energy -89228.245054 kJ/mol
# GULP energy per Si atom -5576.765316 kJ/mol
# Density = 2.187993 g / cm^3
# Si number density = 21.929840 Si / 1000 Ang^3
#
#
#
# Elastic Constant Matrix: (Units=GPa)
#
#
# Indices 1 2 3 4 5 6 
#
# 1 54.4595 24.4514 18.7483 -0.2322 -5.6759 6.9625
# 2 24.4514 134.9996 51.5868 15.2817 3.6029 1.0197
# 3 18.7483 51.5868 100.7475 35.1580 8.3401 8.9902
# 4 -0.2322 15.2817 35.1580 54.4655 -0.2263 14.7843
# 5 -5.6759 3.6029 8.3401 -0.2263 29.1345 -11.2988
# 6 6.9625 1.0197 8.9902 14.7843 -11.2988 26.1729
#
#
#
# Elastic Compliance Matrix: (Units=1/GPa)
#
#
# Indices 1 2 3 4 5 6 
#
# 1 0.022344 -0.003090 -0.004208 0.005246 0.003763 -0.005717
# 2 -0.003090 0.009703 -0.004467 -0.000516 0.000424 0.002453
# 3 -0.004208 -0.004467 0.016845 -0.009158 -0.005881 -0.001858
# 4 0.005246 -0.000516 -0.009158 0.028560 -0.001971 -0.015213
# 5 0.003763 0.000424 -0.005881 -0.001971 0.045032 0.021556
# 6 -0.005717 0.002453 -0.001858 -0.015213 0.021556 0.058170
#
#
# Mechanical properties :
#
#
# Convention : Reuss Voigt Hill
#
# Bulk Modulus (GPa) = 39.43020 53.30885 46.36953
# Shear Modulus (GPa) = 23.51423 34.98261 29.24842
#
# Velocity S-wave (km/s) = 3.27807 3.99834 3.65598
# Velocity P-wave (km/s) = 5.68743 6.75849 6.24596
#
# Compressibility (1/GPa) = 0.02536127
#
# Stress axis : x y z
#
# Youngs Moduli (GPa) = 44.75532 103.06463 59.36584
#
# Poissons Ratio (x) = 0.31848 0.24980
# Poissons Ratio (y) = 0.13830 0.26519
# Poissons Ratio (z) = 0.18832 0.46039
#
# Static dielectric constant tensor:
#      x y z
#    x 1.868230 0.063480 0.093420 
#    y 0.063480 1.905960 -0.012380 
#    z 0.093420 -0.012380 1.948270 
# 
# From -- ./inp_files/559904.got.cif
#   From: 2010.05.17/outbox.ucp.g08.bks.cvg/sg2_280_cif.got.tgz:559904.got - 2010.06.11 11:32:03.
