data_PCOD9073188
_publ_section_title
;
Structure prediction by ZEFSAII (Michael W. Deem and Ramdas Pophale) SiO2 
 PCOD9073188
Probable space group: P -1
;
_chemical_formula_sum "Si O2"
_cell_formula_units_Z 16
_cell_length_a 9.000000
_cell_length_b 12.000000
_cell_length_c 21.000000
_cell_angle_alpha 40.000000
_cell_angle_beta 140.000000
_cell_angle_gamma 110.000000
_cell_volume 754.890988
_symmetry_space_group_name_H-M "P -1"
_symmetry_group_IT_number 2
_symmetry_cell_setting 'triclinic'
loop_
_space_group_symop_operation_xyz
x,y,z
-x,-y,-z
loop_
_atom_site_type_symbol
_atom_site_label
_atom_site_fract_x
_atom_site_fract_y
_atom_site_fract_z
Si Si1 0.225970 0.363448 0.240305
Si Si2 0.714829 0.003544 0.654288
Si Si3 0.419009 0.315236 0.064796
Si Si4 0.456511 0.477732 0.780176
Si Si5 0.147368 0.751777 0.672421
Si Si6 0.405648 0.136821 0.619970
Si Si7 0.870215 0.696938 0.418024
Si Si8 0.652047 0.127532 0.091442
O O1 0.462804 0.197510 0.442898
O O2 0.297115 0.529831 0.172374
O O3 0.276336 0.205418 0.267999
O O4 0.899090 0.500516 0.096303
O O5 0.643523 0.078496 0.671486
O O6 0.029497 0.933093 0.771305
O O7 0.692495 0.307326 0.181935
O O8 0.442552 0.286345 0.009208
O O9 0.505027 0.090440 0.222901
O O10 0.404115 0.606778 0.771214
O O11 0.158542 0.636538 0.574832
O O12 0.529883 0.252510 0.929071
O O13 0.886769 0.740915 0.572400
O O14 0.000000 0.000000 0.500000
O O15 0.329163 0.272352 0.600966
O O16 0.000000 0.500000 0.500000
O O17 0.706035 0.905418 0.227262
#
# Coordination Sequence:
#
# PCOD9073188 Si02
#       8
#     2   2   2   2   2   2   2   2
#     4  11  23  35  57  91 134 173 201 237 291 363
#     4  11  23  36  58  92 133 169 204 238 295 367
#     4  10  21  35  55  89 127 164 208 241 288 364
#     4  11  22  39  62  87 124 164 202 254 302 363
#     4   9  18  31  55  82 124 165 203 234 292 351
#     4   9  20  37  60  84 121 161 203 256 306 363
#     4  10  23  46  68  90 118 153 206 275 329 364
#     4  11  24  40  64  94 123 164 211 250 307 371
#
# _framework density 21.195112999999999
#
# number of rings (size 3 to 8) (size 9 to 14) (size 15 to 20)
#    0.000    1.750    1.250    3.750    7.000    3.000 
#    0.000    0.625    0.000    3.750    0.000    0.000 
#    0.000    0.000    0.000    0.000    0.000    0.000 
#
# Total GULP energy -89213.641310 kJ/mol
# GULP energy per Si atom -5575.852582 kJ/mol
# Density = 2.114687 g / cm^3
# Si number density = 21.195113 Si / 1000 Ang^3
#
#
#
# Elastic Constant Matrix: (Units=GPa)
#
#
# Indices 1 2 3 4 5 6 
#
# 1 116.2002 19.3110 25.9283 -8.5724 3.9352 -16.4715
# 2 19.3110 23.5027 -5.3300 -20.0062 -3.5003 -23.8785
# 3 25.9283 -5.3300 106.2791 -11.3961 -0.3486 -2.8660
# 4 -8.5724 -20.0062 -11.3961 28.0074 0.7841 7.0287
# 5 3.9352 -3.5003 -0.3486 0.7841 36.7597 -3.4265
# 6 -16.4715 -23.8785 -2.8660 7.0287 -3.4265 18.2263
#
#
#
# Elastic Compliance Matrix: (Units=1/GPa)
#
#
# Indices 1 2 3 4 5 6 
#
# 1 0.010402 -0.000025 -0.002299 -0.000008 -0.000303 0.008951
# 2 -0.000025 -0.064196 -0.008510 -0.029811 -0.012672 -0.076351
# 3 -0.002299 -0.008510 0.009217 0.000049 -0.001606 -0.012099
# 4 -0.000008 -0.029811 0.000049 0.027507 -0.008197 -0.051204
# 5 -0.000303 -0.012672 -0.001606 -0.008197 0.025331 -0.009205
# 6 0.008951 -0.076351 -0.012099 -0.051204 -0.009205 -0.020960
#
#
# Mechanical properties :
#
#
# Convention : Reuss Voigt Hill
#
# Bulk Modulus (GPa) = -15.09494 36.20008 10.55257
# Shear Modulus (GPa) = -381.38247 30.33686 -175.52280
#
# Velocity S-wave (km/s) = -13.42868 3.78738 -9.11003
# Velocity P-wave (km/s) = 15.73457 6.02014 10.27946
#
# Compressibility (1/GPa) = -0.06624735
#
# Stress axis : x y z
#
# Youngs Moduli (GPa) = 96.13833 -15.57735 108.49472
#
# Poissons Ratio (x) = -0.00040 0.24947
# Poissons Ratio (y) = 0.00244 0.92333
# Poissons Ratio (z) = 0.22106 -0.13257
#
# Static dielectric constant tensor:
#      x y z
#    x 1.291280 -2.906030 0.173010 
#    y -2.906030 -13.884100 1.451750 
#    z 0.173010 1.451750 1.720340 
# 
# From -- ./inp_files/221238.got.cif
#   From: 2010.05.17/outbox.ucp.g08.bks.cvg/sg2_111_cif.got.tgz:221238.got - 2010.06.11 11:32:03.
