data_PCOD9073089
_publ_section_title
;
Structure prediction by ZEFSAII (Michael W. Deem and Ramdas Pophale) SiO2 
 PCOD9073089
Probable space group: P -1
;
_chemical_formula_sum "Si O2"
_cell_formula_units_Z 14
_cell_length_a 9.000000
_cell_length_b 21.000000
_cell_length_c 12.000000
_cell_angle_alpha 150.000000
_cell_angle_beta 40.000000
_cell_angle_gamma 120.000000
_cell_volume 627.666119
_symmetry_space_group_name_H-M "P -1"
_symmetry_group_IT_number 2
_symmetry_cell_setting 'triclinic'
loop_
_space_group_symop_operation_xyz
x,y,z
-x,-y,-z
loop_
_atom_site_type_symbol
_atom_site_label
_atom_site_fract_x
_atom_site_fract_y
_atom_site_fract_z
Si Si1 0.940109 0.701584 0.878020
Si Si2 0.884199 0.364822 0.685817
Si Si3 0.393643 0.687183 0.438114
Si Si4 0.839319 0.255274 0.787488
Si Si5 0.219810 0.993309 0.450764
Si Si6 0.252429 0.406850 0.375972
Si Si7 0.585011 0.912286 0.703284
O O1 0.197113 0.673846 0.617741
O O2 0.034105 0.575419 0.726157
O O3 0.751996 0.680046 0.865470
O O4 0.834551 0.859921 0.232404
O O5 0.732422 0.311497 0.607352
O O6 0.907864 0.291208 0.680552
O O7 0.147667 0.349874 0.451787
O O8 0.678873 0.541182 0.074787
O O9 0.421912 0.829520 0.652068
O O10 0.097688 0.210088 0.647788
O O11 0.778303 0.120617 0.633081
O O12 0.545030 0.387377 0.193039
O O13 0.449981 0.975717 0.206186
O O14 0.000000 0.000000 0.500000
O O15 0.500000 0.000000 0.000000
#
# Coordination Sequence:
#
# PCOD9073089 Si02
#       7
#     2   2   2   2   2   2   2
#     4  10  20  42  67  94 131 173 208 263 327 381
#     4  10  22  40  68  99 129 165 214 272 314 375
#     4  10  20  41  67  96 131 171 211 258 331 380
#     4  11  24  43  65  99 130 166 222 268 309 388
#     4  10  23  42  61  88 130 173 210 256 325 381
#     4  10  22  40  68  98 129 165 217 267 317 376
#     4  11  25  44  66  89 131 178 210 262 332 387
#
# _framework density 22.304852
#
# number of rings (size 3 to 8) (size 9 to 14) (size 15 to 20)
#    0.000    1.714    1.429    2.571    6.000    1.143 
#    0.000    5.714    0.000    0.000    0.000    0.000 
#    0.000    0.000    0.000    0.000    0.000    0.000 
#
# Total GULP energy -78173.901909 kJ/mol
# GULP energy per Si atom -5583.850136 kJ/mol
# Density = 2.225409 g / cm^3
# Si number density = 22.304852 Si / 1000 Ang^3
#
#
#
# Elastic Constant Matrix: (Units=GPa)
#
#
# Indices 1 2 3 4 5 6 
#
# 1 21.7493 32.4040 13.3137 -3.1684 -3.9522 -3.4835
# 2 32.4040 161.9578 8.3302 2.5663 1.5554 -24.1663
# 3 13.3137 8.3302 33.9600 -13.3210 6.8268 -7.8755
# 4 -3.1684 2.5663 -13.3210 31.0615 8.2015 7.1990
# 5 -3.9522 1.5554 6.8268 8.2015 41.3875 4.2510
# 6 -3.4835 -24.1663 -7.8755 7.1990 4.2510 41.8700
#
#
#
# Elastic Compliance Matrix: (Units=1/GPa)
#
#
# Indices 1 2 3 4 5 6 
#
# 1 0.107642 -0.020949 -0.049035 -0.011370 0.022713 -0.012710
# 2 -0.020949 0.010975 0.007915 -0.000003 -0.004388 0.006526
# 3 -0.049035 0.007915 0.063061 0.024636 -0.021320 0.010279
# 4 -0.011370 -0.000003 0.024636 0.045935 -0.013965 -0.002794
# 5 0.022713 -0.004388 -0.021320 -0.013965 0.033359 -0.005639
# 6 -0.012710 0.006526 0.010279 -0.002794 -0.005639 0.029579
#
#
# Mechanical properties :
#
#
# Convention : Reuss Voigt Hill
#
# Bulk Modulus (GPa) = 17.37880 36.19587 26.78733
# Shear Modulus (GPa) = 11.52423 33.77176 22.64799
#
# Velocity S-wave (km/s) = 2.27550 3.89536 3.18997
# Velocity P-wave (km/s) = 3.83566 6.04110 5.06000
#
# Compressibility (1/GPa) = 0.05754138
#
# Stress axis : x y z
#
# Youngs Moduli (GPa) = 9.29004 91.11815 15.85755
#
# Poissons Ratio (x) = 1.90884 0.77757
# Poissons Ratio (y) = 0.19462 -0.12552
# Poissons Ratio (z) = 0.45554 -0.72124
#
# Static dielectric constant tensor:
#      x y z
#    x 1.811230 -0.033940 -0.003140 
#    y -0.033940 1.806550 -0.010590 
#    z -0.003140 -0.010590 1.953020 
# 
# From -- ./inp_files/243469.got.cif
#   From: 2010.05.17/outbox.ucp.g08.bks.cvg/sg2_122_cif.got.tgz:243469.got - 2010.06.11 11:32:03.
