data_PCOD9073421
_publ_section_title
;
Structure prediction by ZEFSAII (Michael W. Deem and Ramdas Pophale) SiO2 
 PCOD9073421
Probable space group: P -1
;
_chemical_formula_sum "Si O2"
_cell_formula_units_Z 16
_cell_length_a 18.091919
_cell_length_b 20.499781
_cell_length_c 9.972913
_cell_angle_alpha 147.346474
_cell_angle_beta 41.696512
_cell_angle_gamma 160.043604
_cell_volume 660.756883
_symmetry_space_group_name_H-M "P -1"
_symmetry_group_IT_number 2
_symmetry_cell_setting 'triclinic'
loop_
_space_group_symop_operation_xyz
x,y,z
-x,-y,-z
loop_
_atom_site_type_symbol
_atom_site_label
_atom_site_fract_x
_atom_site_fract_y
_atom_site_fract_z
Si Si1 0.507674 0.467395 0.666298
Si Si2 0.745003 0.343750 0.705535
Si Si3 0.382736 0.542822 0.777995
Si Si4 0.223007 0.828182 0.973594
Si Si5 0.282024 0.900381 0.496119
Si Si6 0.057073 0.245083 0.378216
Si Si7 0.730991 0.300656 0.061124
Si Si8 0.886865 0.017833 0.487436
O O1 0.513723 0.605723 0.832771
O O2 0.502956 0.380965 0.386096
O O3 0.728502 0.633634 0.734728
O O4 0.289394 0.239169 0.655177
O O5 0.726738 0.190260 0.517197
O O6 0.007458 0.615819 0.801227
O O7 0.542080 0.174158 0.584191
O O8 0.671142 0.369171 0.965882
O O9 0.140653 0.247664 0.593742
O O10 0.228783 0.721366 0.884878
O O11 0.194813 0.924960 0.262950
O O12 0.465242 0.061939 0.986807
O O13 0.119769 0.861015 0.664823
O O14 0.197947 0.731002 0.199709
O O15 0.167610 0.470096 0.684113
O O16 0.915723 0.043041 0.332886
#
# Coordination Sequence:
#
# PCOD9073421 Si02
#       8
#     2   2   2   2   2   2   2   2
#     4  10  19  34  58  85 107 141 189 232 277 317
#     4  10  22  37  53  78 115 152 183 219 285 332
#     4   9  20  36  56  80 113 145 183 231 274 326
#     4  10  19  31  54  85 110 141 181 234 270 330
#     4  11  21  35  54  78 116 155 176 224 281 340
#     4  11  20  33  56  86 111 142 185 231 277 325
#     4  11  19  32  56  82 114 140 184 232 274 323
#     4  10  18  31  54  86 109 138 177 235 279 322
#
# _framework density 24.214655
#
# number of rings (size 3 to 8) (size 9 to 14) (size 15 to 20)
#    0.000    1.750    3.750    3.000    0.000    0.500 
#    0.000    0.625    0.000    0.750    0.000    0.000 
#    0.000    0.000    0.000    0.000    0.000    0.000 
#
# Total GULP energy -89354.660343 kJ/mol
# GULP energy per Si atom -5584.666271 kJ/mol
# Density = 2.415954 g / cm^3
# Si number density = 24.214655 Si / 1000 Ang^3
#
#
#
# Elastic Constant Matrix: (Units=GPa)
#
#
# Indices 1 2 3 4 5 6 
#
# 1 85.2119 11.9057 6.6629 12.7108 -14.5393 25.5716
# 2 11.9057 100.8389 8.4833 22.7822 -0.5962 6.4655
# 3 6.6629 8.4833 69.4095 12.0021 3.6291 -0.0570
# 4 12.7108 22.7822 12.0021 23.3334 3.7886 0.2519
# 5 -14.5393 -0.5962 3.6291 3.7886 15.3355 3.4084
# 6 25.5716 6.4655 -0.0570 0.2519 3.4084 51.3095
#
#
#
# Elastic Compliance Matrix: (Units=1/GPa)
#
#
# Indices 1 2 3 4 5 6 
#
# 1 0.024155 0.002985 -0.000774 -0.020633 0.031499 -0.014406
# 2 0.002985 0.013492 0.000459 -0.016308 0.008085 -0.003644
# 3 -0.000774 0.000459 0.015912 -0.007781 -0.002685 0.000562
# 4 -0.020633 -0.016308 -0.007781 0.080608 -0.041534 0.014693
# 5 0.031499 0.008085 -0.002685 -0.041534 0.111601 -0.023930
# 6 -0.014406 -0.003644 0.000562 0.014693 -0.023930 0.028647
#
#
# Mechanical properties :
#
#
# Convention : Reuss Voigt Hill
#
# Bulk Modulus (GPa) = 16.97896 34.39600 25.68748
# Shear Modulus (GPa) = 17.31856 33.22290 25.27073
#
# Velocity S-wave (km/s) = 2.67724 3.70809 3.23400
# Velocity P-wave (km/s) = 4.07233 5.70690 4.95745
#
# Compressibility (1/GPa) = 0.05889641
#
# Stress axis : x y z
#
# Youngs Moduli (GPa) = 41.40010 74.11919 62.84645
#
# Poissons Ratio (x) = -0.22123 0.04867
# Poissons Ratio (y) = -0.12357 -0.02883
# Poissons Ratio (z) = 0.03206 -0.03401
#
# Static dielectric constant tensor:
#      x y z
#    x 1.992050 0.052110 0.054070 
#    y 0.052110 1.951710 0.036650 
#    z 0.054070 0.036650 1.945750 
# 
# From -- ./inp_files/445360.got.cif
#   From: 2010.05.17/outbox.cif.g08.bks.cpg/sg2_223_cif.got.tgz:445360.got - 2010.06.03 11:33:40.
