data_PCOD9073586
_publ_section_title
;
Structure prediction by ZEFSAII (Michael W. Deem and Ramdas Pophale) SiO2 
 PCOD9073586
Probable space group: P -1
;
_chemical_formula_sum "Si O2"
_cell_formula_units_Z 14
_cell_length_a 12.000000
_cell_length_b 12.000000
_cell_length_c 9.000000
_cell_angle_alpha 90.000000
_cell_angle_beta 40.000000
_cell_angle_gamma 110.000000
_cell_volume 705.336177
_symmetry_space_group_name_H-M "P -1"
_symmetry_group_IT_number 2
_symmetry_cell_setting 'triclinic'
loop_
_space_group_symop_operation_xyz
x,y,z
-x,-y,-z
loop_
_atom_site_type_symbol
_atom_site_label
_atom_site_fract_x
_atom_site_fract_y
_atom_site_fract_z
Si Si1 0.685888 0.862785 0.436766
Si Si2 0.401864 0.895663 0.966890
Si Si3 0.297821 0.504634 0.166143
Si Si4 0.949592 0.321704 0.099008
Si Si5 0.149035 0.671645 0.461494
Si Si6 0.313770 0.591154 0.814067
Si Si7 0.128575 0.924792 0.002118
O O1 0.561096 0.891048 0.689210
O O2 0.542166 0.708343 0.541028
O O3 0.728129 0.945232 0.242130
O O4 0.911631 0.907181 0.264864
O O5 0.251108 0.916577 0.016291
O O6 0.280039 0.768621 0.195273
O O7 0.500000 0.000000 0.000000
O O8 0.220513 0.566330 0.370968
O O9 0.082184 0.371529 0.348894
O O10 0.500000 0.500000 0.000000
O O11 0.330238 0.577143 0.974237
O O12 0.841993 0.295667 0.372034
O O13 0.832881 0.359445 0.096940
O O14 0.931055 0.193360 0.051955
O O15 0.185032 0.442985 0.879837
#
# Coordination Sequence:
#
# PCOD9073586 Si02
#       7
#     2   2   2   2   2   2   2
#     4  11  24  44  67  97 128 170 223 261 320 386
#     4  12  25  42  69  94 126 172 212 266 332 374
#     4  10  21  41  63  93 131 169 207 260 322 375
#     4  10  21  43  67  97 132 170 213 265 322 379
#     4  10  22  39  63  97 129 160 215 263 309 391
#     4  10  21  41  66  97 130 167 218 259 316 386
#     4  11  25  44  68  93 131 172 218 270 312 390
#
# _framework density 19.848690999999999
#
# number of rings (size 3 to 8) (size 9 to 14) (size 15 to 20)
#    0.000    1.429    2.857    1.286    4.000    1.143 
#    5.143    0.000    0.000    0.000    0.000    0.000 
#    0.000    0.000    0.000    0.000    0.000    0.000 
#
# Total GULP energy -77972.384300 kJ/mol
# GULP energy per Si atom -5569.456021 kJ/mol
# Density = 1.980351 g / cm^3
# Si number density = 19.848691 Si / 1000 Ang^3
#
#
#
# Elastic Constant Matrix: (Units=GPa)
#
#
# Indices 1 2 3 4 5 6 
#
# 1 145.1577 41.7515 52.5351 16.5123 -0.7720 5.4714
# 2 41.7515 52.4070 43.7419 -4.0966 5.3667 9.5593
# 3 52.5351 43.7419 115.6054 -10.1326 -6.9018 -0.0146
# 4 16.5123 -4.0966 -10.1326 33.5886 -8.7846 -3.8184
# 5 -0.7720 5.3667 -6.9018 -8.7846 30.4767 -0.3805
# 6 5.4714 9.5593 -0.0146 -3.8184 -0.3805 21.8530
#
#
#
# Elastic Compliance Matrix: (Units=1/GPa)
#
#
# Indices 1 2 3 4 5 6 
#
# 1 0.010726 -0.005818 -0.003444 -0.007638 -0.001704 -0.001507
# 2 -0.005818 0.037734 -0.012280 -0.000583 -0.009932 -0.015333
# 3 -0.003444 -0.012280 0.016053 0.008050 0.008128 0.007793
# 4 -0.007638 -0.000583 0.008050 0.040500 0.013524 0.009485
# 5 -0.001704 -0.009932 0.008128 0.013524 0.040355 0.007843
# 6 -0.001507 -0.015333 0.007793 0.009485 0.007843 0.054644
#
#
# Mechanical properties :
#
#
# Convention : Reuss Voigt Hill
#
# Bulk Modulus (GPa) = 46.66444 65.46967 56.06706
# Shear Modulus (GPa) = 19.98099 28.85975 24.42037
#
# Velocity S-wave (km/s) = 3.17624 3.81726 3.51141
# Velocity P-wave (km/s) = 6.08379 7.24462 6.68943
#
# Compressibility (1/GPa) = 0.02142959
#
# Stress axis : x y z
#
# Youngs Moduli (GPa) = 93.23503 26.50137 62.29198
#
# Poissons Ratio (x) = 0.15418 0.21455
# Poissons Ratio (y) = 0.54241 0.76493
# Poissons Ratio (z) = 0.32113 0.32543
#
# Static dielectric constant tensor:
#      x y z
#    x 1.673080 -0.048390 0.013500 
#    y -0.048390 1.986810 -0.136470 
#    z 0.013500 -0.136470 1.753920 
# 
# From -- ./inp_files/258432.got.cif
#   From: 2010.05.17/outbox.ucp.g08.bks.cvg/sg2_130_cif.got.tgz:258432.got - 2010.06.11 11:32:03.
