data_PCOD9073084
_publ_section_title
;
Structure prediction by ZEFSAII (Michael W. Deem and Ramdas Pophale) SiO2 
 PCOD9073084
Probable space group: P -1
;
_chemical_formula_sum "Si O2"
_cell_formula_units_Z 16
_cell_length_a 21.587912
_cell_length_b 12.141100
_cell_length_c 9.139100
_cell_angle_alpha 129.835883
_cell_angle_beta 136.352191
_cell_angle_gamma 31.633953
_cell_volume 865.171004
_symmetry_space_group_name_H-M "P -1"
_symmetry_group_IT_number 2
_symmetry_cell_setting 'triclinic'
loop_
_space_group_symop_operation_xyz
x,y,z
-x,-y,-z
loop_
_atom_site_type_symbol
_atom_site_label
_atom_site_fract_x
_atom_site_fract_y
_atom_site_fract_z
Si Si1 0.509338 0.817980 0.336427
Si Si2 0.710887 0.547344 0.699644
Si Si3 0.736002 0.522705 0.226697
Si Si4 0.369822 0.815035 0.652858
Si Si5 0.657690 0.825890 0.096339
Si Si6 0.363288 0.731690 0.907452
Si Si7 0.134437 0.760747 0.550250
Si Si8 0.323575 0.611273 0.229191
O O1 0.580825 0.679633 0.489112
O O2 0.608204 0.682641 0.251143
O O3 0.500000 0.000000 0.500000
O O4 0.380774 0.871298 0.127666
O O5 0.826311 0.384734 0.643953
O O6 0.728871 0.407411 0.734388
O O7 0.695208 0.709318 0.906488
O O8 0.725093 0.661195 0.205730
O O9 0.858243 0.358691 0.403669
O O10 0.738003 0.374697 0.010437
O O11 0.355668 0.765602 0.748557
O O12 0.311667 0.789909 0.399945
O O13 0.525966 0.620251 0.723480
O O14 0.315354 0.037886 0.745481
O O15 0.500000 0.000000 0.000000
O O16 0.246238 0.755357 0.759065
O O17 0.500000 0.500000 0.000000
O O18 0.000000 0.000000 0.500000
#
# Coordination Sequence:
#
# PCOD9073084 Si02
#       8
#     2   2   2   2   2   2   2   2
#     4  11  20  31  53  89 125 149 187 242 311 352
#     4  10  19  34  56  84 119 155 192 243 302 355
#     4  10  20  37  54  85 118 154 198 240 295 366
#     4  11  19  29  54  86 128 148 183 240 316 345
#     4  11  19  33  55  91 127 155 183 242 314 372
#     4  12  19  36  60  91 116 148 203 254 291 349
#     4  11  24  42  62  84 121 165 207 251 294 345
#     4  10  18  31  52  86 117 149 186 243 293 361
#
# _framework density 18.493452999999999
#
# number of rings (size 3 to 8) (size 9 to 14) (size 15 to 20)
#    0.000    1.250    7.500    1.500    0.000    1.000 
#    0.000    2.500    0.000    7.500    0.000    0.000 
#    0.000    0.000    0.000    0.000    0.000    0.000 
#
# Total GULP energy -89099.000452 kJ/mol
# GULP energy per Si atom -5568.687528 kJ/mol
# Density = 1.845136 g / cm^3
# Si number density = 18.493453 Si / 1000 Ang^3
#
#
#
# Elastic Constant Matrix: (Units=GPa)
#
#
# Indices 1 2 3 4 5 6 
#
# 1 53.0792 32.0783 47.7887 -1.1304 -18.2045 20.7560
# 2 32.0783 91.1486 49.6258 7.8815 -5.5365 12.3661
# 3 47.7887 49.6258 115.1843 33.5800 -19.0603 8.2182
# 4 -1.1304 7.8815 33.5800 32.7516 6.3630 1.5042
# 5 -18.2045 -5.5365 -19.0603 6.3630 37.4085 -1.4242
# 6 20.7560 12.3661 8.2182 1.5042 -1.4242 19.1205
#
#
#
# Elastic Compliance Matrix: (Units=1/GPa)
#
#
# Indices 1 2 3 4 5 6 
#
# 1 0.126620 -0.000004 -0.063180 0.071942 0.012811 -0.114998
# 2 -0.000004 0.015958 -0.008667 0.006035 -0.003362 -0.007316
# 3 -0.063180 -0.008667 0.052605 -0.057951 0.006788 0.056644
# 4 0.071942 0.006035 -0.057951 0.096427 -0.012523 -0.065610
# 5 0.012811 -0.003362 0.006788 -0.012523 0.037644 -0.010862
# 6 -0.114998 -0.007316 0.056644 -0.065610 -0.010862 0.161873
#
#
# Mechanical properties :
#
#
# Convention : Reuss Voigt Hill
#
# Bulk Modulus (GPa) = 19.42502 57.59974 38.51238
# Shear Modulus (GPa) = 7.66882 26.51741 17.09311
#
# Velocity S-wave (km/s) = 2.03857 3.79077 3.04349
# Velocity P-wave (km/s) = 4.00844 7.09743 5.76373
#
# Compressibility (1/GPa) = 0.05148001
#
# Stress axis : x y z
#
# Youngs Moduli (GPa) = 7.89763 62.66443 19.00959
#
# Poissons Ratio (x) = 0.00027 1.20103
# Poissons Ratio (y) = 0.00003 0.16476
# Poissons Ratio (z) = 0.49897 0.54313
#
# Static dielectric constant tensor:
#      x y z
#    x 1.690400 0.021240 0.011480 
#    y 0.021240 1.644440 0.016740 
#    z 0.011480 0.016740 1.712860 
# 
# From -- ./inp_files/276600.got.cif
#   From: 2010.05.17/outbox.cif.g08.bks.cpg/sg2_139_cif.got.tgz:276600.got - 2010.06.03 11:33:40.
