data_PCOD9073233
_publ_section_title
;
Structure prediction by ZEFSAII (Michael W. Deem and Ramdas Pophale) SiO2 
 PCOD9073233
Probable space group: P -1
;
_chemical_formula_sum "Si O2"
_cell_formula_units_Z 14
_cell_length_a 14.205146
_cell_length_b 11.061326
_cell_length_c 13.856194
_cell_angle_alpha 129.794446
_cell_angle_beta 158.765652
_cell_angle_gamma 52.710006
_cell_volume 605.537444
_symmetry_space_group_name_H-M "P -1"
_symmetry_group_IT_number 2
_symmetry_cell_setting 'triclinic'
loop_
_space_group_symop_operation_xyz
x,y,z
-x,-y,-z
loop_
_atom_site_type_symbol
_atom_site_label
_atom_site_fract_x
_atom_site_fract_y
_atom_site_fract_z
Si Si1 0.040276 0.522231 0.217467
Si Si2 0.472652 0.177111 0.594905
Si Si3 0.412914 0.948525 0.683587
Si Si4 0.119017 0.835970 0.740830
Si Si5 0.555822 0.361120 0.575445
Si Si6 0.182445 0.846127 0.590410
Si Si7 0.956334 0.326527 0.233638
O O1 0.012460 0.456013 0.269335
O O2 0.303992 0.479112 0.385387
O O3 0.039315 0.708274 0.326991
O O4 0.807007 0.452450 0.897436
O O5 0.459270 0.273684 0.533995
O O6 0.208804 0.212191 0.415742
O O7 0.500000 0.000000 0.500000
O O8 0.714314 0.238313 0.914312
O O9 0.397643 0.785992 0.526686
O O10 0.420591 0.894291 0.775380
O O11 0.156244 0.064137 0.482434
O O12 0.669593 0.044157 0.954139
O O13 0.228097 0.792742 0.716395
O O14 0.102638 0.677439 0.709376
O O15 0.000000 0.000000 0.500000
#
# Coordination Sequence:
#
# PCOD9073233 Si02
#       7
#     2   2   2   2   2   2   2
#     4  10  23  40  61  92 122 156 197 245 306 358
#     4  10  18  31  53  85 123 157 188 231 290 360
#     4  11  23  40  63  91 121 160 203 244 294 352
#     4  11  22  39  63  90 121 161 203 244 291 350
#     4  10  21  37  60  91 125 155 192 245 303 358
#     4  10  25  45  65  85 118 161 209 253 291 350
#     4  10  20  34  56  87 120 152 192 241 296 351
#
# _framework density 23.119958
#
# number of rings (size 3 to 8) (size 9 to 14) (size 15 to 20)
#    0.000    1.714    0.000    4.286    0.000    8.571 
#    0.000    0.000    0.000    9.429    0.000    0.000 
#    0.000    0.000    0.000    0.000    0.000    0.000 
#
# Total GULP energy -78085.794726 kJ/mol
# GULP energy per Si atom -5577.556766 kJ/mol
# Density = 2.306734 g / cm^3
# Si number density = 23.119958 Si / 1000 Ang^3
#
#
#
# Elastic Constant Matrix: (Units=GPa)
#
#
# Indices 1 2 3 4 5 6 
#
# 1 118.7458 2.9743 -22.1166 -7.0313 -10.9226 8.1521
# 2 2.9743 77.0757 30.9769 21.9857 1.0063 -6.3515
# 3 -22.1166 30.9769 60.4922 11.5245 26.7237 -11.0150
# 4 -7.0313 21.9857 11.5245 31.1241 1.9783 -6.2761
# 5 -10.9226 1.0063 26.7237 1.9783 35.4159 0.4871
# 6 8.1521 -6.3515 -11.0150 -6.2761 0.4871 23.4524
#
#
#
# Elastic Compliance Matrix: (Units=1/GPa)
#
#
# Indices 1 2 3 4 5 6 
#
# 1 0.009523 -0.002956 0.004533 0.002321 -0.000511 -0.001350
# 2 -0.002956 0.022494 -0.015937 -0.012145 0.011206 -0.003849
# 3 0.004533 -0.015937 0.042115 0.001624 -0.030224 0.014951
# 4 0.002321 -0.012145 0.001624 0.042428 -0.002646 0.008076
# 5 -0.000511 0.011206 -0.030224 -0.002646 0.050889 -0.012748
# 6 -0.001350 -0.003849 0.014951 0.008076 -0.012748 0.051514
#
#
# Mechanical properties :
#
#
# Convention : Reuss Voigt Hill
#
# Bulk Modulus (GPa) = 22.02126 31.10920 26.56523
# Shear Modulus (GPa) = 19.02432 34.29709 26.66071
#
# Velocity S-wave (km/s) = 2.87165 3.85572 3.39949
# Velocity P-wave (km/s) = 4.53218 5.77121 5.18881
#
# Compressibility (1/GPa) = 0.04541067
#
# Stress axis : x y z
#
# Youngs Moduli (GPa) = 105.01117 44.45546 23.74473
#
# Poissons Ratio (x) = 0.13141 -0.10763
# Poissons Ratio (y) = 0.31040 0.37843
# Poissons Ratio (z) = -0.47600 0.70851
#
# Static dielectric constant tensor:
#      x y z
#    x 1.971860 0.101700 -0.037060 
#    y 0.101700 1.921540 -0.081230 
#    z -0.037060 -0.081230 1.834550 
# 
# From -- ./inp_files/72005.got.cif
#   From: 2010.05.17/outbox.cif.g08.bks.cpg/sg2_37_cif.got.tgz:72005.got - 2010.06.03 11:33:40.
