data_PCOD9073782
_publ_section_title
;
Structure prediction by ZEFSAII (Michael W. Deem and Ramdas Pophale) SiO2 
 PCOD9073782
Probable space group: P -1
;
_chemical_formula_sum "Si O2"
_cell_formula_units_Z 16
_cell_length_a 18.000000
_cell_length_b 12.000000
_cell_length_c 9.000000
_cell_angle_alpha 60.000000
_cell_angle_beta 150.000000
_cell_angle_gamma 130.000000
_cell_volume 736.400153
_symmetry_space_group_name_H-M "P -1"
_symmetry_group_IT_number 2
_symmetry_cell_setting 'triclinic'
loop_
_space_group_symop_operation_xyz
x,y,z
-x,-y,-z
loop_
_atom_site_type_symbol
_atom_site_label
_atom_site_fract_x
_atom_site_fract_y
_atom_site_fract_z
Si Si1 0.033801 0.667857 0.449922
Si Si2 0.519965 0.365157 0.173557
Si Si3 0.157913 0.197019 0.794548
Si Si4 0.599234 0.153808 0.894383
Si Si5 0.014140 0.667616 0.079165
Si Si6 0.220705 0.652768 0.187340
Si Si7 0.917859 0.874472 0.628358
Si Si8 0.442065 0.153084 0.919493
O O1 0.068322 0.719511 0.304822
O O2 0.000000 0.500000 0.500000
O O3 0.892385 0.699109 0.264112
O O4 0.207234 0.771192 0.764639
O O5 0.689634 0.423297 0.518972
O O6 0.500000 0.500000 0.000000
O O7 0.355980 0.264102 0.056701
O O8 0.536778 0.284626 0.110700
O O9 0.076846 0.168745 0.506239
O O10 0.078261 0.033241 0.833485
O O11 0.634247 0.226187 0.745355
O O12 0.497510 0.190584 0.819113
O O13 0.525357 0.979840 0.886692
O O14 0.148800 0.717621 0.144341
O O15 0.930365 0.489242 0.058370
O O16 0.900608 0.741382 0.786938
O O17 0.753768 0.893894 0.359943
#
# Coordination Sequence:
#
# PCOD9073782 Si02
#       8
#     2   2   2   2   2   2   2   2
#     4  12  24  42  66  97 131 171 216 270 320 381
#     4  11  25  42  66  96 130 169 213 266 324 387
#     4  10  23  41  68  93 129 173 212 260 329 383
#     4  11  23  43  68  94 132 171 214 265 326 380
#     4  11  25  39  68  95 130 170 216 270 318 383
#     4  11  24  43  64  98 130 168 219 265 320 389
#     4  10  21  44  67  93 131 170 215 265 321 389
#     4  10  23  43  67  95 131 171 210 268 324 380
#
# _framework density 21.727318
#
# number of rings (size 3 to 8) (size 9 to 14) (size 15 to 20)
#    0.000    1.250    2.500    3.000    8.750    2.000 
#    4.500    1.875    0.000    0.000    0.000    0.000 
#    0.000    0.000    0.000    0.000    0.000    0.000 
#
# Total GULP energy -89263.688659 kJ/mol
# GULP energy per Si atom -5578.980541 kJ/mol
# Density = 2.167787 g / cm^3
# Si number density = 21.727318 Si / 1000 Ang^3
#
#
#
# Elastic Constant Matrix: (Units=GPa)
#
#
# Indices 1 2 3 4 5 6 
#
# 1 141.1705 31.2379 11.9445 -13.2231 9.5136 -9.5935
# 2 31.2379 71.2908 4.2937 -7.8900 -10.5120 -6.4713
# 3 11.9445 4.2937 39.7351 -4.7888 -3.5234 -11.3485
# 4 -13.2231 -7.8900 -4.7888 17.4594 2.1886 7.1701
# 5 9.5136 -10.5120 -3.5234 2.1886 16.8179 2.8948
# 6 -9.5935 -6.4713 -11.3485 7.1701 2.8948 31.7352
#
#
#
# Elastic Compliance Matrix: (Units=1/GPa)
#
#
# Indices 1 2 3 4 5 6 
#
# 1 0.009556 -0.004824 -0.002360 0.005324 -0.009737 0.000747
# 2 -0.004824 0.018541 0.001288 0.002976 0.014058 0.000829
# 3 -0.002360 0.001288 0.029114 0.002344 0.006412 0.008846
# 4 0.005324 0.002976 0.002344 0.069124 -0.007613 -0.011869
# 5 -0.009737 0.014058 0.006412 -0.007613 0.076615 -0.003052
# 6 0.000747 0.000829 0.008846 -0.011869 -0.003052 0.038029
#
#
# Mechanical properties :
#
#
# Convention : Reuss Voigt Hill
#
# Bulk Modulus (GPa) = 22.01648 38.57209 30.29428
# Shear Modulus (GPa) = 18.66296 26.85050 22.75673
#
# Velocity S-wave (km/s) = 2.93399 3.51920 3.23983
# Velocity P-wave (km/s) = 4.65111 5.85699 5.28853
#
# Compressibility (1/GPa) = 0.04542052
#
# Stress axis : x y z
#
# Youngs Moduli (GPa) = 104.64233 53.93568 34.34729
#
# Poissons Ratio (x) = 0.26018 0.08106
# Poissons Ratio (y) = 0.50479 -0.04425
# Poissons Ratio (z) = 0.24695 -0.06949
#
# Static dielectric constant tensor:
#      x y z
#    x 1.837190 0.123870 0.002960 
#    y 0.123870 2.085460 0.093330 
#    z 0.002960 0.093330 1.868190 
# 
# From -- ./inp_files/271469.got.cif
#   From: 2010.05.17/outbox.ucp.g08.bks.cvg/sg2_136_cif.got.tgz:271469.got - 2010.06.11 11:32:03.
