data_PCOD9073912
_publ_section_title
;
Structure prediction by ZEFSAII (Michael W. Deem and Ramdas Pophale) SiO2 
 PCOD9073912
Probable space group: P -1
;
_chemical_formula_sum "Si O2"
_cell_formula_units_Z 14
_cell_length_a 15.000000
_cell_length_b 21.000000
_cell_length_c 9.000000
_cell_angle_alpha 30.000000
_cell_angle_beta 50.000000
_cell_angle_gamma 30.000000
_cell_volume 640.267684
_symmetry_space_group_name_H-M "P -1"
_symmetry_group_IT_number 2
_symmetry_cell_setting 'triclinic'
loop_
_space_group_symop_operation_xyz
x,y,z
-x,-y,-z
loop_
_atom_site_type_symbol
_atom_site_label
_atom_site_fract_x
_atom_site_fract_y
_atom_site_fract_z
Si Si1 0.921409 0.750260 0.302111
Si Si2 0.313617 0.281430 0.519427
Si Si3 0.035423 0.779463 0.835105
Si Si4 0.394670 0.636517 0.670385
Si Si5 0.658521 0.137805 0.985308
Si Si6 0.352967 0.832510 0.717017
Si Si7 0.622655 0.691143 0.297910
O O1 0.791414 0.746719 0.387747
O O2 0.147630 0.521098 0.549081
O O3 0.922841 0.855350 0.957793
O O4 0.842302 0.886917 0.257019
O O5 0.505451 0.172749 0.458576
O O6 0.377431 0.207603 0.773193
O O7 0.153061 0.541139 0.165884
O O8 0.197877 0.748300 0.725756
O O9 0.864961 0.954502 0.544703
O O10 0.334123 0.737168 0.367160
O O11 0.513630 0.793029 0.051393
O O12 0.551488 0.383288 0.008538
O O13 0.485236 0.341264 0.454052
O O14 0.643353 0.180236 0.085180
#
# Coordination Sequence:
#
# PCOD9073912 Si02
#       7
#     2   2   2   2   2   2   2
#     4  11  23  41  64  88 121 158 205 248 297 352
#     4  10  23  43  62  89 118 161 204 248 296 353
#     4  10  22  39  65  91 117 159 199 249 303 351
#     4   9  23  40  62  91 122 157 201 241 303 359
#     4  10  24  40  60  94 119 164 198 237 307 359
#     4  11  23  41  63  87 128 158 196 249 297 357
#     4   9  21  41  62  87 122 154 199 248 294 351
#
# _framework density 21.865853999999999
#
# number of rings (size 3 to 8) (size 9 to 14) (size 15 to 20)
#    0.857    1.143    0.000    3.000    2.000   12.571 
#    0.000    1.429    0.000    0.000    0.000    0.000 
#    0.000    0.000    0.000    0.000    0.000    0.000 
#
# Total GULP energy -78085.133620 kJ/mol
# GULP energy per Si atom -5577.509544 kJ/mol
# Density = 2.181609 g / cm^3
# Si number density = 21.865854 Si / 1000 Ang^3
#
#
#
# Elastic Constant Matrix: (Units=GPa)
#
#
# Indices 1 2 3 4 5 6 
#
# 1 30.2742 66.3526 15.2784 -27.7300 -43.1643 -18.4709
# 2 66.3526 42.9864 26.0115 -1.7256 42.8939 -30.4871
# 3 15.2784 26.0115 48.9570 -15.0758 -6.5248 -4.4387
# 4 -27.7300 -1.7256 -15.0758 20.7890 -17.3394 4.7717
# 5 -43.1643 42.8939 -6.5248 -17.3394 -25.1431 12.6193
# 6 -18.4709 -30.4871 -4.4387 4.7717 12.6193 32.1103
#
#
#
# Elastic Compliance Matrix: (Units=1/GPa)
#
#
# Indices 1 2 3 4 5 6 
#
# 1 0.019682 0.004659 -0.007905 0.003121 -0.015720 0.020366
# 2 0.004659 0.013312 -0.002348 0.012734 0.010954 0.008797
# 3 -0.007905 -0.002348 0.025362 0.006067 -0.002752 -0.003091
# 4 0.003121 0.012734 0.006067 0.045934 -0.010793 0.012140
# 5 -0.015720 0.010954 -0.002752 -0.010793 0.012826 -0.002459
# 6 0.020366 0.008797 -0.003091 0.012140 -0.002459 0.049945
#
#
# Mechanical properties :
#
#
# Convention : Reuss Voigt Hill
#
# Bulk Modulus (GPa) = 21.20101 37.50027 29.35064
# Shear Modulus (GPa) = 25.77709 6.52292 16.15000
#
# Velocity S-wave (km/s) = 3.43720 1.72905 2.72066
# Velocity P-wave (km/s) = 5.04673 4.60147 4.82923
#
# Compressibility (1/GPa) = 0.04716756
#
# Stress axis : x y z
#
# Youngs Moduli (GPa) = 50.80859 75.12098 39.42920
#
# Poissons Ratio (x) = -0.34997 0.31169
# Poissons Ratio (y) = -0.23671 0.09257
# Poissons Ratio (z) = 0.40164 0.17637
#
# Static dielectric constant tensor:
#      x y z
#    x 1.743370 0.036290 0.000020 
#    y 0.036290 1.837780 -0.034180 
#    z 0.000020 -0.034180 1.868800 
# 
# From -- ./inp_files/319176.got.cif
#   From: 2010.05.17/outbox.ucp.g08.bks.cvg/sg2_160_cif.got.tgz:319176.got - 2010.06.11 11:32:03.
