data_PCOD9073378
_publ_section_title
;
Structure prediction by ZEFSAII (Michael W. Deem and Ramdas Pophale) SiO2 
 PCOD9073378
Probable space group: P -1
;
_chemical_formula_sum "Si O2"
_cell_formula_units_Z 12
_cell_length_a 12.000000
_cell_length_b 9.000000
_cell_length_c 9.000000
_cell_angle_alpha 70.000000
_cell_angle_beta 140.000000
_cell_angle_gamma 100.000000
_cell_volume 580.795013
_symmetry_space_group_name_H-M "P -1"
_symmetry_group_IT_number 2
_symmetry_cell_setting 'triclinic'
loop_
_space_group_symop_operation_xyz
x,y,z
-x,-y,-z
loop_
_atom_site_type_symbol
_atom_site_label
_atom_site_fract_x
_atom_site_fract_y
_atom_site_fract_z
Si Si1 0.634526 0.107153 0.541598
Si Si2 0.588196 0.472533 0.438815
Si Si3 0.250361 0.639007 0.952010
Si Si4 0.131651 0.841191 0.478563
Si Si5 0.913428 0.142493 0.044072
Si Si6 0.013416 0.613247 0.180787
O O1 0.570162 0.291865 0.441558
O O2 0.694352 0.103237 0.434362
O O3 0.500000 0.000000 0.500000
O O4 0.811423 0.068210 0.833071
O O5 0.500000 0.500000 0.500000
O O6 0.794230 0.485808 0.630352
O O7 0.455858 0.581833 0.158272
O O8 0.169671 0.749739 0.699526
O O9 0.224532 0.742673 0.039282
O O10 0.135920 0.494405 0.904947
O O11 0.056374 0.717827 0.330777
O O12 0.001125 0.004888 0.286824
O O13 0.030525 0.260835 0.042468
#
# Coordination Sequence:
#
# PCOD9073378 Si02
#       6
#     2   2   2   2   2   2
#     4  10  22  39  62  86 114 162 196 239 293 347
#     4  10  21  39  60  90 118 147 210 239 278 366
#     4  12  22  39  64  88 122 155 188 257 299 330
#     4  10  23  40  57  91 121 149 199 245 295 351
#     4  10  21  40  60  87 117 156 205 230 289 370
#     4  10  22  39  63  88 113 163 199 233 298 350
#
# _framework density 20.661334
#
# number of rings (size 3 to 8) (size 9 to 14) (size 15 to 20)
#    0.000    2.000    3.333    3.500    4.667    2.667 
#    3.000    0.833    0.000    0.000    0.000    0.000 
#    0.000    0.000    0.000    0.000    0.000    0.000 
#
# Total GULP energy -66881.778170 kJ/mol
# GULP energy per Si atom -5573.481514 kJ/mol
# Density = 2.061431 g / cm^3
# Si number density = 20.661334 Si / 1000 Ang^3
#
#
#
# Elastic Constant Matrix: (Units=GPa)
#
#
# Indices 1 2 3 4 5 6 
#
# 1 1813.3033 -126.8322 412.4291 -464.9915 -453.8423 640.8379
# 2 -126.8322 58.4579 1.8334 23.9845 51.6033 -44.5509
# 3 412.4291 1.8334 185.5468 -137.2505 -112.3883 143.9034
# 4 -464.9915 23.9845 -137.2505 152.5886 122.4109 -159.0149
# 5 -453.8423 51.6033 -112.3883 122.4109 150.1581 -168.2412
# 6 640.8379 -44.5509 143.9034 -159.0149 -168.2412 263.9951
#
#
#
# Elastic Compliance Matrix: (Units=1/GPa)
#
#
# Indices 1 2 3 4 5 6 
#
# 1 0.007323 0.002514 -0.000054 0.009657 0.001626 -0.010469
# 2 0.002514 0.042498 -0.016751 0.001519 -0.029126 -0.007445
# 3 -0.000054 -0.016751 0.022859 0.014686 0.012799 0.001847
# 4 0.009657 0.001519 0.014686 0.046544 -0.006370 -0.007215
# 5 0.001626 -0.029126 0.012799 -0.006370 0.050043 0.012217
# 6 -0.010469 -0.007445 0.001847 -0.007215 0.012217 0.030378
#
#
# Mechanical properties :
#
#
# Convention : Reuss Voigt Hill
#
# Bulk Modulus (GPa) = 22.67689 292.46319 157.57004
# Shear Modulus (GPa) = 20.58224 231.34019 125.96122
#
# Velocity S-wave (km/s) = 3.15964 10.59296 7.81646
# Velocity P-wave (km/s) = 4.93057 17.07257 12.56549
#
# Compressibility (1/GPa) = 0.04409777
#
# Stress axis : x y z
#
# Youngs Moduli (GPa) = 136.55686 23.53034 43.74674
#
# Poissons Ratio (x) = -0.05915 0.00237
# Poissons Ratio (y) = -0.34325 0.73279
# Poissons Ratio (z) = 0.00738 0.39415
#
# Static dielectric constant tensor:
#      x y z
#    x 1.773540 -0.050890 0.039040 
#    y -0.050890 1.731670 -0.028750 
#    z 0.039040 -0.028750 1.833480 
# 
# From -- ./inp_files/147091.got.cif
#   From: 2010.05.17/outbox.ucp.g08.bks.cvg/sg2_74_cif.got.tgz:147091.got - 2010.06.11 11:32:03.
