data_PCOD9073333
_publ_section_title
;
Structure prediction by ZEFSAII (Michael W. Deem and Ramdas Pophale) SiO2 
 PCOD9073333
Probable space group: P -1
;
_chemical_formula_sum "Si O2"
_cell_formula_units_Z 16
_cell_length_a 15.000000
_cell_length_b 9.000000
_cell_length_c 9.000000
_cell_angle_alpha 60.000000
_cell_angle_beta 60.000000
_cell_angle_gamma 100.000000
_cell_volume 751.948787
_symmetry_space_group_name_H-M "P -1"
_symmetry_group_IT_number 2
_symmetry_cell_setting 'triclinic'
loop_
_space_group_symop_operation_xyz
x,y,z
-x,-y,-z
loop_
_atom_site_type_symbol
_atom_site_label
_atom_site_fract_x
_atom_site_fract_y
_atom_site_fract_z
Si Si1 0.415449 0.838135 0.975668
Si Si2 0.039939 0.543161 0.771462
Si Si3 0.184904 0.459771 0.179986
Si Si4 0.790130 0.891428 0.180603
Si Si5 0.052325 0.227681 0.707469
Si Si6 0.441533 0.115576 0.576376
Si Si7 0.314914 0.827758 0.387872
Si Si8 0.685160 0.510524 0.236031
O O1 0.422176 0.035463 0.802695
O O2 0.564687 0.934460 0.798788
O O3 0.316194 0.652087 0.043576
O O4 0.357840 0.787205 0.213802
O O5 0.069864 0.393025 0.735213
O O6 0.173668 0.768091 0.530196
O O7 0.917860 0.501247 0.811741
O O8 0.000000 0.500000 0.000000
O O9 0.114594 0.314767 0.452546
O O10 0.223915 0.395311 0.029731
O O11 0.873787 0.866204 0.242046
O O12 0.695061 0.934617 0.318642
O O13 0.713455 0.686191 0.243021
O O14 0.901995 0.074974 0.895988
O O15 0.544218 0.361954 0.365540
O O16 0.500000 0.000000 0.500000
O O17 0.302619 0.663488 0.602880
#
# Coordination Sequence:
#
# PCOD9073333 Si02
#       8
#     2   2   2   2   2   2   2   2
#     4  10  21  38  64  97 128 170 216 282 325 389
#     4  12  22  39  65 103 135 174 221 282 335 394
#     4  12  22  39  71  98 136 170 234 278 329 396
#     4  11  24  45  64  93 139 178 218 270 343 403
#     4  11  25  41  67  94 134 184 220 273 338 405
#     4  11  23  40  71  99 126 171 227 276 328 398
#     4  10  21  38  62  95 136 170 218 272 339 390
#     4  11  22  43  66  96 134 177 216 275 340 397
#
# _framework density 21.278044999999999
#
# number of rings (size 3 to 8) (size 9 to 14) (size 15 to 20)
#    0.000    1.000    5.000    1.500    1.750    0.500 
#    0.000    0.625   11.000    0.000    0.000    0.000 
#    0.000    0.000    0.000    0.000    0.000    0.000 
#
# Total GULP energy -89193.943572 kJ/mol
# GULP energy per Si atom -5574.621473 kJ/mol
# Density = 2.122962 g / cm^3
# Si number density = 21.278045 Si / 1000 Ang^3
#
#
#
# Elastic Constant Matrix: (Units=GPa)
#
#
# Indices 1 2 3 4 5 6 
#
# 1 92.6246 28.5598 33.2911 6.1958 -32.8119 5.5079
# 2 28.5598 62.6534 35.1879 8.9533 -13.0768 8.1719
# 3 33.2911 35.1879 158.4942 22.0761 -20.0118 3.6115
# 4 6.1958 8.9533 22.0761 39.0791 15.1837 -10.3518
# 5 -32.8119 -13.0768 -20.0118 15.1837 53.4260 3.0553
# 6 5.5079 8.1719 3.6115 -10.3518 3.0553 32.3594
#
#
#
# Elastic Compliance Matrix: (Units=1/GPa)
#
#
# Indices 1 2 3 4 5 6 
#
# 1 0.017116 -0.003228 -0.000004 -0.008384 0.012444 -0.005955
# 2 -0.003228 0.021740 -0.002406 -0.006931 0.004827 -0.007345
# 3 -0.000004 -0.002406 0.008455 -0.006830 0.004686 -0.002963
# 4 -0.008384 -0.006931 -0.006830 0.047388 -0.024094 0.021374
# 5 0.012444 0.004827 0.004686 -0.024094 0.037005 -0.015062
# 6 -0.005955 -0.007345 -0.002963 0.021374 -0.015062 0.042362
#
#
# Mechanical properties :
#
#
# Convention : Reuss Voigt Hill
#
# Bulk Modulus (GPa) = 27.75135 56.42775 42.08955
# Shear Modulus (GPa) = 25.33535 39.42180 32.37857
#
# Velocity S-wave (km/s) = 3.45437 4.30897 3.90512
# Velocity P-wave (km/s) = 5.38338 7.16471 6.33695
#
# Compressibility (1/GPa) = 0.03603429
#
# Stress axis : x y z
#
# Youngs Moduli (GPa) = 58.42474 45.99899 118.27475
#
# Poissons Ratio (x) = 0.14848 0.00046
# Poissons Ratio (y) = 0.18859 0.28460
# Poissons Ratio (z) = 0.00023 0.11069
#
# Static dielectric constant tensor:
#      x y z
#    x 1.853060 0.039620 -0.015430 
#    y 0.039620 1.793470 -0.040530 
#    z -0.015430 -0.040530 1.830930 
# 
# From -- ./inp_files/297612.got.cif
#   From: 2010.05.17/outbox.ucp.g08.bks.cvg/sg2_149_cif.got.tgz:297612.got - 2010.06.11 11:32:03.
