data_PCOD9073240
_publ_section_title
;
Structure prediction by ZEFSAII (Michael W. Deem and Ramdas Pophale) SiO2 
 PCOD9073240
Probable space group: P -1
;
_chemical_formula_sum "Si O2"
_cell_formula_units_Z 16
_cell_length_a 10.452458
_cell_length_b 9.278121
_cell_length_c 13.353991
_cell_angle_alpha 138.408240
_cell_angle_beta 123.629658
_cell_angle_gamma 68.258987
_cell_volume 713.553076
_symmetry_space_group_name_H-M "P -1"
_symmetry_group_IT_number 2
_symmetry_cell_setting 'triclinic'
loop_
_space_group_symop_operation_xyz
x,y,z
-x,-y,-z
loop_
_atom_site_type_symbol
_atom_site_label
_atom_site_fract_x
_atom_site_fract_y
_atom_site_fract_z
Si Si1 0.071380 0.302384 0.245075
Si Si2 0.379522 0.405494 0.986733
Si Si3 0.229249 0.918468 0.010493
Si Si4 0.717933 0.926996 0.386002
Si Si5 0.379723 0.701556 0.799532
Si Si6 0.380362 0.862463 0.246011
Si Si7 0.197450 0.221996 0.462959
Si Si8 0.641853 0.350340 0.461545
O O1 0.069791 0.233119 0.326183
O O2 0.195796 0.505222 0.401327
O O3 0.892920 0.291817 0.133125
O O4 0.142525 0.127999 0.111188
O O5 0.472858 0.324352 0.079592
O O6 0.302039 0.620479 0.102160
O O7 0.500000 0.500000 0.000000
O O8 0.275803 0.220623 0.786980
O O9 0.292189 0.888542 0.912617
O O10 0.362845 0.915639 0.148633
O O11 0.559795 0.851295 0.337745
O O12 0.845209 0.877211 0.497750
O O13 0.681090 0.168152 0.463480
O O14 0.279544 0.465718 0.637115
O O15 0.403116 0.748959 0.717980
O O16 0.305570 0.052405 0.369619
O O17 0.500000 0.500000 0.500000
#
# Coordination Sequence:
#
# PCOD9073240 Si02
#       8
#     2   2   2   2   2   2   2   2
#     4   9  22  39  59  85 109 152 190 231 280 325
#     4  10  18  31  53  87 110 139 189 235 279 320
#     4  10  18  38  63  81 112 144 198 238 262 330
#     4  11  19  34  52  80 118 141 177 232 285 333
#     4  11  20  35  58  85 113 147 191 232 276 331
#     4  10  18  32  58  87 106 144 189 239 278 318
#     4  10  19  31  56  83 109 144 191 229 275 326
#     4  11  25  37  51  85 123 151 178 227 294 339
#
# _framework density 22.422999000000001
#
# number of rings (size 3 to 8) (size 9 to 14) (size 15 to 20)
#    0.000    1.750    5.000    2.625    1.750    2.500 
#    0.000    0.000    0.000   13.500    0.000    0.000 
#    0.000    0.000    0.000    0.000    0.000    0.000 
#
# Total GULP energy -89187.248815 kJ/mol
# GULP energy per Si atom -5574.203051 kJ/mol
# Density = 2.237196 g / cm^3
# Si number density = 22.422999 Si / 1000 Ang^3
#
#
#
# Elastic Constant Matrix: (Units=GPa)
#
#
# Indices 1 2 3 4 5 6 
#
# 1 16.8096 2.9270 26.7464 -6.5420 -7.1697 3.8978
# 2 2.9270 88.6614 33.7688 -5.7498 -7.3652 12.0498
# 3 26.7464 33.7688 122.1499 -13.9539 -22.6498 5.4702
# 4 -6.5420 -5.7498 -13.9539 34.7493 1.9069 -6.4533
# 5 -7.1697 -7.3652 -22.6498 1.9069 30.0018 0.2459
# 6 3.8978 12.0498 5.4702 -6.4533 0.2459 12.2452
#
#
#
# Elastic Compliance Matrix: (Units=1/GPa)
#
#
# Indices 1 2 3 4 5 6 
#
# 1 0.107790 0.010573 -0.022242 0.006633 0.011399 -0.031512
# 2 0.010573 0.015417 -0.005498 -0.000876 0.002352 -0.016590
# 3 -0.022242 -0.005498 0.015402 0.002050 0.004778 0.006595
# 4 0.006633 -0.000876 0.002050 0.033547 0.000658 0.015502
# 5 0.011399 0.002352 0.004778 0.000658 0.040268 -0.008539
# 6 -0.031512 -0.016590 0.006595 0.015502 -0.008539 0.113415
#
#
# Mechanical properties :
#
#
# Convention : Reuss Voigt Hill
#
# Bulk Modulus (GPa) = 9.59018 39.38949 24.48983
# Shear Modulus (GPa) = 12.66040 26.34451 19.50246
#
# Velocity S-wave (km/s) = 2.37874 3.43138 2.95236
# Velocity P-wave (km/s) = 3.43959 5.77095 4.75051
#
# Compressibility (1/GPa) = 0.10427334
#
# Stress axis : x y z
#
# Youngs Moduli (GPa) = 9.27733 64.86276 64.92777
#
# Poissons Ratio (x) = -0.68578 1.44414
# Poissons Ratio (y) = -0.09809 0.35699
# Poissons Ratio (z) = 0.20635 0.35663
#
# Static dielectric constant tensor:
#      x y z
#    x 1.840400 0.012830 -0.003650 
#    y 0.012830 1.875120 0.035920 
#    z -0.003650 0.035920 1.888490 
# 
# From -- ./inp_files/263520.got.cif
#   From: 2010.05.17/outbox.cif.g08.bks.cpg/sg2_132_cif.got.tgz:263520.got - 2010.06.03 11:33:40.
