data_PCOD9073043
_publ_section_title
;
Structure prediction by ZEFSAII (Michael W. Deem and Ramdas Pophale) SiO2 
 PCOD9073043
Probable space group: P -1
;
_chemical_formula_sum "Si O2"
_cell_formula_units_Z 14
_cell_length_a 9.000000
_cell_length_b 15.000000
_cell_length_c 12.000000
_cell_angle_alpha 150.000000
_cell_angle_beta 60.000000
_cell_angle_gamma 120.000000
_cell_volume 693.035739
_symmetry_space_group_name_H-M "P -1"
_symmetry_group_IT_number 2
_symmetry_cell_setting 'triclinic'
loop_
_space_group_symop_operation_xyz
x,y,z
-x,-y,-z
loop_
_atom_site_type_symbol
_atom_site_label
_atom_site_fract_x
_atom_site_fract_y
_atom_site_fract_z
Si Si1 0.301191 0.289232 0.904280
Si Si2 0.573871 0.713476 0.713979
Si Si3 0.282327 0.661828 0.224496
Si Si4 0.179206 0.960255 0.440386
Si Si5 0.570805 0.956473 0.774267
Si Si6 0.856814 0.767698 0.861783
Si Si7 0.805473 0.174858 0.326925
O O1 0.509802 0.295173 0.830593
O O2 0.225316 0.096786 0.673676
O O3 0.249526 0.445504 0.012874
O O4 0.228167 0.321517 0.089792
O O5 0.500000 0.500000 0.500000
O O6 0.635555 0.816960 0.686930
O O7 0.725905 0.727568 0.763684
O O8 0.442089 0.847600 0.953610
O O9 0.188170 0.762264 0.273240
O O10 0.230935 0.734757 0.443964
O O11 0.319199 0.008703 0.341775
O O12 0.000000 0.000000 0.500000
O O13 0.376162 0.867071 0.715945
O O14 0.042912 0.727076 0.704954
O O15 0.866601 0.981125 0.115918
#
# Coordination Sequence:
#
# PCOD9073043 Si02
#       7
#     2   2   2   2   2   2   2
#     4  11  24  43  70 100 129 171 226 264 328 393
#     4  10  23  41  65  94 132 169 210 263 334 390
#     4  11  23  42  69  97 128 178 218 267 325 390
#     4  12  26  43  68  96 134 173 217 274 328 390
#     4  10  23  43  63  92 129 173 213 268 328 384
#     4  10  22  39  68  99 126 170 217 272 322 389
#     4  10  20  40  68  90 131 167 222 268 322 382
#
# _framework density 20.200977999999999
#
# number of rings (size 3 to 8) (size 9 to 14) (size 15 to 20)
#    0.000    1.429    2.857    2.143    4.000    4.571 
#    2.571    0.000    0.000    0.000    0.000    0.000 
#    0.000    0.000    0.000    0.000    0.000    0.000 
#
# Total GULP energy -78187.055276 kJ/mol
# GULP energy per Si atom -5584.789663 kJ/mol
# Density = 2.015500 g / cm^3
# Si number density = 20.200978 Si / 1000 Ang^3
#
#
#
# Elastic Constant Matrix: (Units=GPa)
#
#
# Indices 1 2 3 4 5 6 
#
# 1 55.5891 45.3935 14.3541 -9.6970 -26.4184 -9.1932
# 2 45.3935 131.7274 39.9743 -24.6662 -17.4889 -14.1581
# 3 14.3541 39.9743 74.9922 -5.9485 -8.3063 1.4138
# 4 -9.6970 -24.6662 -5.9485 49.7648 -6.8697 -10.1672
# 5 -26.4184 -17.4889 -8.3063 -6.8697 23.6304 -0.4826
# 6 -9.1932 -14.1581 1.4138 -10.1672 -0.4826 37.2569
#
#
#
# Elastic Compliance Matrix: (Units=1/GPa)
#
#
# Indices 1 2 3 4 5 6 
#
# 1 0.071496 -0.005833 0.000504 0.027653 0.084322 0.024045
# 2 -0.005833 0.013563 -0.005284 0.006647 0.003710 0.005777
# 3 0.000504 -0.005284 0.016268 -0.000843 0.002071 -0.002704
# 4 0.027653 0.006647 -0.000843 0.039468 0.047437 0.020766
# 5 0.084322 0.003710 0.002071 0.047437 0.154611 0.037086
# 6 0.024045 0.005777 -0.002704 0.020766 0.037086 0.041219
#
#
# Mechanical properties :
#
#
# Convention : Reuss Voigt Hill
#
# Bulk Modulus (GPa) = 12.48413 51.30583 31.89498
# Shear Modulus (GPa) = 13.00213 32.96953 22.98583
#
# Velocity S-wave (km/s) = 2.53976 4.04428 3.37687
# Velocity P-wave (km/s) = 3.84628 6.87467 5.57023
#
# Compressibility (1/GPa) = 0.08010173
#
# Stress axis : x y z
#
# Youngs Moduli (GPa) = 13.98678 73.72908 61.46887
#
# Poissons Ratio (x) = 0.43007 -0.03100
# Poissons Ratio (y) = 0.08159 0.32481
# Poissons Ratio (z) = -0.00705 0.38959
#
# Static dielectric constant tensor:
#      x y z
#    x 1.701330 0.004030 -0.003170 
#    y 0.004030 1.752740 0.009850 
#    z -0.003170 0.009850 1.705610 
# 
# From -- ./inp_files/397927.got.cif
#   From: 2010.05.17/outbox.ucp.g08.bks.cvg/sg2_199_cif.got.tgz:397927.got - 2010.06.11 11:32:03.
