data_PCOD9073795
_publ_section_title
;
Structure prediction by ZEFSAII (Michael W. Deem and Ramdas Pophale) SiO2 
 PCOD9073795
Probable space group: P -1
;
_chemical_formula_sum "Si O2"
_cell_formula_units_Z 14
_cell_length_a 9.000000
_cell_length_b 24.000000
_cell_length_c 9.000000
_cell_angle_alpha 40.000000
_cell_angle_beta 70.000000
_cell_angle_gamma 40.000000
_cell_volume 647.049418
_symmetry_space_group_name_H-M "P -1"
_symmetry_group_IT_number 2
_symmetry_cell_setting 'triclinic'
loop_
_space_group_symop_operation_xyz
x,y,z
-x,-y,-z
loop_
_atom_site_type_symbol
_atom_site_label
_atom_site_fract_x
_atom_site_fract_y
_atom_site_fract_z
Si Si1 0.329363 0.594864 0.125977
Si Si2 0.231554 0.165991 0.341622
Si Si3 0.057297 0.427186 0.905260
Si Si4 0.992349 0.242174 0.590409
Si Si5 0.452979 0.328697 0.212976
Si Si6 0.099321 0.317404 0.676285
Si Si7 0.745528 0.062909 0.878035
O O1 0.637005 0.407019 0.366774
O O2 0.129615 0.633887 0.238542
O O3 0.430172 0.650119 0.981672
O O4 0.082527 0.721782 0.829089
O O5 0.190317 0.173583 0.517564
O O6 0.500000 0.000000 0.500000
O O7 0.215564 0.275254 0.083431
O O8 0.752823 0.537950 0.857848
O O9 0.012872 0.532735 0.606066
O O10 0.252244 0.363125 0.107791
O O11 0.062978 0.282601 0.605194
O O12 0.107764 0.094746 0.899398
O O13 0.653418 0.169441 0.557735
O O14 0.453988 0.170806 0.854639
O O15 0.000000 0.000000 0.000000
#
# Coordination Sequence:
#
# PCOD9073795 Si02
#       7
#     2   2   2   2   2   2   2
#     4  12  25  44  74 109 143 185 240 296 363 427
#     4  12  26  44  70 106 147 190 239 295 358 427
#     4  10  21  44  72 100 137 189 241 290 352 423
#     4  12  24  47  74 102 147 190 239 292 364 425
#     4  10  21  44  73 101 136 189 242 289 351 425
#     4  11  25  47  75 106 142 188 243 299 356 424
#     4  11  25  43  70 106 145 188 237 295 358 421
#
# _framework density 21.636678
#
# number of rings (size 3 to 8) (size 9 to 14) (size 15 to 20)
#    0.000    0.857    2.857    4.714    4.000    1.714 
#    5.143    1.429    0.000    0.000    0.000    0.000 
#    0.000    0.000    0.000    0.000    0.000    0.000 
#
# Total GULP energy -77936.245079 kJ/mol
# GULP energy per Si atom -5566.874648 kJ/mol
# Density = 2.158743 g / cm^3
# Si number density = 21.636678 Si / 1000 Ang^3
#
#
#
# Elastic Constant Matrix: (Units=GPa)
#
#
# Indices 1 2 3 4 5 6 
#
# 1 113.6064 42.5742 46.4402 -18.7753 -3.3828 -14.2235
# 2 42.5742 141.6667 39.3101 -7.5863 -14.7915 -19.2696
# 3 46.4402 39.3101 129.9096 -28.2066 -18.4510 -2.1963
# 4 -18.7753 -7.5863 -28.2066 51.0585 0.0536 -8.2658
# 5 -3.3828 -14.7915 -18.4510 0.0536 40.1898 -8.6997
# 6 -14.2235 -19.2696 -2.1963 -8.2658 -8.6997 41.2673
#
#
#
# Elastic Compliance Matrix: (Units=1/GPa)
#
#
# Indices 1 2 3 4 5 6 
#
# 1 0.011679 -0.002133 -0.002895 0.002926 -0.000404 0.003376
# 2 -0.002133 0.009026 -0.001289 0.000529 0.003469 0.004248
# 3 -0.002895 -0.001289 0.010823 0.004862 0.004436 0.000885
# 4 0.002926 0.000529 0.004862 0.024608 0.004228 0.007334
# 5 -0.000404 0.003469 0.004436 0.004228 0.030083 0.008906
# 6 0.003376 0.004248 0.000885 0.007334 0.008906 0.030773
#
#
# Mechanical properties :
#
#
# Convention : Reuss Voigt Hill
#
# Bulk Modulus (GPa) = 52.92629 71.31464 62.12047
# Shear Modulus (GPa) = 36.78489 43.62701 40.20595
#
# Velocity S-wave (km/s) = 4.12772 4.49524 4.31540
# Velocity P-wave (km/s) = 6.87255 7.74433 7.32142
#
# Compressibility (1/GPa) = 0.01889420
#
# Stress axis : x y z
#
# Youngs Moduli (GPa) = 85.62296 110.79147 92.39374
#
# Poissons Ratio (x) = 0.23630 0.26746
# Poissons Ratio (y) = 0.18262 0.11914
# Poissons Ratio (z) = 0.24786 0.14286
#
# Static dielectric constant tensor:
#      x y z
#    x 1.850680 0.039280 0.029800 
#    y 0.039280 1.825460 0.049750 
#    z 0.029800 0.049750 1.876320 
# 
# From -- ./inp_files/225942.got.cif
#   From: 2010.05.17/outbox.ucp.g08.bks.cvg/sg2_113_cif.got.tgz:225942.got - 2010.06.11 11:32:03.
