data_PCOD9073230
_publ_section_title
;
Structure prediction by ZEFSAII (Michael W. Deem and Ramdas Pophale) SiO2 
 PCOD9073230
Probable space group: P -1
;
_chemical_formula_sum "Si O2"
_cell_formula_units_Z 16
_cell_length_a 9.482369
_cell_length_b 33.267433
_cell_length_c 16.329789
_cell_angle_alpha 167.150974
_cell_angle_beta 137.032084
_cell_angle_gamma 36.173552
_cell_volume 613.248760
_symmetry_space_group_name_H-M "P -1"
_symmetry_group_IT_number 2
_symmetry_cell_setting 'triclinic'
loop_
_space_group_symop_operation_xyz
x,y,z
-x,-y,-z
loop_
_atom_site_type_symbol
_atom_site_label
_atom_site_fract_x
_atom_site_fract_y
_atom_site_fract_z
Si Si1 0.395413 0.554921 0.472430
Si Si2 0.513353 0.961399 0.313701
Si Si3 0.337494 0.173847 0.496323
Si Si4 0.234015 0.656735 0.443674
Si Si5 0.126190 0.373349 0.069675
Si Si6 0.633620 0.159572 0.450069
Si Si7 0.881250 0.099930 0.737327
Si Si8 0.519111 0.640625 0.383030
O O1 0.500000 0.500000 0.500000
O O2 0.248168 0.740779 0.706748
O O3 0.175454 0.516164 0.315931
O O4 0.674522 0.371303 0.180571
O O5 0.504415 0.976773 0.243417
O O6 0.232988 0.151801 0.616592
O O7 0.695069 0.037224 0.561570
O O8 0.673429 0.727322 0.967479
O O9 0.450663 0.125589 0.357269
O O10 0.056125 0.231743 0.489838
O O11 0.338233 0.386487 0.949975
O O12 0.390285 0.703816 0.542699
O O13 0.829199 0.520303 0.266723
O O14 0.633100 0.156750 0.346472
O O15 0.514534 0.425900 0.938544
O O16 0.905581 0.995627 0.290028
O O17 0.000000 0.000000 0.500000
#
# Coordination Sequence:
#
# PCOD9073230 Si02
#       8
#     2   2   2   2   2   2   2   2
#     4  11  24  41  59  82 120 163 193 229 293 363
#     4  10  19  29  53  85 116 145 186 249 295 330
#     4  10  18  31  53  85 118 143 191 241 297 333
#     4  10  20  33  54  79 114 156 192 234 286 347
#     4  10  20  34  53  80 116 151 193 237 289 345
#     4  10  19  28  50  86 118 149 178 242 301 338
#     4  11  18  35  59  89 117 148 198 245 285 337
#     4  10  20  30  52  84 119 146 190 242 292 339
#
# _framework density 26.090554999999998
#
# number of rings (size 3 to 8) (size 9 to 14) (size 15 to 20)
#    0.000    1.750    5.000    1.500    5.250    0.000 
#    0.000    0.625    0.000    6.000    0.000    0.000 
#    0.000    0.000    0.000    0.000    0.000    0.000 
#
# Total GULP energy -89250.180087 kJ/mol
# GULP energy per Si atom -5578.136255 kJ/mol
# Density = 2.603117 g / cm^3
# Si number density = 26.090555 Si / 1000 Ang^3
#
#
#
# Elastic Constant Matrix: (Units=GPa)
#
#
# Indices 1 2 3 4 5 6 
#
# 1 219.7094 81.8036 24.8060 18.9230 -5.3075 23.1084
# 2 81.8036 154.2990 24.0585 14.9357 -12.3418 28.4403
# 3 24.8060 24.0585 51.1634 -6.9847 1.5510 -0.0570
# 4 18.9230 14.9357 -6.9847 31.2970 7.2546 0.2875
# 5 -5.3075 -12.3418 1.5510 7.2546 31.8770 11.6431
# 6 23.1084 28.4403 -0.0570 0.2875 11.6431 42.8349
#
#
#
# Elastic Compliance Matrix: (Units=1/GPa)
#
#
# Indices 1 2 3 4 5 6 
#
# 1 0.006237 -0.001734 -0.002851 -0.004131 0.002493 -0.002867
# 2 -0.001734 0.011630 -0.006030 -0.008024 0.009765 -0.009395
# 3 -0.002851 -0.006030 0.025790 0.012581 -0.009918 0.008187
# 4 -0.004131 -0.008024 0.012581 0.045451 -0.019324 0.012520
# 5 0.002493 0.009765 -0.009918 -0.019324 0.048032 -0.020768
# 6 -0.002867 -0.009395 0.008187 0.012520 -0.020768 0.036701
#
#
# Mechanical properties :
#
#
# Convention : Reuss Voigt Hill
#
# Bulk Modulus (GPa) = 44.59001 76.27867 60.43434
# Shear Modulus (GPa) = 24.68569 40.83535 32.76052
#
# Velocity S-wave (km/s) = 3.07930 3.96048 3.54735
# Velocity P-wave (km/s) = 5.45622 7.08614 6.32391
#
# Compressibility (1/GPa) = 0.02242655
#
# Stress axis : x y z
#
# Youngs Moduli (GPa) = 160.34475 85.98494 38.77446
#
# Poissons Ratio (x) = 0.14912 0.11054
# Poissons Ratio (y) = 0.27808 0.23381
# Poissons Ratio (z) = 0.45713 0.51848
#
# Static dielectric constant tensor:
#      x y z
#    x 1.986790 0.012530 -0.011850 
#    y 0.012530 2.123780 -0.157050 
#    z -0.011850 -0.157050 2.400970 
# 
# From -- ./inp_files/509211.got.cif
#   From: 2010.05.17/outbox.cif.g08.bks.cpg/sg2_255_cif.got.tgz:509211.got - 2010.06.03 11:33:40.
