data_PCOD9073948
_publ_section_title
;
Structure prediction by ZEFSAII (Michael W. Deem and Ramdas Pophale) SiO2 
 PCOD9073948
Probable space group: P -1
;
_chemical_formula_sum "Si O2"
_cell_formula_units_Z 16
_cell_length_a 14.887591
_cell_length_b 9.915139
_cell_length_c 9.008602
_cell_angle_alpha 107.658267
_cell_angle_beta 56.874011
_cell_angle_gamma 68.569236
_cell_volume 791.981681
_symmetry_space_group_name_H-M "P -1"
_symmetry_group_IT_number 2
_symmetry_cell_setting 'triclinic'
loop_
_space_group_symop_operation_xyz
x,y,z
-x,-y,-z
loop_
_atom_site_type_symbol
_atom_site_label
_atom_site_fract_x
_atom_site_fract_y
_atom_site_fract_z
Si Si1 0.838605 0.089939 0.216519
Si Si2 0.536882 0.136788 0.997764
Si Si3 0.859438 0.557670 0.262525
Si Si4 0.738969 0.448854 0.571151
Si Si5 0.744025 0.952080 0.014121
Si Si6 0.812573 0.931927 0.483998
Si Si7 0.840398 0.624166 0.982423
Si Si8 0.984160 0.275733 0.517417
O O1 0.737751 0.310508 0.425381
O O2 0.835159 0.995270 0.333931
O O3 0.781119 0.050481 0.117525
O O4 0.000000 0.000000 0.000000
O O5 0.613474 0.099670 0.073363
O O6 0.655046 0.071339 0.745069
O O7 0.404045 0.358908 0.166872
O O8 0.500000 0.000000 0.000000
O O9 0.785781 0.532167 0.445775
O O10 0.835782 0.744220 0.374678
O O11 0.029153 0.389918 0.082519
O O12 0.809688 0.566851 0.143185
O O13 0.862746 0.313275 0.537027
O O14 0.720405 0.832942 0.095814
O O15 0.884706 0.793427 0.732131
O O16 0.930413 0.880026 0.481271
O O17 0.901834 0.472782 0.745636
#
# Coordination Sequence:
#
# PCOD9073948 Si02
#       8
#     2   2   2   2   2   2   2   2
#     4  12  25  44  69  97 137 174 220 270 332 395
#     4  11  24  44  69  97 135 173 224 273 327 390
#     4  10  19  35  62  95 127 163 217 276 322 375
#     4  12  24  41  65  97 132 177 220 265 329 395
#     4  11  21  41  63  96 132 176 214 273 334 388
#     4  10  23  42  67  95 134 172 215 277 332 388
#     4  10  18  31  61  92 126 158 215 274 331 363
#     4  10  21  35  63  98 127 167 218 277 323 379
#
# _framework density 20.202487999999999
#
# number of rings (size 3 to 8) (size 9 to 14) (size 15 to 20)
#    0.000    1.250    5.000    1.125    5.250    1.500 
#    0.000    3.750    0.000    0.000    0.000    0.000 
#    0.000    0.000    0.000    0.000    0.000    0.000 
#
# Total GULP energy -89259.986368 kJ/mol
# GULP energy per Si atom -5578.749148 kJ/mol
# Density = 2.015651 g / cm^3
# Si number density = 20.202488 Si / 1000 Ang^3
#
#
#
# Elastic Constant Matrix: (Units=GPa)
#
#
# Indices 1 2 3 4 5 6 
#
# 1 90.1434 22.2557 34.7775 -10.2794 17.7414 -5.5347
# 2 22.2557 73.1261 38.7731 -8.0427 -1.5719 -0.2643
# 3 34.7775 38.7731 90.9489 0.3565 7.4739 0.8336
# 4 -10.2794 -8.0427 0.3565 34.9876 -4.0568 7.4500
# 5 17.7414 -1.5719 7.4739 -4.0568 28.9052 2.2690
# 6 -5.5347 -0.2643 0.8336 7.4500 2.2690 26.1210
#
#
#
# Elastic Compliance Matrix: (Units=1/GPa)
#
#
# Indices 1 2 3 4 5 6 
#
# 1 0.015460 -0.002367 -0.004248 0.002323 -0.008465 0.003460
# 2 -0.002367 0.019098 -0.007673 0.004789 0.005296 -0.001889
# 3 -0.004248 -0.007673 0.016106 -0.003390 -0.002426 -0.000314
# 4 0.002323 0.004789 -0.003390 0.032942 0.005056 -0.009186
# 5 -0.008465 0.005296 -0.002426 0.005056 0.041946 -0.006748
# 6 0.003460 -0.001889 -0.000314 -0.009186 -0.006748 0.042213
#
#
# Mechanical properties :
#
#
# Convention : Reuss Voigt Hill
#
# Bulk Modulus (GPa) = 45.27347 49.53678 47.40512
# Shear Modulus (GPa) = 24.54549 28.56355 26.55452
#
# Velocity S-wave (km/s) = 3.48943 3.76422 3.62942
# Velocity P-wave (km/s) = 6.22039 6.59286 6.40933
#
# Compressibility (1/GPa) = 0.02208799
#
# Stress axis : x y z
#
# Youngs Moduli (GPa) = 64.68302 52.36255 62.08777
#
# Poissons Ratio (x) = 0.12393 0.26374
# Poissons Ratio (y) = 0.15310 0.47641
# Poissons Ratio (z) = 0.27476 0.40179
#
# Static dielectric constant tensor:
#      x y z
#    x 1.736100 -0.015530 0.017050 
#    y -0.015530 1.748120 0.013850 
#    z 0.017050 0.013850 1.771330 
# 
# From -- ./inp_files/298699.got.cif
#   From: 2010.05.17/outbox.cif.g08.bks.cpg/sg2_150_cif.got.tgz:298699.got - 2010.06.03 11:33:40.
