data_PCOD9073102
_publ_section_title
;
Structure prediction by ZEFSAII (Michael W. Deem and Ramdas Pophale) SiO2 
 PCOD9073102
Probable space group: P -1
;
_chemical_formula_sum "Si O2"
_cell_formula_units_Z 16
_cell_length_a 9.000000
_cell_length_b 12.000000
_cell_length_c 18.000000
_cell_angle_alpha 30.000000
_cell_angle_beta 50.000000
_cell_angle_gamma 60.000000
_cell_volume 736.400153
_symmetry_space_group_name_H-M "P -1"
_symmetry_group_IT_number 2
_symmetry_cell_setting 'triclinic'
loop_
_space_group_symop_operation_xyz
x,y,z
-x,-y,-z
loop_
_atom_site_type_symbol
_atom_site_label
_atom_site_fract_x
_atom_site_fract_y
_atom_site_fract_z
Si Si1 0.871652 0.947646 0.968974
Si Si2 0.644967 0.060715 0.669429
Si Si3 0.655337 0.686456 0.758869
Si Si4 0.641163 0.238727 0.307676
Si Si5 0.867448 0.692352 0.425356
Si Si6 0.744549 0.187011 0.000085
Si Si7 0.584331 0.469754 0.348045
Si Si8 0.937578 0.943261 0.402449
O O1 0.050374 0.855777 0.006562
O O2 0.699375 0.727183 0.155986
O O3 0.999275 0.087217 0.781479
O O4 0.778016 0.146091 0.925950
O O5 0.667573 0.294846 0.479903
O O6 0.831393 0.058452 0.664366
O O7 0.639756 0.839288 0.747212
O O8 0.432658 0.006728 0.807191
O O9 0.449444 0.666596 0.791243
O O10 0.833576 0.840196 0.570002
O O11 0.704407 0.434153 0.893294
O O12 0.614333 0.379664 0.307747
O O13 0.500000 0.000000 0.500000
O O14 0.861905 0.179196 0.271590
O O15 0.651348 0.583540 0.527735
O O16 0.837683 0.775008 0.469774
O O17 0.000000 0.500000 0.500000
#
# Coordination Sequence:
#
# PCOD9073102 Si02
#       8
#     2   2   2   2   2   2   2   2
#     4  11  28  47  72 102 143 184 237 289 344 415
#     4  12  24  42  74 101 139 189 233 283 358 411
#     4  11  21  43  72  96 145 183 230 292 347 409
#     4  10  20  41  70  98 140 183 225 290 353 405
#     4  12  26  48  73 103 144 185 231 291 346 415
#     4  11  26  47  64 106 142 180 242 292 337 417
#     4  12  24  47  76 101 141 189 230 288 352 417
#     4  11  23  41  69 105 136 177 239 282 350 418
#
# _framework density 21.727318
#
# number of rings (size 3 to 8) (size 9 to 14) (size 15 to 20)
#    0.000    0.750    6.250    2.250    3.500    3.000 
#    0.000    1.250    0.000    0.000    0.000    0.000 
#    0.000    0.000    0.000    0.000    0.000    0.000 
#
# Total GULP energy -89193.432211 kJ/mol
# GULP energy per Si atom -5574.589513 kJ/mol
# Density = 2.167787 g / cm^3
# Si number density = 21.727318 Si / 1000 Ang^3
#
#
#
# Elastic Constant Matrix: (Units=GPa)
#
#
# Indices 1 2 3 4 5 6 
#
# 1 74.6959 13.7686 50.9038 -3.6011 -8.7587 -15.9621
# 2 13.7686 71.0851 19.7237 -6.8761 -1.6485 -14.0366
# 3 50.9038 19.7237 55.6661 -18.0693 -23.7945 -19.6412
# 4 -3.6011 -6.8761 -18.0693 28.3724 -16.9771 4.6554
# 5 -8.7587 -1.6485 -23.7945 -16.9771 28.3291 -1.8977
# 6 -15.9621 -14.0366 -19.6412 4.6554 -1.8977 20.7466
#
#
#
# Elastic Compliance Matrix: (Units=1/GPa)
#
#
# Indices 1 2 3 4 5 6 
#
# 1 0.015395 0.000650 0.007675 0.017992 0.023207 0.017636
# 2 0.000650 0.016587 -0.002245 0.001698 0.000921 0.009300
# 3 0.007675 -0.002245 -0.026066 -0.040586 -0.044999 -0.015301
# 4 0.017992 0.001698 -0.040586 -0.002692 -0.031765 -0.025734
# 5 0.023207 0.000921 -0.044999 -0.031765 -0.015538 -0.018417
# 6 0.017636 0.009300 -0.015301 -0.025734 -0.018417 0.057666
#
#
# Mechanical properties :
#
#
# Convention : Reuss Voigt Hill
#
# Bulk Modulus (GPa) = 55.32735 41.13769 48.23252
# Shear Modulus (GPa) = 127.49799 23.29302 75.39550
#
# Velocity S-wave (km/s) = 7.66866 3.27779 5.89713
# Velocity P-wave (km/s) = 10.19465 5.77061 8.28344
#
# Compressibility (1/GPa) = 0.01807424
#
# Stress axis : x y z
#
# Youngs Moduli (GPa) = 64.95599 60.28944 -38.36344
#
# Poissons Ratio (x) = -0.03916 0.29443
# Poissons Ratio (y) = -0.04219 -0.08611
# Poissons Ratio (z) = -0.49851 0.13533
#
# Static dielectric constant tensor:
#      x y z
#    x 1.848810 -0.284850 -0.009920 
#    y -0.284850 4.946970 0.378510 
#    z -0.009920 0.378510 1.849880 
# 
# From -- ./inp_files/205042.got.cif
#   From: 2010.05.17/outbox.ucp.g08.bks.cvg/sg2_103_cif.got.tgz:205042.got - 2010.06.11 11:32:03.
