data_PCOD9073424
_publ_section_title
;
Structure prediction by ZEFSAII (Michael W. Deem and Ramdas Pophale) SiO2 
 PCOD9073424
Probable space group: P -1
;
_chemical_formula_sum "Si O2"
_cell_formula_units_Z 14
_cell_length_a 18.000000
_cell_length_b 6.000000
_cell_length_c 9.000000
_cell_angle_alpha 80.000000
_cell_angle_beta 40.000000
_cell_angle_gamma 80.000000
_cell_volume 614.029152
_symmetry_space_group_name_H-M "P -1"
_symmetry_group_IT_number 2
_symmetry_cell_setting 'triclinic'
loop_
_space_group_symop_operation_xyz
x,y,z
-x,-y,-z
loop_
_atom_site_type_symbol
_atom_site_label
_atom_site_fract_x
_atom_site_fract_y
_atom_site_fract_z
Si Si1 0.187830 0.777325 0.983907
Si Si2 0.490284 0.271844 0.132772
Si Si3 0.097402 0.157858 0.893846
Si Si4 0.673647 0.866522 0.822505
Si Si5 0.968350 0.496095 0.282408
Si Si6 0.126664 0.907725 0.369257
Si Si7 0.591842 0.488681 0.228966
O O1 0.291602 0.591461 0.852491
O O2 0.191891 0.968850 0.829441
O O3 0.065132 0.655434 0.181623
O O4 0.199654 0.901548 0.108339
O O5 0.364470 0.202355 0.277660
O O6 0.527263 0.321247 0.236741
O O7 0.500000 0.500000 0.000000
O O8 0.590303 0.090720 0.947877
O O9 0.109253 0.351010 0.730911
O O10 0.042645 0.299598 0.100604
O O11 0.000000 0.000000 0.000000
O O12 0.805117 0.937907 0.639384
O O13 0.632449 0.687790 0.031401
O O14 0.887947 0.350695 0.525765
O O15 0.000000 0.000000 0.500000
O O16 0.500000 0.500000 0.500000
#
# Coordination Sequence:
#
# PCOD9073424 Si02
#       7
#     2   2   2   2   2   2   2
#     4  11  22  41  67  97 137 173 220 284 329 399
#     4   9  20  45  69  93 131 173 222 285 337 391
#     4   9  20  41  61  89 138 177 216 265 321 407
#     4  10  22  43  70  97 138 172 225 288 331 407
#     4  10  21  39  64  97 140 177 214 264 334 416
#     4  12  22  39  70 103 132 178 223 271 339 401
#     4  11  24  43  71  99 129 176 230 287 345 387
#
# _framework density 22.800219999999999
#
# number of rings (size 3 to 8) (size 9 to 14) (size 15 to 20)
#    0.000    1.714    2.857    1.286    0.000    0.571 
#    0.000   15.714    0.000    0.000    0.000    0.000 
#    0.000    0.000    0.000    0.000    0.000    0.000 
#
# Total GULP energy -78035.583586 kJ/mol
# GULP energy per Si atom -5573.970256 kJ/mol
# Density = 2.274833 g / cm^3
# Si number density = 22.800220 Si / 1000 Ang^3
#
#
#
# Elastic Constant Matrix: (Units=GPa)
#
#
# Indices 1 2 3 4 5 6 
#
# 1 146.2462 49.6583 38.7074 -16.0305 -13.6693 -2.5968
# 2 49.6583 103.6558 18.5299 -20.7064 3.5457 -22.9809
# 3 38.7074 18.5299 58.0344 -8.5324 -10.8841 -12.2745
# 4 -16.0305 -20.7064 -8.5324 32.1051 -2.1697 11.4543
# 5 -13.6693 3.5457 -10.8841 -2.1697 35.3352 -2.6665
# 6 -2.5968 -22.9809 -12.2745 11.4543 -2.6665 65.2257
#
#
#
# Elastic Compliance Matrix: (Units=1/GPa)
#
#
# Indices 1 2 3 4 5 6 
#
# 1 0.009980 -0.004067 -0.005033 0.001997 0.002673 -0.002224
# 2 -0.004067 0.013598 -0.000607 0.005156 -0.002544 0.003506
# 3 -0.005033 -0.000607 0.022954 0.002240 0.005604 0.003741
# 4 0.001997 0.005156 0.002240 0.037760 0.002947 -0.004193
# 5 0.002673 -0.002544 0.005604 0.002947 0.031575 0.001038
# 6 -0.002224 0.003506 0.003741 -0.004193 0.001038 0.017961
#
#
# Mechanical properties :
#
#
# Convention : Reuss Voigt Hill
#
# Bulk Modulus (GPa) = 36.87664 57.96972 47.42318
# Shear Modulus (GPa) = 30.81054 39.93593 35.37324
#
# Velocity S-wave (km/s) = 3.68003 4.18970 3.94311
# Velocity P-wave (km/s) = 5.85369 6.99179 6.44790
#
# Compressibility (1/GPa) = 0.02711744
#
# Stress axis : x y z
#
# Youngs Moduli (GPa) = 100.19809 73.53838 43.56622
#
# Poissons Ratio (x) = 0.29909 0.21929
# Poissons Ratio (y) = 0.40752 0.02643
# Poissons Ratio (z) = 0.50434 0.04462
#
# Static dielectric constant tensor:
#      x y z
#    x 1.913110 -0.030790 -0.005000 
#    y -0.030790 1.970350 0.106700 
#    z -0.005000 0.106700 1.937930 
# 
# From -- ./inp_files/69681.got.cif
#   From: 2010.05.17/outbox.ucp.g08.bks.cvg/sg2_35_cif.got.tgz:69681.got - 2010.06.11 11:32:03.
