data_PCOD9073601
_publ_section_title
;
Structure prediction by ZEFSAII (Michael W. Deem and Ramdas Pophale) SiO2 
 PCOD9073601
Probable space group: P -1
;
_chemical_formula_sum "Si O2"
_cell_formula_units_Z 12
_cell_length_a 10.816463
_cell_length_b 14.005276
_cell_length_c 7.041923
_cell_angle_alpha 45.617720
_cell_angle_beta 143.068602
_cell_angle_gamma 138.035408
_cell_volume 413.683958
_symmetry_space_group_name_H-M "P -1"
_symmetry_group_IT_number 2
_symmetry_cell_setting 'triclinic'
loop_
_space_group_symop_operation_xyz
x,y,z
-x,-y,-z
loop_
_atom_site_type_symbol
_atom_site_label
_atom_site_fract_x
_atom_site_fract_y
_atom_site_fract_z
Si Si1 0.575638 0.808252 0.329448
Si Si2 0.368687 0.661094 0.663820
Si Si3 0.849279 0.324856 0.267632
Si Si4 0.282458 0.433201 0.182428
Si Si5 0.063176 0.900833 0.475272
Si Si6 0.706009 0.954571 0.818405
O O1 0.396449 0.706845 0.414947
O O2 0.756586 0.735557 0.644753
O O3 0.709081 0.979739 0.313118
O O4 0.408931 0.773107 0.993159
O O5 0.176244 0.689523 0.511330
O O6 0.607933 0.788152 0.851860
O O7 0.345076 0.508457 0.942421
O O8 0.993760 0.271636 0.377726
O O9 0.885428 0.494123 0.061839
O O10 0.500000 0.500000 0.500000
O O11 0.130405 0.934706 0.289201
O O12 0.861517 0.950295 0.189171
O O13 0.500000 0.000000 0.500000
#
# Coordination Sequence:
#
# PCOD9073601 Si02
#       6
#     2   2   2   2   2   2
#     4  10  18  31  55  87 116 146 193 233 274 345
#     4   9  18  31  58  76 110 153 191 225 287 327
#     4   9  18  33  54  82 115 149 185 231 282 330
#     4   8  16  31  55  79 111 157 185 228 284 329
#     4  10  20  32  57  86 113 150 186 239 288 329
#     4  10  18  35  58  83 113 150 190 232 289 345
#
# _framework density 29.007653000000001
#
# number of rings (size 3 to 8) (size 9 to 14) (size 15 to 20)
#    1.000    1.667    1.667    1.000    0.000    0.000 
#    0.000    0.833    0.000   24.000    0.000    0.000 
#    0.000    0.000    0.000    0.000    0.000    0.000 
#
# Total GULP energy -66861.489041 kJ/mol
# GULP energy per Si atom -5571.790753 kJ/mol
# Density = 2.894163 g / cm^3
# Si number density = 29.007653 Si / 1000 Ang^3
#
#
#
# Elastic Constant Matrix: (Units=GPa)
#
#
# Indices 1 2 3 4 5 6 
#
# 1 148.5807 6.3744 50.4945 -19.1259 0.4579 -26.3282
# 2 6.3744 111.2045 20.3810 -10.8929 1.3785 -11.8001
# 3 50.4945 20.3810 97.3273 -2.8711 13.5648 -5.2153
# 4 -19.1259 -10.8929 -2.8711 48.3593 10.1035 5.7659
# 5 0.4579 1.3785 13.5648 10.1035 49.6503 -10.6275
# 6 -26.3282 -11.8001 -5.2153 5.7659 -10.6275 38.9706
#
#
#
# Elastic Compliance Matrix: (Units=1/GPa)
#
#
# Indices 1 2 3 4 5 6 
#
# 1 0.010009 0.001349 -0.005347 0.002689 0.002209 0.006659
# 2 0.001349 0.009960 -0.002645 0.002046 0.000762 0.003478
# 3 -0.005347 -0.002645 0.014001 -0.000529 -0.004377 -0.003655
# 4 0.002689 0.002046 -0.000529 0.023582 -0.005285 -0.002564
# 5 0.002209 0.000762 -0.004377 -0.005285 0.024194 0.008517
# 6 0.006659 0.003478 -0.003655 -0.002564 0.008517 0.033426
#
#
# Mechanical properties :
#
#
# Convention : Reuss Voigt Hill
#
# Bulk Modulus (GPa) = 48.34633 56.84579 52.59606
# Shear Modulus (GPa) = 36.94080 46.05355 41.49718
#
# Velocity S-wave (km/s) = 3.57246 3.98884 3.78638
# Velocity P-wave (km/s) = 5.80686 6.39170 6.10628
#
# Compressibility (1/GPa) = 0.02068409
#
# Stress axis : x y z
#
# Youngs Moduli (GPa) = 99.90946 100.40233 71.42255
#
# Poissons Ratio (x) = -0.13544 0.38190
# Poissons Ratio (y) = -0.13477 0.18891
# Poissons Ratio (z) = 0.53422 0.26556
#
# Static dielectric constant tensor:
#      x y z
#    x 2.453210 0.102390 0.015140 
#    y 0.102390 2.363010 -0.311810 
#    z 0.015140 -0.311810 2.552810 
# 
# From -- ./inp_files/264429.got.cif
#   From: 2010.05.17/outbox.cif.g08.bks.cpg/sg2_133_cif.got.tgz:264429.got - 2010.06.03 11:33:40.
