data_PCOD9073176
_publ_section_title
;
Structure prediction by ZEFSAII (Michael W. Deem and Ramdas Pophale) SiO2 
 PCOD9073176
Probable space group: P -1
;
_chemical_formula_sum "Si O2"
_cell_formula_units_Z 16
_cell_length_a 17.936353
_cell_length_b 15.090819
_cell_length_c 8.642179
_cell_angle_alpha 147.186759
_cell_angle_beta 126.470515
_cell_angle_gamma 31.849845
_cell_volume 607.722139
_symmetry_space_group_name_H-M "P -1"
_symmetry_group_IT_number 2
_symmetry_cell_setting 'triclinic'
loop_
_space_group_symop_operation_xyz
x,y,z
-x,-y,-z
loop_
_atom_site_type_symbol
_atom_site_label
_atom_site_fract_x
_atom_site_fract_y
_atom_site_fract_z
Si Si1 0.095122 0.506855 0.221815
Si Si2 0.883031 0.461619 0.217531
Si Si3 0.130369 0.726429 0.356088
Si Si4 0.234841 0.022232 0.048021
Si Si5 0.597308 0.988399 0.280672
Si Si6 0.552369 0.688636 0.918891
Si Si7 0.675170 0.486573 0.125054
Si Si8 0.790365 0.000204 0.693322
O O1 0.082636 0.703458 0.417007
O O2 0.280189 0.207945 0.000853
O O3 0.975121 0.697042 0.494040
O O4 0.000000 0.500000 0.000000
O O5 0.804247 0.737404 0.585034
O O6 0.818946 0.406957 0.165985
O O7 0.068083 0.210307 0.052479
O O8 0.826376 0.487182 0.016053
O O9 0.285952 0.611438 0.387744
O O10 0.000000 0.000000 0.500000
O O11 0.397806 0.815284 0.861620
O O12 0.262886 0.876960 0.022354
O O13 0.549141 0.877850 0.124516
O O14 0.431138 0.315336 0.568133
O O15 0.699406 0.969610 0.480593
O O16 0.577141 0.645535 0.074763
O O17 0.742093 0.211028 0.825594
#
# Coordination Sequence:
#
# PCOD9073176 Si02
#       8
#     2   2   2   2   2   2   2   2
#     4   9  18  31  50  79 108 141 174 222 274 329
#     4  10  22  36  59  81 110 148 190 232 271 326
#     4  10  20  36  57  84 108 141 186 235 276 322
#     4  11  21  37  56  85 111 147 189 225 277 335
#     4  10  18  31  53  80 107 142 189 229 267 322
#     4  10  19  33  59  80 106 146 190 233 269 318
#     4  11  19  32  53  84 110 138 185 240 278 317
#     4  11  21  32  54  85 116 142 177 233 288 330
#
# _framework density 26.327819999999999
#
# number of rings (size 3 to 8) (size 9 to 14) (size 15 to 20)
#    0.000    1.750    2.500    5.250    0.000    0.500 
#    0.000    0.625    0.000    0.750    9.750    0.000 
#    0.000    0.000    0.000    0.000    0.000    0.000 
#
# Total GULP energy -89284.010470 kJ/mol
# GULP energy per Si atom -5580.250654 kJ/mol
# Density = 2.626790 g / cm^3
# Si number density = 26.327820 Si / 1000 Ang^3
#
#
#
# Elastic Constant Matrix: (Units=GPa)
#
#
# Indices 1 2 3 4 5 6 
#
# 1 125.6596 50.1403 31.3600 21.6781 1.3224 -37.6456
# 2 50.1403 107.3401 22.6016 12.2142 1.9013 -40.2329
# 3 31.3600 22.6016 88.2399 25.4682 -2.2514 -16.1289
# 4 21.6781 12.2142 25.4682 42.4265 -7.6054 -7.1782
# 5 1.3224 1.9013 -2.2514 -7.6054 41.5188 16.1580
# 6 -37.6456 -40.2329 -16.1289 -7.1782 16.1580 45.1199
#
#
#
# Elastic Compliance Matrix: (Units=1/GPa)
#
#
# Indices 1 2 3 4 5 6 
#
# 1 0.012630 -0.001233 -0.001105 -0.004649 -0.005216 0.010171
# 2 -0.001233 0.016160 -0.000344 -0.002492 -0.007182 0.015434
# 3 -0.001105 -0.000344 0.014680 -0.007913 -0.001948 0.003458
# 4 -0.004649 -0.002492 -0.007913 0.031744 0.008317 -0.006858
# 5 -0.005216 -0.007182 -0.001948 0.008317 0.034789 -0.022588
# 6 0.010171 0.015434 0.003458 -0.006858 -0.022588 0.052645
#
#
# Mechanical properties :
#
#
# Convention : Reuss Voigt Hill
#
# Bulk Modulus (GPa) = 26.24271 58.82706 42.53488
# Shear Modulus (GPa) = 27.66814 40.28889 33.97851
#
# Velocity S-wave (km/s) = 3.24529 3.91612 3.59638
# Velocity P-wave (km/s) = 4.90223 6.54527 5.78241
#
# Compressibility (1/GPa) = 0.03810582
#
# Stress axis : x y z
#
# Youngs Moduli (GPa) = 79.17735 61.88039 68.12178
#
# Poissons Ratio (x) = 0.07631 0.07526
# Poissons Ratio (y) = 0.09764 0.02343
# Poissons Ratio (z) = 0.08747 0.02128
#
# Static dielectric constant tensor:
#      x y z
#    x 2.126230 0.023150 -0.010520 
#    y 0.023150 2.089600 0.028100 
#    z -0.010520 0.028100 2.154110 
# 
# From -- ./inp_files/176412.got.cif
#   From: 2010.05.17/outbox.cif.g08.bks.cpg/sg2_89_cif.got.tgz:176412.got - 2010.06.03 11:33:40.
