data_PCOD9073167
_publ_section_title
;
Structure prediction by ZEFSAII (Michael W. Deem and Ramdas Pophale) SiO2 
 PCOD9073167
Probable space group: P -1
;
_chemical_formula_sum "Si O2"
_cell_formula_units_Z 16
_cell_length_a 20.594833
_cell_length_b 14.411095
_cell_length_c 8.836720
_cell_angle_alpha 41.950283
_cell_angle_beta 147.918617
_cell_angle_gamma 152.047730
_cell_volume 652.817416
_symmetry_space_group_name_H-M "P -1"
_symmetry_group_IT_number 2
_symmetry_cell_setting 'triclinic'
loop_
_space_group_symop_operation_xyz
x,y,z
-x,-y,-z
loop_
_atom_site_type_symbol
_atom_site_label
_atom_site_fract_x
_atom_site_fract_y
_atom_site_fract_z
Si Si1 0.152444 0.681813 0.787696
Si Si2 0.853517 0.602696 0.451127
Si Si3 0.490587 0.311714 0.677593
Si Si4 0.549274 0.171784 0.212594
Si Si5 0.349721 0.613272 0.405168
Si Si6 0.334853 0.043885 0.211652
Si Si7 0.046064 0.752518 0.207758
Si Si8 0.228758 0.288102 0.099813
O O1 0.169575 0.788718 0.540750
O O2 0.032811 0.673506 0.675776
O O3 0.051518 0.461107 0.795482
O O4 0.305734 0.736007 0.120837
O O5 0.709363 0.387509 0.343557
O O6 0.804589 0.564589 0.576329
O O7 0.832811 0.732380 0.166713
O O8 0.604688 0.421028 0.620047
O O9 0.290813 0.186894 0.396647
O O10 0.585329 0.484009 0.781079
O O11 0.521400 0.187287 0.964376
O O12 0.604347 0.060955 0.491197
O O13 0.374329 0.076563 0.072266
O O14 0.524595 0.742897 0.691465
O O15 0.149929 0.909801 0.087230
O O16 0.912344 0.748404 0.030846
#
# Coordination Sequence:
#
# PCOD9073167 Si02
#       8
#     2   2   2   2   2   2   2   2
#     4  10  18  31  53  79 107 129 165 219 254 298
#     4   9  18  33  52  78 107 132 166 212 261 300
#     4  10  19  34  54  76 101 134 181 214 243 297
#     4   9  18  34  52  74 105 141 168 201 254 316
#     4  11  21  31  52  83 107 130 165 217 259 297
#     4  10  20  33  53  77 108 136 163 206 264 311
#     4  10  18  33  55  75 100 140 174 201 253 310
#     4   9  19  35  55  73  99 141 177 209 248 303
#
# _framework density 24.509150000000002
#
# number of rings (size 3 to 8) (size 9 to 14) (size 15 to 20)
#    0.000    2.250    2.500    1.125    0.000    2.500 
#    0.000    1.250    0.000    0.000    0.000    0.000 
#    0.000    0.000    0.000    0.000    0.000    0.000 
#
# Total GULP energy -89330.681551 kJ/mol
# GULP energy per Si atom -5583.167597 kJ/mol
# Density = 2.445337 g / cm^3
# Si number density = 24.509150 Si / 1000 Ang^3
#
#
#
# Elastic Constant Matrix: (Units=GPa)
#
#
# Indices 1 2 3 4 5 6 
#
# 1 107.1623 14.0621 37.7496 -3.5368 -7.9605 35.4436
# 2 14.0621 36.6618 -5.8685 6.0930 -0.6244 4.0328
# 3 37.7496 -5.8685 87.2536 14.0244 10.4479 5.9814
# 4 -3.5368 6.0930 14.0244 13.8488 3.0559 1.4712
# 5 -7.9605 -0.6244 10.4479 3.0559 32.0353 3.1289
# 6 35.4436 4.0328 5.9814 1.4712 3.1289 33.1213
#
#
#
# Elastic Compliance Matrix: (Units=1/GPa)
#
#
# Indices 1 2 3 4 5 6 
#
# 1 0.030510 -0.017229 -0.019592 0.035477 0.013165 -0.029833
# 2 -0.017229 0.041536 0.016446 -0.039287 -0.006333 0.012753
# 3 -0.019592 0.016446 0.027601 -0.039455 -0.011428 0.016811
# 4 0.035477 -0.039287 -0.039455 0.139651 0.010847 -0.033283
# 5 0.013165 -0.006333 -0.011428 0.010847 0.038558 -0.015377
# 6 -0.029833 0.012753 0.016811 -0.033283 -0.015377 0.060459
#
#
# Mechanical properties :
#
#
# Convention : Reuss Voigt Hill
#
# Bulk Modulus (GPa) = 16.97874 35.88488 26.43181
# Shear Modulus (GPa) = 12.54086 28.14339 20.34212
#
# Velocity S-wave (km/s) = 2.26449 3.39231 2.88406
# Velocity P-wave (km/s) = 3.71211 5.47876 4.67956
#
# Compressibility (1/GPa) = 0.05889720
#
# Stress axis : x y z
#
# Youngs Moduli (GPa) = 32.77614 24.07557 36.23059
#
# Poissons Ratio (x) = 0.41480 0.70984
# Poissons Ratio (y) = 0.56470 -0.59586
# Poissons Ratio (z) = 0.64216 -0.39595
#
# Static dielectric constant tensor:
#      x y z
#    x 1.962240 -0.037760 0.027760 
#    y -0.037760 2.065280 -0.040450 
#    z 0.027760 -0.040450 2.026020 
# 
# From -- ./inp_files/176686.got.cif
#   From: 2010.05.17/outbox.cif.g08.bks.cpg/sg2_89_cif.got.tgz:176686.got - 2010.06.03 11:33:40.
