data_PCOD9073834
_publ_section_title
;
Structure prediction by ZEFSAII (Michael W. Deem and Ramdas Pophale) SiO2 
 PCOD9073834
Probable space group: P -1
;
_chemical_formula_sum "Si O2"
_cell_formula_units_Z 15
_cell_length_a 12.000000
_cell_length_b 18.000000
_cell_length_c 21.000000
_cell_angle_alpha 20.000000
_cell_angle_beta 150.000000
_cell_angle_gamma 150.000000
_cell_volume 738.640068
_symmetry_space_group_name_H-M "P -1"
_symmetry_group_IT_number 2
_symmetry_cell_setting 'triclinic'
loop_
_space_group_symop_operation_xyz
x,y,z
-x,-y,-z
loop_
_atom_site_type_symbol
_atom_site_label
_atom_site_fract_x
_atom_site_fract_y
_atom_site_fract_z
Si Si1 0.921433 0.360420 0.009619
Si Si2 0.015175 0.803829 0.026921
Si Si3 0.782348 0.319444 0.354087
Si Si4 0.459560 0.512601 0.360353
Si Si5 0.250736 0.173857 0.247171
Si Si6 0.000000 0.000000 0.000000
Si Si7 0.559418 0.858800 0.242929
Si Si8 0.886604 0.452692 0.551233
O O1 0.776243 0.471600 0.800867
O O2 0.000000 0.500000 0.000000
O O3 0.151709 0.335969 0.110055
O O4 0.746341 0.105872 0.139796
O O5 0.902027 0.527892 0.198393
O O6 0.952546 0.916321 0.968752
O O7 0.294439 0.868449 0.107512
O O8 0.908456 0.882247 0.849097
O O9 0.514882 0.294692 0.258445
O O10 0.932009 0.392269 0.433570
O O11 0.775142 0.064231 0.537778
O O12 0.573549 0.731450 0.285910
O O13 0.414038 0.301073 0.556787
O O14 0.641268 0.497117 0.407753
O O15 0.132324 0.805527 0.232497
O O16 0.000000 0.500000 0.500000
#
# Coordination Sequence:
#
# PCOD9073834 Si02
#       8
#     2   2   2   2   2   1   2   2
#     4  12  29  43  67 102 142 179 222 282 349 410
#     4  11  22  42  68  99 129 172 230 279 333 399
#     4  10  23  42  65  95 130 175 224 274 331 402
#     4  11  24  45  73 101 128 182 234 287 329 404
#     4  11  24  43  64  94 136 182 220 271 342 404
#     4  10  22  36  58 100 128 156 212 280 328 380
#     4  11  24  44  75  99 132 180 237 280 332 407
#     4  11  23  38  67  96 129 166 220 278 334 385
#
# _framework density 20.307590000000001
#
# number of rings (size 3 to 8) (size 9 to 14) (size 15 to 20)
#    0.000    1.067    4.000    2.400    7.467    1.600 
#    0.000    0.000    0.000    0.000    0.000    0.000 
#    0.000    0.000    0.000    0.000    0.000    0.000 
#
# Total GULP energy -83604.793288 kJ/mol
# GULP energy per Si atom -5573.652886 kJ/mol
# Density = 2.026137 g / cm^3
# Si number density = 20.307590 Si / 1000 Ang^3
#
#
#
# Elastic Constant Matrix: (Units=GPa)
#
#
# Indices 1 2 3 4 5 6 
#
# 1 75.3064 -8.3686 20.4395 12.5608 21.4511 -7.0260
# 2 -8.3686 26.4900 15.3585 12.5505 1.9411 7.2661
# 3 20.4395 15.3585 67.6326 18.7487 13.9043 8.1403
# 4 12.5608 12.5505 18.7487 21.2423 6.5583 3.6431
# 5 21.4511 1.9411 13.9043 6.5583 28.6014 -6.4094
# 6 -7.0260 7.2661 8.1403 3.6431 -6.4094 20.8085
#
#
#
# Elastic Compliance Matrix: (Units=1/GPa)
#
#
# Indices 1 2 3 4 5 6 
#
# 1 0.022882 0.018000 -0.004035 -0.017335 -0.011912 0.002385
# 2 0.018000 0.071053 -0.006963 -0.042207 -0.007724 -0.010999
# 3 -0.004035 -0.006963 0.022839 -0.010017 -0.007172 -0.008321
# 4 -0.017335 -0.042207 -0.010017 0.092113 -0.001215 -0.003698
# 5 -0.011912 -0.007724 -0.007172 -0.001215 0.052167 0.017762
# 6 0.002385 -0.010999 -0.008321 -0.003698 0.017762 0.062077
#
#
# Mechanical properties :
#
#
# Convention : Reuss Voigt Hill
#
# Bulk Modulus (GPa) = 7.64661 24.92085 16.28373
# Shear Modulus (GPa) = 14.17551 23.59708 18.88629
#
# Velocity S-wave (km/s) = 2.64491 3.41249 3.05292
# Velocity P-wave (km/s) = 3.61953 5.27495 4.52361
#
# Compressibility (1/GPa) = 0.13077688
#
# Stress axis : x y z
#
# Youngs Moduli (GPa) = 43.70330 14.07392 43.78408
#
# Poissons Ratio (x) = -0.25333 0.17669
# Poissons Ratio (y) = -0.78665 0.30487
# Poissons Ratio (z) = 0.17636 0.09800
#
# Static dielectric constant tensor:
#      x y z
#    x 1.677810 0.046390 -0.011520 
#    y 0.046390 1.658640 -0.004850 
#    z -0.011520 -0.004850 1.755150 
# 
# From -- ./inp_files/260898.got.cif
#   From: 2010.05.17/outbox.ucp.g08.bks.cvg/sg2_131_cif.got.tgz:260898.got - 2010.06.11 11:32:03.
