data_PCOD9073592
_publ_section_title
;
Structure prediction by ZEFSAII (Michael W. Deem and Ramdas Pophale) SiO2 
 PCOD9073592
Probable space group: P -1
;
_chemical_formula_sum "Si O2"
_cell_formula_units_Z 16
_cell_length_a 9.000000
_cell_length_b 15.000000
_cell_length_c 27.000000
_cell_angle_alpha 20.000000
_cell_angle_beta 140.000000
_cell_angle_gamma 130.000000
_cell_volume 750.501489
_symmetry_space_group_name_H-M "P -1"
_symmetry_group_IT_number 2
_symmetry_cell_setting 'triclinic'
loop_
_space_group_symop_operation_xyz
x,y,z
-x,-y,-z
loop_
_atom_site_type_symbol
_atom_site_label
_atom_site_fract_x
_atom_site_fract_y
_atom_site_fract_z
Si Si1 0.456212 0.835441 0.980583
Si Si2 0.786466 0.979661 0.856620
Si Si3 0.760391 0.441331 0.350319
Si Si4 0.503328 0.431309 0.973002
Si Si5 0.267236 0.465293 0.266988
Si Si6 0.920229 0.163686 0.291988
Si Si7 0.562712 0.345671 0.699374
Si Si8 0.946627 0.250829 0.670436
O O1 0.583245 0.059384 0.881856
O O2 0.603586 0.657983 0.156307
O O3 0.475592 0.627851 0.048505
O O4 0.169016 0.012621 0.824801
O O5 0.686024 0.236092 0.735369
O O6 0.790549 0.105634 0.738446
O O7 0.617350 0.791627 0.920109
O O8 0.068368 0.772954 0.044225
O O9 0.540026 0.397864 0.349160
O O10 0.918325 0.587577 0.345292
O O11 0.949438 0.155072 0.524848
O O12 0.306429 0.732228 0.780511
O O13 0.771717 0.343911 0.112694
O O14 0.302843 0.479139 0.327777
O O15 0.134409 0.263756 0.316439
O O16 0.270020 0.517985 0.534751
#
# Coordination Sequence:
#
# PCOD9073592 Si02
#       8
#     2   2   2   2   2   2   2   2
#     4  11  22  40  64  95 124 159 204 260 313 362
#     4  10  21  41  64  94 124 160 202 260 317 361
#     4  12  23  39  63  94 131 162 202 256 309 372
#     4   9  22  45  69  89 121 164 211 255 303 369
#     4  11  22  40  62  90 129 165 206 252 305 371
#     4  10  23  43  65  87 123 173 207 248 307 364
#     4  11  23  38  64  95 125 164 207 253 312 368
#     4  12  23  39  66  96 128 158 202 262 316 364
#
# _framework density 21.319078000000001
#
# number of rings (size 3 to 8) (size 9 to 14) (size 15 to 20)
#    0.000    1.250    2.500    4.125    1.750    2.500 
#    0.000    4.375    0.000    0.000    0.000    0.000 
#    0.000    0.000    0.000    0.000    0.000    0.000 
#
# Total GULP energy -89368.176232 kJ/mol
# GULP energy per Si atom -5585.511014 kJ/mol
# Density = 2.127056 g / cm^3
# Si number density = 21.319078 Si / 1000 Ang^3
#
#
#
# Elastic Constant Matrix: (Units=GPa)
#
#
# Indices 1 2 3 4 5 6 
#
# 1 59.8791 -0.5113 11.6992 -10.4681 16.0370 -10.9181
# 2 -0.5113 76.5574 2.0219 10.1855 17.3605 -17.8716
# 3 11.6992 2.0219 91.4828 1.7446 36.9318 -14.9854
# 4 -10.4681 10.1855 1.7446 15.4012 -8.4287 6.6696
# 5 16.0370 17.3605 36.9318 -8.4287 36.3009 -4.2240
# 6 -10.9181 -17.8716 -14.9854 6.6696 -4.2240 25.9269
#
#
#
# Elastic Compliance Matrix: (Units=1/GPa)
#
#
# Indices 1 2 3 4 5 6 
#
# 1 0.017844 -0.014164 -0.014283 0.042504 0.021199 -0.017985
# 2 -0.014164 -0.061714 -0.071112 0.158823 0.132324 -0.108905
# 3 -0.014283 -0.071112 -0.054079 0.154704 0.118839 -0.106726
# 4 0.042504 0.158823 0.154704 -0.294673 -0.292034 0.245019
# 5 0.021199 0.132324 0.118839 -0.292034 -0.209396 0.209837
# 6 -0.017985 -0.108905 -0.106726 0.245019 0.209837 -0.134602
#
#
# Mechanical properties :
#
#
# Convention : Reuss Voigt Hill
#
# Bulk Modulus (GPa) = -3.36623 28.25990 12.44684
# Shear Modulus (GPa) = -7.85518 29.83977 10.99229
#
# Velocity S-wave (km/s) = -1.92161 3.74528 2.27316
# Velocity P-wave (km/s) = 2.55065 5.65573 3.56942
#
# Compressibility (1/GPa) = -0.29706822
#
# Stress axis : x y z
#
# Youngs Moduli (GPa) = 56.04167 -16.20382 -18.49151
#
# Poissons Ratio (x) = -0.22951 -0.26412
# Poissons Ratio (y) = 0.79378 -1.31497
# Poissons Ratio (z) = 0.80047 -1.15229
#
# Static dielectric constant tensor:
#      x y z
#    x 1.796050 -0.030170 -0.019710 
#    y -0.030170 1.775380 0.009070 
#    z -0.019710 0.009070 1.762370 
# 
# From -- ./inp_files/306760.got.cif
#   From: 2010.05.17/outbox.ucp.g08.bks.cvg/sg2_154_cif.got.tgz:306760.got - 2010.06.11 11:32:03.
