data_PCOD9073290
_publ_section_title
;
Structure prediction by ZEFSAII (Michael W. Deem and Ramdas Pophale) SiO2 
 PCOD9073290
Probable space group: P -1
;
_chemical_formula_sum "Si O2"
_cell_formula_units_Z 12
_cell_length_a 8.598512
_cell_length_b 8.598452
_cell_length_c 10.992438
_cell_angle_alpha 50.233383
_cell_angle_beta 50.233035
_cell_angle_gamma 54.623396
_cell_volume 459.923515
_symmetry_space_group_name_H-M "P -1"
_symmetry_group_IT_number 2
_symmetry_cell_setting 'triclinic'
loop_
_space_group_symop_operation_xyz
x,y,z
-x,-y,-z
loop_
_atom_site_type_symbol
_atom_site_label
_atom_site_fract_x
_atom_site_fract_y
_atom_site_fract_z
Si Si1 0.701169 0.584191 0.232228
Si Si2 0.415816 0.298823 0.517773
Si Si3 0.106422 0.893567 0.625005
Si Si4 0.893572 0.106425 0.875002
Si Si5 0.415813 0.298827 0.017775
Si Si6 0.298823 0.415814 0.267775
O O1 0.703136 0.702979 0.296827
O O2 0.872359 0.357509 0.259959
O O3 0.475262 0.524736 0.375004
O O4 0.702962 0.703138 0.046835
O O5 0.642504 0.127644 0.490034
O O6 0.524732 0.475266 0.124999
O O7 0.297038 0.296857 0.453167
O O8 0.000000 0.000000 0.500000
O O9 0.999995 0.999994 0.750005
O O10 0.872361 0.357500 0.759957
O O11 0.642497 0.127640 0.990044
O O12 0.000000 0.000000 0.000000
O O13 0.296853 0.297033 0.203172
#
# Coordination Sequence:
#
# PCOD9073290 Si02
#       6
#     2   2   2   2   2   2
#     4   8  13  20  23  24  31  40  41  40  49  60
#     4   8  13  20  23  24  31  40  41  40  49  60
#     4  10  14  16  22  30  32  32  40  50  50  48
#     4  10  14  16  22  30  32  32  40  50  50  48
#     4   8  13  20  23  24  31  40  41  40  49  60
#     4   8  13  20  23  24  31  40  41  40  49  60
#
# _framework density 26.091291999999999
#
# number of rings (size 3 to 8) (size 9 to 14) (size 15 to 20)
#    2.000    1.333    0.000    4.000    0.000    0.000 
#    0.000    0.000    0.000    0.000    0.000    0.000 
#    0.000    0.000    0.000    0.000    0.000    0.000 
#
# Total GULP energy -67016.334768 kJ/mol
# GULP energy per Si atom -5584.694564 kJ/mol
# Density = 2.603191 g / cm^3
# Si number density = 26.091292 Si / 1000 Ang^3
#
#
#
# Elastic Constant Matrix: (Units=GPa)
#
#
# Indices 1 2 3 4 5 6 
#
# 1 73.6286 44.6307 63.7050 -4.4154 2.2286 -8.0523
# 2 44.6307 199.8236 158.4306 28.0955 32.3818 -29.5991
# 3 63.7050 158.4306 328.4342 34.6092 87.5996 -25.2694
# 4 -4.4154 28.0955 34.6092 61.7396 -4.5380 3.6051
# 5 2.2286 32.3818 87.5996 -4.5380 34.3219 -15.3534
# 6 -8.0523 -29.5991 -25.2694 3.6051 -15.3534 30.7297
#
#
#
# Elastic Compliance Matrix: (Units=1/GPa)
#
#
# Indices 1 2 3 4 5 6 
#
# 1 -1.264541 -0.319044 1.600614 -1.088516 -4.489159 -1.437657
# 2 -0.319044 -0.068695 0.392656 -0.272792 -1.108765 -0.348849
# 3 1.600614 0.392656 -1.999578 1.364319 5.613881 1.798134
# 4 -1.088516 -0.272792 1.364319 -0.911611 -3.824927 -1.230176
# 5 -4.489159 -1.108765 5.613881 -3.824927-15.718558 -5.032604
# 6 -1.437657 -0.348849 1.798134 -1.230176 -5.032604 -1.571662
#
#
# Mechanical properties :
#
#
# Convention : Reuss Voigt Hill
#
# Bulk Modulus (GPa) = 63.95137 126.15768 95.05452
# Shear Modulus (GPa) = -0.20098 47.69956 23.74929
#
# Velocity S-wave (km/s) = -0.27784 4.28036 3.02029
# Velocity P-wave (km/s) = 4.94580 8.53733 6.97664
#
# Compressibility (1/GPa) = 0.01563688
#
# Stress axis : x y z
#
# Youngs Moduli (GPa) = -0.79080 -14.55700 -0.50011
#
# Poissons Ratio (x) = -4.64433 0.80048
# Poissons Ratio (y) = -0.25230 0.19637
# Poissons Ratio (z) = 1.26577 5.71589
#
# Static dielectric constant tensor:
#      x y z
#    x 2.068350 0.036990 0.015250 
#    y 0.036990 1.980110 0.028910 
#    z 0.015250 0.028910 2.148340 
# 
# From -- ./inp_files/248308.got.cif
#   From: 2010.05.17/outbox.cif.g08.bks.cpg/sg2_125_cif.got.tgz:248308.got - 2010.06.03 11:33:40.
