data_PCOD9073823
_publ_section_title
;
Structure prediction by ZEFSAII (Michael W. Deem and Ramdas Pophale) SiO2 
 PCOD9073823
Probable space group: P -1
;
_chemical_formula_sum "Si O2"
_cell_formula_units_Z 12
_cell_length_a 7.392483
_cell_length_b 7.927319
_cell_length_c 8.864558
_cell_angle_alpha 93.913714
_cell_angle_beta 102.962516
_cell_angle_gamma 56.405119
_cell_volume 420.689886
_symmetry_space_group_name_H-M "P -1"
_symmetry_group_IT_number 2
_symmetry_cell_setting 'triclinic'
loop_
_space_group_symop_operation_xyz
x,y,z
-x,-y,-z
loop_
_atom_site_type_symbol
_atom_site_label
_atom_site_fract_x
_atom_site_fract_y
_atom_site_fract_z
Si Si1 0.934625 0.791915 0.398487
Si Si2 0.168482 0.788026 0.730115
Si Si3 0.509915 0.828931 0.384702
Si Si4 0.308062 0.875249 0.042839
Si Si5 0.759238 0.704896 0.962487
Si Si6 0.615724 0.571393 0.666705
O O1 0.748111 0.742855 0.345635
O O2 0.003944 0.769538 0.587725
O O3 0.151953 0.635864 0.334053
O O4 0.846071 0.016720 0.336329
O O5 0.417456 0.594771 0.731003
O O6 0.160155 0.820468 0.911529
O O7 0.325579 0.881939 0.226981
O O8 0.514205 0.676105 0.495035
O O9 0.500000 0.000000 0.500000
O O10 0.244103 0.096063 0.990004
O O11 0.563180 0.720166 0.025422
O O12 0.677547 0.711684 0.777490
O O13 0.000000 0.500000 0.000000
#
# Coordination Sequence:
#
# PCOD9073823 Si02
#       6
#     2   2   2   2   2   2
#     4  11  22  38  62  88 114 152 192 236 288 338
#     4  10  22  40  61  84 119 149 190 238 289 339
#     4  12  21  39  60  84 119 153 192 235 285 337
#     4  10  20  36  55  82 115 149 186 236 283 332
#     4  10  18  31  57  85 108 143 196 237 273 329
#     4  11  21  37  62  86 113 152 194 235 282 345
#
# _framework density 28.524576
#
# number of rings (size 3 to 8) (size 9 to 14) (size 15 to 20)
#    0.000    1.333    3.333    5.000    0.000    0.000 
#    0.000    1.667    0.000    0.000    0.000    0.000 
#    0.000    0.000    0.000    0.000    0.000    0.000 
#
# Total GULP energy -67277.522028 kJ/mol
# GULP energy per Si atom -5606.460169 kJ/mol
# Density = 2.845965 g / cm^3
# Si number density = 28.524576 Si / 1000 Ang^3
#
#
#
# Elastic Constant Matrix: (Units=GPa)
#
#
# Indices 1 2 3 4 5 6 
#
# 1 117.4442 20.6749 29.6400 -8.8271 12.0182 -18.3810
# 2 20.6749 115.8371 31.2471 11.4547 -2.2597 -26.7421
# 3 29.6400 31.2471 239.4163 21.4861 45.4608 -4.4742
# 4 -8.8271 11.4547 21.4861 47.6178 5.5953 2.0327
# 5 12.0182 -2.2597 45.4608 5.5953 49.6671 -6.4537
# 6 -18.3810 -26.7421 -4.4742 2.0327 -6.4537 41.9165
#
#
#
# Elastic Compliance Matrix: (Units=1/GPa)
#
#
# Indices 1 2 3 4 5 6 
#
# 1 0.009773 -0.001018 -0.000981 0.002526 -0.001382 0.003196
# 2 -0.001018 0.011281 -0.001617 -0.002895 0.003509 0.007259
# 3 -0.000981 -0.001617 0.005569 -0.001658 -0.004948 -0.001549
# 4 0.002526 -0.002895 -0.001658 0.023268 -0.002155 -0.002377
# 5 -0.001382 0.003509 -0.004948 -0.002155 0.026078 0.005224
# 6 0.003196 0.007259 -0.001549 -0.002377 0.005224 0.030644
#
#
# Mechanical properties :
#
#
# Convention : Reuss Voigt Hill
#
# Bulk Modulus (GPa) = 51.57588 70.64683 61.11136
# Shear Modulus (GPa) = 41.55909 53.91599 47.73754
#
# Velocity S-wave (km/s) = 3.82115 4.35231 4.09535
# Velocity P-wave (km/s) = 6.13096 7.07655 6.62066
#
# Compressibility (1/GPa) = 0.01938891
#
# Stress axis : x y z
#
# Youngs Moduli (GPa) = 102.32166 88.64194 179.57418
#
# Poissons Ratio (x) = 0.09028 0.17625
# Poissons Ratio (y) = 0.10421 0.29040
# Poissons Ratio (z) = 0.10043 0.14335
#
# Static dielectric constant tensor:
#      x y z
#    x 2.184160 -0.022650 -0.009410 
#    y -0.022650 2.211430 0.039840 
#    z -0.009410 0.039840 2.230370 
# 
# From -- ./inp_files/148781.got.cif
#   From: 2010.05.17/outbox.cif.g08.bks.cpg/sg2_75_cif.got.tgz:148781.got - 2010.06.03 11:33:40.
