data_PCOD9073312
_publ_section_title
;
Structure prediction by ZEFSAII (Michael W. Deem and Ramdas Pophale) SiO2 
 PCOD9073312
Probable space group: P -1
;
_chemical_formula_sum "Si O2"
_cell_formula_units_Z 16
_cell_length_a 15.000000
_cell_length_b 15.000000
_cell_length_c 12.000000
_cell_angle_alpha 150.000000
_cell_angle_beta 60.000000
_cell_angle_gamma 140.000000
_cell_volume 747.221570
_symmetry_space_group_name_H-M "P -1"
_symmetry_group_IT_number 2
_symmetry_cell_setting 'triclinic'
loop_
_space_group_symop_operation_xyz
x,y,z
-x,-y,-z
loop_
_atom_site_type_symbol
_atom_site_label
_atom_site_fract_x
_atom_site_fract_y
_atom_site_fract_z
Si Si1 0.640622 0.815850 0.105000
Si Si2 0.716640 0.661296 0.085499
Si Si3 0.006614 0.813212 0.384943
Si Si4 0.329790 0.449562 0.643531
Si Si5 0.439963 0.951167 0.234311
Si Si6 0.712006 0.284622 0.594412
Si Si7 0.110579 0.581262 0.143877
Si Si8 0.448262 0.563096 0.441284
O O1 0.707779 0.817211 0.177492
O O2 0.732044 0.118977 0.341641
O O3 0.455023 0.603249 0.032935
O O4 0.643594 0.679401 0.855309
O O5 0.764875 0.561651 0.867156
O O6 0.840380 0.868474 0.330173
O O7 0.850217 0.721603 0.409439
O O8 0.018943 0.646243 0.268649
O O9 0.997840 0.721590 0.166543
O O10 0.365591 0.480759 0.523213
O O11 0.390399 0.340815 0.535661
O O12 0.432371 0.746333 0.960369
O O13 0.529936 0.072430 0.429496
O O14 0.524630 0.208250 0.381891
O O15 0.260217 0.784205 0.183831
O O16 0.798425 0.344235 0.719918
#
# Coordination Sequence:
#
# PCOD9073312 Si02
#       8
#     2   2   2   2   2   2   2   2
#     4  11  21  37  61  90 118 148 201 249 288 346
#     4  11  22  36  61  91 118 155 192 238 304 361
#     4  10  22  41  56  86 128 160 190 237 303 358
#     4  10  24  42  60  87 119 158 201 249 291 340
#     4  11  20  38  65  92 116 150 202 250 293 343
#     4  12  22  36  62  92 121 152 192 247 300 346
#     4  10  21  38  60  91 127 155 186 241 303 361
#     4  11  22  40  65  88 112 157 208 249 285 344
#
# _framework density 21.412658
#
# number of rings (size 3 to 8) (size 9 to 14) (size 15 to 20)
#    0.000    1.250    3.750    3.375    1.750    0.500 
#    6.750    0.625    0.000    1.500    0.000    0.000 
#    0.000    0.000    0.000    0.000    0.000    0.000 
#
# Total GULP energy -89078.601867 kJ/mol
# GULP energy per Si atom -5567.412617 kJ/mol
# Density = 2.136392 g / cm^3
# Si number density = 21.412658 Si / 1000 Ang^3
#
#
#
# Elastic Constant Matrix: (Units=GPa)
#
#
# Indices 1 2 3 4 5 6 
#
# 1 143.8370 25.9235 44.4775 1.2877 1.8419 -1.3499
# 2 25.9235 27.7054 36.5377 -18.5243 8.7446 7.7547
# 3 44.4775 36.5377 113.2832 -14.3425 -0.4791 -24.1364
# 4 1.2877 -18.5243 -14.3425 17.0523 -8.8157 -2.9602
# 5 1.8419 8.7446 -0.4791 -8.8157 44.9168 -16.4690
# 6 -1.3499 7.7547 -24.1364 -2.9602 -16.4690 3.7642
#
#
#
# Elastic Compliance Matrix: (Units=1/GPa)
#
#
# Indices 1 2 3 4 5 6 
#
# 1 0.015535 -0.039539 -0.003221 -0.053818 -0.008741 -0.014194
# 2 -0.039539 0.190752 0.009911 0.264856 0.054686 0.103947
# 3 -0.003221 0.009911 0.004150 0.008042 -0.006604 -0.017535
# 4 -0.053818 0.264856 0.008042 0.407902 0.065919 0.095817
# 5 -0.008741 0.054686 -0.006604 0.065919 0.023393 -0.003955
# 6 -0.014194 0.103947 -0.017535 0.095817 -0.003955 -0.007959
#
#
# Mechanical properties :
#
#
# Convention : Reuss Voigt Hill
#
# Bulk Modulus (GPa) = 6.90906 55.41141 31.16024
# Shear Modulus (GPa) = 6.68703 25.00580 15.84642
#
# Velocity S-wave (km/s) = 1.76910 3.42102 2.72334
# Velocity P-wave (km/s) = 2.72150 6.44504 4.94698
#
# Compressibility (1/GPa) = 0.14473742
#
# Stress axis : x y z
#
# Youngs Moduli (GPa) = 64.37040 5.24242 240.98140
#
# Poissons Ratio (x) = 0.20728 0.77632
# Poissons Ratio (y) = 2.54517 -2.38846
# Poissons Ratio (z) = 0.20737 -0.05196
#
# Static dielectric constant tensor:
#      x y z
#    x 1.811590 -0.019800 -0.005620 
#    y -0.019800 1.740090 0.028130 
#    z -0.005620 0.028130 1.819570 
# 
# From -- ./inp_files/427654.got.cif
#   From: 2010.05.17/outbox.ucp.g08.bks.cvg/sg2_214_cif.got.tgz:427654.got - 2010.06.11 11:32:03.
