data_PCOD9073180
_publ_section_title
;
Structure prediction by ZEFSAII (Michael W. Deem and Ramdas Pophale) SiO2 
 PCOD9073180
Probable space group: P -1
;
_chemical_formula_sum "Si O2"
_cell_formula_units_Z 16
_cell_length_a 8.097084
_cell_length_b 9.676046
_cell_length_c 13.514161
_cell_angle_alpha 122.184789
_cell_angle_beta 119.285213
_cell_angle_gamma 65.698567
_cell_volume 765.052452
_symmetry_space_group_name_H-M "P -1"
_symmetry_group_IT_number 2
_symmetry_cell_setting 'triclinic'
loop_
_space_group_symop_operation_xyz
x,y,z
-x,-y,-z
loop_
_atom_site_type_symbol
_atom_site_label
_atom_site_fract_x
_atom_site_fract_y
_atom_site_fract_z
Si Si1 0.003289 0.874057 0.692695
Si Si2 0.690118 0.077635 0.937848
Si Si3 0.041313 0.251292 0.164822
Si Si4 0.640093 0.130882 0.593503
Si Si5 0.813244 0.110829 0.434675
Si Si6 0.564958 0.332875 0.832617
Si Si7 0.185252 0.459088 0.899268
Si Si8 0.270660 0.100793 0.844937
O O1 0.941389 0.760145 0.715581
O O2 0.108420 0.786015 0.591039
O O3 0.155139 0.981357 0.822927
O O4 0.833478 0.019180 0.656519
O O5 0.636743 0.158779 0.845077
O O6 0.484755 0.109827 0.944953
O O7 0.847096 0.180850 0.058496
O O8 0.784528 0.883651 0.881718
O O9 0.997943 0.427388 0.164128
O O10 0.560958 0.286902 0.699999
O O11 0.500000 0.000000 0.500000
O O12 0.682370 0.186765 0.516397
O O13 0.713607 0.986544 0.292479
O O14 0.000000 0.000000 0.500000
O O15 0.356769 0.413167 0.849521
O O16 0.717313 0.445459 0.951448
O O17 0.150328 0.286923 0.867664
#
# Coordination Sequence:
#
# PCOD9073180 Si02
#       8
#     2   2   2   2   2   2   2   2
#     4   9  20  32  53  82 111 133 177 226 268 311
#     4   9  17  30  53  76 107 142 183 213 249 317
#     4  10  18  31  53  80 110 138 177 220 263 312
#     4  11  18  31  59  84  95 137 198 227 245 298
#     4   8  18  33  52  79 104 133 179 235 250 294
#     4   9  17  31  53  82 104 135 185 217 251 312
#     4   9  18  32  54  80 114 138 165 217 275 323
#     4   9  18  36  55  78 109 144 174 215 271 316
#
# _framework density 20.913599000000001
#
# number of rings (size 3 to 8) (size 9 to 14) (size 15 to 20)
#    0.750    2.000    1.250    2.250    0.000    0.500 
#    0.000    0.625    2.750    7.500    0.000    0.000 
#    0.000    0.000    0.000    0.000    0.000    0.000 
#
# Total GULP energy -89100.872857 kJ/mol
# GULP energy per Si atom -5568.804554 kJ/mol
# Density = 2.086600 g / cm^3
# Si number density = 20.913599 Si / 1000 Ang^3
#
#
#
# Elastic Constant Matrix: (Units=GPa)
#
#
# Indices 1 2 3 4 5 6 
#
# 1 35.4637 5.7530 7.8006 4.2170 -5.3106 -1.0176
# 2 5.7530 82.6168 0.2572 -5.2027 -10.3674 -7.7822
# 3 7.8006 0.2572 50.8930 16.7383 -22.1655 0.0371
# 4 4.2170 -5.2027 16.7383 18.1475 -7.3968 -2.4289
# 5 -5.3106 -10.3674 -22.1655 -7.3968 33.8521 -8.2581
# 6 -1.0176 -7.7822 0.0371 -2.4289 -8.2581 20.3686
#
#
#
# Elastic Compliance Matrix: (Units=1/GPa)
#
#
# Indices 1 2 3 4 5 6 
#
# 1 0.029870 -0.002056 -0.002292 -0.004576 0.001771 0.000883
# 2 -0.002056 0.015038 0.001675 0.008705 0.009889 0.010687
# 3 -0.002292 0.001675 0.036684 -0.023699 0.020439 0.005919
# 4 -0.004576 0.008705 -0.023699 0.086777 0.009635 0.017395
# 5 0.001771 0.009889 0.020439 0.009635 0.054987 0.027272
# 6 0.000883 0.010687 0.005919 0.017395 0.027272 0.066343
#
#
# Mechanical properties :
#
#
# Convention : Reuss Voigt Hill
#
# Bulk Modulus (GPa) = 13.11529 21.84389 17.47959
# Shear Modulus (GPa) = 15.60260 24.81783 20.21021
#
# Velocity S-wave (km/s) = 2.73436 3.44856 3.11202
# Velocity P-wave (km/s) = 4.03159 5.13072 4.61400
#
# Compressibility (1/GPa) = 0.07624689
#
# Stress axis : x y z
#
# Youngs Moduli (GPa) = 33.47824 66.49914 27.26002
#
# Poissons Ratio (x) = 0.13669 0.06249
# Poissons Ratio (y) = 0.06882 -0.04567
# Poissons Ratio (z) = 0.07674 -0.11141
#
# Static dielectric constant tensor:
#      x y z
#    x 1.815130 -0.013220 -0.017980 
#    y -0.013220 1.754710 -0.032280 
#    z -0.017980 -0.032280 1.816470 
# 
# From -- ./inp_files/498223.got.cif
#   From: 2010.05.17/outbox.cif.g08.bks.cpg/sg2_250_cif.got.tgz:498223.got - 2010.06.03 11:33:40.
