data_PCOD9073263
_publ_section_title
;
Structure prediction by ZEFSAII (Michael W. Deem and Ramdas Pophale) SiO2 
 PCOD9073263
Probable space group: P -1
;
_chemical_formula_sum "Si O2"
_cell_formula_units_Z 16
_cell_length_a 9.000000
_cell_length_b 21.000000
_cell_length_c 12.000000
_cell_angle_alpha 40.000000
_cell_angle_beta 50.000000
_cell_angle_gamma 30.000000
_cell_volume 727.418465
_symmetry_space_group_name_H-M "P -1"
_symmetry_group_IT_number 2
_symmetry_cell_setting 'triclinic'
loop_
_space_group_symop_operation_xyz
x,y,z
-x,-y,-z
loop_
_atom_site_type_symbol
_atom_site_label
_atom_site_fract_x
_atom_site_fract_y
_atom_site_fract_z
Si Si1 0.381678 0.936014 0.333840
Si Si2 0.065787 0.317092 0.717969
Si Si3 0.685792 0.598592 0.388601
Si Si4 0.582096 0.350922 0.947458
Si Si5 0.691565 0.240368 0.266869
Si Si6 0.274958 0.656708 0.686852
Si Si7 0.666587 0.167057 0.963653
Si Si8 0.414616 0.067272 0.328414
O O1 0.605472 0.850066 0.238945
O O2 0.366038 0.832961 0.531984
O O3 0.528556 0.948190 0.339779
O O4 0.042981 0.099330 0.254965
O O5 0.111386 0.392395 0.674544
O O6 0.904967 0.417694 0.545017
O O7 0.850342 0.324118 0.871497
O O8 0.427104 0.667634 0.507830
O O9 0.521022 0.708285 0.213264
O O10 0.314113 0.527607 0.808972
O O11 0.690364 0.242403 0.942012
O O12 0.516999 0.313127 0.138657
O O13 0.601125 0.367012 0.218395
O O14 0.936048 0.811970 0.658896
O O15 0.498210 0.142181 0.140538
O O16 0.000000 0.000000 0.000000
O O17 0.500000 0.000000 0.500000
#
# Coordination Sequence:
#
# PCOD9073263 Si02
#       8
#     2   2   2   2   2   2   2   2
#     4  10  21  37  62  90 119 169 209 258 315 367
#     4  10  22  40  66  95 122 171 210 267 316 374
#     4  10  23  42  65  94 131 163 215 263 322 373
#     4  11  25  40  64  96 127 171 209 261 325 377
#     4  10  21  38  62  93 127 158 213 262 316 372
#     4  10  22  42  65  92 125 168 208 269 314 376
#     4  12  27  43  64  96 132 172 211 266 316 384
#     4  11  24  41  63  92 128 173 211 255 324 379
#
# _framework density 21.995591999999998
#
# number of rings (size 3 to 8) (size 9 to 14) (size 15 to 20)
#    0.000    1.500    1.250    2.625    5.250    5.000 
#    0.000    0.000    0.000    0.000    0.000    0.000 
#    0.000    0.000    0.000    0.000    0.000    0.000 
#
# Total GULP energy -89158.304907 kJ/mol
# GULP energy per Si atom -5572.394057 kJ/mol
# Density = 2.194553 g / cm^3
# Si number density = 21.995592 Si / 1000 Ang^3
#
#
#
# Elastic Constant Matrix: (Units=GPa)
#
#
# Indices 1 2 3 4 5 6 
#
# 1 36.5896 16.0022 35.7551 -14.3823 -3.0440 1.7518
# 2 16.0022 60.6447 -2.7515 -0.9703 0.7577 7.8585
# 3 35.7551 -2.7515 63.5920 -5.5818 42.0213 17.7860
# 4 -14.3823 -0.9703 -5.5818 15.8072 4.9713 -12.7592
# 5 -3.0440 0.7577 42.0213 4.9713 10.1134 -11.3310
# 6 1.7518 7.8585 17.7860 -12.7592 -11.3310 20.7739
#
#
#
# Elastic Compliance Matrix: (Units=1/GPa)
#
#
# Indices 1 2 3 4 5 6 
#
# 1 0.043287 -0.010250 0.008468 0.060398 -0.044704 0.005689
# 2 -0.010250 0.019237 -0.004280 -0.019478 0.016328 -0.005805
# 3 0.008468 -0.004280 0.000673 0.018355 0.010416 0.017284
# 4 0.060398 -0.019478 0.018355 0.203033 -0.081705 0.066696
# 5 -0.044704 0.016328 0.010416 -0.081705 0.031299 -0.044436
# 6 0.005689 -0.005805 0.017284 0.066696 -0.044436 0.051783
#
#
# Mechanical properties :
#
#
# Convention : Reuss Voigt Hill
#
# Bulk Modulus (GPa) = 19.58006 28.75976 24.16991
# Shear Modulus (GPa) = 13.21147 16.79362 15.00254
#
# Velocity S-wave (km/s) = 2.45346 2.76615 2.61448
# Velocity P-wave (km/s) = 4.11668 4.82760 4.48625
#
# Compressibility (1/GPa) = 0.05107237
#
# Stress axis : x y z
#
# Youngs Moduli (GPa) = 23.10162 51.98432 1486.12862
#
# Poissons Ratio (x) = 0.53285 -12.58508
# Poissons Ratio (y) = 0.23680 6.36091
# Poissons Ratio (z) = -0.19563 0.22250
#
# Static dielectric constant tensor:
#      x y z
#    x 1.949220 0.055940 0.012780 
#    y 0.055940 1.824390 -0.028010 
#    z 0.012780 -0.028010 1.814480 
# 
# From -- ./inp_files/187834.got.cif
#   From: 2010.05.17/outbox.ucp.g08.bks.cvg/sg2_94_cif.got.tgz:187834.got - 2010.06.11 11:32:03.
