data_PCOD9073082
_publ_section_title
;
Structure prediction by ZEFSAII (Michael W. Deem and Ramdas Pophale) SiO2 
 PCOD9073082
Probable space group: P -1
;
_chemical_formula_sum "Si O2"
_cell_formula_units_Z 14
_cell_length_a 9.000000
_cell_length_b 12.000000
_cell_length_c 15.000000
_cell_angle_alpha 30.000000
_cell_angle_beta 130.000000
_cell_angle_gamma 120.000000
_cell_volume 613.666794
_symmetry_space_group_name_H-M "P -1"
_symmetry_group_IT_number 2
_symmetry_cell_setting 'triclinic'
loop_
_space_group_symop_operation_xyz
x,y,z
-x,-y,-z
loop_
_atom_site_type_symbol
_atom_site_label
_atom_site_fract_x
_atom_site_fract_y
_atom_site_fract_z
Si Si1 0.822654 0.828250 0.745467
Si Si2 0.632957 0.932308 0.224278
Si Si3 0.313401 0.370661 0.015094
Si Si4 0.582117 0.507824 0.425964
Si Si5 0.978356 0.181547 0.444030
Si Si6 0.768505 0.393428 0.909332
Si Si7 0.772015 0.028380 0.866437
O O1 0.655689 0.799406 0.770505
O O2 0.809032 0.621274 0.816066
O O3 0.853172 0.062854 0.551467
O O4 0.020638 0.746383 0.935948
O O5 0.666146 0.746801 0.285508
O O6 0.801132 0.815723 0.438006
O O7 0.401455 0.948605 0.142819
O O8 0.677370 0.189683 0.063702
O O9 0.272919 0.195876 0.045103
O O10 0.500000 0.500000 0.000000
O O11 0.135478 0.580736 0.796278
O O12 0.500000 0.500000 0.500000
O O13 0.391678 0.524234 0.281399
O O14 0.722658 0.271412 0.628283
O O15 0.000000 0.000000 0.500000
O O16 0.000000 0.000000 0.000000
#
# Coordination Sequence:
#
# PCOD9073082 Si02
#       7
#     2   2   2   2   2   2   2
#     4  10  24  39  69 102 133 173 223 280 339 394
#     4  10  22  42  67  98 122 177 227 276 332 394
#     4  12  26  44  67 100 144 178 220 279 343 406
#     4  10  23  38  68  91 126 175 225 269 326 396
#     4  11  23  42  73  98 133 175 232 280 331 398
#     4  10  20  41  66  98 127 162 230 287 320 388
#     4  11  25  43  63  97 137 177 219 274 344 404
#
# _framework density 22.813683000000001
#
# number of rings (size 3 to 8) (size 9 to 14) (size 15 to 20)
#    0.000    1.429    0.000    5.571   14.000    0.571 
#    2.571    0.714    0.000    0.000    0.000    0.000 
#    0.000    0.000    0.000    0.000    0.000    0.000 
#
# Total GULP energy -77936.175630 kJ/mol
# GULP energy per Si atom -5566.869688 kJ/mol
# Density = 2.276176 g / cm^3
# Si number density = 22.813683 Si / 1000 Ang^3
#
#
#
# Elastic Constant Matrix: (Units=GPa)
#
#
# Indices 1 2 3 4 5 6 
#
# 1 62.0642 21.6227 29.9415 -0.0529 -9.3106 29.1638
# 2 21.6227 124.0177 36.9761 -2.3011 21.9132 15.6267
# 3 29.9415 36.9761 103.9688 -2.5085 4.6538 -7.9393
# 4 -0.0529 -2.3011 -2.5085 59.2062 14.1587 7.3419
# 5 -9.3106 21.9132 4.6538 14.1587 35.5007 -10.3947
# 6 29.1638 15.6267 -7.9393 7.3419 -10.3947 29.1491
#
#
#
# Elastic Compliance Matrix: (Units=1/GPa)
#
#
# Indices 1 2 3 4 5 6 
#
# 1 0.065617 0.012338 -0.028994 0.015183 -0.019264 -0.090856
# 2 0.012338 0.017020 -0.011095 0.008970 -0.019233 -0.033608
# 3 -0.028994 -0.011095 0.024815 -0.008758 0.013784 0.048837
# 4 0.015183 0.008970 -0.008758 0.026683 -0.021852 -0.036898
# 5 -0.019264 -0.019233 0.013784 -0.021852 0.059481 0.060054
# 6 -0.090856 -0.033608 0.048837 -0.036898 0.060054 0.187236
#
#
# Mechanical properties :
#
#
# Convention : Reuss Voigt Hill
#
# Bulk Modulus (GPa) = 19.24954 51.90347 35.57650
# Shear Modulus (GPa) = 11.02121 38.20522 24.61321
#
# Velocity S-wave (km/s) = 2.20033 4.09670 3.28819
# Velocity P-wave (km/s) = 3.86152 6.72144 5.48129
#
# Compressibility (1/GPa) = 0.05194930
#
# Stress axis : x y z
#
# Youngs Moduli (GPa) = 15.23989 58.75459 40.29800
#
# Poissons Ratio (x) = -0.72490 1.16840
# Poissons Ratio (y) = -0.18803 0.44712
# Poissons Ratio (z) = 0.44187 0.65190
#
# Static dielectric constant tensor:
#      x y z
#    x 2.048710 -0.074290 -0.103730 
#    y -0.074290 2.006230 0.057600 
#    z -0.103730 0.057600 1.906800 
# 
# From -- ./inp_files/499809.got.cif
#   From: 2010.05.17/outbox.ucp.g08.bks.cvg/sg2_250_cif.got.tgz:499809.got - 2010.06.11 11:32:03.
