data_PCOD9073129
_publ_section_title
;
Structure prediction by ZEFSAII (Michael W. Deem and Ramdas Pophale) SiO2 
 PCOD9073129
Probable space group: P -1
;
_chemical_formula_sum "Si O2"
_cell_formula_units_Z 16
_cell_length_a 20.525946
_cell_length_b 9.280486
_cell_length_c 5.295230
_cell_angle_alpha 107.119037
_cell_angle_beta 107.130942
_cell_angle_gamma 61.718420
_cell_volume 834.391149
_symmetry_space_group_name_H-M "P -1"
_symmetry_group_IT_number 2
_symmetry_cell_setting 'triclinic'
loop_
_space_group_symop_operation_xyz
x,y,z
-x,-y,-z
loop_
_atom_site_type_symbol
_atom_site_label
_atom_site_fract_x
_atom_site_fract_y
_atom_site_fract_z
Si Si1 0.837353 0.771528 0.928142
Si Si2 0.542578 0.743160 0.047157
Si Si3 0.086722 0.377878 0.558638
Si Si4 0.472331 0.371741 0.524617
Si Si5 0.219561 0.418718 0.555548
Si Si6 0.332813 0.565889 0.781179
Si Si7 0.679274 0.071299 0.934660
Si Si8 0.642474 0.928856 0.320380
O O1 0.798522 0.643093 0.766783
O O2 0.768474 0.949309 0.972090
O O3 0.884304 0.748334 0.711301
O O4 0.890945 0.717213 0.201144
O O5 0.496595 0.707859 0.204786
O O6 0.616066 0.565699 0.019209
O O7 0.574628 0.872970 0.235014
O O8 0.511291 0.766357 0.742450
O O9 0.141222 0.472967 0.640576
O O10 0.000000 0.500000 0.500000
O O11 0.500000 0.500000 0.500000
O O12 0.384959 0.478507 0.553742
O O13 0.255214 0.549369 0.657701
O O14 0.281991 0.246401 0.657080
O O15 0.329211 0.744383 0.925828
O O16 0.648688 0.040623 0.614974
O O17 0.644138 0.008044 0.092410
#
# Coordination Sequence:
#
# PCOD9073129 Si02
#       8
#     2   2   2   2   2   2   2   2
#     4   9  18  31  51  74 101 133 169 211 253 306
#     4   9  20  34  56  77  99 138 180 210 252 307
#     4  10  18  31  53  76  98 133 178 215 245 296
#     4  10  20  35  56  80 103 137 179 216 256 303
#     4   8  18  33  51  79  99 132 179 208 252 301
#     4   9  22  32  56  82 105 135 169 221 263 302
#     4  11  19  33  51  81 110 131 166 220 268 311
#     4  10  19  33  54  76 104 137 171 215 258 309
#
# _framework density 19.175659
#
# number of rings (size 3 to 8) (size 9 to 14) (size 15 to 20)
#    1.500    1.000    1.250    1.500    3.500    0.000 
#    0.000    0.000    0.000    6.000    0.000    0.000 
#    0.000    0.000    0.000    0.000    0.000    0.000 
#
# Total GULP energy -89127.753348 kJ/mol
# GULP energy per Si atom -5570.484584 kJ/mol
# Density = 1.913201 g / cm^3
# Si number density = 19.175659 Si / 1000 Ang^3
#
#
#
# Elastic Constant Matrix: (Units=GPa)
#
#
# Indices 1 2 3 4 5 6 
#
# 1 78.9608 26.3885 22.8796 7.0837 1.1268 4.7045
# 2 26.3885 82.0485 40.7478 6.6888 4.0254 7.3906
# 3 22.8796 40.7478 128.5546 -17.4996 -13.2733 4.3343
# 4 7.0837 6.6888 -17.4996 23.3192 1.7425 2.1857
# 5 1.1268 4.0254 -13.2733 1.7425 24.0208 -0.9613
# 6 4.7045 7.3906 4.3343 2.1857 -0.9613 26.0961
#
#
#
# Elastic Compliance Matrix: (Units=1/GPa)
#
#
# Indices 1 2 3 4 5 6 
#
# 1 0.014957 -0.002937 -0.002568 -0.005437 -0.001276 -0.001030
# 2 -0.002937 0.017776 -0.006814 -0.008595 -0.006098 -0.002878
# 3 -0.002568 -0.006814 0.012789 0.011817 0.007454 -0.000446
# 4 -0.005437 -0.008595 0.011817 0.055854 0.004050 -0.003077
# 5 -0.001276 -0.006098 0.007454 0.004050 0.046621 0.002097
# 6 -0.001030 -0.002878 -0.000446 -0.003077 0.002097 0.039730
#
#
# Mechanical properties :
#
#
# Convention : Reuss Voigt Hill
#
# Bulk Modulus (GPa) = 47.88391 52.17730 50.03061
# Shear Modulus (GPa) = 22.79705 27.99043 25.39374
#
# Velocity S-wave (km/s) = 3.45172 3.82473 3.64300
# Velocity P-wave (km/s) = 6.39619 6.83915 6.62137
#
# Compressibility (1/GPa) = 0.02088384
#
# Stress axis : x y z
#
# Youngs Moduli (GPa) = 66.85653 56.25678 78.19132
#
# Poissons Ratio (x) = 0.16520 0.20082
# Poissons Ratio (y) = 0.19632 0.53282
# Poissons Ratio (z) = 0.17171 0.38335
#
# Static dielectric constant tensor:
#      x y z
#    x 1.689040 -0.010340 0.001300 
#    y -0.010340 1.678650 -0.046190 
#    z 0.001300 -0.046190 1.776170 
# 
# From -- ./inp_files/107390.got.cif
#   From: 2010.05.17/outbox.cif.g08.bks.cpg/sg2_54_cif.got.tgz:107390.got - 2010.06.03 11:33:40.
