data_PCOD9073839
_publ_section_title
;
Structure prediction by ZEFSAII (Michael W. Deem and Ramdas Pophale) SiO2 
 PCOD9073839
Probable space group: P -1
;
_chemical_formula_sum "Si O2"
_cell_formula_units_Z 13
_cell_length_a 15.000000
_cell_length_b 12.000000
_cell_length_c 15.000000
_cell_angle_alpha 40.000000
_cell_angle_beta 20.000000
_cell_angle_gamma 40.000000
_cell_volume 580.331274
_symmetry_space_group_name_H-M "P -1"
_symmetry_group_IT_number 2
_symmetry_cell_setting 'triclinic'
loop_
_space_group_symop_operation_xyz
x,y,z
-x,-y,-z
loop_
_atom_site_type_symbol
_atom_site_label
_atom_site_fract_x
_atom_site_fract_y
_atom_site_fract_z
Si Si1 0.645217 0.160555 0.509280
Si Si2 0.121502 0.200157 0.589967
Si Si3 0.857863 0.578502 0.799970
Si Si4 0.000000 0.000000 0.000000
Si Si5 0.316074 0.535527 0.254572
Si Si6 0.723836 0.983643 0.725927
Si Si7 0.049021 0.289624 0.932829
O O1 0.359455 0.262614 0.680465
O O2 0.718900 0.965151 0.514225
O O3 0.644709 0.127273 0.634848
O O4 0.879768 0.253037 0.199450
O O5 0.276018 0.361587 0.346035
O O6 0.832087 0.287006 0.766896
O O7 0.092968 0.133977 0.757208
O O8 0.764323 0.787598 0.768201
O O9 0.131750 0.538428 0.512755
O O10 0.917920 0.477600 0.898267
O O11 0.618376 0.516036 0.011946
O O12 0.979741 0.858466 0.023724
O O13 0.000000 0.000000 0.500000
O O14 0.500000 0.000000 0.000000
#
# Coordination Sequence:
#
# PCOD9073839 Si02
#       7
#     2   2   2   1   2   2   2
#     4  11  25  44  70 100 141 179 230 281 340 406
#     4  10  23  40  66 104 145 189 228 271 330 415
#     4  12  25  47  68 103 139 180 233 283 348 406
#     4  10  22  36  64  98 148 188 224 246 326 408
#     4  11  24  40  67 101 143 183 229 275 337 405
#     4  12  27  50  77 100 126 176 241 303 356 403
#     4  11  25  42  66 102 148 185 219 271 337 411
#
# _framework density 22.400998999999999
#
# number of rings (size 3 to 8) (size 9 to 14) (size 15 to 20)
#    0.000    0.923    3.077    2.769    6.462    3.692 
#    0.000    4.615    0.000    0.000    0.000    0.000 
#    0.000    0.000    0.000    0.000    0.000    0.000 
#
# Total GULP energy -72538.986700 kJ/mol
# GULP energy per Si atom -5579.922054 kJ/mol
# Density = 2.235001 g / cm^3
# Si number density = 22.400999 Si / 1000 Ang^3
#
#
#
# Elastic Constant Matrix: (Units=GPa)
#
#
# Indices 1 2 3 4 5 6 
#
# 1 92.5036 -1.1795 46.9654 6.1923 20.4032 -32.4053
# 2 -1.1795 25.2931 15.9937 1.6688 -2.7060 -27.5044
# 3 46.9654 15.9937 110.0599 16.2588 20.8452 -12.9124
# 4 6.1923 1.6688 16.2588 14.6105 -1.8682 -2.0242
# 5 20.4032 -2.7060 20.8452 -1.8682 45.3051 1.8174
# 6 -32.4053 -27.5044 -12.9124 -2.0242 1.8174 26.0697
#
#
#
# Elastic Compliance Matrix: (Units=1/GPa)
#
#
# Indices 1 2 3 4 5 6 
#
# 1 0.002786 -0.025328 0.000560 -0.002381 -0.002200 -0.023014
# 2 -0.025328 -0.026032 0.006172 0.000197 0.009288 -0.056524
# 3 0.000560 0.006172 0.012914 -0.014403 -0.006940 0.012969
# 4 -0.002381 0.000197 -0.014403 0.086370 0.011432 -0.003977
# 5 -0.002200 0.009288 -0.006940 0.011432 0.027177 0.002620
# 6 -0.023014 -0.056524 0.012969 -0.003977 0.002620 -0.043950
#
#
# Mechanical properties :
#
#
# Convention : Reuss Voigt Hill
#
# Bulk Modulus (GPa) = -21.04114 39.04619 9.00252
# Shear Modulus (GPa) = 62.02376 28.26888 45.14632
#
# Velocity S-wave (km/s) = 5.26764 3.55624 4.49416
# Velocity P-wave (km/s) = 5.25205 5.85926 5.56394
#
# Compressibility (1/GPa) = -0.04752594
#
# Stress axis : x y z
#
# Youngs Moduli (GPa) = 358.99778 -38.41354 77.43712
#
# Poissons Ratio (x) = -0.97295 -0.04340
# Poissons Ratio (y) = 9.09283 -0.47791
# Poissons Ratio (z) = -0.20120 0.23707
#
# Static dielectric constant tensor:
#      x y z
#    x 1.856690 0.012150 0.016430 
#    y 0.012150 1.820730 -0.013140 
#    z 0.016430 -0.013140 1.813900 
# 
# From -- ./inp_files/27899.got.cif
#   From: 2010.05.17/outbox.ucp.g08.bks.cvg/sg2_14_cif.got.tgz:27899.got - 2010.06.11 11:32:03.
