data_PCOD9073540
_publ_section_title
;
Structure prediction by ZEFSAII (Michael W. Deem and Ramdas Pophale) SiO2 
 PCOD9073540
Probable space group: P -1
;
_chemical_formula_sum "Si O2"
_cell_formula_units_Z 15
_cell_length_a 12.000000
_cell_length_b 21.000000
_cell_length_c 9.000000
_cell_angle_alpha 140.000000
_cell_angle_beta 40.000000
_cell_angle_gamma 150.000000
_cell_volume 690.757590
_symmetry_space_group_name_H-M "P -1"
_symmetry_group_IT_number 2
_symmetry_cell_setting 'triclinic'
loop_
_space_group_symop_operation_xyz
x,y,z
-x,-y,-z
loop_
_atom_site_type_symbol
_atom_site_label
_atom_site_fract_x
_atom_site_fract_y
_atom_site_fract_z
Si Si1 0.745420 0.059732 0.709673
Si Si2 0.618867 0.490055 0.224900
Si Si3 0.590600 0.210389 0.015303
Si Si4 0.951433 0.976895 0.836083
Si Si5 0.322805 0.280290 0.925557
Si Si6 0.000000 0.500000 0.000000
Si Si7 0.909996 0.680347 0.991536
Si Si8 0.637454 0.258215 0.385567
O O1 0.930156 0.074352 0.444404
O O2 0.903670 0.163265 0.867201
O O3 0.538471 0.903762 0.690892
O O4 0.645437 0.116742 0.828045
O O5 0.500000 0.500000 0.500000
O O6 0.837462 0.514719 0.106308
O O7 0.734950 0.593812 0.153340
O O8 0.414254 0.342641 0.104331
O O9 0.322876 0.119460 0.081532
O O10 0.774102 0.331745 0.935685
O O11 0.617859 0.275519 0.262922
O O12 0.099019 0.122693 0.872953
O O13 0.000000 0.000000 0.000000
O O14 0.243857 0.346119 0.036148
O O15 0.536080 0.307081 0.674016
O O16 0.089619 0.662810 0.730220
#
# Coordination Sequence:
#
# PCOD9073540 Si02
#       8
#     2   2   2   2   2   1   2   2
#     4  10  21  40  67 101 129 172 225 272 339 395
#     4  12  29  46  69  97 138 187 228 276 339 411
#     4  11  22  41  66  96 135 178 225 271 331 405
#     4  11  24  40  66  98 139 177 219 279 340 399
#     4  11  25  43  69 105 134 174 228 286 340 396
#     4  12  26  44  66  98 136 190 224 266 334 410
#     4  11  22  43  70 101 133 180 226 280 336 401
#     4  10  21  41  70 100 133 171 223 284 334 397
#
# _framework density 21.715288000000001
#
# number of rings (size 3 to 8) (size 9 to 14) (size 15 to 20)
#    0.000    1.067    2.667    5.200    5.600    4.267 
#    0.000    0.000    0.000    0.000    0.000    0.000 
#    0.000    0.000    0.000    0.000    0.000    0.000 
#
# Total GULP energy -83558.502068 kJ/mol
# GULP energy per Si atom -5570.566805 kJ/mol
# Density = 2.166586 g / cm^3
# Si number density = 21.715288 Si / 1000 Ang^3
#
#
#
# Elastic Constant Matrix: (Units=GPa)
#
#
# Indices 1 2 3 4 5 6 
#
# 1 147.1246 49.5679 -69.3076 21.4108 -48.3276 105.6648
# 2 49.5679 80.1972 -53.7294 1.7217 -41.0019 63.7657
# 3 -69.3076 -53.7294 393.7646 -117.8355 66.9906 -138.3132
# 4 21.4108 1.7217 -117.8355 57.4087 -23.3305 58.5821
# 5 -48.3276 -41.0019 66.9906 -23.3305 3.4305 -46.5099
# 6 105.6648 63.7657 -138.3132 58.5821 -46.5099 110.2509
#
#
#
# Elastic Compliance Matrix: (Units=1/GPa)
#
#
# Indices 1 2 3 4 5 6 
#
# 1 -0.001782 -0.019314 -0.004557 -0.034304 0.011874 0.030398
# 2 -0.019314 -0.000038 0.000414 -0.025012 0.002595 0.033437
# 3 -0.004557 0.000414 0.006741 0.005606 0.004773 0.011620
# 4 -0.034304 -0.025012 0.005606 -0.030022 0.030166 0.083054
# 5 0.011874 0.002595 0.004773 0.030166 -0.061655 -0.048931
# 6 0.030398 0.033437 0.011620 0.083054 -0.048931 -0.089597
#
#
# Mechanical properties :
#
#
# Convention : Reuss Voigt Hill
#
# Bulk Modulus (GPa) = -23.81314 52.68312 14.43499
# Shear Modulus (GPa) = -34.85886 80.52171 22.83143
#
# Velocity S-wave (km/s) = -4.01093 6.09600 3.24605
# Velocity P-wave (km/s) = 5.69560 8.59428 4.55092
#
# Compressibility (1/GPa) = -0.04199362
#
# Stress axis : x y z
#
# Youngs Moduli (GPa) = -561.26865 -26165.46127 148.34045
#
# Poissons Ratio (x) = -505.36548 0.67602
# Poissons Ratio (y) = -10.84047 -0.06141
# Poissons Ratio (z) = -2.55782 10.83124
#
# Static dielectric constant tensor:
#      x y z
#    x 1.759260 -0.025520 -0.008160 
#    y -0.025520 1.848200 0.042610 
#    z -0.008160 0.042610 1.808600 
# 
# From -- ./inp_files/282421.got.cif
#   From: 2010.05.17/outbox.ucp.g08.bks.cvg/sg2_142_cif.got.tgz:282421.got - 2010.06.11 11:32:03.
