data_PCOD9073097
_publ_section_title
;
Structure prediction by ZEFSAII (Michael W. Deem and Ramdas Pophale) SiO2 
 PCOD9073097
Probable space group: P -1
;
_chemical_formula_sum "Si O2"
_cell_formula_units_Z 16
_cell_length_a 24.138310
_cell_length_b 9.700774
_cell_length_c 16.760282
_cell_angle_alpha 42.477565
_cell_angle_beta 23.033937
_cell_angle_gamma 31.171277
_cell_volume 770.353729
_symmetry_space_group_name_H-M "P -1"
_symmetry_group_IT_number 2
_symmetry_cell_setting 'triclinic'
loop_
_space_group_symop_operation_xyz
x,y,z
-x,-y,-z
loop_
_atom_site_type_symbol
_atom_site_label
_atom_site_fract_x
_atom_site_fract_y
_atom_site_fract_z
Si Si1 0.006319 0.396061 0.863880
Si Si2 0.670242 0.925435 0.861082
Si Si3 0.628231 0.427294 0.235520
Si Si4 0.028118 0.715708 0.220637
Si Si5 0.836648 0.494290 0.204361
Si Si6 0.425046 0.974280 0.487092
Si Si7 0.627939 0.887121 0.106598
Si Si8 0.759826 0.155963 0.518320
O O1 0.040162 0.268689 0.785283
O O2 0.218930 0.244872 0.675738
O O3 0.894375 0.370070 0.089764
O O4 0.842572 0.723287 0.923649
O O5 0.838723 0.596844 0.789884
O O6 0.754634 0.042148 0.656461
O O7 0.592551 0.032125 0.008225
O O8 0.500000 0.000000 0.000000
O O9 0.603614 0.242889 0.395104
O O10 0.627475 0.643039 0.190913
O O11 0.455977 0.605806 0.326066
O O12 0.824807 0.239984 0.006179
O O13 0.864571 0.919774 0.412892
O O14 0.620857 0.789105 0.357883
O O15 0.849016 0.293279 0.333417
O O16 0.000000 0.500000 0.000000
O O17 0.476569 0.051830 0.306797
#
# Coordination Sequence:
#
# PCOD9073097 Si02
#       8
#     2   2   2   2   2   2   2   2
#     4   9  19  33  51  78 103 132 171 212 261 313
#     4  10  18  33  48  76 115 143 166 200 252 324
#     4   9  17  28  44  74 104 134 168 198 251 315
#     4  10  20  31  52  81 111 134 170 206 256 323
#     4  10  23  38  53  76 102 135 182 220 255 303
#     4  10  18  31  53  70  97 138 170 216 263 289
#     4   9  18  29  45  74 108 133 165 203 246 319
#     4  11  19  33  53  74 109 146 166 208 263 298
#
# _framework density 20.769680999999999
#
# number of rings (size 3 to 8) (size 9 to 14) (size 15 to 20)
#    0.000    2.500    2.500    2.250    0.000    7.000 
#    0.000    0.000    0.000    6.750    0.000    4.375 
#    0.000    0.000    0.000    0.000    0.000    0.000 
#
# Total GULP energy -89131.933398 kJ/mol
# GULP energy per Si atom -5570.745837 kJ/mol
# Density = 2.072241 g / cm^3
# Si number density = 20.769681 Si / 1000 Ang^3
#
#
#
# Elastic Constant Matrix: (Units=GPa)
#
#
# Indices 1 2 3 4 5 6 
#
# 1 46.6076 34.7658 48.5919 -10.8003 1.6140 -18.1869
# 2 34.7658 64.7589 45.8819 -7.1048 1.1065 -23.6844
# 3 48.5919 45.8819 142.7804 -7.3783 15.4238 -25.8250
# 4 -10.8003 -7.1048 -7.3783 42.9309 -8.6683 2.2139
# 5 1.6140 1.1065 15.4238 -8.6683 40.9854 0.7959
# 6 -18.1869 -23.6844 -25.8250 2.2139 0.7959 22.5645
#
#
#
# Elastic Compliance Matrix: (Units=1/GPa)
#
#
# Indices 1 2 3 4 5 6 
#
# 1 0.048671 -0.013664 -0.009848 0.008382 0.003685 0.012664
# 2 -0.013664 0.031345 -0.001841 0.000435 0.000093 0.019736
# 3 -0.009848 -0.001841 0.012139 -0.001851 -0.004607 0.004368
# 4 0.008382 0.000435 -0.001851 0.026219 0.005855 0.002314
# 5 0.003685 0.000093 -0.004607 0.005855 0.027296 -0.003742
# 6 0.012664 0.019736 0.004368 0.002314 -0.003742 0.080143
#
#
# Mechanical properties :
#
#
# Convention : Reuss Voigt Hill
#
# Bulk Modulus (GPa) = 24.12483 56.95846 40.54164
# Shear Modulus (GPa) = 17.22158 29.62332 23.42245
#
# Velocity S-wave (km/s) = 2.88265 3.78071 3.36180
# Velocity P-wave (km/s) = 4.76657 6.82215 5.88481
#
# Compressibility (1/GPa) = 0.04145107
#
# Stress axis : x y z
#
# Youngs Moduli (GPa) = 20.54615 31.90260 82.38179
#
# Poissons Ratio (x) = 0.43591 0.81126
# Poissons Ratio (y) = 0.28074 0.15162
# Poissons Ratio (z) = 0.20233 0.05872
#
# Static dielectric constant tensor:
#      x y z
#    x 1.821170 0.005720 -0.000380 
#    y 0.005720 1.745740 0.014420 
#    z -0.000380 0.014420 1.796910 
# 
# From -- ./inp_files/579723.got.cif
#   From: 2010.05.17/outbox.cif.g08.bks.cpg/sg2_290_cif.got.tgz:579723.got - 2010.06.03 11:33:40.
