data_PCOD9073162
_publ_section_title
;
Structure prediction by ZEFSAII (Michael W. Deem and Ramdas Pophale) SiO2 
 PCOD9073162
Probable space group: P -1
;
_chemical_formula_sum "Si O2"
_cell_formula_units_Z 15
_cell_length_a 12.000000
_cell_length_b 9.000000
_cell_length_c 12.000000
_cell_angle_alpha 40.000000
_cell_angle_beta 110.000000
_cell_angle_gamma 90.000000
_cell_volume 705.336177
_symmetry_space_group_name_H-M "P -1"
_symmetry_group_IT_number 2
_symmetry_cell_setting 'triclinic'
loop_
_space_group_symop_operation_xyz
x,y,z
-x,-y,-z
loop_
_atom_site_type_symbol
_atom_site_label
_atom_site_fract_x
_atom_site_fract_y
_atom_site_fract_z
Si Si1 0.734967 0.131242 0.489535
Si Si2 0.960161 0.297118 0.853613
Si Si3 0.257070 0.303741 0.094392
Si Si4 0.000000 0.500000 0.000000
Si Si5 0.368350 0.018979 0.884573
Si Si6 0.567686 0.561402 0.762713
Si Si7 0.307507 0.228288 0.498487
Si Si8 0.821964 0.568560 0.251372
O O1 0.586062 0.345989 0.321755
O O2 0.824538 0.285736 0.427731
O O3 0.751354 0.943634 0.708312
O O4 0.748568 0.939207 0.500452
O O5 0.807784 0.492479 0.672290
O O6 0.043636 0.409888 0.743009
O O7 0.983352 0.351409 0.960759
O O8 0.000000 0.000000 0.000000
O O9 0.121939 0.530214 0.964377
O O10 0.373643 0.349207 0.163770
O O11 0.261530 0.308254 0.961107
O O12 0.366930 0.081651 0.717051
O O13 0.249185 0.251013 0.772494
O O14 0.500000 0.000000 0.000000
O O15 0.364710 0.744165 0.054575
O O16 0.592882 0.712797 0.580365
#
# Coordination Sequence:
#
# PCOD9073162 Si02
#       8
#     2   2   2   1   2   2   2   2
#     4  11  23  42  69 101 134 176 240 280 345 421
#     4  11  24  48  75 104 145 184 239 297 352 427
#     4  10  22  42  70  96 133 178 232 285 349 414
#     4  10  20  44  70 104 132 180 236 282 352 414
#     4  12  27  43  63 102 147 177 235 287 354 424
#     4  11  23  43  71  96 135 187 228 295 342 417
#     4  11  25  46  70 101 134 192 233 284 360 417
#     4  11  26  42  66 105 135 182 223 294 348 411
#
# _framework density 21.266455000000001
#
# number of rings (size 3 to 8) (size 9 to 14) (size 15 to 20)
#    0.000    1.067    4.000    3.200    3.733    5.867 
#    2.400    0.000    0.000    0.000    0.000    0.000 
#    0.000    0.000    0.000    0.000    0.000    0.000 
#
# Total GULP energy -83563.495569 kJ/mol
# GULP energy per Si atom -5570.899705 kJ/mol
# Density = 2.121805 g / cm^3
# Si number density = 21.266455 Si / 1000 Ang^3
#
#
#
# Elastic Constant Matrix: (Units=GPa)
#
#
# Indices 1 2 3 4 5 6 
#
# 1 72.4539 3.7903 -4.7651 -17.5052 -5.3904 9.0794
# 2 3.7903 87.5382 36.5592 -35.3673 -10.5925 -4.1526
# 3 -4.7651 36.5592 75.0093 -9.7262 -22.5134 9.6052
# 4 -17.5052 -35.3673 -9.7262 24.7678 13.7326 -6.1880
# 5 -5.3904 -10.5925 -22.5134 13.7326 31.9388 -9.8997
# 6 9.0794 -4.1526 9.6052 -6.1880 -9.8997 37.5917
#
#
#
# Elastic Compliance Matrix: (Units=1/GPa)
#
#
# Indices 1 2 3 4 5 6 
#
# 1 0.025419 0.027226 -0.009875 0.065408 -0.020271 0.004820
# 2 0.027226 0.094387 -0.043584 0.178841 -0.063100 0.027809
# 3 -0.009875 -0.043584 0.037506 -0.080551 0.040417 -0.014629
# 4 0.065408 0.178841 -0.080551 0.403057 -0.143251 0.053163
# 5 -0.020271 -0.063100 0.040417 -0.143251 0.093525 -0.011353
# 6 0.004820 0.027809 -0.014629 0.053163 -0.011353 0.038009
#
#
# Mechanical properties :
#
#
# Convention : Reuss Voigt Hill
#
# Bulk Modulus (GPa) = 9.53794 34.01892 21.77843
# Shear Modulus (GPa) = 6.41586 32.15410 19.28498
#
# Velocity S-wave (km/s) = 1.73880 3.89262 3.01462
# Velocity P-wave (km/s) = 2.91992 6.01951 4.73078
#
# Compressibility (1/GPa) = 0.10484446
#
# Stress axis : x y z
#
# Youngs Moduli (GPa) = 39.34063 10.59473 26.66214
#
# Poissons Ratio (x) = -0.28845 0.26329
# Poissons Ratio (y) = -1.07107 1.16205
# Poissons Ratio (z) = 0.38848 0.46176
#
# Static dielectric constant tensor:
#      x y z
#    x 1.797280 0.006240 0.074080 
#    y 0.006240 1.761590 0.006100 
#    z 0.074080 0.006100 1.839180 
# 
# From -- ./inp_files/403375.got.cif
#   From: 2010.05.17/outbox.ucp.g08.bks.cvg/sg2_202_cif.got.tgz:403375.got - 2010.06.11 11:32:03.
