data_PCOD9073984
_publ_section_title
;
Structure prediction by ZEFSAII (Michael W. Deem and Ramdas Pophale) SiO2 
 PCOD9073984
Probable space group: P -1
;
_chemical_formula_sum "Si O2"
_cell_formula_units_Z 14
_cell_length_a 24.000000
_cell_length_b 6.000000
_cell_length_c 27.000000
_cell_angle_alpha 110.000000
_cell_angle_beta 10.000000
_cell_angle_gamma 110.000000
_cell_volume 634.106208
_symmetry_space_group_name_H-M "P -1"
_symmetry_group_IT_number 2
_symmetry_cell_setting 'triclinic'
loop_
_space_group_symop_operation_xyz
x,y,z
-x,-y,-z
loop_
_atom_site_type_symbol
_atom_site_label
_atom_site_fract_x
_atom_site_fract_y
_atom_site_fract_z
Si Si1 0.250991 0.988858 0.945942
Si Si2 0.773743 0.300021 0.449525
Si Si3 0.557975 0.294006 0.476797
Si Si4 0.609595 0.068193 0.735133
Si Si5 0.125609 0.376383 0.244621
Si Si6 0.768573 0.505778 0.121105
Si Si7 0.840675 0.129450 0.698303
O O1 0.134033 0.766737 0.996873
O O2 0.532044 0.121259 0.677936
O O3 0.395435 0.932501 0.870378
O O4 0.971790 0.160375 0.223303
O O5 0.554285 0.479465 0.626948
O O6 0.993186 0.429993 0.309078
O O7 0.500000 0.500000 0.500000
O O8 0.345531 0.393958 0.717125
O O9 0.500000 0.000000 0.500000
O O10 0.947248 0.329324 0.139217
O O11 0.830471 0.255579 0.524537
O O12 0.403374 0.195151 0.969206
O O13 0.869543 0.906063 0.519800
O O14 0.231377 0.592940 0.204895
O O15 0.000000 0.000000 0.500000
O O16 0.500000 0.000000 0.000000
#
# Coordination Sequence:
#
# PCOD9073984 Si02
#       7
#     2   2   2   2   2   2   2
#     4  10  22  40  68 100 128 165 218 279 347 404
#     4  10  22  40  68 100 128 165 218 279 347 404
#     4  12  30  50  73 104 146 197 234 286 346 413
#     4  10  22  41  62  90 129 164 210 276 337 395
#     4  10  22  41  62  90 129 164 210 276 337 395
#     4  12  25  44  76  98 138 177 228 288 330 417
#     4  12  25  38  59  88 122 172 224 264 320 404
#
# _framework density 22.078320000000001
#
# number of rings (size 3 to 8) (size 9 to 14) (size 15 to 20)
#    0.000    1.143    0.000    5.143    6.000    3.429 
#    0.000   11.429    0.000    0.000    0.000    0.000 
#    0.000    0.000    0.000    0.000    0.000    0.000 
#
# Total GULP energy -77976.104118 kJ/mol
# GULP energy per Si atom -5569.721723 kJ/mol
# Density = 2.202807 g / cm^3
# Si number density = 22.078320 Si / 1000 Ang^3
#
#
#
# Elastic Constant Matrix: (Units=GPa)
#
#
# Indices 1 2 3 4 5 6 
#
# 1 81.9611 36.6859 22.7329 16.0765 31.0038 20.1660
# 2 36.6859 103.1962 14.8272 2.4660 12.0495 46.2300
# 3 22.7329 14.8272 129.4127 14.7218 28.0550 17.5306
# 4 16.0765 2.4660 14.7218 44.2172 -1.4004 1.7953
# 5 31.0038 12.0495 28.0550 -1.4004 60.5413 24.9212
# 6 20.1660 46.2300 17.5306 1.7953 24.9212 44.4181
#
#
#
# Elastic Compliance Matrix: (Units=1/GPa)
#
#
# Indices 1 2 3 4 5 6 
#
# 1 0.020291 -0.008606 -0.000123 -0.007486 -0.011487 0.006540
# 2 -0.008606 0.023297 -0.000315 0.003353 0.010885 -0.026458
# 3 -0.000123 -0.000315 0.009075 -0.003039 -0.003750 -0.000972
# 4 -0.007486 0.003353 -0.003039 0.026527 0.006727 -0.003739
# 5 -0.011487 0.010885 -0.003750 0.006727 0.031398 -0.022522
# 6 0.006540 -0.026458 -0.000972 -0.003739 -0.022522 0.060252
#
#
# Mechanical properties :
#
#
# Convention : Reuss Voigt Hill
#
# Bulk Modulus (GPa) = 28.92049 51.45135 40.18592
# Shear Modulus (GPa) = 24.94364 45.85691 35.40028
#
# Velocity S-wave (km/s) = 3.36487 4.56237 4.00859
# Velocity P-wave (km/s) = 5.31262 7.14900 6.29810
#
# Compressibility (1/GPa) = 0.03457756
#
# Stress axis : x y z
#
# Youngs Moduli (GPa) = 49.28224 42.92488 110.19139
#
# Poissons Ratio (x) = 0.36940 0.01350
# Poissons Ratio (y) = 0.42410 0.03466
# Poissons Ratio (z) = 0.00604 0.01350
#
# Static dielectric constant tensor:
#      x y z
#    x 1.881710 -0.057580 -0.080410 
#    y -0.057580 1.869440 0.017690 
#    z -0.080410 0.017690 1.832440 
# 
# From -- ./inp_files/11565.got.cif
#   From: 2010.05.17/outbox.ucp.g08.bks.cvg/sg2_6_cif.got.tgz:11565.got - 2010.06.11 11:32:03.
