data_PCOD9073810
_publ_section_title
;
Structure prediction by ZEFSAII (Michael W. Deem and Ramdas Pophale) SiO2 
 PCOD9073810
Probable space group: P -1
;
_chemical_formula_sum "Si O2"
_cell_formula_units_Z 16
_cell_length_a 9.000000
_cell_length_b 6.000000
_cell_length_c 21.000000
_cell_angle_alpha 100.000000
_cell_angle_beta 120.000000
_cell_angle_gamma 50.000000
_cell_volume 733.417773
_symmetry_space_group_name_H-M "P -1"
_symmetry_group_IT_number 2
_symmetry_cell_setting 'triclinic'
loop_
_space_group_symop_operation_xyz
x,y,z
-x,-y,-z
loop_
_atom_site_type_symbol
_atom_site_label
_atom_site_fract_x
_atom_site_fract_y
_atom_site_fract_z
Si Si1 0.768185 0.784373 0.542163
Si Si2 0.389995 0.300674 0.310824
Si Si3 0.477770 0.244790 0.932109
Si Si4 0.252272 0.787051 0.826859
Si Si5 0.382294 0.250572 0.160557
Si Si6 0.872996 0.758165 0.076304
Si Si7 0.105349 0.131473 0.560408
Si Si8 0.190026 0.999075 0.317556
O O1 0.816546 0.790924 0.479761
O O2 0.913373 0.435655 0.572220
O O3 0.500000 0.000000 0.500000
O O4 0.841884 0.923721 0.610799
O O5 0.347132 0.254993 0.227797
O O6 0.291768 0.648860 0.316389
O O7 0.660137 0.105099 0.364983
O O8 0.311097 0.136791 0.326083
O O9 0.401436 0.543048 0.901087
O O10 0.281463 0.325594 0.942037
O O11 0.507463 0.051083 0.868768
O O12 0.718761 0.024816 0.006622
O O13 0.436016 0.707425 0.810722
O O14 0.126698 0.101401 0.850824
O O15 0.053609 0.801563 0.758582
O O16 0.126523 0.507960 0.093662
O O17 0.000000 0.000000 0.500000
#
# Coordination Sequence:
#
# PCOD9073810 Si02
#       8
#     2   2   2   2   2   2   2   2
#     4  11  25  49  73 107 143 188 239 291 356 420
#     4  12  28  48  74 107 147 195 237 296 358 423
#     4  10  23  40  72  95 137 186 235 295 359 426
#     4  11  25  41  67 102 136 188 235 295 358 423
#     4  11  25  41  67 101 142 181 242 290 360 421
#     4  10  21  46  64 100 137 181 236 298 355 429
#     4  11  27  45  77 107 145 187 241 297 352 426
#     4  12  28  47  77 102 150 193 238 295 360 423
#
# _framework density 21.815670000000001
#
# number of rings (size 3 to 8) (size 9 to 14) (size 15 to 20)
#    0.000    1.000    2.500    2.250   10.500    2.500 
#    0.000    0.000    0.000    0.000    0.000    0.000 
#    0.000    0.000    0.000    0.000    0.000    0.000 
#
# Total GULP energy -89166.145228 kJ/mol
# GULP energy per Si atom -5572.884077 kJ/mol
# Density = 2.176602 g / cm^3
# Si number density = 21.815670 Si / 1000 Ang^3
#
#
#
# Elastic Constant Matrix: (Units=GPa)
#
#
# Indices 1 2 3 4 5 6 
#
# 1 68.6866 42.4843 -1.7684 -13.1078 16.4546 -10.0920
# 2 42.4843 123.7722 19.6346 0.7796 3.5406 -11.2771
# 3 -1.7684 19.6346 80.3652 2.5577 6.6006 0.1465
# 4 -13.1078 0.7796 2.5577 31.9479 2.8385 0.6129
# 5 16.4546 3.5406 6.6006 2.8385 35.9177 -0.3263
# 6 -10.0920 -11.2771 0.1465 0.6129 -0.3263 25.0335
#
#
#
# Elastic Compliance Matrix: (Units=1/GPa)
#
#
# Indices 1 2 3 4 5 6 
#
# 1 0.026158 -0.008659 0.003344 0.011678 -0.012611 0.006174
# 2 -0.008659 0.011656 -0.003223 -0.003948 0.003740 0.001924
# 3 0.003344 -0.003223 0.013592 0.000702 -0.003770 -0.000250
# 4 0.011678 -0.003948 0.000702 0.036805 -0.007981 0.001920
# 5 -0.012611 0.003740 -0.003770 -0.007981 0.034549 -0.002731
# 6 0.006174 0.001924 -0.000250 0.001920 -0.002731 0.043221
#
#
# Mechanical properties :
#
#
# Convention : Reuss Voigt Hill
#
# Bulk Modulus (GPa) = 29.12998 43.72499 36.42749
# Shear Modulus (GPa) = 25.70683 32.74473 29.22578
#
# Velocity S-wave (km/s) = 3.43646 3.87844 3.66412
# Velocity P-wave (km/s) = 5.39698 6.33584 5.88516
#
# Compressibility (1/GPa) = 0.03432890
#
# Stress axis : x y z
#
# Youngs Moduli (GPa) = 38.22947 85.79150 73.57258
#
# Poissons Ratio (x) = 0.74289 -0.24603
# Poissons Ratio (y) = 0.33104 0.23715
# Poissons Ratio (z) = -0.12784 0.27654
#
# Static dielectric constant tensor:
#      x y z
#    x 1.858090 0.072090 0.016270 
#    y 0.072090 1.875520 0.009120 
#    z 0.016270 0.009120 1.863250 
# 
# From -- ./inp_files/12792.got.cif
#   From: 2010.05.17/outbox.ucp.g08.bks.cvg/sg2_7_cif.got.tgz:12792.got - 2010.06.11 11:32:03.
