data_PCOD9073811
_publ_section_title
;
Structure prediction by ZEFSAII (Michael W. Deem and Ramdas Pophale) SiO2 
 PCOD9073811
Probable space group: P -1
;
_chemical_formula_sum "Si O2"
_cell_formula_units_Z 16
_cell_length_a 15.000000
_cell_length_b 15.000000
_cell_length_c 9.000000
_cell_angle_alpha 90.000000
_cell_angle_beta 110.000000
_cell_angle_gamma 30.000000
_cell_volume 738.562284
_symmetry_space_group_name_H-M "P -1"
_symmetry_group_IT_number 2
_symmetry_cell_setting 'triclinic'
loop_
_space_group_symop_operation_xyz
x,y,z
-x,-y,-z
loop_
_atom_site_type_symbol
_atom_site_label
_atom_site_fract_x
_atom_site_fract_y
_atom_site_fract_z
Si Si1 0.506276 0.301342 0.327712
Si Si2 0.715126 0.139858 0.756098
Si Si3 0.013907 0.093577 0.551217
Si Si4 0.760404 0.488026 0.318128
Si Si5 0.175388 0.745168 0.219810
Si Si6 0.213011 0.385978 0.161936
Si Si7 0.080134 0.326785 0.721887
Si Si8 0.571692 0.813039 0.026964
O O1 0.663666 0.141181 0.565745
O O2 0.404351 0.487041 0.304916
O O3 0.273183 0.439179 0.178061
O O4 0.699351 0.132157 0.304582
O O5 0.479584 0.319746 0.718717
O O6 0.751704 0.214805 0.757690
O O7 0.957997 0.905068 0.984788
O O8 0.870754 0.291444 0.368389
O O9 0.913743 0.191701 0.661470
O O10 0.000000 0.000000 0.500000
O O11 0.671548 0.629430 0.133268
O O12 0.961695 0.373044 0.521057
O O13 0.147849 0.446968 0.302084
O O14 0.407428 0.188799 0.141265
O O15 0.000000 0.500000 0.000000
O O16 0.243481 0.274666 0.791542
O O17 0.291722 0.078216 0.912335
#
# Coordination Sequence:
#
# PCOD9073811 Si02
#       8
#     2   2   2   2   2   2   2   2
#     4  12  23  44  71  93 134 183 220 276 342 395
#     4  11  24  42  69  95 131 174 226 275 337 399
#     4  12  25  44  71  97 138 181 222 280 343 399
#     4  12  24  41  69 101 135 174 228 275 332 405
#     4  11  25  48  65  96 135 176 228 282 333 407
#     4  10  22  41  66  98 132 173 221 270 330 400
#     4  10  21  46  69  93 136 181 212 278 341 393
#     4  10  24  42  68 100 135 172 226 274 334 400
#
# _framework density 21.663710999999999
#
# number of rings (size 3 to 8) (size 9 to 14) (size 15 to 20)
#    0.000    1.000    3.750    2.250    5.250    1.000 
#    0.000    1.875    0.000    8.250    0.000    0.000 
#    0.000    0.000    0.000    0.000    0.000    0.000 
#
# Total GULP energy -89074.134838 kJ/mol
# GULP energy per Si atom -5567.133427 kJ/mol
# Density = 2.161440 g / cm^3
# Si number density = 21.663711 Si / 1000 Ang^3
#
#
#
# Elastic Constant Matrix: (Units=GPa)
#
#
# Indices 1 2 3 4 5 6 
#
# 1 97.3976 11.9839 26.3369 -11.5777 2.4275 0.2730
# 2 11.9839 72.2528 16.0058 -5.5156 -11.5097 -6.0399
# 3 26.3369 16.0058 88.4960 -12.8191 2.9858 6.3094
# 4 -11.5777 -5.5156 -12.8191 28.4604 2.5350 5.1383
# 5 2.4275 -11.5097 2.9858 2.5350 33.1311 -4.1886
# 6 0.2730 -6.0399 6.3094 5.1383 -4.1886 45.5423
#
#
#
# Elastic Compliance Matrix: (Units=1/GPa)
#
#
# Indices 1 2 3 4 5 6 
#
# 1 0.011590 -0.001330 -0.002631 0.003468 -0.001390 -0.000400
# 2 -0.001330 0.015975 -0.002908 0.000126 0.006291 0.003094
# 3 -0.002631 -0.002908 0.013705 0.005360 -0.002859 -0.003136
# 4 0.003468 0.000126 0.005360 0.040421 -0.004510 -0.005722
# 5 -0.001390 0.006291 -0.002859 -0.004510 0.033686 0.004846
# 6 -0.000400 0.003094 -0.003136 -0.005722 0.004846 0.023896
#
#
# Mechanical properties :
#
#
# Convention : Reuss Voigt Hill
#
# Bulk Modulus (GPa) = 36.31943 40.75552 38.53747
# Shear Modulus (GPa) = 30.82809 35.01473 32.92141
#
# Velocity S-wave (km/s) = 3.77640 4.02467 3.90251
# Velocity P-wave (km/s) = 5.98468 6.36010 6.17525
#
# Compressibility (1/GPa) = 0.02753347
#
# Stress axis : x y z
#
# Youngs Moduli (GPa) = 86.27919 62.59593 72.96347
#
# Poissons Ratio (x) = 0.08323 0.19197
# Poissons Ratio (y) = 0.11472 0.21219
# Poissons Ratio (z) = 0.22700 0.18204
#
# Static dielectric constant tensor:
#      x y z
#    x 1.799910 0.011580 -0.022390 
#    y 0.011580 1.808360 0.023450 
#    z -0.022390 0.023450 1.853420 
# 
# From -- ./inp_files/315275.got.cif
#   From: 2010.05.17/outbox.ucp.g08.bks.cvg/sg2_158_cif.got.tgz:315275.got - 2010.06.11 11:32:03.
