data_PCOD9073848
_publ_section_title
;
Structure prediction by ZEFSAII (Michael W. Deem and Ramdas Pophale) SiO2 
 PCOD9073848
Probable space group: P -1
;
_chemical_formula_sum "Si O2"
_cell_formula_units_Z 16
_cell_length_a 12.000000
_cell_length_b 18.000000
_cell_length_c 21.000000
_cell_angle_alpha 20.000000
_cell_angle_beta 150.000000
_cell_angle_gamma 150.000000
_cell_volume 738.640068
_symmetry_space_group_name_H-M "P -1"
_symmetry_group_IT_number 2
_symmetry_cell_setting 'triclinic'
loop_
_space_group_symop_operation_xyz
x,y,z
-x,-y,-z
loop_
_atom_site_type_symbol
_atom_site_label
_atom_site_fract_x
_atom_site_fract_y
_atom_site_fract_z
Si Si1 0.792905 0.668350 0.950322
Si Si2 0.240191 0.934684 0.135681
Si Si3 0.139306 0.514523 0.160252
Si Si4 0.066383 0.832567 0.762503
Si Si5 0.861042 0.622394 0.285435
Si Si6 0.406225 0.202333 0.374870
Si Si7 0.419082 0.321679 0.544878
Si Si8 0.411724 0.172074 0.166408
O O1 0.703119 0.816341 0.734618
O O2 0.792011 0.778639 0.930412
O O3 0.603116 0.417978 0.057261
O O4 0.022888 0.623069 0.071577
O O5 0.349960 0.052218 0.163349
O O6 0.396866 0.810461 0.275801
O O7 0.194166 0.147041 0.904337
O O8 0.018645 0.729635 0.215787
O O9 0.358142 0.455372 0.346440
O O10 0.955647 0.283050 0.225351
O O11 0.186760 0.694073 0.980974
O O12 0.799154 0.773683 0.700324
O O13 0.185913 0.102204 0.614004
O O14 0.625479 0.429303 0.305487
O O15 0.000000 0.500000 0.500000
O O16 0.484995 0.992455 0.607647
O O17 0.500000 0.500000 0.500000
#
# Coordination Sequence:
#
# PCOD9073848 Si02
#       8
#     2   2   2   2   2   2   2   2
#     4  10  22  37  62 100 137 163 222 278 334 399
#     4  11  25  44  67  93 132 181 225 265 337 413
#     4  10  22  42  70 102 131 183 227 282 335 401
#     4  10  23  42  75 100 131 181 235 279 334 407
#     4  11  24  43  68  97 130 175 225 278 334 399
#     4  11  21  41  66 100 130 169 224 279 334 390
#     4  12  27  47  68 101 143 181 224 283 344 408
#     4  11  20  37  65  93 130 173 212 278 332 393
#
# _framework density 21.661429999999999
#
# number of rings (size 3 to 8) (size 9 to 14) (size 15 to 20)
#    0.000    1.250    2.500    3.000    3.500    2.500 
#    6.750    0.000    0.000    0.000    0.000    0.000 
#    0.000    0.000    0.000    0.000    0.000    0.000 
#
# Total GULP energy -89395.571688 kJ/mol
# GULP energy per Si atom -5587.223230 kJ/mol
# Density = 2.161213 g / cm^3
# Si number density = 21.661430 Si / 1000 Ang^3
#
#
#
# Elastic Constant Matrix: (Units=GPa)
#
#
# Indices 1 2 3 4 5 6 
#
# 1 82.5658 20.9852 34.5462 1.8372 23.8214 -20.6296
# 2 20.9852 64.4477 17.0547 1.9608 -0.2558 -18.2278
# 3 34.5462 17.0547 162.6778 9.2121 1.0311 -16.5791
# 4 1.8372 1.9608 9.2121 21.2463 2.0564 7.2029
# 5 23.8214 -0.2558 1.0311 2.0564 34.8264 -5.9734
# 6 -20.6296 -18.2278 -16.5791 7.2029 -5.9734 37.6701
#
#
#
# Elastic Compliance Matrix: (Units=1/GPa)
#
#
# Indices 1 2 3 4 5 6 
#
# 1 0.019265 -0.003941 -0.002997 -0.000706 -0.012126 0.005537
# 2 -0.003941 0.019510 -0.000048 -0.004922 0.004664 0.008942
# 3 -0.002997 -0.000048 0.007279 -0.004060 0.002540 0.002718
# 4 -0.000706 -0.004922 -0.004060 0.055290 -0.005440 -0.015990
# 5 -0.012126 0.004664 0.002540 -0.005440 0.037938 0.003790
# 6 0.005537 0.008942 0.002718 -0.015990 0.003790 0.038760
#
#
# Mechanical properties :
#
#
# Convention : Reuss Voigt Hill
#
# Bulk Modulus (GPa) = 31.16942 50.54039 40.85490
# Shear Modulus (GPa) = 24.66611 34.55559 29.61085
#
# Velocity S-wave (km/s) = 3.37814 3.99840 3.70129
# Velocity P-wave (km/s) = 5.44393 6.68572 6.09653
#
# Compressibility (1/GPa) = 0.03208272
#
# Stress axis : x y z
#
# Youngs Moduli (GPa) = 51.90885 51.25682 137.37349
#
# Poissons Ratio (x) = 0.20198 0.41168
# Poissons Ratio (y) = 0.20455 0.00660
# Poissons Ratio (z) = 0.15556 0.00246
#
# Static dielectric constant tensor:
#      x y z
#    x 1.818960 0.028340 0.011390 
#    y 0.028340 1.799400 0.039270 
#    z 0.011390 0.039270 1.802550 
# 
# From -- ./inp_files/595978.got.cif
#   From: 2010.05.17/outbox.ucp.g08.bks.cvg/sg2_298_cif.got.tgz:595978.got - 2010.06.11 11:32:03.
