data_PCOD9073656
_publ_section_title
;
Structure prediction by ZEFSAII (Michael W. Deem and Ramdas Pophale) SiO2 
 PCOD9073656
Probable space group: P -1
;
_chemical_formula_sum "Si O2"
_cell_formula_units_Z 14
_cell_length_a 12.000000
_cell_length_b 9.000000
_cell_length_c 9.000000
_cell_angle_alpha 50.000000
_cell_angle_beta 100.000000
_cell_angle_gamma 70.000000
_cell_volume 585.899798
_symmetry_space_group_name_H-M "P -1"
_symmetry_group_IT_number 2
_symmetry_cell_setting 'triclinic'
loop_
_space_group_symop_operation_xyz
x,y,z
-x,-y,-z
loop_
_atom_site_type_symbol
_atom_site_label
_atom_site_fract_x
_atom_site_fract_y
_atom_site_fract_z
Si Si1 0.770952 0.932798 0.317751
Si Si2 0.761974 0.416017 0.429152
Si Si3 0.734109 0.997751 0.772205
Si Si4 0.543521 0.865120 0.920780
Si Si5 0.144714 0.385701 0.189288
Si Si6 0.251023 0.608128 0.888449
Si Si7 0.974786 0.806733 0.173740
O O1 0.738508 0.175696 0.226618
O O2 0.621981 0.988691 0.212320
O O3 0.855589 0.698425 0.593373
O O4 0.863066 0.893260 0.223362
O O5 0.721927 0.239632 0.585407
O O6 0.622032 0.686095 0.194608
O O7 0.827079 0.340615 0.323366
O O8 0.875327 0.389862 0.583776
O O9 0.609433 0.010112 0.818041
O O10 0.745192 0.870761 0.702549
O O11 0.882756 0.811494 0.014319
O O12 0.604241 0.658257 0.938051
O O13 0.184033 0.566554 0.041182
O O14 0.000000 0.500000 0.000000
O O15 0.000000 0.000000 0.000000
#
# Coordination Sequence:
#
# PCOD9073656 Si02
#       7
#     2   2   2   2   2   2   2
#     4  12  23  41  66  90 129 159 208 253 303 370
#     4   9  19  41  62  90 125 162 197 250 315 348
#     4  10  21  42  62  86 136 154 204 258 299 365
#     4   9  22  39  63  96 119 167 202 250 312 359
#     4  11  23  37  62  98 119 161 207 254 307 362
#     4   9  21  37  63  94 124 157 202 255 307 358
#     4  10  24  41  64  91 121 172 200 251 315 359
#
# _framework density 23.894870999999998
#
# number of rings (size 3 to 8) (size 9 to 14) (size 15 to 20)
#    0.857    1.143    1.429    1.286    4.000    5.714 
#    0.000    2.857    0.000    0.000    0.000    0.000 
#    0.000    0.000    0.000    0.000    0.000    0.000 
#
# Total GULP energy -78098.189952 kJ/mol
# GULP energy per Si atom -5578.442139 kJ/mol
# Density = 2.384049 g / cm^3
# Si number density = 23.894871 Si / 1000 Ang^3
#
#
#
# Elastic Constant Matrix: (Units=GPa)
#
#
# Indices 1 2 3 4 5 6 
#
# 1 169.5315 35.4427 80.2609 -4.4412 -24.6448 7.7470
# 2 35.4427 87.8250 9.8986 19.3255 -30.8503 12.3379
# 3 80.2609 9.8986 100.0340 9.9243 -24.6828 -12.9710
# 4 -4.4412 19.3255 9.9243 16.6175 0.4489 -2.4965
# 5 -24.6448 -30.8503 -24.6828 0.4489 35.6662 -1.3695
# 6 7.7470 12.3379 -12.9710 -2.4965 -1.3695 27.7532
#
#
#
# Elastic Compliance Matrix: (Units=1/GPa)
#
#
# Indices 1 2 3 4 5 6 
#
# 1 0.022784 -0.028101 -0.028798 0.056202 -0.029343 -0.003719
# 2 -0.028101 0.072670 0.044727 -0.122404 0.075518 -0.010843
# 3 -0.028798 0.044727 0.052709 -0.091619 0.056701 0.007346
# 4 0.056202 -0.122404 -0.091619 0.278024 -0.133395 0.014334
# 5 -0.029343 0.075518 0.056701 -0.133395 0.113800 -0.005265
# 6 -0.003719 -0.010843 0.007346 0.014334 -0.005265 0.046353
#
#
# Mechanical properties :
#
#
# Convention : Reuss Voigt Hill
#
# Bulk Modulus (GPa) = 8.07625 67.62167 37.84896
# Shear Modulus (GPa) = 7.66922 31.45993 19.56458
#
# Velocity S-wave (km/s) = 1.79347 3.63243 2.86453
# Velocity P-wave (km/s) = 2.77055 6.77893 5.17831
#
# Compressibility (1/GPa) = 0.12381986
#
# Stress axis : x y z
#
# Youngs Moduli (GPa) = 43.89089 13.76076 18.97208
#
# Poissons Ratio (x) = 0.38669 0.54635
# Poissons Ratio (y) = 1.23336 -0.84856
# Poissons Ratio (z) = 1.26396 -0.61547
#
# Static dielectric constant tensor:
#      x y z
#    x 1.846650 -0.055360 -0.007050 
#    y -0.055360 2.081000 0.008030 
#    z -0.007050 0.008030 1.887060 
# 
# From -- ./inp_files/236758.got.cif
#   From: 2010.05.17/outbox.ucp.g08.bks.cvg/sg2_119_cif.got.tgz:236758.got - 2010.06.11 11:32:03.
