data_PCOD9073184
_publ_section_title
;
Structure prediction by ZEFSAII (Michael W. Deem and Ramdas Pophale) SiO2 
 PCOD9073184
Probable space group: P -1
;
_chemical_formula_sum "Si O2"
_cell_formula_units_Z 16
_cell_length_a 18.000000
_cell_length_b 12.000000
_cell_length_c 21.000000
_cell_angle_alpha 150.000000
_cell_angle_beta 30.000000
_cell_angle_gamma 160.000000
_cell_volume 738.640068
_symmetry_space_group_name_H-M "P -1"
_symmetry_group_IT_number 2
_symmetry_cell_setting 'triclinic'
loop_
_space_group_symop_operation_xyz
x,y,z
-x,-y,-z
loop_
_atom_site_type_symbol
_atom_site_label
_atom_site_fract_x
_atom_site_fract_y
_atom_site_fract_z
Si Si1 0.848608 0.105672 0.404906
Si Si2 0.163055 0.238727 0.320360
Si Si3 0.243242 0.772692 0.586474
Si Si4 0.491310 0.575040 0.132287
Si Si5 0.977721 0.164342 0.654134
Si Si6 0.339489 0.643403 0.156918
Si Si7 0.492083 0.737512 0.596008
Si Si8 0.047210 0.689243 0.814274
O O1 0.805497 0.069941 0.343779
O O2 0.000000 0.500000 0.500000
O O3 0.968857 0.022333 0.302675
O O4 0.623976 0.890514 0.506786
O O5 0.105369 0.406004 0.480606
O O6 0.394288 0.500699 0.237884
O O7 0.162675 0.075388 0.298959
O O8 0.200186 0.731849 0.671646
O O9 0.500000 0.000000 0.500000
O O10 0.341046 0.539500 0.175242
O O11 0.757052 0.955599 0.117147
O O12 0.477648 0.300920 0.987808
O O13 0.231636 0.495350 0.655801
O O14 0.898530 0.323410 0.774027
O O15 0.000000 0.000000 0.500000
O O16 0.119166 0.372114 0.141171
O O17 0.400692 0.967069 0.287245
O O18 0.500000 0.500000 0.500000
#
# Coordination Sequence:
#
# PCOD9073184 Si02
#       8
#     2   2   2   2   2   2   2   2
#     4  10  21  34  61  90 120 159 206 265 315 374
#     4  11  21  39  56  92 126 166 208 258 323 369
#     4  11  19  33  59  91 125 151 208 266 317 365
#     4  11  24  43  70  89 129 167 218 271 303 381
#     4  12  24  38  60  96 134 168 204 261 323 388
#     4  11  24  44  67  96 121 170 223 258 321 374
#     4  12  22  41  63  92 131 165 206 260 320 383
#     4  12  22  41  66  93 126 169 211 263 322 378
#
# _framework density 21.661429999999999
#
# number of rings (size 3 to 8) (size 9 to 14) (size 15 to 20)
#    0.000    0.750    5.000    5.625    0.000    0.000 
#    0.000    1.250    0.000    0.000    0.000    0.000 
#    0.000    0.000    0.000    0.000    0.000    0.000 
#
# Total GULP energy -89073.496304 kJ/mol
# GULP energy per Si atom -5567.093519 kJ/mol
# Density = 2.161213 g / cm^3
# Si number density = 21.661430 Si / 1000 Ang^3
#
#
#
# Elastic Constant Matrix: (Units=GPa)
#
#
# Indices 1 2 3 4 5 6 
#
# 1 128.5152 33.6718 18.6423 5.1067 -7.6531 -14.3049
# 2 33.6718 44.7538 9.6493 -1.9488 -9.6111 -5.9622
# 3 18.6423 9.6493 69.8054 12.0813 -8.7541 -16.5118
# 4 5.1067 -1.9488 12.0813 10.5332 -0.8364 -0.5128
# 5 -7.6531 -9.6111 -8.7541 -0.8364 21.7925 -2.3295
# 6 -14.3049 -5.9622 -16.5118 -0.5128 -2.3295 39.6174
#
#
#
# Elastic Compliance Matrix: (Units=1/GPa)
#
#
# Indices 1 2 3 4 5 6 
#
# 1 0.010332 -0.007655 0.000024 -0.006307 0.000290 0.002524
# 2 -0.007655 0.031923 -0.003067 0.014075 0.010868 0.001583
# 3 0.000024 -0.003067 0.022094 -0.024891 0.007524 0.008876
# 4 -0.006307 0.014075 -0.024891 0.128549 -0.002033 -0.008988
# 5 0.000290 0.010868 0.007524 -0.002033 0.054588 0.008060
# 6 0.002524 0.001583 0.008876 -0.008988 0.008060 0.030448
#
#
# Mechanical properties :
#
#
# Convention : Reuss Voigt Hill
#
# Bulk Modulus (GPa) = 23.28149 40.77790 32.02969
# Shear Modulus (GPa) = 15.94140 26.46269 21.20204
#
# Velocity S-wave (km/s) = 2.71575 3.49900 3.13196
# Velocity P-wave (km/s) = 4.53927 5.93212 5.28181
#
# Compressibility (1/GPa) = 0.04295258
#
# Stress axis : x y z
#
# Youngs Moduli (GPa) = 96.78476 31.32538 45.26103
#
# Poissons Ratio (x) = 0.23980 -0.00107
# Poissons Ratio (y) = 0.74089 0.13882
# Poissons Ratio (z) = -0.00229 0.09608
#
# Static dielectric constant tensor:
#      x y z
#    x 3.834640 1.477780 -2.460810 
#    y 1.477780 3.052430 -1.844470 
#    z -2.460810 -1.844470 4.976810 
# 
# From -- ./inp_files/243433.got.cif
#   From: 2010.05.17/outbox.ucp.g08.bks.cvg/sg2_122_cif.got.tgz:243433.got - 2010.06.11 11:32:03.
