data_PCOD9073554
_publ_section_title
;
Structure prediction by ZEFSAII (Michael W. Deem and Ramdas Pophale) SiO2 
 PCOD9073554
Probable space group: P -1
;
_chemical_formula_sum "Si O2"
_cell_formula_units_Z 16
_cell_length_a 9.000000
_cell_length_b 24.000000
_cell_length_c 9.000000
_cell_angle_alpha 130.000000
_cell_angle_beta 100.000000
_cell_angle_gamma 40.000000
_cell_volume 729.599496
_symmetry_space_group_name_H-M "P -1"
_symmetry_group_IT_number 2
_symmetry_cell_setting 'triclinic'
loop_
_space_group_symop_operation_xyz
x,y,z
-x,-y,-z
loop_
_atom_site_type_symbol
_atom_site_label
_atom_site_fract_x
_atom_site_fract_y
_atom_site_fract_z
Si Si1 0.867953 0.328766 0.398653
Si Si2 0.177403 0.406605 0.147419
Si Si3 0.938595 0.009087 0.833403
Si Si4 0.334399 0.095561 0.288926
Si Si5 0.338445 0.665263 0.900561
Si Si6 0.772993 0.687026 0.701058
Si Si7 0.140331 0.089415 0.517449
Si Si8 0.578250 0.128835 0.549267
O O1 0.564385 0.501846 0.672894
O O2 0.831065 0.280050 0.189383
O O3 0.991114 0.244931 0.428723
O O4 0.102665 0.287983 0.293115
O O5 0.451799 0.351152 0.113163
O O6 0.089683 0.393837 0.253757
O O7 0.881667 0.585019 0.414436
O O8 0.325997 0.292869 0.848217
O O9 0.025511 0.891134 0.600049
O O10 0.574351 0.167497 0.055205
O O11 0.120176 0.973522 0.669345
O O12 0.000000 0.000000 0.000000
O O13 0.353853 0.045943 0.366854
O O14 0.429164 0.136941 0.419606
O O15 0.500000 0.000000 0.000000
O O16 0.103202 0.769876 0.175782
O O17 0.314229 0.961492 0.440894
#
# Coordination Sequence:
#
# PCOD9073554 Si02
#       8
#     2   2   2   2   2   2   2   2
#     4  10  23  45  67  95 140 172 222 272 335 400
#     4  10  21  40  69 102 127 170 222 274 327 394
#     4  12  24  42  67  99 138 176 214 278 340 397
#     4  12  27  44  64  97 134 177 223 280 339 386
#     4  10  22  43  71  99 128 180 218 274 331 409
#     4  10  21  40  67  99 132 169 221 267 336 394
#     4  12  24  41  68  95 129 173 236 269 329 397
#     4  12  24  44  71  98 135 174 229 277 326 404
#
# _framework density 21.929839999999999
#
# number of rings (size 3 to 8) (size 9 to 14) (size 15 to 20)
#    0.000    1.000    2.500    4.500    1.750    1.500 
#    2.250    1.875    0.000    0.000    0.000    0.000 
#    0.000    0.000    0.000    0.000    0.000    0.000 
#
# Total GULP energy -89079.714876 kJ/mol
# GULP energy per Si atom -5567.482180 kJ/mol
# Density = 2.187993 g / cm^3
# Si number density = 21.929840 Si / 1000 Ang^3
#
#
#
# Elastic Constant Matrix: (Units=GPa)
#
#
# Indices 1 2 3 4 5 6 
#
# 1 80.7239 20.2244 48.0520 -16.1216 0.9224 5.3291
# 2 20.2244 52.0216 27.5429 -16.6696 7.2961 -5.0493
# 3 48.0520 27.5429 224.1511 -28.5485 -2.2747 -10.3075
# 4 -16.1216 -16.6696 -28.5485 32.7099 -5.5227 2.1804
# 5 0.9224 7.2961 -2.2747 -5.5227 43.7162 -13.4114
# 6 5.3291 -5.0493 -10.3075 2.1804 -13.4114 25.6782
#
#
#
# Elastic Compliance Matrix: (Units=1/GPa)
#
#
# Indices 1 2 3 4 5 6 
#
# 1 0.016249 -0.004080 -0.002816 0.003676 -0.001271 -0.006281
# 2 -0.004080 0.024866 -0.000835 0.009385 -0.001797 0.003665
# 3 -0.002816 -0.000835 0.005772 0.003328 0.001992 0.003495
# 4 0.003676 0.009385 0.003328 0.040674 0.003989 0.001048
# 5 -0.001271 -0.001797 0.001992 0.003989 0.028488 0.015250
# 6 -0.006281 0.003665 0.003495 0.001048 0.015250 0.050246
#
#
# Mechanical properties :
#
#
# Convention : Reuss Voigt Hill
#
# Bulk Modulus (GPa) = 31.82050 60.94836 46.38443
# Shear Modulus (GPa) = 26.01001 37.82600 31.91801
#
# Velocity S-wave (km/s) = 3.44765 4.15765 3.81919
# Velocity P-wave (km/s) = 5.51272 7.13449 6.37538
#
# Compressibility (1/GPa) = 0.03142628
#
# Stress axis : x y z
#
# Youngs Moduli (GPa) = 61.54045 40.21518 173.24208
#
# Poissons Ratio (x) = 0.16408 0.48778
# Poissons Ratio (y) = 0.25108 0.14471
# Poissons Ratio (z) = 0.17327 0.03359
#
# Static dielectric constant tensor:
#      x y z
#    x 1.906400 -0.034660 0.035180 
#    y -0.034660 1.935760 0.083580 
#    z 0.035180 0.083580 1.795360 
# 
# From -- ./inp_files/226511.got.cif
#   From: 2010.05.17/outbox.ucp.g08.bks.cvg/sg2_114_cif.got.tgz:226511.got - 2010.06.11 11:32:03.
