data_PCOD9073120
_publ_section_title
;
Structure prediction by ZEFSAII (Michael W. Deem and Ramdas Pophale) SiO2 
 PCOD9073120
Probable space group: P -1
;
_chemical_formula_sum "Si O2"
_cell_formula_units_Z 16
_cell_length_a 9.000000
_cell_length_b 12.000000
_cell_length_c 12.000000
_cell_angle_alpha 40.000000
_cell_angle_beta 100.000000
_cell_angle_gamma 100.000000
_cell_volume 818.705536
_symmetry_space_group_name_H-M "P -1"
_symmetry_group_IT_number 2
_symmetry_cell_setting 'triclinic'
loop_
_space_group_symop_operation_xyz
x,y,z
-x,-y,-z
loop_
_atom_site_type_symbol
_atom_site_label
_atom_site_fract_x
_atom_site_fract_y
_atom_site_fract_z
Si Si1 0.660433 0.850115 0.843310
Si Si2 0.821118 0.967257 0.001147
Si Si3 0.677464 0.465320 0.078469
Si Si4 0.143577 0.052811 0.625656
Si Si5 0.348800 0.681057 0.268315
Si Si6 0.308330 0.296828 0.624536
Si Si7 0.795533 0.115285 0.476783
Si Si8 0.680326 0.252931 0.038659
O O1 0.480506 0.828253 0.868429
O O2 0.691713 0.994685 0.639991
O O3 0.753083 0.906871 0.920783
O O4 0.725341 0.662286 0.967175
O O5 0.773474 0.818740 0.200027
O O6 0.747470 0.151453 0.865167
O O7 0.000000 0.000000 0.000000
O O8 0.725794 0.305397 0.290983
O O9 0.739938 0.401905 0.017702
O O10 0.500000 0.500000 0.000000
O O11 0.248884 0.211466 0.566885
O O12 0.969078 0.109577 0.553601
O O13 0.190118 0.986420 0.560663
O O14 0.193887 0.891255 0.834021
O O15 0.283684 0.502364 0.454196
O O16 0.513709 0.718799 0.316140
O O17 0.360741 0.665383 0.147642
#
# Coordination Sequence:
#
# PCOD9073120 Si02
#       8
#     2   2   2   2   2   2   2   2
#     4  11  23  40  65  93 129 169 207 262 320 372
#     4  12  25  42  65  94 133 169 210 265 321 378
#     4   9  22  40  62  95 125 161 208 258 311 371
#     4  10  21  41  66  90 131 165 213 260 318 377
#     4  11  24  42  66  96 125 168 224 262 309 382
#     4  11  23  42  68  96 122 173 215 264 317 373
#     4  10  23  42  61  97 128 166 209 262 313 382
#     4  10  20  42  65  92 128 164 215 264 309 379
#
# _framework density 19.543046
#
# number of rings (size 3 to 8) (size 9 to 14) (size 15 to 20)
#    0.000    1.500    2.500    1.875    1.750    7.000 
#    4.500    1.875    0.000    0.000    0.000    0.000 
#    0.000    0.000    0.000    0.000    0.000    0.000 
#
# Total GULP energy -89149.447418 kJ/mol
# GULP energy per Si atom -5571.840464 kJ/mol
# Density = 1.949857 g / cm^3
# Si number density = 19.543046 Si / 1000 Ang^3
#
#
#
# Elastic Constant Matrix: (Units=GPa)
#
#
# Indices 1 2 3 4 5 6 
#
# 1 80.4032 24.1184 67.3187 -9.4825 14.2635 3.3562
# 2 24.1184 101.4390 53.3923 -7.9211 4.8364 7.5336
# 3 67.3187 53.3923 178.5087 -13.8365 11.3864 3.8132
# 4 -9.4825 -7.9211 -13.8365 35.1574 2.8223 8.3280
# 5 14.2635 4.8364 11.3864 2.8223 33.8853 3.1364
# 6 3.3562 7.5336 3.8132 8.3280 3.1364 16.3619
#
#
#
# Elastic Compliance Matrix: (Units=1/GPa)
#
#
# Indices 1 2 3 4 5 6 
#
# 1 0.019716 -0.000411 -0.006558 0.003874 -0.006069 -0.003135
# 2 -0.000411 0.012324 -0.003157 0.002933 -0.000185 -0.006312
# 3 -0.006558 -0.003157 0.009096 0.001065 0.000054 0.000126
# 4 0.003874 0.002933 0.001065 0.035544 -0.003534 -0.019808
# 5 -0.006069 -0.000185 0.000054 -0.003534 0.032660 -0.003144
# 6 -0.003135 -0.006312 0.000126 -0.019808 -0.003144 0.075322
#
#
# Mechanical properties :
#
#
# Convention : Reuss Voigt Hill
#
# Bulk Modulus (GPa) = 47.88490 72.22331 60.05411
# Shear Modulus (GPa) = 23.59883 31.44902 27.52392
#
# Velocity S-wave (km/s) = 3.47872 4.01586 3.75690
# Velocity P-wave (km/s) = 6.37894 7.65108 7.04379
#
# Compressibility (1/GPa) = 0.02088341
#
# Stress axis : x y z
#
# Youngs Moduli (GPa) = 50.72118 81.14029 109.94176
#
# Poissons Ratio (x) = 0.03337 0.72097
# Poissons Ratio (y) = 0.02086 0.34710
# Poissons Ratio (z) = 0.33262 0.25617
#
# Static dielectric constant tensor:
#      x y z
#    x 1.689780 -0.007010 -0.007050 
#    y -0.007010 1.762620 -0.004370 
#    z -0.007050 -0.004370 1.678750 
# 
# From -- ./inp_files/388869.got.cif
#   From: 2010.05.17/outbox.ucp.g08.bks.cvg/sg2_195_cif.got.tgz:388869.got - 2010.06.11 11:32:03.
