data_PCOD9073641
_publ_section_title
;
Structure prediction by ZEFSAII (Michael W. Deem and Ramdas Pophale) SiO2 
 PCOD9073641
Probable space group: P -1
;
_chemical_formula_sum "Si O2"
_cell_formula_units_Z 16
_cell_length_a 15.000000
_cell_length_b 12.000000
_cell_length_c 9.000000
_cell_angle_alpha 100.000000
_cell_angle_beta 90.000000
_cell_angle_gamma 150.000000
_cell_volume 759.581896
_symmetry_space_group_name_H-M "P -1"
_symmetry_group_IT_number 2
_symmetry_cell_setting 'triclinic'
loop_
_space_group_symop_operation_xyz
x,y,z
-x,-y,-z
loop_
_atom_site_type_symbol
_atom_site_label
_atom_site_fract_x
_atom_site_fract_y
_atom_site_fract_z
Si Si1 0.273201 0.892579 0.922406
Si Si2 0.128600 0.618432 0.302644
Si Si3 0.495359 0.952245 0.764506
Si Si4 0.510306 0.643715 0.977210
Si Si5 0.827395 0.530588 0.523065
Si Si6 0.202716 0.960570 0.468368
Si Si7 0.613792 0.443878 0.739541
Si Si8 0.607194 0.676027 0.679116
O O1 0.374109 0.926580 0.805806
O O2 0.053525 0.612657 0.852843
O O3 0.389028 0.979758 0.087245
O O4 0.309322 0.068493 0.947553
O O5 0.100493 0.506790 0.417500
O O6 0.153297 0.777140 0.380380
O O7 0.335387 0.818931 0.287414
O O8 0.347065 0.698279 0.635768
O O9 0.483431 0.600205 0.788910
O O10 0.500000 0.500000 0.000000
O O11 0.381945 0.563218 0.082848
O O12 0.741263 0.507134 0.652219
O O13 0.011650 0.790860 0.507534
O O14 0.394269 0.184596 0.621385
O O15 0.250164 0.080237 0.344031
O O16 0.683520 0.649799 0.754435
O O17 0.500000 0.500000 0.500000
#
# Coordination Sequence:
#
# PCOD9073641 Si02
#       8
#     2   2   2   2   2   2   2   2
#     4  11  24  41  64  95 136 174 217 274 334 393
#     4  12  23  39  66  94 135 177 218 272 327 397
#     4  11  24  40  62  98 135 176 221 269 335 391
#     4  10  21  41  69  95 125 173 224 270 328 391
#     4  12  24  38  67 101 135 176 224 268 335 396
#     4  11  22  39  67  96 136 175 222 273 328 397
#     4  10  22  41  68  94 135 174 225 275 327 391
#     4   9  21  41  68  95 124 179 223 271 337 392
#
# _framework density 21.064219999999999
#
# number of rings (size 3 to 8) (size 9 to 14) (size 15 to 20)
#    0.000    1.250    2.500    3.375    3.500    0.500 
#    0.000    0.000    2.750   15.750    0.000    0.000 
#    0.000    0.000    0.000    0.000    0.000    0.000 
#
# Total GULP energy -89189.665384 kJ/mol
# GULP energy per Si atom -5574.354086 kJ/mol
# Density = 2.101628 g / cm^3
# Si number density = 21.064220 Si / 1000 Ang^3
#
#
#
# Elastic Constant Matrix: (Units=GPa)
#
#
# Indices 1 2 3 4 5 6 
#
# 1 66.2007 38.8905 28.5919 0.5407 -16.4422 -6.4657
# 2 38.8905 135.9820 42.5558 -18.2531 -3.0320 0.0943
# 3 28.5919 42.5558 108.2299 -18.3616 -18.2076 7.3916
# 4 0.5407 -18.2531 -18.3616 42.1708 7.7675 -4.4166
# 5 -16.4422 -3.0320 -18.2076 7.7675 37.6354 -1.5768
# 6 -6.4657 0.0943 7.3916 -4.4166 -1.5768 47.7962
#
#
#
# Elastic Compliance Matrix: (Units=1/GPa)
#
#
# Indices 1 2 3 4 5 6 
#
# 1 0.022714 -0.006028 -0.003280 -0.005663 0.009161 0.003371
# 2 -0.006028 0.010298 -0.002376 0.004183 -0.003825 -0.000208
# 3 -0.003280 -0.002376 0.012369 0.003546 0.003548 -0.001907
# 4 -0.005663 0.004183 0.003546 0.028404 -0.006238 0.001096
# 5 0.009161 -0.003825 0.003548 -0.006238 0.033320 0.001221
# 6 0.003371 -0.000208 -0.001907 0.001096 0.001221 0.021815
#
#
# Mechanical properties :
#
#
# Convention : Reuss Voigt Hill
#
# Bulk Modulus (GPa) = 45.42924 58.94321 52.18623
# Shear Modulus (GPa) = 31.32319 38.87880 35.10099
#
# Velocity S-wave (km/s) = 3.86039 4.30085 4.08656
# Velocity P-wave (km/s) = 6.44081 7.25992 6.86260
#
# Compressibility (1/GPa) = 0.02201225
#
# Stress axis : x y z
#
# Youngs Moduli (GPa) = 44.02543 97.10751 80.84557
#
# Poissons Ratio (x) = 0.58535 0.26519
# Poissons Ratio (y) = 0.26538 0.19212
# Poissons Ratio (z) = 0.14441 0.23077
#
# Static dielectric constant tensor:
#      x y z
#    x 1.799490 -0.011560 -0.004340 
#    y -0.011560 1.778140 -0.064420 
#    z -0.004340 -0.064420 1.840980 
# 
# From -- ./inp_files/307753.got.cif
#   From: 2010.05.17/outbox.ucp.g08.bks.cvg/sg2_154_cif.got.tgz:307753.got - 2010.06.11 11:32:03.
