data_PCOD9073585
_publ_section_title
;
Structure prediction by ZEFSAII (Michael W. Deem and Ramdas Pophale) SiO2 
 PCOD9073585
Probable space group: P -1
;
_chemical_formula_sum "Si O2"
_cell_formula_units_Z 16
_cell_length_a 11.025814
_cell_length_b 10.306291
_cell_length_c 9.649694
_cell_angle_alpha 41.297357
_cell_angle_beta 122.548663
_cell_angle_gamma 120.149764
_cell_volume 600.467841
_symmetry_space_group_name_H-M "P -1"
_symmetry_group_IT_number 2
_symmetry_cell_setting 'triclinic'
loop_
_space_group_symop_operation_xyz
x,y,z
-x,-y,-z
loop_
_atom_site_type_symbol
_atom_site_label
_atom_site_fract_x
_atom_site_fract_y
_atom_site_fract_z
Si Si1 0.838144 0.700948 0.624383
Si Si2 0.635214 0.750083 0.236425
Si Si3 0.575225 0.113839 0.586771
Si Si4 0.027507 0.614730 0.182150
Si Si5 0.811472 0.404264 0.407584
Si Si6 0.122552 0.925892 0.496803
Si Si7 0.626006 0.109044 0.128093
Si Si8 0.151157 0.024049 0.990807
O O1 0.687496 0.647054 0.487466
O O2 0.920712 0.516362 0.802531
O O3 0.952094 0.863823 0.476291
O O4 0.828746 0.832361 0.651517
O O5 0.645598 0.981794 0.106641
O O6 0.471553 0.720326 0.098301
O O7 0.768843 0.769497 0.193924
O O8 0.641294 0.339493 0.399048
O O9 0.714948 0.027661 0.796664
O O10 0.500000 0.000000 0.500000
O O11 0.463710 0.056070 0.689691
O O12 0.107100 0.573140 0.411181
O O13 0.092900 0.838558 0.003130
O O14 0.863701 0.558612 0.189326
O O15 0.851002 0.201505 0.519547
O O16 0.221013 0.834702 0.745191
O O17 0.000000 0.000000 0.000000
#
# Coordination Sequence:
#
# PCOD9073585 Si02
#       8
#     2   2   2   2   2   2   2   2
#     4   9  18  31  55  82 104 142 187 230 267 319
#     4   9  19  32  53  79 110 145 184 220 271 340
#     4  10  18  31  55  85 105 140 189 230 263 328
#     4   9  19  33  52  82 115 141 177 239 279 319
#     4   9  17  29  53  79 108 139 177 228 274 313
#     4   9  16  29  53  82 104 138 187 223 262 330
#     4   9  17  32  50  79 110 145 183 218 271 325
#     4  10  22  34  55  85 109 143 189 230 278 333
#
# _framework density 26.645890999999999
#
# number of rings (size 3 to 8) (size 9 to 14) (size 15 to 20)
#    0.000    2.750    1.250    0.000    8.750    0.000 
#    0.000    0.000    0.000   63.000    0.000    0.000 
#    0.000    0.000    0.000    0.000    0.000    0.000 
#
# Total GULP energy -89082.628522 kJ/mol
# GULP energy per Si atom -5567.664283 kJ/mol
# Density = 2.658524 g / cm^3
# Si number density = 26.645891 Si / 1000 Ang^3
#
#
#
# Elastic Constant Matrix: (Units=GPa)
#
#
# Indices 1 2 3 4 5 6 
#
# 1 89.3402 -0.8878 32.6215 0.5722 4.2768 5.3856
# 2 -0.8878 79.3850 32.3159 15.3782 3.5490 -4.8225
# 3 32.6215 32.3159 74.2337 23.4247 0.3713 9.4917
# 4 0.5722 15.3782 23.4247 43.3145 10.1966 2.1470
# 5 4.2768 3.5490 0.3713 10.1966 41.6468 -5.1007
# 6 5.3856 -4.8225 9.4917 2.1470 -5.1007 52.9459
#
#
#
# Elastic Compliance Matrix: (Units=1/GPa)
#
#
# Indices 1 2 3 4 5 6 
#
# 1 0.014681 0.003195 -0.009181 0.004283 -0.002746 0.000005
# 2 0.003195 0.016561 -0.008581 -0.001166 -0.001051 0.002668
# 3 -0.009181 -0.008581 0.025200 -0.011167 0.003748 -0.003551
# 4 0.004283 -0.001166 -0.011167 0.031395 -0.007999 -0.000584
# 5 -0.002746 -0.001051 0.003748 -0.007999 0.026602 0.002399
# 6 0.000005 0.002668 -0.003551 -0.000584 0.002399 0.020021
#
#
# Mechanical properties :
#
#
# Convention : Reuss Voigt Hill
#
# Bulk Modulus (GPa) = 36.61984 41.22869 38.92426
# Shear Modulus (GPa) = 28.95258 39.50873 34.23066
#
# Velocity S-wave (km/s) = 3.29989 3.85480 3.58809
# Velocity P-wave (km/s) = 5.31902 5.94299 5.63964
#
# Compressibility (1/GPa) = 0.02730760
#
# Stress axis : x y z
#
# Youngs Moduli (GPa) = 68.11617 60.38392 39.68253
#
# Poissons Ratio (x) = -0.19292 0.36431
# Poissons Ratio (y) = -0.21762 0.34052
# Poissons Ratio (z) = 0.62535 0.51817
#
# Static dielectric constant tensor:
#      x y z
#    x 2.344600 -0.076680 0.032590 
#    y -0.076680 2.310600 -0.096030 
#    z 0.032590 -0.096030 2.156340 
# 
# From -- ./inp_files/425147.got.cif
#   From: 2010.05.17/outbox.cif.g08.bks.cpg/sg2_213_cif.got.tgz:425147.got - 2010.06.03 11:33:40.
