data_PCOD9073076
_publ_section_title
;
Structure prediction by ZEFSAII (Michael W. Deem and Ramdas Pophale) SiO2 
 PCOD9073076
Probable space group: P -1
;
_chemical_formula_sum "Si O2"
_cell_formula_units_Z 12
_cell_length_a 15.000000
_cell_length_b 15.000000
_cell_length_c 12.000000
_cell_angle_alpha 150.000000
_cell_angle_beta 30.000000
_cell_angle_gamma 150.000000
_cell_volume 597.902827
_symmetry_space_group_name_H-M "P -1"
_symmetry_group_IT_number 2
_symmetry_cell_setting 'triclinic'
loop_
_space_group_symop_operation_xyz
x,y,z
-x,-y,-z
loop_
_atom_site_type_symbol
_atom_site_label
_atom_site_fract_x
_atom_site_fract_y
_atom_site_fract_z
Si Si1 0.809664 0.013736 0.495760
Si Si2 0.057791 0.298896 0.931393
Si Si3 0.131799 0.675411 0.416430
Si Si4 0.635206 0.269209 0.331392
Si Si5 0.672230 0.432231 0.715339
Si Si6 0.881149 0.624820 0.294753
O O1 0.809688 0.127496 0.506004
O O2 0.965985 0.177722 0.589967
O O3 0.887804 0.849083 0.217095
O O4 0.578221 0.900824 0.663978
O O5 0.170165 0.328037 0.721930
O O6 0.115343 0.502140 0.158838
O O7 0.819912 0.213586 0.069831
O O8 0.289332 0.689745 0.357058
O O9 0.905601 0.605623 0.633159
O O10 0.615135 0.317841 0.534902
O O11 0.706908 0.473426 0.401666
O O12 0.500000 0.500000 0.000000
O O13 0.000000 0.500000 0.000000
#
# Coordination Sequence:
#
# PCOD9073076 Si02
#       6
#     2   2   2   2   2   2
#     4  12  22  40  67  93 124 169 204 249 321 364
#     4  10  22  42  62  94 129 162 208 254 307 371
#     4  10  22  41  63  91 130 157 205 268 295 364
#     4  10  23  41  63  95 124 162 214 251 309 372
#     4  10  20  41  66  88 125 166 202 258 314 357
#     4  10  20  43  63  90 134 158 202 268 296 366
#
# _framework density 20.070150999999999
#
# number of rings (size 3 to 8) (size 9 to 14) (size 15 to 20)
#    0.000    1.667    5.000    1.500    0.000    5.333 
#    3.000   11.667    0.000    0.000    0.000    0.000 
#    0.000    0.000    0.000    0.000    0.000    0.000 
#
# Total GULP energy -66961.091792 kJ/mol
# GULP energy per Si atom -5580.090983 kJ/mol
# Density = 2.002447 g / cm^3
# Si number density = 20.070151 Si / 1000 Ang^3
#
#
#
# Elastic Constant Matrix: (Units=GPa)
#
#
# Indices 1 2 3 4 5 6 
#
# 1 116.2207 56.4404 51.4581 -6.5057 -4.0328 -31.0517
# 2 56.4404 116.0197 31.4076 -1.3897 -12.2103 -13.4627
# 3 51.4581 31.4076 66.7405 -5.0395 -22.2838 -20.6757
# 4 -6.5057 -1.3897 -5.0395 20.1538 -5.7797 -6.3889
# 5 -4.0328 -12.2103 -22.2838 -5.7797 39.3734 -0.6194
# 6 -31.0517 -13.4627 -20.6757 -6.3889 -0.6194 27.2127
#
#
#
# Elastic Compliance Matrix: (Units=1/GPa)
#
#
# Indices 1 2 3 4 5 6 
#
# 1 0.019121 -0.005667 -0.007914 0.007632 -0.002926 0.014727
# 2 -0.005667 0.011673 -0.000922 -0.001092 0.002333 -0.001595
# 3 -0.007914 -0.000922 0.040200 0.023346 0.025509 0.027119
# 4 0.007632 -0.001092 0.023346 0.079646 0.026059 0.045199
# 5 -0.002926 0.002333 0.025509 0.026059 0.044467 0.024326
# 6 0.014727 -0.001595 0.027119 0.045199 0.024326 0.084533
#
#
# Mechanical properties :
#
#
# Convention : Reuss Voigt Hill
#
# Bulk Modulus (GPa) = 23.81594 64.17700 43.99647
# Shear Modulus (GPa) = 15.49713 27.99296 21.74505
#
# Velocity S-wave (km/s) = 2.78177 3.73869 3.29515
# Velocity P-wave (km/s) = 4.71272 7.11919 6.03708
#
# Compressibility (1/GPa) = 0.04198869
#
# Stress axis : x y z
#
# Youngs Moduli (GPa) = 52.29892 85.66871 24.87563
#
# Poissons Ratio (x) = 0.48549 0.19687
# Poissons Ratio (y) = 0.29638 0.02292
# Poissons Ratio (z) = 0.41389 0.07895
#
# Static dielectric constant tensor:
#      x y z
#    x 1.776000 -0.048400 0.026800 
#    y -0.048400 1.756050 -0.015360 
#    z 0.026800 -0.015360 1.695230 
# 
# From -- ./inp_files/453446.got.cif
#   From: 2010.05.17/outbox.ucp.g08.bks.cvg/sg2_227_cif.got.tgz:453446.got - 2010.06.11 11:32:03.
