data_PCOD9073813
_publ_section_title
;
Structure prediction by ZEFSAII (Michael W. Deem and Ramdas Pophale) SiO2 
 PCOD9073813
Probable space group: P -1
;
_chemical_formula_sum "Si O2"
_cell_formula_units_Z 14
_cell_length_a 9.000000
_cell_length_b 12.000000
_cell_length_c 9.000000
_cell_angle_alpha 110.000000
_cell_angle_beta 70.000000
_cell_angle_gamma 60.000000
_cell_volume 614.029152
_symmetry_space_group_name_H-M "P -1"
_symmetry_group_IT_number 2
_symmetry_cell_setting 'triclinic'
loop_
_space_group_symop_operation_xyz
x,y,z
-x,-y,-z
loop_
_atom_site_type_symbol
_atom_site_label
_atom_site_fract_x
_atom_site_fract_y
_atom_site_fract_z
Si Si1 0.477974 0.578578 0.707780
Si Si2 0.214118 0.320523 0.908066
Si Si3 0.381672 0.255537 0.132575
Si Si4 0.189452 0.098378 0.179304
Si Si5 0.950201 0.860925 0.075449
Si Si6 0.846109 0.250180 0.599594
Si Si7 0.730004 0.050779 0.525037
O O1 0.500000 0.500000 0.500000
O O2 0.579276 0.659534 0.724799
O O3 0.616880 0.440580 0.731633
O O4 0.217309 0.724059 0.908410
O O5 0.461174 0.178719 0.682674
O O6 0.126946 0.232700 0.910147
O O7 0.250881 0.359537 0.076459
O O8 0.000000 0.500000 0.000000
O O9 0.263851 0.197147 0.205837
O O10 0.612204 0.083999 0.908412
O O11 0.954524 0.206622 0.381736
O O12 0.159826 0.060516 0.009503
O O13 0.826252 0.006399 0.304433
O O14 0.773866 0.157005 0.628458
O O15 0.083798 0.140436 0.559060
#
# Coordination Sequence:
#
# PCOD9073813 Si02
#       7
#     2   2   2   2   2   2   2
#     4  12  26  44  68 109 143 181 235 293 352 407
#     4  11  24  47  69 105 141 180 235 294 355 418
#     4  10  24  43  73 100 140 186 235 290 351 416
#     4  10  21  47  70 101 137 187 237 288 346 419
#     4  11  25  43  72 102 140 186 236 287 349 418
#     4  11  24  43  68 101 142 182 237 283 350 416
#     4  11  25  44  72 102 138 189 235 283 355 424
#
# _framework density 22.800219999999999
#
# number of rings (size 3 to 8) (size 9 to 14) (size 15 to 20)
#    0.000    1.143    2.857    2.143    6.000    2.286 
#    0.000    0.000    0.000    0.000    0.000    0.000 
#    0.000    0.000    0.000    0.000    0.000    0.000 
#
# Total GULP energy -77956.691766 kJ/mol
# GULP energy per Si atom -5568.335126 kJ/mol
# Density = 2.274833 g / cm^3
# Si number density = 22.800220 Si / 1000 Ang^3
#
#
#
# Elastic Constant Matrix: (Units=GPa)
#
#
# Indices 1 2 3 4 5 6 
#
# 1 120.0445 50.9131 46.8350 2.9117 -3.7037 -18.6494
# 2 50.9131 95.4487 22.1090 17.5276 -20.3069 -35.2130
# 3 46.8350 22.1090 85.5994 0.4881 -9.1655 -5.5632
# 4 2.9117 17.5276 0.4881 21.9217 -8.5571 -12.0959
# 5 -3.7037 -20.3069 -9.1655 -8.5571 45.1823 5.8751
# 6 -18.6494 -35.2130 -5.5632 -12.0959 5.8751 35.2481
#
#
#
# Elastic Compliance Matrix: (Units=1/GPa)
#
#
# Indices 1 2 3 4 5 6 
#
# 1 0.013397 -0.006463 -0.005872 0.003201 -0.002551 0.001228
# 2 -0.006463 0.022200 -0.000482 -0.005821 0.006213 0.015649
# 3 -0.005872 -0.000482 0.015231 0.001238 0.002785 -0.001224
# 4 0.003201 -0.005821 0.001238 0.061535 0.007478 0.015944
# 5 -0.002551 0.006213 0.002785 0.007478 0.026243 0.003488
# 6 0.001228 0.015649 -0.001224 0.015944 0.003488 0.049350
#
#
# Mechanical properties :
#
#
# Convention : Reuss Voigt Hill
#
# Bulk Modulus (GPa) = 39.69348 60.08964 49.89156
# Shear Modulus (GPa) = 22.52345 32.55278 27.53812
#
# Velocity S-wave (km/s) = 3.14644 3.78264 3.47911
# Velocity P-wave (km/s) = 5.53598 6.74462 6.16997
#
# Compressibility (1/GPa) = 0.02519305
#
# Stress axis : x y z
#
# Youngs Moduli (GPa) = 74.64375 45.04483 65.65363
#
# Poissons Ratio (x) = 0.29114 0.38554
# Poissons Ratio (y) = 0.48245 0.03165
# Poissons Ratio (z) = 0.43833 0.02172
#
# Static dielectric constant tensor:
#      x y z
#    x 1.861290 -0.056030 0.027110 
#    y -0.056030 2.073390 -0.089730 
#    z 0.027110 -0.089730 1.892800 
# 
# From -- ./inp_files/186575.got.cif
#   From: 2010.05.17/outbox.ucp.g08.bks.cvg/sg2_94_cif.got.tgz:186575.got - 2010.06.11 11:32:03.
