data_PCOD9073562
_publ_section_title
;
Structure prediction by ZEFSAII (Michael W. Deem and Ramdas Pophale) SiO2 
 PCOD9073562
Probable space group: P -1
;
_chemical_formula_sum "Si O2"
_cell_formula_units_Z 16
_cell_length_a 9.000000
_cell_length_b 15.000000
_cell_length_c 21.000000
_cell_angle_alpha 160.000000
_cell_angle_beta 50.000000
_cell_angle_gamma 130.000000
_cell_volume 734.602417
_symmetry_space_group_name_H-M "P -1"
_symmetry_group_IT_number 2
_symmetry_cell_setting 'triclinic'
loop_
_space_group_symop_operation_xyz
x,y,z
-x,-y,-z
loop_
_atom_site_type_symbol
_atom_site_label
_atom_site_fract_x
_atom_site_fract_y
_atom_site_fract_z
Si Si1 0.998366 0.014172 0.350973
Si Si2 0.835829 0.737951 0.761681
Si Si3 0.801179 0.162982 0.951795
Si Si4 0.197305 0.406605 0.051358
Si Si5 0.355858 0.453423 0.835607
Si Si6 0.737631 0.160098 0.345223
Si Si7 0.221682 0.495325 0.251481
Si Si8 0.339965 0.863885 0.230037
O O1 0.823896 0.775470 0.254742
O O2 0.109532 0.967600 0.222699
O O3 0.150438 0.993036 0.351719
O O4 0.925220 0.294852 0.556663
O O5 0.755608 0.432014 0.561447
O O6 0.804699 0.738381 0.846183
O O7 0.069095 0.790376 0.718523
O O8 0.753566 0.943594 0.873515
O O9 0.653819 0.344615 0.085217
O O10 0.972634 0.382988 0.078131
O O11 0.205882 0.388738 0.112652
O O12 0.311189 0.680469 0.177737
O O13 0.253058 0.131599 0.822616
O O14 0.558836 0.346775 0.699150
O O15 0.361664 0.645675 0.023904
O O16 0.523526 0.093069 0.329734
#
# Coordination Sequence:
#
# PCOD9073562 Si02
#       8
#     2   2   2   2   2   2   2   2
#     4  11  22  42  67  98 131 161 209 274 322 376
#     4  10  24  43  62  93 131 173 215 260 308 378
#     4  10  21  45  73  84 126 180 214 252 316 385
#     4  11  21  39  68  97 129 163 212 264 327 372
#     4  11  22  42  67  99 127 168 212 263 325 381
#     4  10  21  40  69  91 120 173 221 254 308 384
#     4  12  26  38  62 100 134 168 208 265 324 366
#     4  11  21  40  69  99 123 166 218 263 319 385
#
# _framework density 21.780488999999999
#
# number of rings (size 3 to 8) (size 9 to 14) (size 15 to 20)
#    0.000    1.250    3.750    3.750    0.000    4.000 
#    2.250    5.625    0.000    0.000    0.000    0.000 
#    0.000    0.000    0.000    0.000    0.000    0.000 
#
# Total GULP energy -89228.182551 kJ/mol
# GULP energy per Si atom -5576.761409 kJ/mol
# Density = 2.173092 g / cm^3
# Si number density = 21.780489 Si / 1000 Ang^3
#
#
#
# Elastic Constant Matrix: (Units=GPa)
#
#
# Indices 1 2 3 4 5 6 
#
# 1 57.5938 32.8740 20.0024 -0.8228 5.2541 2.4903
# 2 32.8740 62.8371 -1.0368 27.6760 1.4671 -20.6405
# 3 20.0024 -1.0368 38.9578 24.9166 -8.5704 3.1163
# 4 -0.8228 27.6760 24.9166 21.0943 10.4197 -1.6269
# 5 5.2541 1.4671 -8.5704 10.4197 26.0135 9.4336
# 6 2.4903 -20.6405 3.1163 -1.6269 9.4336 51.0392
#
#
#
# Elastic Compliance Matrix: (Units=1/GPa)
#
#
# Indices 1 2 3 4 5 6 
#
# 1 0.010896 0.002747 0.010746 -0.021393 0.010749 -0.002746
# 2 0.002747 0.008887 -0.018098 0.019276 -0.017812 0.008472
# 3 0.010746 -0.018098 0.002641 0.024575 -0.008044 -0.005734
# 4 -0.021393 0.019276 0.024575 -0.015397 0.016093 0.003873
# 5 0.010749 -0.017812 -0.008044 0.016093 0.032816 -0.012789
# 6 -0.002746 0.008472 -0.005734 0.003873 -0.012789 0.025990
#
#
# Mechanical properties :
#
#
# Convention : Reuss Voigt Hill
#
# Bulk Modulus (GPa) = 75.68398 29.22975 52.45686
# Shear Modulus (GPa) = 62.93342 26.79935 44.86638
#
# Velocity S-wave (km/s) = 5.38118 3.51155 4.54357
# Velocity P-wave (km/s) = 8.56933 5.46723 7.18763
#
# Compressibility (1/GPa) = 0.01321284
#
# Stress axis : x y z
#
# Youngs Moduli (GPa) = 91.77944 112.51807 378.63798
#
# Poissons Ratio (x) = -0.30904 -4.06877
# Poissons Ratio (y) = -0.25208 6.85261
# Poissons Ratio (z) = -0.98624 2.03636
#
# Static dielectric constant tensor:
#      x y z
#    x 1.925930 0.007650 -0.002330 
#    y 0.007650 1.785400 -0.043670 
#    z -0.002330 -0.043670 1.766550 
# 
# From -- ./inp_files/590514.got.cif
#   From: 2010.05.17/outbox.ucp.g08.bks.cvg/sg2_296_cif.got.tgz:590514.got - 2010.06.11 11:32:03.
