data_PCOD9073103
_publ_section_title
;
Structure prediction by ZEFSAII (Michael W. Deem and Ramdas Pophale) SiO2 
 PCOD9073103
Probable space group: P -1
;
_chemical_formula_sum "Si O2"
_cell_formula_units_Z 14
_cell_length_a 12.000000
_cell_length_b 9.000000
_cell_length_c 18.000000
_cell_angle_alpha 50.000000
_cell_angle_beta 150.000000
_cell_angle_gamma 140.000000
_cell_volume 623.501542
_symmetry_space_group_name_H-M "P -1"
_symmetry_group_IT_number 2
_symmetry_cell_setting 'triclinic'
loop_
_space_group_symop_operation_xyz
x,y,z
-x,-y,-z
loop_
_atom_site_type_symbol
_atom_site_label
_atom_site_fract_x
_atom_site_fract_y
_atom_site_fract_z
Si Si1 0.502507 0.931331 0.936714
Si Si2 0.796740 0.641560 0.590746
Si Si3 0.844911 0.525733 0.207238
Si Si4 0.307394 0.035620 0.325860
Si Si5 0.284796 0.541454 0.670719
Si Si6 0.399311 0.268515 0.697803
Si Si7 0.084828 0.284950 0.195971
O O1 0.381401 0.668685 0.919079
O O2 0.360141 0.028837 0.774904
O O3 0.500000 0.000000 0.000000
O O4 0.818344 0.117131 0.049454
O O5 0.500000 0.500000 0.500000
O O6 0.756461 0.767672 0.457427
O O7 0.955062 0.723324 0.735261
O O8 0.917415 0.516125 0.656790
O O9 0.730034 0.483821 0.239279
O O10 0.026866 0.805825 0.212689
O O11 0.500000 0.000000 0.500000
O O12 0.477266 0.204125 0.301261
O O13 0.250886 0.175427 0.307757
O O14 0.321416 0.368463 0.692611
O O15 0.000000 0.500000 0.500000
O O16 0.713263 0.454146 0.800586
#
# Coordination Sequence:
#
# PCOD9073103 Si02
#       7
#     2   2   2   2   2   2   2
#     4  12  27  45  64 100 143 188 231 279 345 423
#     4  10  20  41  71 103 131 175 236 285 348 398
#     4  12  25  43  68 103 139 182 232 284 352 412
#     4  11  23  43  73 101 141 178 224 298 346 405
#     4  11  22  43  70 105 136 173 232 283 356 406
#     4  10  23  45  71 101 138 181 231 295 341 410
#     4  10  23  46  70  99 140 184 231 284 351 409
#
# _framework density 22.453834000000001
#
# number of rings (size 3 to 8) (size 9 to 14) (size 15 to 20)
#    0.000    1.143    4.286    2.143    2.000    4.571 
#    5.143    1.429    0.000    0.000    0.000    0.000 
#    0.000    0.000    0.000    0.000    0.000    0.000 
#
# Total GULP energy -77935.929123 kJ/mol
# GULP energy per Si atom -5566.852080 kJ/mol
# Density = 2.240273 g / cm^3
# Si number density = 22.453834 Si / 1000 Ang^3
#
#
#
# Elastic Constant Matrix: (Units=GPa)
#
#
# Indices 1 2 3 4 5 6 
#
# 1 171.0837 47.5908 27.0776 -6.7609 -14.6683 11.2379
# 2 47.5908 136.5236 19.5738 18.5596 -7.3594 7.9503
# 3 27.0776 19.5738 74.1179 3.1858 -10.7754 -6.1573
# 4 -6.7609 18.5596 3.1858 42.5251 -9.3203 -4.6037
# 5 -14.6683 -7.3594 -10.7754 -9.3203 31.2380 13.8297
# 6 11.2379 7.9503 -6.1573 -4.6037 13.8297 23.1252
#
#
#
# Elastic Compliance Matrix: (Units=1/GPa)
#
#
# Indices 1 2 3 4 5 6 
#
# 1 0.007888 -0.002106 -0.002092 0.002993 0.006444 -0.006925
# 2 -0.002106 0.009198 -0.001650 -0.004428 0.001115 -0.004126
# 3 -0.002092 -0.001650 0.015347 0.000159 0.001966 0.004526
# 4 0.002993 -0.004428 0.000159 0.027830 0.008458 0.000592
# 5 0.006444 0.001115 0.001966 0.008458 0.053155 -0.033096
# 6 -0.006925 -0.004126 0.004526 0.000592 -0.033096 0.069142
#
#
# Mechanical properties :
#
#
# Convention : Reuss Voigt Hill
#
# Bulk Modulus (GPa) = 48.22563 63.35660 55.79111
# Shear Modulus (GPa) = 24.85481 38.54320 31.69901
#
# Velocity S-wave (km/s) = 3.33066 4.14763 3.76139
# Velocity P-wave (km/s) = 6.02623 7.15644 6.61552
#
# Compressibility (1/GPa) = 0.02073586
#
# Stress axis : x y z
#
# Youngs Moduli (GPa) = 126.78014 108.72320 65.15803
#
# Poissons Ratio (x) = 0.22894 0.13634
# Poissons Ratio (y) = 0.26697 0.10752
# Poissons Ratio (z) = 0.26529 0.17941
#
# Static dielectric constant tensor:
#      x y z
#    x 1.832990 0.108500 0.051340 
#    y 0.108500 0.970320 0.086040 
#    z 0.051340 0.086040 1.928540 
# 
# From -- ./inp_files/345028.got.cif
#   From: 2010.05.17/outbox.ucp.g08.bks.cvg/sg2_173_cif.got.tgz:345028.got - 2010.06.11 11:32:03.
