data_PCOD9073675
_publ_section_title
;
Structure prediction by ZEFSAII (Michael W. Deem and Ramdas Pophale) SiO2 
 PCOD9073675
Probable space group: P -1
;
_chemical_formula_sum "Si O2"
_cell_formula_units_Z 14
_cell_length_a 12.203591
_cell_length_b 8.481875
_cell_length_c 15.453308
_cell_angle_alpha 99.692894
_cell_angle_beta 152.930352
_cell_angle_gamma 87.919970
_cell_volume 694.124723
_symmetry_space_group_name_H-M "P -1"
_symmetry_group_IT_number 2
_symmetry_cell_setting 'triclinic'
loop_
_space_group_symop_operation_xyz
x,y,z
-x,-y,-z
loop_
_atom_site_type_symbol
_atom_site_label
_atom_site_fract_x
_atom_site_fract_y
_atom_site_fract_z
Si Si1 0.061659 0.102972 0.965053
Si Si2 0.221259 0.440541 0.762655
Si Si3 0.375430 0.448495 0.194370
Si Si4 0.640290 0.291376 0.645410
Si Si5 0.111962 0.330075 0.495236
Si Si6 0.012891 0.533355 0.228316
Si Si7 0.077205 0.174044 0.285172
O O1 0.827794 0.179853 0.788717
O O2 0.088627 0.983702 0.894000
O O3 0.299997 0.258422 0.152039
O O4 0.000000 0.000000 0.000000
O O5 0.180527 0.314600 0.641992
O O6 0.051420 0.383819 0.721922
O O7 0.129800 0.597105 0.675160
O O8 0.500000 0.500000 0.000000
O O9 0.319230 0.560897 0.242870
O O10 0.655425 0.529728 0.367991
O O11 0.195230 0.461327 0.988774
O O12 0.355422 0.194227 0.446186
O O13 0.724133 0.374404 0.619602
O O14 0.081239 0.178584 0.392869
O O15 0.004663 0.342860 0.223539
#
# Coordination Sequence:
#
# PCOD9073675 Si02
#       7
#     2   2   2   2   2   2   2
#     4  11  21  33  52  80 118 153 180 220 281 335
#     4  10  18  33  58  86 105 138 193 239 269 317
#     4  10  19  35  55  82 113 145 185 228 269 337
#     4  10  20  34  53  80 114 145 187 225 270 335
#     4   9  20  35  56  85 109 142 188 234 272 324
#     4  10  18  31  56  82 105 146 183 226 278 319
#     4  10  20  34  53  82 117 144 181 230 279 330
#
# _framework density 20.169287000000001
#
# number of rings (size 3 to 8) (size 9 to 14) (size 15 to 20)
#    0.000    2.000    1.429    4.286    0.000    2.286 
#    0.000    0.000    0.000   11.143    0.000    0.000 
#    0.000    0.000    0.000    0.000    0.000    0.000 
#
# Total GULP energy -78154.750210 kJ/mol
# GULP energy per Si atom -5582.482158 kJ/mol
# Density = 2.012338 g / cm^3
# Si number density = 20.169287 Si / 1000 Ang^3
#
#
#
# Elastic Constant Matrix: (Units=GPa)
#
#
# Indices 1 2 3 4 5 6 
#
# 1 144.0488 29.3061 28.5984 9.2242 -34.0007 -11.6367
# 2 29.3061 72.4145 19.9447 11.2769 -14.9346 -8.1320
# 3 28.5984 19.9447 81.4391 -3.1630 -19.2788 -8.0152
# 4 9.2242 11.2769 -3.1630 27.0180 -10.3960 -6.8993
# 5 -34.0007 -14.9346 -19.2788 -10.3960 35.1011 -1.5580
# 6 -11.6367 -8.1320 -8.0152 -6.8993 -1.5580 18.0183
#
#
#
# Elastic Compliance Matrix: (Units=1/GPa)
#
#
# Indices 1 2 3 4 5 6 
#
# 1 0.010189 -0.001605 0.000306 0.003470 0.010749 0.008250
# 2 -0.001605 0.016984 -0.002697 -0.004727 0.002962 0.003875
# 3 0.000306 -0.002697 0.017382 0.010905 0.012457 0.011965
# 4 0.003470 -0.004727 0.010905 0.056089 0.025221 0.028616
# 5 0.010749 0.002962 0.012457 0.025221 0.055729 0.028296
# 6 0.008250 0.003875 0.011965 0.028616 0.028296 0.081303
#
#
# Mechanical properties :
#
#
# Convention : Reuss Voigt Hill
#
# Bulk Modulus (GPa) = 27.34899 50.40009 38.87454
# Shear Modulus (GPa) = 19.39072 30.69769 25.04421
#
# Velocity S-wave (km/s) = 3.10401 3.90552 3.52760
# Velocity P-wave (km/s) = 5.14156 6.73648 5.99232
#
# Compressibility (1/GPa) = 0.03656442
#
# Stress axis : x y z
#
# Youngs Moduli (GPa) = 98.14246 58.87913 57.53080
#
# Poissons Ratio (x) = 0.09450 -0.01762
# Poissons Ratio (y) = 0.15751 0.15515
# Poissons Ratio (z) = -0.03006 0.15878
#
# Static dielectric constant tensor:
#      x y z
#    x 1.759720 0.004540 -0.013880 
#    y 0.004540 1.709080 -0.012290 
#    z -0.013880 -0.012290 1.758790 
# 
# From -- ./inp_files/273374.got.cif
#   From: 2010.05.17/outbox.cif.g08.bks.cpg/sg2_137_cif.got.tgz:273374.got - 2010.06.03 11:33:40.
