data_PCOD9073381
_publ_section_title
;
Structure prediction by ZEFSAII (Michael W. Deem and Ramdas Pophale) SiO2 
 PCOD9073381
Probable space group: P -1
;
_chemical_formula_sum "Si O2"
_cell_formula_units_Z 14
_cell_length_a 13.935611
_cell_length_b 9.439021
_cell_length_c 9.506880
_cell_angle_alpha 91.326876
_cell_angle_beta 95.643562
_cell_angle_gamma 152.651163
_cell_volume 554.761385
_symmetry_space_group_name_H-M "P -1"
_symmetry_group_IT_number 2
_symmetry_cell_setting 'triclinic'
loop_
_space_group_symop_operation_xyz
x,y,z
-x,-y,-z
loop_
_atom_site_type_symbol
_atom_site_label
_atom_site_fract_x
_atom_site_fract_y
_atom_site_fract_z
Si Si1 0.969782 0.560687 0.297120
Si Si2 0.413459 0.530836 0.248098
Si Si3 0.892430 0.706421 0.462887
Si Si4 0.741877 0.061018 0.061791
Si Si5 0.449930 0.603967 0.762567
Si Si6 0.638420 0.042097 0.491247
Si Si7 0.975750 0.110064 0.205532
O O1 0.997045 0.759066 0.350164
O O2 0.802311 0.297435 0.391559
O O3 0.199055 0.789540 0.358955
O O4 0.856984 0.356113 0.135947
O O5 0.562908 0.776043 0.144775
O O6 0.441271 0.399922 0.270685
O O7 0.172067 0.271046 0.187083
O O8 0.508182 0.739704 0.399374
O O9 0.651139 0.424627 0.368447
O O10 0.950463 0.724564 0.627606
O O11 0.000000 0.000000 0.500000
O O12 0.614467 0.898693 0.895370
O O13 0.913097 0.157101 0.096546
O O14 0.238330 0.265759 0.808405
O O15 0.500000 0.000000 0.500000
#
# Coordination Sequence:
#
# PCOD9073381 Si02
#       7
#     2   2   2   2   2   2   2
#     4  10  19  33  52  75 108 139 170 217 264 306
#     4  10  19  33  58  81 104 138 177 222 266 303
#     4  10  20  36  55  77 107 141 176 216 263 315
#     4  10  21  35  54  81 107 138 179 217 260 315
#     4  10  22  36  51  79 113 142 177 211 255 323
#     4  10  18  31  54  83 105 130 174 224 267 305
#     4  10  19  35  58  81 105 135 177 225 263 302
#
# _framework density 25.236076000000001
#
# number of rings (size 3 to 8) (size 9 to 14) (size 15 to 20)
#    0.000    2.000    0.000    7.714    0.000    3.429 
#    0.000    2.857    0.000    0.000    0.000   14.000 
#    0.000    0.000    0.000    0.000    0.000    0.000 
#
# Total GULP energy -78368.335121 kJ/mol
# GULP energy per Si atom -5597.738223 kJ/mol
# Density = 2.517864 g / cm^3
# Si number density = 25.236076 Si / 1000 Ang^3
#
#
#
# Elastic Constant Matrix: (Units=GPa)
#
#
# Indices 1 2 3 4 5 6 
#
# 1 156.7287 42.7261 70.2003 23.8148 -10.5854 30.1266
# 2 42.7261 76.8433 31.5812 16.3086 5.0964 27.1324
# 3 70.2003 31.5812 201.4254 38.0653 -1.3899 -0.3720
# 4 23.8148 16.3086 38.0653 41.4072 -6.4887 11.4172
# 5 -10.5854 5.0964 -1.3899 -6.4887 35.8415 15.1258
# 6 30.1266 27.1324 -0.3720 11.4172 15.1258 43.1865
#
#
#
# Elastic Compliance Matrix: (Units=1/GPa)
#
#
# Indices 1 2 3 4 5 6 
#
# 1 0.010589 -0.001975 -0.003690 0.001819 0.007515 -0.009290
# 2 -0.001975 0.018857 -0.002004 -0.001470 0.000766 -0.010366
# 3 -0.003690 -0.002004 0.007910 -0.007229 -0.004999 0.007563
# 4 0.001819 -0.001470 -0.007229 0.036459 0.013267 -0.014693
# 5 0.007515 0.000766 -0.004999 0.013267 0.042401 -0.024125
# 6 -0.009290 -0.010366 0.007563 -0.014693 -0.024125 0.048548
#
#
# Mechanical properties :
#
#
# Convention : Reuss Voigt Hill
#
# Bulk Modulus (GPa) = 45.41828 80.44584 62.93206
# Shear Modulus (GPa) = 26.67505 43.45301 35.06403
#
# Velocity S-wave (km/s) = 3.25471 4.15403 3.73156
# Velocity P-wave (km/s) = 5.67103 7.41313 6.59982
#
# Compressibility (1/GPa) = 0.02201757
#
# Stress axis : x y z
#
# Youngs Moduli (GPa) = 94.44201 53.03149 126.41539
#
# Poissons Ratio (x) = 0.10475 0.46644
# Poissons Ratio (y) = 0.18654 0.25336
# Poissons Ratio (z) = 0.34846 0.10628
#
# Static dielectric constant tensor:
#      x y z
#    x 2.026640 -0.038300 -0.010810 
#    y -0.038300 2.146060 -0.033790 
#    z -0.010810 -0.033790 1.983240 
# 
# From -- ./inp_files/428931.got.cif
#   From: 2010.05.17/outbox.cif.g08.bks.cpg/sg2_215_cif.got.tgz:428931.got - 2010.06.03 11:33:40.
