data_PCOD9073889
_publ_section_title
;
Structure prediction by ZEFSAII (Michael W. Deem and Ramdas Pophale) SiO2 
 PCOD9073889
Probable space group: P -1
;
_chemical_formula_sum "Si O2"
_cell_formula_units_Z 16
_cell_length_a 18.000000
_cell_length_b 21.000000
_cell_length_c 6.000000
_cell_angle_alpha 70.000000
_cell_angle_beta 110.000000
_cell_angle_gamma 160.000000
_cell_volume 727.418465
_symmetry_space_group_name_H-M "P -1"
_symmetry_group_IT_number 2
_symmetry_cell_setting 'triclinic'
loop_
_space_group_symop_operation_xyz
x,y,z
-x,-y,-z
loop_
_atom_site_type_symbol
_atom_site_label
_atom_site_fract_x
_atom_site_fract_y
_atom_site_fract_z
Si Si1 0.929520 0.503744 0.257153
Si Si2 0.748524 0.563954 0.995167
Si Si3 0.129589 0.783218 0.880105
Si Si4 0.872335 0.808343 0.689674
Si Si5 0.208399 0.501033 0.509097
Si Si6 0.464244 0.805340 0.085217
Si Si7 0.670034 0.852092 0.007512
Si Si8 0.898624 0.964405 0.743350
O O1 0.818945 0.470781 0.343842
O O2 0.000000 0.500000 0.500000
O O3 0.752444 0.339637 0.086045
O O4 0.111079 0.694847 0.088638
O O5 0.745052 0.534198 0.283322
O O6 0.535336 0.360646 0.908263
O O7 0.751398 0.646590 0.856082
O O8 0.962692 0.701614 0.934846
O O9 0.014209 0.682547 0.642099
O O10 0.369686 0.007747 0.863208
O O11 0.790208 0.817460 0.664290
O O12 0.911806 0.845679 0.422286
O O13 0.121357 0.998297 0.806945
O O14 0.379609 0.678139 0.316620
O O15 0.600621 0.872955 0.958865
O O16 0.742988 0.894662 0.779281
O O17 0.000000 0.000000 0.000000
#
# Coordination Sequence:
#
# PCOD9073889 Si02
#       8
#     2   2   2   2   2   2   2   2
#     4  10  23  44  64  91 133 166 204 258 309 372
#     4  11  22  37  62  95 122 161 209 260 314 365
#     4  10  22  39  60  95 126 162 215 254 308 375
#     4  10  22  41  61  86 127 161 207 262 310 376
#     4  10  22  40  62  93 126 162 206 257 313 367
#     4  11  22  40  63  95 128 163 213 260 306 371
#     4  11  21  38  62  91 122 160 209 261 309 362
#     4   9  22  42  60  87 123 167 205 253 319 368
#
# _framework density 21.995591999999998
#
# number of rings (size 3 to 8) (size 9 to 14) (size 15 to 20)
#    0.000    1.750    5.000    0.000    1.750    8.000 
#    0.000    6.875    0.000    0.000    0.000    0.000 
#    0.000    0.000    0.000    0.000    0.000    0.000 
#
# Total GULP energy -89276.436773 kJ/mol
# GULP energy per Si atom -5579.777298 kJ/mol
# Density = 2.194553 g / cm^3
# Si number density = 21.995592 Si / 1000 Ang^3
#
#
#
# Elastic Constant Matrix: (Units=GPa)
#
#
# Indices 1 2 3 4 5 6 
#
# 1 34.1998 0.9300 3.7263 -9.3463 5.4011 -12.0053
# 2 0.9300 138.1656 31.2756 8.6850 -3.4439 -35.8066
# 3 3.7263 31.2756 105.3287 -6.6053 8.0055 -15.2550
# 4 -9.3463 8.6850 -6.6053 31.0930 -0.8733 2.8323
# 5 5.4011 -3.4439 8.0055 -0.8733 23.6876 -6.8943
# 6 -12.0053 -35.8066 -15.2550 2.8323 -6.8943 28.8019
#
#
#
# Elastic Compliance Matrix: (Units=1/GPa)
#
#
# Indices 1 2 3 4 5 6 
#
# 1 0.039055 0.004247 0.001086 0.008832 -0.002300 0.020715
# 2 0.004247 0.013050 -0.002078 -0.004344 0.007000 0.018996
# 3 0.001086 -0.002078 0.010879 0.002892 -0.003381 0.002537
# 4 0.008832 -0.004344 0.002892 0.036970 -0.003625 -0.004690
# 5 -0.002300 0.007000 -0.003381 -0.003625 0.050094 0.018300
# 6 0.020715 0.018996 0.002537 -0.004690 0.018300 0.073156
#
#
# Mechanical properties :
#
#
# Convention : Reuss Voigt Hill
#
# Bulk Modulus (GPa) = 14.38982 38.83975 26.61479
# Shear Modulus (GPa) = 20.84568 32.83398 26.83983
#
# Velocity S-wave (km/s) = 3.08185 3.86781 3.49698
# Velocity P-wave (km/s) = 4.38407 6.13538 5.33212
#
# Compressibility (1/GPa) = 0.06949356
#
# Stress axis : x y z
#
# Youngs Moduli (GPa) = 25.60499 76.62753 91.92344
#
# Poissons Ratio (x) = -0.32546 -0.09984
# Poissons Ratio (y) = -0.10875 0.19106
# Poissons Ratio (z) = -0.02781 0.15927
#
# Static dielectric constant tensor:
#      x y z
#    x 1.851520 0.021220 -0.038440 
#    y 0.021220 1.817060 0.011070 
#    z -0.038440 0.011070 1.877060 
# 
# From -- ./inp_files/105758.got.cif
#   From: 2010.05.17/outbox.ucp.g08.bks.cvg/sg2_53_cif.got.tgz:105758.got - 2010.06.11 11:32:03.
