data_PCOD9073575
_publ_section_title
;
Structure prediction by ZEFSAII (Michael W. Deem and Ramdas Pophale) SiO2 
 PCOD9073575
Probable space group: P -1
;
_chemical_formula_sum "Si O2"
_cell_formula_units_Z 14
_cell_length_a 9.166143
_cell_length_b 9.052300
_cell_length_c 16.744056
_cell_angle_alpha 37.601186
_cell_angle_beta 48.575742
_cell_angle_gamma 45.594135
_cell_volume 586.995146
_symmetry_space_group_name_H-M "P -1"
_symmetry_group_IT_number 2
_symmetry_cell_setting 'triclinic'
loop_
_space_group_symop_operation_xyz
x,y,z
-x,-y,-z
loop_
_atom_site_type_symbol
_atom_site_label
_atom_site_fract_x
_atom_site_fract_y
_atom_site_fract_z
Si Si1 0.816142 0.936760 0.206296
Si Si2 0.879462 0.194288 0.717964
Si Si3 0.332220 0.699757 0.036685
Si Si4 0.274453 0.213521 0.467823
Si Si5 0.307164 0.549836 0.891066
Si Si6 0.966082 0.599674 0.680706
Si Si7 0.019737 0.312711 0.184631
O O1 0.034510 0.919100 0.176985
O O2 0.834123 0.636298 0.330618
O O3 0.660926 0.183589 0.208281
O O4 0.770304 0.034422 0.090118
O O5 0.723827 0.494521 0.649218
O O6 0.092780 0.201026 0.597412
O O7 0.835179 0.975835 0.777872
O O8 0.475402 0.689044 0.066435
O O9 0.171261 0.562599 0.170340
O O10 0.500000 0.500000 0.000000
O O11 0.175520 0.208222 0.417974
O O12 0.500000 0.000000 0.500000
O O13 0.199513 0.590683 0.826358
O O14 0.137580 0.499872 0.032784
O O15 0.013026 0.706451 0.701099
#
# Coordination Sequence:
#
# PCOD9073575 Si02
#       7
#     2   2   2   2   2   2   2
#     4   9  18  34  59  80 116 151 188 222 272 348
#     4   9  21  41  59  82 116 151 184 237 298 330
#     4  10  18  31  55  84 112 150 190 221 266 346
#     4  10  23  40  64  82 104 153 203 236 273 349
#     4   9  19  33  54  80 117 160 177 213 289 343
#     4  11  21  34  59  87 111 147 197 232 273 334
#     4  10  19  34  57  81 121 147 176 234 295 329
#
# _framework density 23.850280999999999
#
# number of rings (size 3 to 8) (size 9 to 14) (size 15 to 20)
#    0.000    2.286    2.857    0.429    6.000    0.571 
#    0.000    2.857    0.000    0.000    0.000    0.000 
#    0.000    0.000    0.000    0.000    0.000    0.000 
#
# Total GULP energy -78024.000994 kJ/mol
# GULP energy per Si atom -5573.142928 kJ/mol
# Density = 2.379600 g / cm^3
# Si number density = 23.850281 Si / 1000 Ang^3
#
#
#
# Elastic Constant Matrix: (Units=GPa)
#
#
# Indices 1 2 3 4 5 6 
#
# 1 138.4574 51.0699 47.9888 -9.2949 60.2379 6.7289
# 2 51.0699 86.6277 32.1539 -22.4970 24.1456 4.2913
# 3 47.9888 32.1539 93.3119 -15.9361 29.6942 -3.6103
# 4 -9.2949 -22.4970 -15.9361 39.8670 -6.6374 8.8491
# 5 60.2379 24.1456 29.6942 -6.6374 54.4759 -2.9304
# 6 6.7289 4.2913 -3.6103 8.8491 -2.9304 50.1674
#
#
#
# Elastic Compliance Matrix: (Units=1/GPa)
#
#
# Indices 1 2 3 4 5 6 
#
# 1 0.016397 -0.004971 -0.002361 -0.001871 -0.015003 -0.002490
# 2 -0.004971 0.017656 -0.002082 0.008479 -0.000296 -0.002506
# 3 -0.002361 -0.002082 0.014480 0.003246 -0.003924 0.000735
# 4 -0.001871 0.008479 0.003246 0.032058 0.000131 -0.005888
# 5 -0.015003 -0.000296 -0.003924 0.000131 0.037443 0.003919
# 6 -0.002490 -0.002506 0.000735 -0.005888 0.003919 0.021802
#
#
# Mechanical properties :
#
#
# Convention : Reuss Voigt Hill
#
# Bulk Modulus (GPa) = 33.66616 64.53582 49.10099
# Shear Modulus (GPa) = 29.66191 41.38102 35.52147
#
# Velocity S-wave (km/s) = 3.53040 4.16989 3.86340
# Velocity P-wave (km/s) = 5.54658 7.09235 6.36655
#
# Compressibility (1/GPa) = 0.02970342
#
# Stress axis : x y z
#
# Youngs Moduli (GPa) = 60.98656 56.63943 69.05989
#
# Poissons Ratio (x) = 0.28155 0.16308
# Poissons Ratio (y) = 0.30316 0.14380
# Poissons Ratio (z) = 0.14402 0.11794
#
# Static dielectric constant tensor:
#      x y z
#    x 1.950930 0.021630 0.036650 
#    y 0.021630 2.160400 0.027190 
#    z 0.036650 0.027190 1.974750 
# 
# From -- ./inp_files/555824.got.cif
#   From: 2010.05.17/outbox.cif.g08.bks.cpg/sg2_278_cif.got.tgz:555824.got - 2010.06.03 11:33:40.
