data_PCOD9073792
_publ_section_title
;
Structure prediction by ZEFSAII (Michael W. Deem and Ramdas Pophale) SiO2 
 PCOD9073792
Probable space group: P -1
;
_chemical_formula_sum "Si O2"
_cell_formula_units_Z 16
_cell_length_a 9.000000
_cell_length_b 21.000000
_cell_length_c 9.000000
_cell_angle_alpha 30.000000
_cell_angle_beta 120.000000
_cell_angle_gamma 120.000000
_cell_volume 727.687525
_symmetry_space_group_name_H-M "P -1"
_symmetry_group_IT_number 2
_symmetry_cell_setting 'triclinic'
loop_
_space_group_symop_operation_xyz
x,y,z
-x,-y,-z
loop_
_atom_site_type_symbol
_atom_site_label
_atom_site_fract_x
_atom_site_fract_y
_atom_site_fract_z
Si Si1 0.306179 0.768264 0.412842
Si Si2 0.520067 0.142563 0.373644
Si Si3 0.122143 0.623870 0.229879
Si Si4 0.343835 0.278632 0.485709
Si Si5 0.092711 0.007900 0.865651
Si Si6 0.492657 0.365566 0.685028
Si Si7 0.097280 0.487316 0.916985
Si Si8 0.785553 0.078716 0.385275
O O1 0.401886 0.790375 0.574379
O O2 0.467389 0.747918 0.425980
O O3 0.171463 0.634348 0.608741
O O4 0.200683 0.891660 0.110960
O O5 0.675934 0.101411 0.434832
O O6 0.363301 0.023446 0.565386
O O7 0.463831 0.253525 0.019143
O O8 0.323473 0.611906 0.355014
O O9 0.000000 0.500000 0.500000
O O10 0.053871 0.594677 0.088884
O O11 0.139678 0.782500 0.936794
O O12 0.356162 0.312152 0.598848
O O13 0.217915 0.145977 0.654297
O O14 0.255669 0.403216 0.140220
O O15 0.946934 0.015027 0.652635
O O16 0.000000 0.000000 0.000000
O O17 0.500000 0.500000 0.500000
O O18 0.000000 0.500000 0.000000
#
# Coordination Sequence:
#
# PCOD9073792 Si02
#       8
#     2   2   2   2   2   2   2   2
#     4  12  26  43  71 112 145 188 237 302 374 422
#     4  10  22  43  73 103 141 185 244 295 366 425
#     4  11  24  43  70 101 139 183 237 298 364 413
#     4  12  26  46  70 104 151 183 238 307 362 426
#     4  12  23  44  73 106 144 193 247 289 361 442
#     4  11  24  45  72 102 138 192 244 292 363 440
#     4  12  24  47  73 102 137 190 249 297 353 440
#     4  10  21  44  71 102 140 192 240 302 344 441
#
# _framework density 21.987459999999999
#
# number of rings (size 3 to 8) (size 9 to 14) (size 15 to 20)
#    0.000    0.750    2.500    6.000    3.500    2.000 
#    2.250    1.875    0.000    0.000    0.000    0.000 
#    0.000    0.000    0.000    0.000    0.000    0.000 
#
# Total GULP energy -89240.348846 kJ/mol
# GULP energy per Si atom -5577.521803 kJ/mol
# Density = 2.193742 g / cm^3
# Si number density = 21.987460 Si / 1000 Ang^3
#
#
#
# Elastic Constant Matrix: (Units=GPa)
#
#
# Indices 1 2 3 4 5 6 
#
# 1 79.7225 -8.6204 26.1391 -19.0972 3.6256 2.4591
# 2 -8.6204 112.4795 13.9947 -21.7908 6.3650 9.6301
# 3 26.1391 13.9947 89.0346 -39.4700 -2.2899 6.9978
# 4 -19.0972 -21.7908 -39.4700 47.8171 4.7964 -5.3730
# 5 3.6256 6.3650 -2.2899 4.7964 36.9645 -14.3798
# 6 2.4591 9.6301 6.9978 -5.3730 -14.3798 41.7687
#
#
#
# Elastic Compliance Matrix: (Units=1/GPa)
#
#
# Indices 1 2 3 4 5 6 
#
# 1 0.015184 0.002878 -0.002409 0.005553 -0.003493 -0.001642
# 2 0.002878 0.010853 0.000519 0.006573 -0.004291 -0.003390
# 3 -0.002409 0.000519 0.018302 0.014321 -0.001207 -0.001617
# 4 0.005553 0.006573 0.014321 0.038417 -0.006353 -0.001487
# 5 -0.003493 -0.004291 -0.001207 -0.006353 0.033611 0.012151
# 6 -0.001642 -0.003390 -0.001617 -0.001487 0.012151 0.029083
#
#
# Mechanical properties :
#
#
# Convention : Reuss Voigt Hill
#
# Bulk Modulus (GPa) = 21.59162 38.25150 29.92156
# Shear Modulus (GPa) = 31.46372 41.95828 36.71100
#
# Velocity S-wave (km/s) = 3.78694 4.37313 4.09055
# Velocity P-wave (km/s) = 5.38168 6.55238 5.99567
#
# Compressibility (1/GPa) = 0.04631426
#
# Stress axis : x y z
#
# Youngs Moduli (GPa) = 65.85756 92.14116 54.63898
#
# Poissons Ratio (x) = -0.26514 0.13164
# Poissons Ratio (y) = -0.18951 -0.02838
# Poissons Ratio (z) = 0.15867 -0.04786
#
# Static dielectric constant tensor:
#      x y z
#    x 1.801090 -0.066020 0.002860 
#    y -0.066020 1.756350 0.029180 
#    z 0.002860 0.029180 1.858810 
# 
# From -- ./inp_files/222881.got.cif
#   From: 2010.05.17/outbox.ucp.g08.bks.cvg/sg2_112_cif.got.tgz:222881.got - 2010.06.11 11:32:03.
