data_PCOD9073098
_publ_section_title
;
Structure prediction by ZEFSAII (Michael W. Deem and Ramdas Pophale) SiO2 
 PCOD9073098
Probable space group: P -1
;
_chemical_formula_sum "Si O2"
_cell_formula_units_Z 16
_cell_length_a 9.000000
_cell_length_b 9.000000
_cell_length_c 24.000000
_cell_angle_alpha 30.000000
_cell_angle_beta 50.000000
_cell_angle_gamma 50.000000
_cell_volume 725.531033
_symmetry_space_group_name_H-M "P -1"
_symmetry_group_IT_number 2
_symmetry_cell_setting 'triclinic'
loop_
_space_group_symop_operation_xyz
x,y,z
-x,-y,-z
loop_
_atom_site_type_symbol
_atom_site_label
_atom_site_fract_x
_atom_site_fract_y
_atom_site_fract_z
Si Si1 0.299570 0.693535 0.222293
Si Si2 0.212595 0.829392 0.478167
Si Si3 0.522599 0.042830 0.415727
Si Si4 0.201434 0.396911 0.228010
Si Si5 0.840195 0.316901 0.076570
Si Si6 0.873205 0.871497 0.118049
Si Si7 0.517563 0.203430 0.027991
Si Si8 0.147443 0.155380 0.682119
O O1 0.445222 0.404373 0.308305
O O2 0.226297 0.547237 0.232735
O O3 0.092245 0.812521 0.267641
O O4 0.427910 0.949690 0.097569
O O5 0.199434 0.477417 0.584650
O O6 0.382651 0.870977 0.467763
O O7 0.244965 0.034760 0.349123
O O8 0.000000 0.000000 0.500000
O O9 0.500000 0.000000 0.500000
O O10 0.744853 0.924393 0.376890
O O11 0.978420 0.518122 0.217479
O O12 0.344409 0.570692 0.101418
O O13 0.922198 0.034064 0.109208
O O14 0.761707 0.143491 0.203607
O O15 0.686949 0.543569 0.999855
O O16 0.000000 0.500000 0.000000
O O17 0.645357 0.996790 0.112805
O O18 0.000000 0.000000 0.000000
#
# Coordination Sequence:
#
# PCOD9073098 Si02
#       8
#     2   2   2   2   2   2   2   2
#     4  11  22  45  68 100 143 183 236 281 344 431
#     4  11  21  45  74  98 138 181 241 284 337 429
#     4  11  27  46  70 105 141 182 233 298 357 405
#     4  10  20  41  68  98 137 188 224 283 349 413
#     4  12  22  42  69  97 136 183 231 274 339 428
#     4  10  22  39  63  99 139 178 222 286 350 397
#     4  11  23  39  66 103 141 177 228 289 348 403
#     4  12  24  45  77 102 135 189 241 278 350 423
#
# _framework density 22.052813
#
# number of rings (size 3 to 8) (size 9 to 14) (size 15 to 20)
#    0.000    1.000    5.000    2.625    0.000    5.500 
#    0.000    3.750    0.000    0.000    0.000    0.000 
#    0.000    0.000    0.000    0.000    0.000    0.000 
#
# Total GULP energy -89166.569719 kJ/mol
# GULP energy per Si atom -5572.910607 kJ/mol
# Density = 2.200262 g / cm^3
# Si number density = 22.052813 Si / 1000 Ang^3
#
#
#
# Elastic Constant Matrix: (Units=GPa)
#
#
# Indices 1 2 3 4 5 6 
#
# 1 76.6575 19.2365 29.4873 -5.8400 0.9131 -15.7053
# 2 19.2365 55.3168 7.7516 8.1755 3.5119 -2.7588
# 3 29.4873 7.7516 127.0995 -17.0114 -6.6443 9.1313
# 4 -5.8400 8.1755 -17.0114 39.0105 -3.2154 7.3649
# 5 0.9131 3.5119 -6.6443 -3.2154 42.4402 -0.1105
# 6 -15.7053 -2.7588 9.1313 7.3649 -0.1105 24.4569
#
#
#
# Elastic Compliance Matrix: (Units=1/GPa)
#
#
# Indices 1 2 3 4 5 6 
#
# 1 0.019165 -0.004984 -0.005355 -0.001155 -0.000889 0.014088
# 2 -0.004984 0.021102 -0.001178 -0.006146 -0.002285 0.001460
# 3 -0.005355 -0.001178 0.010804 0.006132 0.002344 -0.009442
# 4 -0.001155 -0.006146 0.006132 0.032280 0.003904 -0.013427
# 5 -0.000889 -0.002285 0.002344 0.003904 0.024426 -0.002769
# 6 0.014088 0.001460 -0.009442 -0.013427 -0.002769 0.057656
#
#
# Mechanical properties :
#
#
# Convention : Reuss Voigt Hill
#
# Bulk Modulus (GPa) = 35.66844 41.33607 38.50226
# Shear Modulus (GPa) = 25.27642 34.68809 29.98226
#
# Velocity S-wave (km/s) = 3.38920 3.97035 3.69123
# Velocity P-wave (km/s) = 5.61469 6.30897 5.97193
#
# Compressibility (1/GPa) = 0.02803599
#
# Stress axis : x y z
#
# Youngs Moduli (GPa) = 52.17920 47.38824 92.56072
#
# Poissons Ratio (x) = 0.23620 0.49570
# Poissons Ratio (y) = 0.26008 0.10899
# Poissons Ratio (z) = 0.27944 0.05580
#
# Static dielectric constant tensor:
#      x y z
#    x 1.814210 -0.045400 0.012500 
#    y -0.045400 1.869740 -0.014580 
#    z 0.012500 -0.014580 1.812580 
# 
# From -- ./inp_files/562900.got.cif
#   From: 2010.05.17/outbox.ucp.g08.bks.cvg/sg2_282_cif.got.tgz:562900.got - 2010.06.11 11:32:03.
