data_PCOD9073208
_publ_section_title
;
Structure prediction by ZEFSAII (Michael W. Deem and Ramdas Pophale) SiO2 
 PCOD9073208
Probable space group: P -1
;
_chemical_formula_sum "Si O2"
_cell_formula_units_Z 16
_cell_length_a 6.000000
_cell_length_b 24.000000
_cell_length_c 15.000000
_cell_angle_alpha 160.000000
_cell_angle_beta 100.000000
_cell_angle_gamma 80.000000
_cell_volume 727.188304
_symmetry_space_group_name_H-M "P -1"
_symmetry_group_IT_number 2
_symmetry_cell_setting 'triclinic'
loop_
_space_group_symop_operation_xyz
x,y,z
-x,-y,-z
loop_
_atom_site_type_symbol
_atom_site_label
_atom_site_fract_x
_atom_site_fract_y
_atom_site_fract_z
Si Si1 0.782738 0.685970 0.287182
Si Si2 0.628919 0.058905 0.378121
Si Si3 0.079191 0.953106 0.793924
Si Si4 0.868188 0.364269 0.908557
Si Si5 0.273849 0.820301 0.780855
Si Si6 0.675291 0.602569 0.557427
Si Si7 0.023562 0.500018 0.292382
Si Si8 0.386001 0.293561 0.090297
O O1 0.576820 0.817121 0.476182
O O2 0.972830 0.780285 0.498807
O O3 0.882671 0.659491 0.154645
O O4 0.750640 0.504337 0.048784
O O5 0.781086 0.003659 0.220084
O O6 0.775496 0.183968 0.632538
O O7 0.555385 0.897054 0.181126
O O8 0.248654 0.927609 0.851127
O O9 0.876854 0.077992 0.002340
O O10 0.849281 0.445509 0.125288
O O11 0.514651 0.747254 0.722032
O O12 0.162364 0.649692 0.491036
O O13 0.911548 0.581124 0.493148
O O14 0.573075 0.422237 0.269437
O O15 0.689048 0.642594 0.721613
O O16 0.176535 0.340383 0.083203
#
# Coordination Sequence:
#
# PCOD9073208 Si02
#       8
#     2   2   2   2   2   2   2   2
#     4  10  21  41  60  85 124 154 193 242 296 350
#     4  11  23  38  63  85 118 160 197 237 296 352
#     4  10  21  36  59  92 122 152 187 246 296 352
#     4  10  23  39  59  89 115 158 197 245 290 343
#     4  10  21  36  58  93 124 146 194 243 294 351
#     4  10  22  39  64  85 117 162 195 238 295 352
#     4  11  22  40  63  85 121 158 198 241 288 349
#     4  10  23  41  58  90 117 154 201 245 286 344
#
# _framework density 22.002554
#
# number of rings (size 3 to 8) (size 9 to 14) (size 15 to 20)
#    0.000    1.750    1.250    2.250    1.750    6.500 
#    0.000    4.375    0.000    0.000    0.000    0.000 
#    0.000    0.000    0.000    0.000    0.000    0.000 
#
# Total GULP energy -89205.378295 kJ/mol
# GULP energy per Si atom -5575.336143 kJ/mol
# Density = 2.195248 g / cm^3
# Si number density = 22.002554 Si / 1000 Ang^3
#
#
#
# Elastic Constant Matrix: (Units=GPa)
#
#
# Indices 1 2 3 4 5 6 
#
# 1 4.5066 -3.8138 2.5677 11.7506 -0.5120 -9.6217
# 2 -3.8138 22.0558 -5.5860 23.7147 6.9143 -6.0346
# 3 2.5677 -5.5860 107.9743 31.8185 3.9451 -2.1112
# 4 11.7506 23.7147 31.8185 38.2089 -2.3484 -3.8921
# 5 -0.5120 6.9143 3.9451 -2.3484 33.2448 6.3856
# 6 -9.6217 -6.0346 -2.1112 -3.8921 6.3856 7.8197
#
#
#
# Elastic Compliance Matrix: (Units=1/GPa)
#
#
# Indices 1 2 3 4 5 6 
#
# 1 0.023961 -0.061724 -0.018419 0.045763 0.022169 -0.018450
# 2 -0.061724 0.033543 0.005644 -0.012122 0.001221 -0.055569
# 3 -0.018419 0.005644 0.012664 -0.010434 0.000190 -0.020238
# 4 0.045763 -0.012122 -0.010434 0.034691 -0.005787 0.066130
# 5 0.022169 0.001221 0.000190 -0.005787 0.029484 0.001313
# 6 -0.018450 -0.055569 -0.020238 0.066130 0.001313 0.088676
#
#
# Mechanical properties :
#
#
# Convention : Reuss Voigt Hill
#
# Bulk Modulus (GPa) = -12.68546 13.43029 0.37241
# Shear Modulus (GPa) = 14.46171 25.27925 19.87048
#
# Velocity S-wave (km/s) = 2.56652 3.39325 3.00842
# Velocity P-wave (km/s) = 1.73341 4.63351 3.49815
#
# Compressibility (1/GPa) = -0.07883042
#
# Stress axis : x y z
#
# Youngs Moduli (GPa) = 41.73452 29.81218 78.96638
#
# Poissons Ratio (x) = 1.84013 1.45451
# Poissons Ratio (y) = 2.57603 -0.44571
# Poissons Ratio (z) = 0.76873 -0.16827
#
# Static dielectric constant tensor:
#      x y z
#    x 1.869050 -0.020880 0.063520 
#    y -0.020880 1.806140 -0.008300 
#    z 0.063520 -0.008300 1.774140 
# 
# From -- ./inp_files/67328.got.cif
#   From: 2010.05.17/outbox.ucp.g08.bks.cvg/sg2_34_cif.got.tgz:67328.got - 2010.06.11 11:32:03.
