data_PCOD9073611
_publ_section_title
;
Structure prediction by ZEFSAII (Michael W. Deem and Ramdas Pophale) SiO2 
 PCOD9073611
Probable space group: P -1
;
_chemical_formula_sum "Si O2"
_cell_formula_units_Z 14
_cell_length_a 9.000000
_cell_length_b 21.000000
_cell_length_c 21.000000
_cell_angle_alpha 20.000000
_cell_angle_beta 150.000000
_cell_angle_gamma 150.000000
_cell_volume 646.310059
_symmetry_space_group_name_H-M "P -1"
_symmetry_group_IT_number 2
_symmetry_cell_setting 'triclinic'
loop_
_space_group_symop_operation_xyz
x,y,z
-x,-y,-z
loop_
_atom_site_type_symbol
_atom_site_label
_atom_site_fract_x
_atom_site_fract_y
_atom_site_fract_z
Si Si1 0.901523 0.598426 0.155440
Si Si2 0.783892 0.433417 0.569804
Si Si3 0.817037 0.520798 0.751080
Si Si4 0.687836 0.216660 0.100567
Si Si5 0.249434 0.779820 0.365296
Si Si6 0.393481 0.231902 0.373509
Si Si7 0.589501 0.207362 0.213049
O O1 0.627894 0.398158 0.261371
O O2 0.131808 0.637375 0.264889
O O3 0.077195 0.576404 0.178454
O O4 0.736436 0.759335 0.925318
O O5 0.431342 0.388134 0.458232
O O6 0.894806 0.318897 0.662097
O O7 0.957760 0.668324 0.407934
O O8 0.124028 0.677789 0.745130
O O9 0.676325 0.358155 0.905680
O O10 0.657561 0.301507 0.079125
O O11 0.037574 0.199005 0.251728
O O12 0.415603 0.007515 0.197422
O O13 0.520665 0.722441 0.561820
O O14 0.443524 0.020165 0.585072
#
# Coordination Sequence:
#
# PCOD9073611 Si02
#       7
#     2   2   2   2   2   2   2
#     4  11  25  44  60  93 131 164 210 251 305 379
#     4  10  22  41  65  85 129 167 206 254 314 360
#     4  12  24  40  64  92 129 169 201 254 315 369
#     4  11  22  38  67  98 125 152 217 262 306 368
#     4   9  20  39  64  92 118 160 211 257 306 361
#     4  10  21  41  66  95 127 158 207 264 306 367
#     4  11  23  41  69  92 123 165 208 259 312 358
#
# _framework density 21.661429999999999
#
# number of rings (size 3 to 8) (size 9 to 14) (size 15 to 20)
#    0.000    1.429    1.429    4.714    6.000    1.143 
#    7.714    0.714    0.000    0.000    0.000    0.000 
#    0.000    0.000    0.000    0.000    0.000    0.000 
#
# Total GULP energy -78063.514671 kJ/mol
# GULP energy per Si atom -5575.965334 kJ/mol
# Density = 2.161213 g / cm^3
# Si number density = 21.661430 Si / 1000 Ang^3
#
#
#
# Elastic Constant Matrix: (Units=GPa)
#
#
# Indices 1 2 3 4 5 6 
#
# 1 1.7778 8.8991 -10.1163 12.6331 7.1259 -5.9377
# 2 8.8991 98.8230 40.6424 31.5184 -14.4852 -40.7258
# 3 -10.1163 40.6424 41.4312 -9.4690 -1.0594 12.0330
# 4 12.6331 31.5184 -9.4690 11.6668 -0.1842 8.2020
# 5 7.1259 -14.4852 -1.0594 -0.1842 -7.0836 -1.6105
# 6 -5.9377 -40.7258 12.0330 8.2020 -1.6105 1.0777
#
#
#
# Elastic Compliance Matrix: (Units=1/GPa)
#
#
# Indices 1 2 3 4 5 6 
#
# 1 0.234934 -0.028252 0.099123 -0.049704 0.294566 -0.061536
# 2 -0.028252 0.005221 -0.008918 0.011888 -0.037030 -0.004587
# 3 0.099123 -0.008918 0.055392 -0.030625 0.112365 -0.008369
# 4 -0.049704 0.011888 -0.030625 0.044968 -0.082635 0.051617
# 5 0.294566 -0.037030 0.112365 -0.082635 0.229629 -0.058980
# 6 -0.061536 -0.004587 -0.008369 0.051617 -0.058980 0.027998
#
#
# Mechanical properties :
#
#
# Convention : Reuss Voigt Hill
#
# Bulk Modulus (GPa) = 2.38406 24.54250 13.46328
# Shear Modulus (GPa) = 8.14260 7.97261 8.05761
#
# Velocity S-wave (km/s) = 1.94093 1.92056 1.93077
# Velocity P-wave (km/s) = 2.47506 4.03394 3.34654
#
# Compressibility (1/GPa) = 0.41945200
#
# Stress axis : x y z
#
# Youngs Moduli (GPa) = 4.25652 191.52154 18.05316
#
# Poissons Ratio (x) = 5.41092 -1.78948
# Poissons Ratio (y) = 0.12026 0.16100
# Poissons Ratio (z) = -0.42192 1.70800
#
# Static dielectric constant tensor:
#      x y z
#    x 2.181080 0.106810 0.335150 
#    y 0.106810 1.834770 0.093190 
#    z 0.335150 0.093190 2.014780 
# 
# From -- ./inp_files/185724.got.cif
#   From: 2010.05.17/outbox.ucp.g08.bks.cvg/sg2_93_cif.got.tgz:185724.got - 2010.06.11 11:32:03.
