data_PCOD9073699
_publ_section_title
;
Structure prediction by ZEFSAII (Michael W. Deem and Ramdas Pophale) SiO2 
 PCOD9073699
Probable space group: P -1
;
_chemical_formula_sum "Si O2"
_cell_formula_units_Z 16
_cell_length_a 12.000000
_cell_length_b 9.000000
_cell_length_c 12.000000
_cell_angle_alpha 50.000000
_cell_angle_beta 110.000000
_cell_angle_gamma 130.000000
_cell_volume 754.912344
_symmetry_space_group_name_H-M "P -1"
_symmetry_group_IT_number 2
_symmetry_cell_setting 'triclinic'
loop_
_space_group_symop_operation_xyz
x,y,z
-x,-y,-z
loop_
_atom_site_type_symbol
_atom_site_label
_atom_site_fract_x
_atom_site_fract_y
_atom_site_fract_z
Si Si1 0.351731 0.398015 0.069974
Si Si2 0.854851 0.136935 0.726713
Si Si3 0.326930 0.786363 0.537805
Si Si4 0.216992 0.664114 0.810560
Si Si5 0.866131 0.717345 0.384056
Si Si6 0.648293 0.572254 0.678017
Si Si7 0.088316 0.445560 0.300065
Si Si8 0.664295 0.836109 0.337627
O O1 0.373169 0.405759 0.208452
O O2 0.239185 0.123521 0.129869
O O3 0.500000 0.500000 0.000000
O O4 0.262469 0.507835 0.958515
O O5 0.765486 0.133424 0.591837
O O6 0.861723 0.314854 0.732071
O O7 0.012691 0.214741 0.700014
O O8 0.262440 0.689408 0.684568
O O9 0.278363 0.553775 0.559151
O O10 0.500000 0.000000 0.500000
O O11 0.055613 0.611002 0.785043
O O12 0.322141 0.923346 0.774602
O O13 0.941030 0.728663 0.521611
O O14 0.797180 0.862105 0.303587
O O15 0.780143 0.539289 0.726771
O O16 0.682732 0.777674 0.500791
O O17 0.492209 0.358902 0.676214
#
# Coordination Sequence:
#
# PCOD9073699 Si02
#       8
#     2   2   2   2   2   2   2   2
#     4  12  30  46  67  99 140 183 235 277 344 409
#     4  11  22  45  69  99 135 185 224 290 337 391
#     4  11  22  38  73 100 137 172 235 287 332 399
#     4  12  25  43  64 102 135 186 226 274 341 407
#     4  10  21  42  69 109 133 176 225 290 341 391
#     4  10  25  47  69 102 137 179 224 283 347 405
#     4  10  22  43  71 103 138 169 232 282 342 405
#     4  10  25  42  75 101 135 175 229 284 341 400
#
# _framework density 21.194514000000002
#
# number of rings (size 3 to 8) (size 9 to 14) (size 15 to 20)
#    0.000    1.250    2.500    2.250   14.000    2.500 
#    0.000    0.000    0.000    0.000    0.000    0.000 
#    0.000    0.000    0.000    0.000    0.000    0.000 
#
# Total GULP energy -89296.240065 kJ/mol
# GULP energy per Si atom -5581.015004 kJ/mol
# Density = 2.114627 g / cm^3
# Si number density = 21.194514 Si / 1000 Ang^3
#
#
#
# Elastic Constant Matrix: (Units=GPa)
#
#
# Indices 1 2 3 4 5 6 
#
# 1 91.6203 1.5093 11.3190 10.9622 -25.1052 10.2429
# 2 1.5093 50.7001 5.8615 5.7392 -11.2577 11.7499
# 3 11.3190 5.8615 33.3933 -5.1580 -0.4746 -2.0514
# 4 10.9622 5.7392 -5.1580 19.9561 -0.1848 2.3487
# 5 -25.1052 -11.2577 -0.4746 -0.1848 32.5422 4.2133
# 6 10.2429 11.7499 -2.0514 2.3487 4.2133 38.5235
#
#
#
# Elastic Compliance Matrix: (Units=1/GPa)
#
#
# Indices 1 2 3 4 5 6 
#
# 1 0.020768 0.009371 -0.011445 -0.015666 0.020336 -0.010259
# 2 0.009371 0.029733 -0.011240 -0.014859 0.018993 -0.013330
# 3 -0.011445 -0.011240 0.039003 0.018435 -0.013193 0.008867
# 4 -0.015666 -0.014859 0.018435 0.066705 -0.017554 0.007532
# 5 0.020336 0.018993 -0.013193 -0.017554 0.054876 -0.016834
# 6 -0.010259 -0.013330 0.008867 0.007532 -0.016834 0.034606
#
#
# Mechanical properties :
#
#
# Convention : Reuss Voigt Hill
#
# Bulk Modulus (GPa) = 15.90415 23.67701 19.79058
# Shear Modulus (GPa) = 17.04874 28.67262 22.86068
#
# Velocity S-wave (km/s) = 2.83926 3.68208 3.28779
# Velocity P-wave (km/s) = 4.27419 5.41040 4.87551
#
# Compressibility (1/GPa) = 0.06287668
#
# Stress axis : x y z
#
# Youngs Moduli (GPa) = 48.15136 33.63273 25.63885
#
# Poissons Ratio (x) = -0.31518 0.29345
# Poissons Ratio (y) = -0.45124 0.28817
# Poissons Ratio (z) = 0.55111 0.37802
#
# Static dielectric constant tensor:
#      x y z
#    x 1.754470 -0.016550 0.001630 
#    y -0.016550 1.812680 -0.019000 
#    z 0.001630 -0.019000 1.780530 
# 
# From -- ./inp_files/217018.got.cif
#   From: 2010.05.17/outbox.ucp.g08.bks.cvg/sg2_109_cif.got.tgz:217018.got - 2010.06.11 11:32:03.
