data_PCOD9073072
_publ_section_title
;
Structure prediction by ZEFSAII (Michael W. Deem and Ramdas Pophale) SiO2 
 PCOD9073072
Probable space group: P -1
;
_chemical_formula_sum "Si O2"
_cell_formula_units_Z 16
_cell_length_a 15.000000
_cell_length_b 15.000000
_cell_length_c 6.000000
_cell_angle_alpha 110.000000
_cell_angle_beta 90.000000
_cell_angle_gamma 40.000000
_cell_volume 734.725185
_symmetry_space_group_name_H-M "P -1"
_symmetry_group_IT_number 2
_symmetry_cell_setting 'triclinic'
loop_
_space_group_symop_operation_xyz
x,y,z
-x,-y,-z
loop_
_atom_site_type_symbol
_atom_site_label
_atom_site_fract_x
_atom_site_fract_y
_atom_site_fract_z
Si Si1 0.819310 0.152555 0.161256
Si Si2 0.145811 0.943027 0.419921
Si Si3 0.857448 0.562247 0.646411
Si Si4 0.403061 0.204233 0.512957
Si Si5 0.994728 0.279640 0.715413
Si Si6 0.610639 0.497044 0.511540
Si Si7 0.273341 0.163571 0.794242
Si Si8 0.352961 0.441105 0.929192
O O1 0.771913 0.302381 0.334462
O O2 0.781505 0.130416 0.383814
O O3 0.770139 0.159979 0.909093
O O4 0.000000 0.000000 0.000000
O O5 0.083869 0.103741 0.517808
O O6 0.000000 0.000000 0.500000
O O7 0.722560 0.653744 0.548874
O O8 0.931086 0.404436 0.624987
O O9 0.000000 0.500000 0.500000
O O10 0.775362 0.707213 0.938002
O O11 0.332265 0.167188 0.575786
O O12 0.406781 0.284639 0.767801
O O13 0.578229 0.026738 0.288381
O O14 0.121357 0.232926 0.807586
O O15 0.833815 0.393808 0.934643
O O16 0.500000 0.500000 0.500000
O O17 0.593429 0.561797 0.318439
O O18 0.602129 0.555528 0.813580
#
# Coordination Sequence:
#
# PCOD9073072 Si02
#       8
#     2   2   2   2   2   2   2   2
#     4  10  20  41  65  93 134 180 229 297 358 422
#     4  10  22  39  66 101 138 180 237 304 359 428
#     4  12  23  44  73 107 146 202 252 315 372 454
#     4  11  25  45  70 101 156 189 246 310 386 451
#     4  12  24  44  74 109 145 197 261 304 380 448
#     4  12  27  47  73 104 149 195 251 312 384 451
#     4  11  25  46  67 107 147 197 243 318 381 450
#     4  12  25  46  74 109 142 198 255 313 374 463
#
# _framework density 21.77685
#
# number of rings (size 3 to 8) (size 9 to 14) (size 15 to 20)
#    0.000    0.750    2.500    6.375    0.000    4.000 
#    0.000    0.000    0.000    0.000    0.000    0.000 
#    0.000    0.000    0.000    0.000    0.000    0.000 
#
# Total GULP energy -89131.982386 kJ/mol
# GULP energy per Si atom -5570.748899 kJ/mol
# Density = 2.172728 g / cm^3
# Si number density = 21.776850 Si / 1000 Ang^3
#
#
#
# Elastic Constant Matrix: (Units=GPa)
#
#
# Indices 1 2 3 4 5 6 
#
# 1 112.7741 23.5518 37.6397 -12.1549 4.4973 -0.9932
# 2 23.5518 108.2273 47.2958 -13.4151 -0.0597 9.7480
# 3 37.6397 47.2958 129.8114 -23.1757 18.1257 4.5205
# 4 -12.1549 -13.4151 -23.1757 49.8136 3.5909 1.0158
# 5 4.4973 -0.0597 18.1257 3.5909 46.6108 9.4436
# 6 -0.9932 9.7480 4.5205 1.0158 9.4436 46.5397
#
#
#
# Elastic Compliance Matrix: (Units=1/GPa)
#
#
# Indices 1 2 3 4 5 6 
#
# 1 0.009996 -0.001106 -0.002283 0.001086 -0.000304 0.000705
# 2 -0.001106 0.011534 -0.003923 0.000912 0.002083 -0.002501
# 3 -0.002283 -0.003923 0.011095 0.003862 -0.004503 0.000525
# 4 0.001086 0.000912 0.003862 0.022626 -0.003273 -0.000373
# 5 -0.000304 0.002083 -0.004503 -0.003273 0.024483 -0.004902
# 6 0.000705 -0.002501 0.000525 -0.000373 -0.004902 0.022978
#
#
# Mechanical properties :
#
#
# Convention : Reuss Voigt Hill
#
# Bulk Modulus (GPa) = 55.55489 63.08747 59.32118
# Shear Modulus (GPa) = 40.53964 44.74786 42.64375
#
# Velocity S-wave (km/s) = 4.31930 4.53795 4.42997
# Velocity P-wave (km/s) = 7.10222 7.51599 7.31203
#
# Compressibility (1/GPa) = 0.01800022
#
# Stress axis : x y z
#
# Youngs Moduli (GPa) = 100.04119 86.69834 90.13286
#
# Poissons Ratio (x) = 0.09592 0.20580
# Poissons Ratio (y) = 0.11069 0.35355
# Poissons Ratio (z) = 0.22843 0.34008
#
# Static dielectric constant tensor:
#      x y z
#    x 1.849270 -0.067430 -0.040540 
#    y -0.067430 2.029430 0.069390 
#    z -0.040540 0.069390 1.963450 
# 
# From -- ./inp_files/90051.got.cif
#   From: 2010.05.17/outbox.ucp.g08.bks.cvg/sg2_46_cif.got.tgz:90051.got - 2010.06.11 11:32:03.
