data_PCOD9073190
_publ_section_title
;
Structure prediction by ZEFSAII (Michael W. Deem and Ramdas Pophale) SiO2 
 PCOD9073190
Probable space group: P -1
;
_chemical_formula_sum "Si O2"
_cell_formula_units_Z 14
_cell_length_a 18.000000
_cell_length_b 12.000000
_cell_length_c 21.000000
_cell_angle_alpha 140.000000
_cell_angle_beta 160.000000
_cell_angle_gamma 30.000000
_cell_volume 744.844803
_symmetry_space_group_name_H-M "P -1"
_symmetry_group_IT_number 2
_symmetry_cell_setting 'triclinic'
loop_
_space_group_symop_operation_xyz
x,y,z
-x,-y,-z
loop_
_atom_site_type_symbol
_atom_site_label
_atom_site_fract_x
_atom_site_fract_y
_atom_site_fract_z
Si Si1 0.196952 0.062409 0.769448
Si Si2 0.545273 0.917928 0.663854
Si Si3 0.784950 0.236779 0.634198
Si Si4 0.525117 0.551340 0.795751
Si Si5 0.976152 0.493832 0.226878
Si Si6 0.982856 0.333522 0.956501
Si Si7 0.644457 0.768505 0.471412
O O1 0.012876 0.149529 0.723799
O O2 0.051863 0.282687 0.703038
O O3 0.261683 0.830074 0.699828
O O4 0.500000 0.000000 0.000000
O O5 0.306576 0.913284 0.496638
O O6 0.757601 0.699390 0.690634
O O7 0.406209 0.138471 0.601560
O O8 0.745433 0.853021 0.858981
O O9 0.500000 0.500000 0.500000
O O10 0.914355 0.227604 0.801846
O O11 0.717798 0.483444 0.858390
O O12 0.472003 0.370890 0.679001
O O13 0.710025 0.526652 0.995095
O O14 0.047974 0.407810 0.320166
O O15 0.000000 0.500000 0.000000
O O16 0.500000 0.000000 0.500000
#
# Coordination Sequence:
#
# PCOD9073190 Si02
#       7
#     2   2   2   2   2   2   2
#     4  10  21  40  62  93 127 156 197 254 310 366
#     4  10  21  35  57  88 116 156 207 248 287 363
#     4  12  21  38  63  87 122 157 198 249 308 354
#     4  10  22  37  60  89 121 162 200 248 310 357
#     4   9  18  36  58  87 123 153 201 251 296 356
#     4  11  20  35  60  88 121 151 202 253 299 354
#     4  10  21  36  57  87 122 161 207 248 293 360
#
# _framework density 18.795862
#
# number of rings (size 3 to 8) (size 9 to 14) (size 15 to 20)
#    0.000    1.714    2.857    3.429    0.000    6.857 
#    0.000    2.143    0.000    4.286    0.000    0.000 
#    0.000    0.000    0.000    0.000    0.000    0.000 
#
# Total GULP energy -77948.769570 kJ/mol
# GULP energy per Si atom -5567.769255 kJ/mol
# Density = 1.875308 g / cm^3
# Si number density = 18.795862 Si / 1000 Ang^3
#
#
#
# Elastic Constant Matrix: (Units=GPa)
#
#
# Indices 1 2 3 4 5 6 
#
# 1 117.8455 47.2530 56.8668 -5.7660 -15.9028 26.9031
# 2 47.2530 116.4084 43.1549 10.8096 -7.6868 23.5787
# 3 56.8668 43.1549 90.8900 11.3168 -18.1358 4.3032
# 4 -5.7660 10.8096 11.3168 30.0601 3.7368 -2.9607
# 5 -15.9028 -7.6868 -18.1358 3.7368 42.6205 -7.0434
# 6 26.9031 23.5787 4.3032 -2.9607 -7.0434 39.3050
#
#
#
# Elastic Compliance Matrix: (Units=1/GPa)
#
#
# Indices 1 2 3 4 5 6 
#
# 1 0.016108 -0.001886 -0.009698 0.006644 -0.000428 -0.008409
# 2 -0.001886 0.012429 -0.004143 -0.003764 -0.000913 -0.006159
# 3 -0.009698 -0.004143 0.021036 -0.008377 0.006536 0.007361
# 4 0.006644 -0.003764 -0.008377 0.039756 -0.005134 0.000702
# 5 -0.000428 -0.000913 0.006536 -0.005134 0.027130 0.004600
# 6 -0.008409 -0.006159 0.007361 0.000702 0.004600 0.034964
#
#
# Mechanical properties :
#
#
# Convention : Reuss Voigt Hill
#
# Bulk Modulus (GPa) = 55.18859 68.85482 62.02171
# Shear Modulus (GPa) = 26.46679 34.25507 30.36093
#
# Velocity S-wave (km/s) = 3.75656 4.27368 4.02344
# Velocity P-wave (km/s) = 6.94561 7.81441 7.39278
#
# Compressibility (1/GPa) = 0.01811969
#
# Stress axis : x y z
#
# Youngs Moduli (GPa) = 62.07907 80.45986 47.53775
#
# Poissons Ratio (x) = 0.15171 0.46101
# Poissons Ratio (y) = 0.11706 0.19696
# Poissons Ratio (z) = 0.60203 0.33336
#
# Static dielectric constant tensor:
#      x y z
#    x 1.629360 0.013070 -0.026070 
#    y 0.013070 1.744690 -0.067280 
#    z -0.026070 -0.067280 1.781970 
# 
# From -- ./inp_files/273337.got.cif
#   From: 2010.05.17/outbox.ucp.g08.bks.cvg/sg2_137_cif.got.tgz:273337.got - 2010.06.11 11:32:03.
