data_PCOD9073358
_publ_section_title
;
Structure prediction by ZEFSAII (Michael W. Deem and Ramdas Pophale) SiO2 
 PCOD9073358
Probable space group: P -1
;
_chemical_formula_sum "Si O2"
_cell_formula_units_Z 16
_cell_length_a 9.000000
_cell_length_b 12.000000
_cell_length_c 15.000000
_cell_angle_alpha 70.000000
_cell_angle_beta 40.000000
_cell_angle_gamma 50.000000
_cell_volume 759.581896
_symmetry_space_group_name_H-M "P -1"
_symmetry_group_IT_number 2
_symmetry_cell_setting 'triclinic'
loop_
_space_group_symop_operation_xyz
x,y,z
-x,-y,-z
loop_
_atom_site_type_symbol
_atom_site_label
_atom_site_fract_x
_atom_site_fract_y
_atom_site_fract_z
Si Si1 0.030940 0.058367 0.826420
Si Si2 0.588243 0.132600 0.735012
Si Si3 0.323754 0.393446 0.925140
Si Si4 0.306594 0.356405 0.633192
Si Si5 0.428306 0.926258 0.838815
Si Si6 0.723776 0.408270 0.840392
Si Si7 0.070989 0.326670 0.217256
Si Si8 0.894073 0.129113 0.326851
O O1 0.909038 0.226783 0.813618
O O2 0.333540 0.964047 0.769898
O O3 0.068119 0.969431 0.745992
O O4 0.797058 0.076001 0.997333
O O5 0.517992 0.247579 0.813375
O O6 0.445008 0.233930 0.684003
O O7 0.422245 0.061165 0.842496
O O8 0.931016 0.983328 0.637071
O O9 0.500523 0.458068 0.846027
O O10 0.000000 0.500000 0.000000
O O11 0.262451 0.349980 0.059650
O O12 0.234107 0.508544 0.665497
O O13 0.554901 0.264901 0.469579
O O14 0.985899 0.419125 0.725414
O O15 0.748577 0.764818 0.751764
O O16 0.500000 0.500000 0.000000
O O17 0.032682 0.212665 0.218939
#
# Coordination Sequence:
#
# PCOD9073358 Si02
#       8
#     2   2   2   2   2   2   2   2
#     4  11  21  40  63  96 126 166 215 259 325 373
#     4  11  21  40  64  98 123 170 214 267 313 372
#     4  12  22  39  68  99 125 153 214 271 322 365
#     4  12  24  43  63  93 133 173 212 258 321 383
#     4  10  21  38  66  91 126 162 212 272 314 374
#     4  12  22  41  66  96 129 163 207 269 324 368
#     4  11  22  43  64  91 127 170 214 261 320 371
#     4  11  25  42  64  92 132 175 215 255 312 389
#
# _framework density 21.064219999999999
#
# number of rings (size 3 to 8) (size 9 to 14) (size 15 to 20)
#    0.000    0.750    6.250    1.500    0.000    2.500 
#    2.250    0.625    0.000    0.000    0.000    0.000 
#    0.000    0.000    0.000    0.000    0.000    0.000 
#
# Total GULP energy -89225.160932 kJ/mol
# GULP energy per Si atom -5576.572558 kJ/mol
# Density = 2.101628 g / cm^3
# Si number density = 21.064220 Si / 1000 Ang^3
#
#
#
# Elastic Constant Matrix: (Units=GPa)
#
#
# Indices 1 2 3 4 5 6 
#
# 1 103.3955 12.3765 -3.4717 -5.7116 -10.6650 -0.1470
# 2 12.3765 56.6368 -2.2185 10.8477 10.4150 9.5893
# 3 -3.4717 -2.2185 21.0384 5.8041 -8.7754 -0.1031
# 4 -5.7116 10.8477 5.8041 12.2906 -7.5223 -1.5660
# 5 -10.6650 10.4150 -8.7754 -7.5223 13.1578 8.0690
# 6 -0.1470 9.5893 -0.1031 -1.5660 8.0690 37.5352
#
#
#
# Elastic Compliance Matrix: (Units=1/GPa)
#
#
# Indices 1 2 3 4 5 6 
#
# 1 -0.007015 0.029363 -0.012802 -0.073696 -0.084171 0.007456
# 2 0.029363 -0.038426 0.032464 0.128340 0.161041 -0.019244
# 3 -0.012802 0.032464 0.051752 -0.092117 -0.053947 -0.000448
# 4 -0.073696 0.128340 -0.092117 -0.260244 -0.396746 0.041102
# 5 -0.084171 0.161041 -0.053947 -0.396746 -0.399487 0.027706
# 6 0.007456 -0.019244 -0.000448 0.041102 0.027706 0.027345
#
#
# Mechanical properties :
#
#
# Convention : Reuss Voigt Hill
#
# Bulk Modulus (GPa) = 9.58210 21.60482 15.59346
# Shear Modulus (GPa) = -7.25334 24.22233 8.48450
#
# Velocity S-wave (km/s) = -1.85766 3.39474 2.00914
# Velocity P-wave (km/s) = 0.20579 5.06405 3.57786
#
# Compressibility (1/GPa) = 0.10436124
#
# Stress axis : x y z
#
# Youngs Moduli (GPa) = -142.54188 -26.02438 19.32290
#
# Poissons Ratio (x) = 0.76415 0.24737
# Poissons Ratio (y) = 4.18543 -0.62731
# Poissons Ratio (z) = -1.82484 0.84487
#
# Static dielectric constant tensor:
#      x y z
#    x 1.815290 -0.033790 -0.056430 
#    y -0.033790 1.748810 -0.005490 
#    z -0.056430 -0.005490 1.756410 
# 
# From -- ./inp_files/179183.got.cif
#   From: 2010.05.17/outbox.ucp.g08.bks.cvg/sg2_90_cif.got.tgz:179183.got - 2010.06.11 11:32:03.
