data_PCOD9073957
_publ_section_title
;
Structure prediction by ZEFSAII (Michael W. Deem and Ramdas Pophale) SiO2 
 PCOD9073957
Probable space group: P -1
;
_chemical_formula_sum "Si O2"
_cell_formula_units_Z 14
_cell_length_a 9.260229
_cell_length_b 20.149010
_cell_length_c 9.436534
_cell_angle_alpha 154.446023
_cell_angle_beta 55.440433
_cell_angle_gamma 122.416061
_cell_volume 624.014132
_symmetry_space_group_name_H-M "P -1"
_symmetry_group_IT_number 2
_symmetry_cell_setting 'triclinic'
loop_
_space_group_symop_operation_xyz
x,y,z
-x,-y,-z
loop_
_atom_site_type_symbol
_atom_site_label
_atom_site_fract_x
_atom_site_fract_y
_atom_site_fract_z
Si Si1 0.554089 0.351257 0.267018
Si Si2 0.031116 0.727934 0.815797
Si Si3 0.801345 0.969684 0.816502
Si Si4 0.506044 0.110297 0.369914
Si Si5 0.680227 0.829621 0.143036
Si Si6 0.122784 0.829841 0.281896
Si Si7 0.618133 0.386335 0.630872
O O1 0.500000 0.500000 0.500000
O O2 0.561946 0.373601 0.474303
O O3 0.410172 0.216008 0.041272
O O4 0.743220 0.298970 0.009774
O O5 0.167051 0.596311 0.459768
O O6 0.064106 0.795655 0.085956
O O7 0.823717 0.707423 0.868009
O O8 0.087349 0.867565 0.946108
O O9 0.684396 0.949203 0.698869
O O10 0.943779 0.842679 0.495633
O O11 0.652982 0.986686 0.049566
O O12 0.472671 0.183036 0.678574
O O13 0.573595 0.230425 0.443502
O O14 0.767711 0.003878 0.442469
O O15 0.500000 0.500000 0.000000
#
# Coordination Sequence:
#
# PCOD9073957 Si02
#       7
#     2   2   2   2   2   2   2
#     4  11  25  41  58  83 123 161 200 239 292 348
#     4   9  17  34  62  89 116 147 198 238 288 356
#     4   9  16  30  56  91 118 141 186 243 285 338
#     4  10  18  31  63  92 114 142 194 242 295 335
#     4  11  19  37  66  93 114 152 192 249 297 345
#     4  10  18  37  60  90 120 156 195 234 289 360
#     4  10  22  41  59  81 117 159 197 241 291 353
#
# _framework density 22.435390000000002
#
# number of rings (size 3 to 8) (size 9 to 14) (size 15 to 20)
#    0.000    2.000    2.857    2.143    2.000    0.000 
#    2.571    3.571    6.286    0.000    0.000    0.000 
#    0.000    0.000    0.000    0.000    0.000    0.000 
#
# Total GULP energy -78095.056523 kJ/mol
# GULP energy per Si atom -5578.218323 kJ/mol
# Density = 2.238433 g / cm^3
# Si number density = 22.435390 Si / 1000 Ang^3
#
#
#
# Elastic Constant Matrix: (Units=GPa)
#
#
# Indices 1 2 3 4 5 6 
#
# 1 112.6389 25.9404 84.3851 -27.3859 -35.2982 -5.5252
# 2 25.9404 66.4448 36.1502 -11.9501 -14.3929 -15.3696
# 3 84.3851 36.1502 173.9645 -30.3912 -53.9937 -6.9868
# 4 -27.3859 -11.9501 -30.3912 24.8097 3.3848 -2.5482
# 5 -35.2982 -14.3929 -53.9937 3.3848 48.9112 -2.5967
# 6 -5.5252 -15.3696 -6.9868 -2.5482 -2.5967 21.6024
#
#
#
# Elastic Compliance Matrix: (Units=1/GPa)
#
#
# Indices 1 2 3 4 5 6 
#
# 1 0.018168 0.001353 -0.002906 0.016641 0.009563 0.007782
# 2 0.001353 0.023154 0.000277 0.013876 0.008172 0.019529
# 3 -0.002906 0.000277 0.013266 0.012202 0.012137 0.006643
# 4 0.016641 0.013876 0.012202 0.079949 0.025654 0.030590
# 5 0.009563 0.008172 0.012137 0.025654 0.042452 0.020315
# 6 0.007782 0.019529 0.006643 0.030590 0.020315 0.070374
#
#
# Mechanical properties :
#
#
# Convention : Reuss Voigt Hill
#
# Bulk Modulus (GPa) = 19.21772 71.77774 45.49773
# Shear Modulus (GPa) = 18.70829 32.83616 25.77222
#
# Velocity S-wave (km/s) = 2.89082 3.82984 3.39297
# Velocity P-wave (km/s) = 4.44149 7.18466 5.97270
#
# Compressibility (1/GPa) = 0.05203532
#
# Stress axis : x y z
#
# Youngs Moduli (GPa) = 55.04209 43.18863 75.38183
#
# Poissons Ratio (x) = -0.05841 0.21907
# Poissons Ratio (y) = -0.07444 -0.02091
# Poissons Ratio (z) = 0.15996 -0.01198
#
# Static dielectric constant tensor:
#      x y z
#    x 1.889240 0.056280 -0.020340 
#    y 0.056280 1.854220 0.047030 
#    z -0.020340 0.047030 1.939540 
# 
# From -- ./inp_files/182865.got.cif
#   From: 2010.05.17/outbox.cif.g08.bks.cpg/sg2_92_cif.got.tgz:182865.got - 2010.06.03 11:33:40.
