data_PCOD9073256
_publ_section_title
;
Structure prediction by ZEFSAII (Michael W. Deem and Ramdas Pophale) SiO2 
 PCOD9073256
Probable space group: P -1
;
_chemical_formula_sum "Si O2"
_cell_formula_units_Z 14
_cell_length_a 27.000000
_cell_length_b 6.000000
_cell_length_c 24.000000
_cell_angle_alpha 110.000000
_cell_angle_beta 170.000000
_cell_angle_gamma 70.000000
_cell_volume 634.106208
_symmetry_space_group_name_H-M "P -1"
_symmetry_group_IT_number 2
_symmetry_cell_setting 'triclinic'
loop_
_space_group_symop_operation_xyz
x,y,z
-x,-y,-z
loop_
_atom_site_type_symbol
_atom_site_label
_atom_site_fract_x
_atom_site_fract_y
_atom_site_fract_z
Si Si1 0.694428 0.544416 0.905903
Si Si2 0.581128 0.785669 0.616475
Si Si3 0.566798 0.564101 0.942564
Si Si4 0.736068 0.184215 0.618270
Si Si5 0.043156 0.162030 0.691971
Si Si6 0.695196 0.723818 0.459969
Si Si7 0.807070 0.862045 0.319832
O O1 0.470011 0.600257 0.613383
O O2 0.512164 0.408003 0.738213
O O3 0.797184 0.791174 0.069144
O O4 0.986393 0.400604 0.200683
O O5 0.500000 0.500000 0.500000
O O6 0.417001 0.879827 0.498715
O O7 0.500000 0.000000 0.500000
O O8 0.928002 0.770029 0.999888
O O9 0.458891 0.319923 0.774536
O O10 0.265994 0.709766 0.629656
O O11 0.770332 0.694853 0.134621
O O12 0.726821 0.607887 0.182652
O O13 0.725436 0.982484 0.541366
O O14 0.973903 0.905795 0.566627
O O15 0.000000 0.000000 0.500000
O O16 0.500000 0.000000 0.000000
#
# Coordination Sequence:
#
# PCOD9073256 Si02
#       7
#     2   2   2   2   2   2   2
#     4  10  21  37  61  91 128 166 218 268 326 391
#     4  12  30  52  78 108 142 179 224 273 334 408
#     4   8  14  25  43  73 109 155 204 261 312 377
#     4  12  26  44  74  99 134 176 214 274 330 401
#     4   8  14  25  43  73 109 155 204 261 312 377
#     4  10  21  37  61  91 128 166 218 268 326 391
#     4   8  12  20  38  65 104 149 204 253 313 370
#
# _framework density 22.078320000000001
#
# number of rings (size 3 to 8) (size 9 to 14) (size 15 to 20)
#    0.000    2.286    0.000    2.571    6.000    0.000 
#    0.000    0.000    0.000    0.857    0.000    0.000 
#    0.000   36.571    0.000    0.000    0.000    5.000 
#
# Total GULP energy -78017.792023 kJ/mol
# GULP energy per Si atom -5572.699430 kJ/mol
# Density = 2.202807 g / cm^3
# Si number density = 22.078320 Si / 1000 Ang^3
#
#
#
# Elastic Constant Matrix: (Units=GPa)
#
#
# Indices 1 2 3 4 5 6 
#
# 1 68.3707 7.6178 42.5260 -16.7470 20.7693 -16.1055
# 2 7.6178 66.5825 29.6776 -0.9792 -7.8350 -21.4873
# 3 42.5260 29.6776 187.7235 -11.6903 18.4935 -1.6086
# 4 -16.7470 -0.9792 -11.6903 29.6719 -1.9741 2.2605
# 5 20.7693 -7.8350 18.4935 -1.9741 49.8853 -6.1224
# 6 -16.1055 -21.4873 -1.6086 2.2605 -6.1224 29.7689
#
#
#
# Elastic Compliance Matrix: (Units=1/GPa)
#
#
# Indices 1 2 3 4 5 6 
#
# 1 0.024857 0.002987 -0.004715 0.010855 -0.006073 0.013276
# 2 0.002987 0.024313 -0.005066 -0.000598 0.006928 0.020362
# 3 -0.004715 -0.005066 0.007397 0.000412 -0.002334 -0.006319
# 4 0.010855 -0.000598 0.000412 0.039633 -0.002971 0.001843
# 5 -0.006073 0.006928 -0.002334 -0.002971 0.025271 0.007012
# 6 0.013276 0.020362 -0.006319 0.001843 0.007012 0.056433
#
#
# Mechanical properties :
#
#
# Convention : Reuss Voigt Hill
#
# Bulk Modulus (GPa) = 23.26663 53.59106 38.42885
# Shear Modulus (GPa) = 24.29336 38.05556 31.17446
#
# Velocity S-wave (km/s) = 3.32072 4.15620 3.76173
# Velocity P-wave (km/s) = 5.02633 6.88171 6.02586
#
# Compressibility (1/GPa) = 0.04298001
#
# Stress axis : x y z
#
# Youngs Moduli (GPa) = 40.22976 41.13108 135.18158
#
# Poissons Ratio (x) = -0.12287 0.63742
# Poissons Ratio (y) = -0.12018 0.68478
# Poissons Ratio (z) = 0.18970 0.20835
#
# Static dielectric constant tensor:
#      x y z
#    x 1.778400 -0.061330 -0.110960 
#    y -0.061330 1.851990 0.015220 
#    z -0.110960 0.015220 1.780070 
# 
# From -- ./inp_files/9437.got.cif
#   From: 2010.05.17/outbox.ucp.g08.bks.cvg/sg2_5_cif.got.tgz:9437.got - 2010.06.11 11:32:03.
