data_PCOD9073461
_publ_section_title
;
Structure prediction by ZEFSAII (Michael W. Deem and Ramdas Pophale) SiO2 
 PCOD9073461
Probable space group: P -1
;
_chemical_formula_sum "Si O2"
_cell_formula_units_Z 9
_cell_length_a 6.985934
_cell_length_b 9.380062
_cell_length_c 10.282376
_cell_angle_alpha 54.573102
_cell_angle_beta 39.195476
_cell_angle_gamma 77.291856
_cell_volume 310.696619
_symmetry_space_group_name_H-M "P -1"
_symmetry_group_IT_number 2
_symmetry_cell_setting 'triclinic'
loop_
_space_group_symop_operation_xyz
x,y,z
-x,-y,-z
loop_
_atom_site_type_symbol
_atom_site_label
_atom_site_fract_x
_atom_site_fract_y
_atom_site_fract_z
Si Si1 0.143172 0.081843 0.217793
Si Si2 0.782297 0.221347 0.162501
Si Si3 0.539493 0.921902 0.225352
Si Si4 0.495896 0.497712 0.755326
Si Si5 0.500000 0.500000 0.500000
O O1 0.808188 0.101854 0.339401
O O2 0.189269 0.932954 0.368532
O O3 0.264108 0.041886 0.034179
O O4 0.405736 0.308545 0.989697
O O5 0.545986 0.328808 0.246197
O O6 0.739461 0.098182 0.123359
O O7 0.173990 0.401074 0.864316
O O8 0.498431 0.717890 0.406378
O O9 0.759525 0.541116 0.480631
#
# Coordination Sequence:
#
# PCOD9073461 Si02
#       5
#     2   2   2   2   1
#     4   8  17  32  51  77  95 127 172 198 227 315
#     4   9  17  34  56  72  93 139 161 201 236 305
#     4  10  18  31  55  70 104 129 165 197 254 274
#     4   8  18  34  52  74 103 119 174 198 246 288
#     4  10  20  32  50  76 102 132 154 218 240 288
#
# _framework density 28.967161999999998
#
# number of rings (size 3 to 8) (size 9 to 14) (size 15 to 20)
#    1.333    1.778    0.000    0.667    0.000    1.778 
#    0.000    2.222    4.889    0.000    0.000    0.000 
#    0.000    0.000    0.000    0.000    0.000    0.000 
#
# Total GULP energy -50163.609631 kJ/mol
# GULP energy per Si atom -5573.734403 kJ/mol
# Density = 2.890123 g / cm^3
# Si number density = 28.967162 Si / 1000 Ang^3
#
#
#
# Elastic Constant Matrix: (Units=GPa)
#
#
# Indices 1 2 3 4 5 6 
#
# 1 109.5560 26.8738 40.1933 -22.4003 16.0917 -5.4463
# 2 26.8738 213.0458 28.5849 -58.0009 -3.1926 13.7322
# 3 40.1933 28.5849 120.9429 -29.9759 26.6410 0.2963
# 4 -22.4003 -58.0009 -29.9759 44.8380 -17.2289 -13.1952
# 5 16.0917 -3.1926 26.6410 -17.2289 44.8553 3.8130
# 6 -5.4463 13.7322 0.2963 -13.1952 3.8130 30.5810
#
#
#
# Elastic Compliance Matrix: (Units=1/GPa)
#
#
# Indices 1 2 3 4 5 6 
#
# 1 0.011378 -0.000124 -0.002303 0.004772 -0.001257 0.004321
# 2 -0.000124 0.008309 0.000148 0.013296 0.005545 0.001291
# 3 -0.002303 0.000148 0.011278 0.005815 -0.003832 0.002401
# 4 0.004772 0.013296 0.005815 0.057156 0.016250 0.017459
# 5 -0.001257 0.005545 -0.003832 0.016250 0.031624 0.000392
# 6 0.004321 0.001291 0.002401 0.017459 0.000392 0.040351
#
#
# Mechanical properties :
#
#
# Convention : Reuss Voigt Hill
#
# Bulk Modulus (GPa) = 37.86703 70.53875 54.20289
# Shear Modulus (GPa) = 28.82546 47.24769 38.03658
#
# Velocity S-wave (km/s) = 3.15796 4.04304 3.62759
# Velocity P-wave (km/s) = 5.13787 6.79699 6.02481
#
# Compressibility (1/GPa) = 0.02640820
#
# Stress axis : x y z
#
# Youngs Moduli (GPa) = 87.88620 120.34527 88.66636
#
# Poissons Ratio (x) = 0.01497 0.20418
# Poissons Ratio (y) = 0.01093 -0.01314
# Poissons Ratio (z) = 0.20238 -0.01784
#
# Static dielectric constant tensor:
#      x y z
#    x 2.531800 -0.000990 -0.161240 
#    y -0.000990 2.329950 0.356140 
#    z -0.161240 0.356140 2.776340 
# 
# From -- ./inp_files/144233.got.cif
#   From: 2010.05.17/outbox.cif.g08.bks.cpg/sg2_73_cif.got.tgz:144233.got - 2010.06.03 11:33:40.
