data_PCOD9073466
_publ_section_title
;
Structure prediction by ZEFSAII (Michael W. Deem and Ramdas Pophale) SiO2 
 PCOD9073466
Probable space group: P -1
;
_chemical_formula_sum "Si O2"
_cell_formula_units_Z 16
_cell_length_a 15.000000
_cell_length_b 9.000000
_cell_length_c 9.000000
_cell_angle_alpha 70.000000
_cell_angle_beta 50.000000
_cell_angle_gamma 100.000000
_cell_volume 732.374747
_symmetry_space_group_name_H-M "P -1"
_symmetry_group_IT_number 2
_symmetry_cell_setting 'triclinic'
loop_
_space_group_symop_operation_xyz
x,y,z
-x,-y,-z
loop_
_atom_site_type_symbol
_atom_site_label
_atom_site_fract_x
_atom_site_fract_y
_atom_site_fract_z
Si Si1 0.762240 0.121824 0.055408
Si Si2 0.107993 0.096220 0.138362
Si Si3 0.781073 0.432127 0.709251
Si Si4 0.192162 0.185952 0.360991
Si Si5 0.990662 0.460233 0.817404
Si Si6 0.196104 0.485203 0.832716
Si Si7 0.542455 0.826483 0.938653
Si Si8 0.478509 0.869543 0.320799
O O1 0.771968 0.287741 0.889633
O O2 0.862880 0.240391 0.043305
O O3 0.840353 0.033841 0.928895
O O4 0.597573 0.969025 0.285839
O O5 0.155367 0.140153 0.243191
O O6 0.186637 0.290475 0.894594
O O7 0.940171 0.984493 0.350628
O O8 0.804658 0.626843 0.670664
O O9 0.913354 0.482154 0.449869
O O10 0.624589 0.322704 0.845027
O O11 0.343040 0.218288 0.214499
O O12 0.106593 0.508381 0.797700
O O13 0.903173 0.554949 0.903887
O O14 0.350618 0.670942 0.588792
O O15 0.571580 0.999990 0.741068
O O16 0.555941 0.860905 0.091299
#
# Coordination Sequence:
#
# PCOD9073466 Si02
#       8
#     2   2   2   2   2   2   2   2
#     4  11  23  43  68  94 126 167 214 263 314 369
#     4  11  25  38  65  96 127 166 211 261 316 375
#     4  11  22  41  68  94 127 163 213 265 312 371
#     4  11  23  40  65  98 126 160 214 268 309 369
#     4  11  24  41  65  92 127 171 208 257 316 378
#     4  11  26  42  63  91 132 172 209 254 321 377
#     4  10  21  39  68  95 124 163 214 257 318 371
#     4  10  22  42  66  94 127 167 208 262 313 378
#
# _framework density 21.846738999999999
#
# number of rings (size 3 to 8) (size 9 to 14) (size 15 to 20)
#    0.000    1.250    3.750    1.500    7.000    1.500 
#    0.000    0.000    0.000    0.000    0.000    0.000 
#    0.000    0.000    0.000    0.000    0.000    0.000 
#
# Total GULP energy -89214.616719 kJ/mol
# GULP energy per Si atom -5575.913545 kJ/mol
# Density = 2.179701 g / cm^3
# Si number density = 21.846739 Si / 1000 Ang^3
#
#
#
# Elastic Constant Matrix: (Units=GPa)
#
#
# Indices 1 2 3 4 5 6 
#
# 1 65.6504 14.5465 41.5298 -3.9567 -35.9322 2.1097
# 2 14.5465 78.5391 33.1805 -10.4129 -7.0829 -9.6067
# 3 41.5298 33.1805 105.5892 -20.9534 -38.0191 -13.3886
# 4 -3.9567 -10.4129 -20.9534 38.1051 4.7136 -10.8909
# 5 -35.9322 -7.0829 -38.0191 4.7136 28.2150 -8.7403
# 6 2.1097 -9.6067 -13.3886 -10.8909 -8.7403 32.9429
#
#
#
# Elastic Compliance Matrix: (Units=1/GPa)
#
#
# Indices 1 2 3 4 5 6 
#
# 1 0.208441 -0.018998 0.171078 0.109253 0.544588 0.231247
# 2 -0.018998 0.016938 -0.019958 -0.007098 -0.051190 -0.017883
# 3 0.171078 -0.019958 0.195000 0.123682 0.530582 0.244137
# 4 0.109253 -0.007098 0.123682 0.109642 0.337417 0.166970
# 5 0.544588 -0.051190 0.530582 0.337417 1.591433 0.699617
# 6 0.231247 -0.017883 0.244137 0.166970 0.699617 0.350373
#
#
# Mechanical properties :
#
#
# Convention : Reuss Voigt Hill
#
# Bulk Modulus (GPa) = 1.46066 47.58801 24.52434
# Shear Modulus (GPa) = 2.05272 30.55408 16.30340
#
# Velocity S-wave (km/s) = 0.97038 3.74380 2.73474
# Velocity P-wave (km/s) = 1.38765 6.36537 4.60671
#
# Compressibility (1/GPa) = 0.68462098
#
# Stress axis : x y z
#
# Youngs Moduli (GPa) = 4.79753 59.03857 5.12821
#
# Poissons Ratio (x) = 1.12164 -0.87732
# Poissons Ratio (y) = 0.09115 0.10235
# Poissons Ratio (z) = -0.82075 1.17830
#
# Static dielectric constant tensor:
#      x y z
#    x 1.814670 0.092960 0.021450 
#    y 0.092960 1.924560 0.031270 
#    z 0.021450 0.031270 1.784740 
# 
# From -- ./inp_files/209550.got.cif
#   From: 2010.05.17/outbox.ucp.g08.bks.cvg/sg2_105_cif.got.tgz:209550.got - 2010.06.11 11:32:03.
