data_PCOD9073080
_publ_section_title
;
Structure prediction by ZEFSAII (Michael W. Deem and Ramdas Pophale) SiO2 
 PCOD9073080
Probable space group: P -1
;
_chemical_formula_sum "Si O2"
_cell_formula_units_Z 16
_cell_length_a 12.000000
_cell_length_b 15.000000
_cell_length_c 15.000000
_cell_angle_alpha 40.000000
_cell_angle_beta 60.000000
_cell_angle_gamma 30.000000
_cell_volume 747.221570
_symmetry_space_group_name_H-M "P -1"
_symmetry_group_IT_number 2
_symmetry_cell_setting 'triclinic'
loop_
_space_group_symop_operation_xyz
x,y,z
-x,-y,-z
loop_
_atom_site_type_symbol
_atom_site_label
_atom_site_fract_x
_atom_site_fract_y
_atom_site_fract_z
Si Si1 0.049908 0.073431 0.181924
Si Si2 0.535394 0.694719 0.380084
Si Si3 0.445199 0.293860 0.429345
Si Si4 0.116483 0.080291 0.605324
Si Si5 0.186657 0.456911 0.978762
Si Si6 0.544066 0.991965 0.090379
Si Si7 0.081394 0.620523 0.173640
Si Si8 0.526349 0.061162 0.315395
O O1 0.937586 0.285121 0.138543
O O2 0.344549 0.789925 0.317194
O O3 0.913663 0.052139 0.253307
O O4 0.996949 0.198644 0.012386
O O5 0.530077 0.670277 0.507823
O O6 0.467987 0.920617 0.223993
O O7 0.829418 0.402159 0.455588
O O8 0.207054 0.568660 0.251775
O O9 0.701375 0.080042 0.431521
O O10 0.406803 0.162657 0.548201
O O11 0.243210 0.056899 0.650471
O O12 0.394016 0.226931 0.148814
O O13 0.000000 0.500000 0.000000
O O14 0.363303 0.294485 0.946232
O O15 0.828463 0.767082 0.178584
O O16 0.500000 0.000000 0.000000
O O17 0.296748 0.312980 0.284046
#
# Coordination Sequence:
#
# PCOD9073080 Si02
#       8
#     2   2   2   2   2   2   2   2
#     4  11  24  47  62  95 140 177 225 273 321 410
#     4  12  24  43  70  97 135 170 230 281 324 399
#     4  11  23  43  68 102 132 168 229 282 327 400
#     4  11  26  43  68  95 135 189 214 267 349 384
#     4  11  21  39  67  96 132 170 220 278 333 385
#     4  12  21  38  67 102 128 168 215 280 341 380
#     4  10  22  38  65  96 130 169 220 272 333 392
#     4  10  20  41  66  95 134 168 220 281 324 400
#
# _framework density 21.412658
#
# number of rings (size 3 to 8) (size 9 to 14) (size 15 to 20)
#    0.000    1.000    3.750    4.125    1.750    7.000 
#    2.250    0.625    0.000    0.000    0.000    0.000 
#    0.000    0.000    0.000    0.000    0.000    0.000 
#
# Total GULP energy -89288.588028 kJ/mol
# GULP energy per Si atom -5580.536752 kJ/mol
# Density = 2.136392 g / cm^3
# Si number density = 21.412658 Si / 1000 Ang^3
#
#
#
# Elastic Constant Matrix: (Units=GPa)
#
#
# Indices 1 2 3 4 5 6 
#
# 1 93.8734 21.7866 34.1275 3.4029 11.8834 -23.6739
# 2 21.7866 53.5451 21.5174 -3.0480 18.7670 -10.4183
# 3 34.1275 21.5174 69.8601 -6.4966 20.0082 -2.3215
# 4 3.4029 -3.0480 -6.4966 31.8102 1.8362 11.3267
# 5 11.8834 18.7670 20.0082 1.8362 49.7204 5.7890
# 6 -23.6739 -10.4183 -2.3215 11.3267 5.7890 26.3287
#
#
#
# Elastic Compliance Matrix: (Units=1/GPa)
#
#
# Indices 1 2 3 4 5 6 
#
# 1 0.021359 0.000791 -0.009949 -0.012939 -0.003838 0.025051
# 2 0.000791 0.026517 -0.005676 -0.003198 -0.009444 0.014156
# 3 -0.009949 -0.005676 0.022377 0.009806 -0.003369 -0.012696
# 4 -0.012939 -0.003198 0.009806 0.045880 0.002421 -0.032306
# 5 -0.003838 -0.009444 -0.003369 0.002421 0.027559 -0.014586
# 6 0.025051 0.014156 -0.012696 -0.032306 -0.014586 0.082093
#
#
# Mechanical properties :
#
#
# Convention : Reuss Voigt Hill
#
# Bulk Modulus (GPa) = 24.63977 41.34907 32.99442
# Shear Modulus (GPa) = 18.58854 30.89502 24.74178
#
# Velocity S-wave (km/s) = 2.94957 3.80259 3.40291
# Velocity P-wave (km/s) = 4.80958 6.21547 5.55716
#
# Compressibility (1/GPa) = 0.04058480
#
# Stress axis : x y z
#
# Youngs Moduli (GPa) = 46.81944 37.71125 44.68775
#
# Poissons Ratio (x) = -0.02981 0.44459
# Poissons Ratio (y) = -0.03701 0.25364
# Poissons Ratio (z) = 0.46580 0.21405
#
# Static dielectric constant tensor:
#      x y z
#    x 1.787520 -0.009050 0.067570 
#    y -0.009050 1.894800 -0.038200 
#    z 0.067570 -0.038200 1.848120 
# 
# From -- ./inp_files/257950.got.cif
#   From: 2010.05.17/outbox.ucp.g08.bks.cvg/sg2_129_cif.got.tgz:257950.got - 2010.06.11 11:32:03.
