data_PCOD9073006
_publ_section_title
;
Structure prediction by ZEFSAII (Michael W. Deem and Ramdas Pophale) SiO2 
 PCOD9073006
Probable space group: P -1
;
_chemical_formula_sum "Si O2"
_cell_formula_units_Z 16
_cell_length_a 8.091454
_cell_length_b 14.332514
_cell_length_c 8.206373
_cell_angle_alpha 133.765428
_cell_angle_beta 56.593844
_cell_angle_gamma 103.901033
_cell_volume 557.928687
_symmetry_space_group_name_H-M "P -1"
_symmetry_group_IT_number 2
_symmetry_cell_setting 'triclinic'
loop_
_space_group_symop_operation_xyz
x,y,z
-x,-y,-z
loop_
_atom_site_type_symbol
_atom_site_label
_atom_site_fract_x
_atom_site_fract_y
_atom_site_fract_z
Si Si1 0.065059 0.253275 0.781768
Si Si2 0.919350 0.475728 0.786005
Si Si3 0.429774 0.874483 0.814609
Si Si4 0.015384 0.827596 0.942604
Si Si5 0.578046 0.300210 0.089092
Si Si6 0.978714 0.839659 0.621239
Si Si7 0.276060 0.527375 0.426809
Si Si8 0.429738 0.869001 0.425549
O O1 0.107231 0.399557 0.928275
O O2 0.122671 0.191626 0.854608
O O3 0.820426 0.268118 0.936703
O O4 0.141262 0.151645 0.473011
O O5 0.121129 0.474773 0.566677
O O6 0.933967 0.324595 0.641555
O O7 0.738736 0.515892 0.802567
O O8 0.177727 0.916408 0.998159
O O9 0.481296 0.834977 0.548664
O O10 0.494808 0.759127 0.777077
O O11 0.500000 0.000000 0.000000
O O12 0.899456 0.853476 0.866065
O O13 0.178248 0.683810 0.662021
O O14 0.514060 0.230723 0.878885
O O15 0.494759 0.456398 0.288778
O O16 0.181371 0.896227 0.584060
O O17 0.500000 0.000000 0.500000
#
# Coordination Sequence:
#
# PCOD9073006 Si02
#       8
#     2   2   2   2   2   2   2   2
#     4   9  17  29  50  77 105 140 175 210 264 316
#     4   9  17  32  52  77 109 151 179 205 262 336
#     4  10  18  31  52  78 106 139 178 219 265 317
#     4   8  17  30  45  73 107 136 167 212 259 314
#     4  10  20  34  54  85 112 137 176 228 272 314
#     4   9  17  30  49  76 103 134 184 215 258 316
#     4   9  18  34  54  77 116 146 172 216 275 323
#     4  10  19  34  54  80 108 140 181 226 276 316
#
# _framework density 28.677498
#
# number of rings (size 3 to 8) (size 9 to 14) (size 15 to 20)
#    0.000    2.750    1.250    1.125    0.000    4.500 
#    0.000   21.875    0.000    0.750    0.000    2.625 
#    0.000    0.000    0.000    0.000    0.000    0.000 
#
# Total GULP energy -89584.451327 kJ/mol
# GULP energy per Si atom -5599.028208 kJ/mol
# Density = 2.861223 g / cm^3
# Si number density = 28.677498 Si / 1000 Ang^3
#
#
#
# Elastic Constant Matrix: (Units=GPa)
#
#
# Indices 1 2 3 4 5 6 
#
# 1 107.2138 22.8687 61.5923 -3.9716 33.2462 -15.2310
# 2 22.8687 88.2715 21.5652 -34.1722 6.6330 4.5127
# 3 61.5923 21.5652 138.8921 -28.5454 49.4922 -11.5209
# 4 -3.9716 -34.1722 -28.5454 43.4895 -12.4746 15.6088
# 5 33.2462 6.6330 49.4922 -12.4746 73.9341 0.0116
# 6 -15.2310 4.5127 -11.5209 15.6088 0.0116 56.5720
#
#
#
# Elastic Compliance Matrix: (Units=1/GPa)
#
#
# Indices 1 2 3 4 5 6 
#
# 1 0.016770 -0.007721 -0.006639 -0.012831 -0.004570 0.007320
# 2 -0.007721 0.021562 0.002622 0.022365 0.003557 -0.009436
# 3 -0.006639 0.002622 0.013099 0.009483 -0.004418 -0.001945
# 4 -0.012831 0.022365 0.009483 0.054033 0.006535 -0.018217
# 5 -0.004570 0.003557 -0.004418 0.006535 0.019322 -0.004221
# 6 0.007320 -0.009436 -0.001945 -0.018217 -0.004221 0.025031
#
#
# Mechanical properties :
#
#
# Convention : Reuss Voigt Hill
#
# Bulk Modulus (GPa) = 35.77191 60.71441 48.24316
# Shear Modulus (GPa) = 27.38073 50.02250 38.70161
#
# Velocity S-wave (km/s) = 3.09331 4.18103 3.67760
# Velocity P-wave (km/s) = 5.02583 6.67273 5.90696
#
# Compressibility (1/GPa) = 0.02795489
#
# Stress axis : x y z
#
# Youngs Moduli (GPa) = 59.63092 46.37878 76.34305
#
# Poissons Ratio (x) = 0.35807 0.50687
# Poissons Ratio (y) = 0.46039 -0.20020
# Poissons Ratio (z) = 0.39591 -0.12162
#
# Static dielectric constant tensor:
#      x y z
#    x 2.281250 -0.022200 0.020710 
#    y -0.022200 2.327640 0.081410 
#    z 0.020710 0.081410 2.343900 
# 
# From -- ./inp_files/170449.got.cif
#   From: 2010.05.17/outbox.cif.g08.bks.cpg/sg2_86_cif.got.tgz:170449.got - 2010.06.03 11:33:40.
