data_PCOD9073485
_publ_section_title
;
Structure prediction by ZEFSAII (Michael W. Deem and Ramdas Pophale) SiO2 
 PCOD9073485
Probable space group: P -1
;
_chemical_formula_sum "Si O2"
_cell_formula_units_Z 16
_cell_length_a 15.000000
_cell_length_b 12.000000
_cell_length_c 15.000000
_cell_angle_alpha 140.000000
_cell_angle_beta 30.000000
_cell_angle_gamma 120.000000
_cell_volume 747.221570
_symmetry_space_group_name_H-M "P -1"
_symmetry_group_IT_number 2
_symmetry_cell_setting 'triclinic'
loop_
_space_group_symop_operation_xyz
x,y,z
-x,-y,-z
loop_
_atom_site_type_symbol
_atom_site_label
_atom_site_fract_x
_atom_site_fract_y
_atom_site_fract_z
Si Si1 0.044810 0.457585 0.659466
Si Si2 0.523044 0.963415 0.739395
Si Si3 0.137180 0.479478 0.783227
Si Si4 0.147822 0.000760 0.294436
Si Si5 0.167389 0.862648 0.996373
Si Si6 0.470472 0.300675 0.128407
Si Si7 0.722754 0.146280 0.555391
Si Si8 0.658912 0.487543 0.963997
O O1 0.004292 0.531117 0.840455
O O2 0.240246 0.463584 0.456125
O O3 0.832994 0.548665 0.846121
O O4 0.109705 0.223154 0.458682
O O5 0.688896 0.755495 0.515591
O O6 0.640936 0.008047 0.585801
O O7 0.334425 0.923859 0.859814
O O8 0.453203 0.160363 0.981810
O O9 0.227297 0.630544 0.798195
O O10 0.000000 0.500000 0.000000
O O11 0.106916 0.927686 0.192118
O O12 0.390372 0.852732 0.010266
O O13 0.000000 0.000000 0.500000
O O14 0.944499 0.006244 0.233408
O O15 0.612925 0.390860 0.030020
O O16 0.717112 0.309771 0.732373
O O17 0.551688 0.304787 0.735923
#
# Coordination Sequence:
#
# PCOD9073485 Si02
#       8
#     2   2   2   2   2   2   2   2
#     4  12  22  40  61  91 124 160 200 248 305 357
#     4  11  21  39  63  90 123 162 196 247 309 357
#     4  12  25  40  60  93 128 160 199 244 306 376
#     4  12  19  35  62  87 120 158 191 247 312 354
#     4  12  23  39  60  90 125 160 197 250 304 361
#     4  11  21  36  64  95 123 152 200 256 299 361
#     4  10  21  40  62  92 122 155 208 252 296 352
#     4  10  22  38  64  92 119 159 205 254 297 349
#
# _framework density 21.412658
#
# number of rings (size 3 to 8) (size 9 to 14) (size 15 to 20)
#    0.000    0.750    6.250    3.000    0.000    1.000 
#    0.000    4.375    0.000    1.500    0.000    0.000 
#    0.000    0.000    0.000    0.000    0.000    0.000 
#
# Total GULP energy -89216.406890 kJ/mol
# GULP energy per Si atom -5576.025431 kJ/mol
# Density = 2.136392 g / cm^3
# Si number density = 21.412658 Si / 1000 Ang^3
#
#
#
# Elastic Constant Matrix: (Units=GPa)
#
#
# Indices 1 2 3 4 5 6 
#
# 1 15.4702 -2.3619 18.6651 11.2445 -8.8976 11.9908
# 2 -2.3619 37.7534 10.2979 3.7477 -15.8799 23.0555
# 3 18.6651 10.2979 39.9269 -27.4537 -15.1977 -0.5597
# 4 11.2445 3.7477 -27.4537 30.7119 11.6604 -6.1466
# 5 -8.8976 -15.8799 -15.1977 11.6604 29.7962 2.6943
# 6 11.9908 23.0555 -0.5597 -6.1466 2.6943 14.6948
#
#
#
# Elastic Compliance Matrix: (Units=1/GPa)
#
#
# Indices 1 2 3 4 5 6 
#
# 1 0.018598 -0.027885 -0.001250 0.008832 -0.016590 0.035262
# 2 -0.027885 0.027814 0.026203 0.023261 0.011874 -0.012336
# 3 -0.001250 0.026203 0.038466 0.011400 0.032348 -0.039789
# 4 0.008832 0.023261 0.011400 0.023871 0.014762 -0.035990
# 5 -0.016590 0.011874 0.032348 0.014762 0.046215 -0.006160
# 6 0.035262 -0.012336 -0.039789 -0.035990 -0.006160 0.043191
#
#
# Mechanical properties :
#
#
# Convention : Reuss Voigt Hill
#
# Bulk Modulus (GPa) = 12.65577 16.26142 14.45859
# Shear Modulus (GPa) = 21.70537 19.47721 20.59129
#
# Velocity S-wave (km/s) = 3.18727 3.01925 3.10440
# Velocity P-wave (km/s) = 4.41228 4.44582 4.42908
#
# Compressibility (1/GPa) = 0.07901533
#
# Stress axis : x y z
#
# Youngs Moduli (GPa) = 53.76848 35.95252 25.99730
#
# Poissons Ratio (x) = 1.00252 0.03249
# Poissons Ratio (y) = 1.49932 -0.68121
# Poissons Ratio (z) = 0.06720 -0.94207
#
# Static dielectric constant tensor:
#      x y z
#    x 1.877210 -0.017680 -0.067050 
#    y -0.017680 1.766740 -0.023360 
#    z -0.067050 -0.023360 1.836280 
# 
# From -- ./inp_files/273809.got.cif
#   From: 2010.05.17/outbox.ucp.g08.bks.cvg/sg2_137_cif.got.tgz:273809.got - 2010.06.11 11:32:03.
