data_PCOD9073658
_publ_section_title
;
Structure prediction by ZEFSAII (Michael W. Deem and Ramdas Pophale) SiO2 
 PCOD9073658
Probable space group: P -1
;
_chemical_formula_sum "Si O2"
_cell_formula_units_Z 14
_cell_length_a 23.730156
_cell_length_b 5.422728
_cell_length_c 15.785937
_cell_angle_alpha 77.171896
_cell_angle_beta 165.052018
_cell_angle_gamma 102.025260
_cell_volume 510.743391
_symmetry_space_group_name_H-M "P -1"
_symmetry_group_IT_number 2
_symmetry_cell_setting 'triclinic'
loop_
_space_group_symop_operation_xyz
x,y,z
-x,-y,-z
loop_
_atom_site_type_symbol
_atom_site_label
_atom_site_fract_x
_atom_site_fract_y
_atom_site_fract_z
Si Si1 0.287786 0.750115 0.759099
Si Si2 0.176659 0.500892 0.124211
Si Si3 0.683815 0.333048 0.385305
Si Si4 0.239607 0.944233 0.316200
Si Si5 0.165516 0.154548 0.668977
Si Si6 0.784119 0.690956 0.091999
Si Si7 0.744694 0.252217 0.954475
O O1 0.278217 0.802641 0.640356
O O2 0.007692 0.242211 0.356930
O O3 0.331710 0.972972 0.873317
O O4 0.481696 0.535597 0.063868
O O5 0.277626 0.629786 0.178297
O O6 0.914684 0.467179 0.731953
O O7 0.218903 0.702170 0.243880
O O8 0.721960 0.782689 0.692787
O O9 0.640715 0.152521 0.417245
O O10 0.000000 0.000000 0.000000
O O11 0.221574 0.341826 0.812982
O O12 0.000000 0.000000 0.500000
O O13 0.031699 0.704789 0.414761
O O14 0.672539 0.455106 0.904867
O O15 0.676137 0.962877 0.890080
#
# Coordination Sequence:
#
# PCOD9073658 Si02
#       7
#     2   2   2   2   2   2   2
#     4   9  18  34  54  83 113 146 169 219 279 329
#     4  11  21  37  56  77 109 144 187 222 257 313
#     4  10  19  34  54  80 118 142 179 216 275 324
#     4  10  22  36  54  74 106 149 188 222 250 312
#     4   8  18  32  53  78 111 138 179 216 270 322
#     4  10  19  36  53  82 110 138 179 219 269 324
#     4  10  18  31  56  79 105 134 180 225 265 309
#
# _framework density 27.411026
#
# number of rings (size 3 to 8) (size 9 to 14) (size 15 to 20)
#    0.000    2.571    1.429    3.000    6.000    0.000 
#    0.000   11.429    0.000    0.000    0.000   26.000 
#    0.000    0.000    0.000    0.000    0.000    0.000 
#
# Total GULP energy -78211.899142 kJ/mol
# GULP energy per Si atom -5586.564224 kJ/mol
# Density = 2.734864 g / cm^3
# Si number density = 27.411026 Si / 1000 Ang^3
#
#
#
# Elastic Constant Matrix: (Units=GPa)
#
#
# Indices 1 2 3 4 5 6 
#
# 1 180.0819 84.4276 61.5585 -3.2196 -45.2173 -20.2557
# 2 84.4276 185.8288 31.4475 -18.5923 -26.0851 -12.6218
# 3 61.5585 31.4475 110.1027 -14.8980 -0.6842 -11.2021
# 4 -3.2196 -18.5923 -14.8980 58.2582 -1.4537 -2.5649
# 5 -45.2173 -26.0851 -0.6842 -1.4537 57.5232 -2.6879
# 6 -20.2557 -12.6218 -11.2021 -2.5649 -2.6879 63.0182
#
#
#
# Elastic Compliance Matrix: (Units=1/GPa)
#
#
# Indices 1 2 3 4 5 6 
#
# 1 0.010661 -0.002997 -0.005027 -0.001381 0.007028 0.002177
# 2 -0.002997 0.007135 -0.000004 0.002161 0.000962 0.000594
# 3 -0.005027 -0.000004 0.012303 0.002798 -0.003711 0.000526
# 4 -0.001381 0.002161 0.002798 0.018560 0.000455 0.001261
# 5 0.007028 0.000962 -0.003711 0.000455 0.023444 0.002811
# 6 0.002177 0.000594 0.000526 0.001261 0.002811 0.016952
#
#
# Mechanical properties :
#
#
# Convention : Reuss Voigt Hill
#
# Bulk Modulus (GPa) = 71.19885 92.32008 81.75947
# Shear Modulus (GPa) = 45.54103 55.66525 50.60314
#
# Velocity S-wave (km/s) = 4.08047 4.51129 4.30127
# Velocity P-wave (km/s) = 6.94487 7.80312 7.38647
#
# Compressibility (1/GPa) = 0.01404517
#
# Stress axis : x y z
#
# Youngs Moduli (GPa) = 93.79796 140.15329 81.28219
#
# Poissons Ratio (x) = 0.42002 0.40857
# Poissons Ratio (y) = 0.28110 0.00029
# Poissons Ratio (z) = 0.47148 0.00050
#
# Static dielectric constant tensor:
#      x y z
#    x 2.141700 -0.011150 0.099390 
#    y -0.011150 2.494520 -0.012230 
#    z 0.099390 -0.012230 2.332320 
# 
# From -- ./inp_files/542215.got.cif
#   From: 2010.05.17/outbox.cif.g08.bks.cpg/sg2_272_cif.got.tgz:542215.got - 2010.06.03 11:33:40.
