data_PCOD9073570
_publ_section_title
;
Structure prediction by ZEFSAII (Michael W. Deem and Ramdas Pophale) SiO2 
 PCOD9073570
Probable space group: P -1
;
_chemical_formula_sum "Si O2"
_cell_formula_units_Z 16
_cell_length_a 9.000000
_cell_length_b 9.000000
_cell_length_c 15.000000
_cell_angle_alpha 70.000000
_cell_angle_beta 130.000000
_cell_angle_gamma 80.000000
_cell_volume 732.374747
_symmetry_space_group_name_H-M "P -1"
_symmetry_group_IT_number 2
_symmetry_cell_setting 'triclinic'
loop_
_space_group_symop_operation_xyz
x,y,z
-x,-y,-z
loop_
_atom_site_type_symbol
_atom_site_label
_atom_site_fract_x
_atom_site_fract_y
_atom_site_fract_z
Si Si1 0.961834 0.431221 0.342196
Si Si2 0.704664 0.583744 0.673639
Si Si3 0.834548 0.421567 0.938731
Si Si4 0.698694 0.256214 0.313842
Si Si5 0.636585 0.913204 0.338409
Si Si6 0.785462 0.889075 0.733151
Si Si7 0.312825 0.142171 0.825781
Si Si8 0.817603 0.191972 0.580326
O O1 0.848976 0.310490 0.301573
O O2 0.754539 0.642949 0.239493
O O3 0.107558 0.460729 0.318872
O O4 0.153533 0.300582 0.516871
O O5 0.800469 0.419604 0.819149
O O6 0.699733 0.759018 0.685474
O O7 0.450369 0.647941 0.527128
O O8 0.571975 0.575794 0.836431
O O9 0.000000 0.500000 0.000000
O O10 0.979871 0.232841 0.092292
O O11 0.785908 0.239341 0.452936
O O12 0.716078 0.060901 0.347192
O O13 0.560503 0.935269 0.203444
O O14 0.428490 0.971156 0.313914
O O15 0.827099 0.003650 0.651405
O O16 0.056403 0.167713 0.713269
O O17 0.500000 0.000000 0.000000
#
# Coordination Sequence:
#
# PCOD9073570 Si02
#       8
#     2   2   2   2   2   2   2   2
#     4  12  26  45  69 103 139 183 228 283 344 414
#     4  10  21  40  72 104 138 167 233 288 349 403
#     4   9  19  38  61 103 147 164 213 284 353 400
#     4  11  23  41  77 109 131 179 229 294 346 401
#     4  12  23  46  75 100 139 176 235 285 345 406
#     4  11  21  39  72 112 134 174 220 302 348 391
#     4  12  32  49  63  95 150 191 231 275 342 421
#     4  11  22  44  71 100 135 177 233 281 339 405
#
# _framework density 21.846738999999999
#
# number of rings (size 3 to 8) (size 9 to 14) (size 15 to 20)
#    0.000    1.000    6.250    1.875    5.250    0.500 
#    0.000    3.750    0.000    0.000    0.000    0.000 
#    0.000    0.000    0.000    0.000    0.000    0.000 
#
# Total GULP energy -89263.298823 kJ/mol
# GULP energy per Si atom -5578.956176 kJ/mol
# Density = 2.179701 g / cm^3
# Si number density = 21.846739 Si / 1000 Ang^3
#
#
#
# Elastic Constant Matrix: (Units=GPa)
#
#
# Indices 1 2 3 4 5 6 
#
# 1 56.9673 19.8346 -6.2447 1.8414 21.9067 -10.6765
# 2 19.8346 60.3725 33.1165 -10.8218 -6.9284 -7.9237
# 3 -6.2447 33.1165 157.8714 -9.7903 18.6969 -1.7902
# 4 1.8414 -10.8218 -9.7903 24.2948 3.4469 -7.2130
# 5 21.9067 -6.9284 18.6969 3.4469 31.5562 1.4882
# 6 -10.6765 -7.9237 -1.7902 -7.2130 1.4882 19.0209
#
#
#
# Elastic Compliance Matrix: (Units=1/GPa)
#
#
# Indices 1 2 3 4 5 6 
#
# 1 0.055718 -0.028740 0.015499 0.005222 -0.056023 0.027124
# 2 -0.028740 0.038626 -0.012837 0.009070 0.035074 -0.000554
# 3 0.015499 -0.012837 0.012514 0.003474 -0.021728 0.007547
# 4 0.005222 0.009070 0.003474 0.056514 -0.011249 0.029348
# 5 -0.056023 0.035074 -0.021728 -0.011249 0.093822 -0.030486
# 6 0.027124 -0.000554 0.007547 0.029348 -0.030486 0.081793
#
#
# Mechanical properties :
#
#
# Convention : Reuss Voigt Hill
#
# Bulk Modulus (GPa) = 18.28104 40.95822 29.61963
# Shear Modulus (GPa) = 12.21369 30.20803 21.21086
#
# Velocity S-wave (km/s) = 2.36702 3.72253 3.11930
# Velocity P-wave (km/s) = 3.98201 6.10451 5.15371
#
# Compressibility (1/GPa) = 0.05470148
#
# Stress axis : x y z
#
# Youngs Moduli (GPa) = 17.94764 25.88953 79.90786
#
# Poissons Ratio (x) = 0.74407 -1.23849
# Poissons Ratio (y) = 0.51582 1.02577
# Poissons Ratio (z) = -0.27817 0.33234
#
# Static dielectric constant tensor:
#      x y z
#    x 1.843510 -0.047870 -0.009540 
#    y -0.047870 1.854710 0.004000 
#    z -0.009540 0.004000 1.781140 
# 
# From -- ./inp_files/494729.got.cif
#   From: 2010.05.17/outbox.ucp.g08.bks.cvg/sg2_248_cif.got.tgz:494729.got - 2010.06.11 11:32:03.
