data_PCOD9073563
_publ_section_title
;
Structure prediction by ZEFSAII (Michael W. Deem and Ramdas Pophale) SiO2 
 PCOD9073563
Probable space group: P -1
;
_chemical_formula_sum "Si O2"
_cell_formula_units_Z 16
_cell_length_a 9.000000
_cell_length_b 21.000000
_cell_length_c 12.000000
_cell_angle_alpha 140.000000
_cell_angle_beta 110.000000
_cell_angle_gamma 40.000000
_cell_volume 754.890988
_symmetry_space_group_name_H-M "P -1"
_symmetry_group_IT_number 2
_symmetry_cell_setting 'triclinic'
loop_
_space_group_symop_operation_xyz
x,y,z
-x,-y,-z
loop_
_atom_site_type_symbol
_atom_site_label
_atom_site_fract_x
_atom_site_fract_y
_atom_site_fract_z
Si Si1 0.046000 0.266886 0.989425
Si Si2 0.386919 0.041257 0.400982
Si Si3 0.580567 0.587244 0.745465
Si Si4 0.865719 0.172665 0.485734
Si Si5 0.588001 0.576508 0.126952
Si Si6 0.094636 0.402540 0.772979
Si Si7 0.570468 0.563889 0.449048
Si Si8 0.819541 0.176926 0.851856
O O1 0.878630 0.373884 0.973278
O O2 0.858566 0.410496 0.237869
O O3 0.025738 0.161751 0.869982
O O4 0.371506 0.119785 0.841382
O O5 0.248386 0.218323 0.575127
O O6 0.129720 0.098869 0.415243
O O7 0.500000 0.000000 0.500000
O O8 0.606858 0.579056 0.607116
O O9 0.560656 0.480185 0.631649
O O10 0.830281 0.519562 0.779398
O O11 0.293919 0.774751 0.985817
O O12 0.650499 0.341617 0.740862
O O13 0.664944 0.252165 0.435451
O O14 0.004200 0.013467 0.380967
O O15 0.668862 0.645665 0.276180
O O16 0.450047 0.659687 0.080693
O O17 0.000000 0.500000 0.000000
#
# Coordination Sequence:
#
# PCOD9073563 Si02
#       8
#     2   2   2   2   2   2   2   2
#     4  10  23  40  64  93 130 169 215 265 315 377
#     4  12  24  38  62  98 133 165 209 268 322 379
#     4  10  21  40  69  92 125 172 218 262 313 382
#     4  11  23  40  63  96 128 171 214 262 319 381
#     4  11  22  38  62  93 133 166 207 258 324 386
#     4  12  23  39  64 100 131 164 209 264 327 378
#     4   9  21  45  67  90 124 175 221 257 316 377
#     4  11  21  37  65  93 128 167 214 262 320 376
#
# _framework density 21.195112999999999
#
# number of rings (size 3 to 8) (size 9 to 14) (size 15 to 20)
#    0.000    1.250    2.500    3.750    1.750    0.500 
#    0.000    3.125    2.750    0.000    0.000    0.000 
#    0.000    0.000    0.000    0.000    0.000    0.000 
#
# Total GULP energy -89203.323258 kJ/mol
# GULP energy per Si atom -5575.207704 kJ/mol
# Density = 2.114687 g / cm^3
# Si number density = 21.195113 Si / 1000 Ang^3
#
#
#
# Elastic Constant Matrix: (Units=GPa)
#
#
# Indices 1 2 3 4 5 6 
#
# 1 94.8911 26.2865 25.3182 6.0484 -21.8973 -8.6235
# 2 26.2865 100.6851 40.3717 -20.2605 -13.4485 3.6624
# 3 25.3182 40.3717 61.8882 2.7527 -24.4039 -4.0451
# 4 6.0484 -20.2605 2.7527 41.2118 6.9146 2.7204
# 5 -21.8973 -13.4485 -24.4039 6.9146 43.5982 4.5172
# 6 -8.6235 3.6624 -4.0451 2.7204 4.5172 32.6683
#
#
#
# Elastic Compliance Matrix: (Units=1/GPa)
#
#
# Indices 1 2 3 4 5 6 
#
# 1 0.013710 -0.003823 -0.000293 -0.005114 0.005979 0.003610
# 2 -0.003823 0.017900 -0.012869 0.011365 -0.004899 -0.004878
# 3 -0.000293 -0.012869 0.031233 -0.011108 0.014700 0.004125
# 4 -0.005114 0.011365 -0.011108 0.033381 -0.010016 -0.005394
# 5 0.005979 -0.004899 0.014700 -0.010016 0.034240 0.000047
# 6 0.003610 -0.004878 0.004125 -0.005394 0.000047 0.033064
#
#
# Mechanical properties :
#
#
# Convention : Reuss Voigt Hill
#
# Bulk Modulus (GPa) = 34.63579 49.04634 41.84107
# Shear Modulus (GPa) = 24.14021 34.52822 29.33422
#
# Velocity S-wave (km/s) = 3.37850 4.04055 3.72426
# Velocity P-wave (km/s) = 5.62102 6.70512 6.18686
#
# Compressibility (1/GPa) = 0.02887187
#
# Stress axis : x y z
#
# Youngs Moduli (GPa) = 72.94182 55.86556 32.01720
#
# Poissons Ratio (x) = 0.21359 0.00939
# Poissons Ratio (y) = 0.27888 0.41202
# Poissons Ratio (z) = 0.02140 0.71892
#
# Static dielectric constant tensor:
#      x y z
#    x 1.830140 0.023930 0.042460 
#    y 0.023930 1.718230 -0.020350 
#    z 0.042460 -0.020350 1.771210 
# 
# From -- ./inp_files/399791.got.cif
#   From: 2010.05.17/outbox.ucp.g08.bks.cvg/sg2_200_cif.got.tgz:399791.got - 2010.06.11 11:32:03.
