data_PCOD9073784
_publ_section_title
;
Structure prediction by ZEFSAII (Michael W. Deem and Ramdas Pophale) SiO2 
 PCOD9073784
Probable space group: P -1
;
_chemical_formula_sum "Si O2"
_cell_formula_units_Z 16
_cell_length_a 18.000000
_cell_length_b 9.000000
_cell_length_c 9.000000
_cell_angle_alpha 120.000000
_cell_angle_beta 100.000000
_cell_angle_gamma 40.000000
_cell_volume 752.029055
_symmetry_space_group_name_H-M "P -1"
_symmetry_group_IT_number 2
_symmetry_cell_setting 'triclinic'
loop_
_space_group_symop_operation_xyz
x,y,z
-x,-y,-z
loop_
_atom_site_type_symbol
_atom_site_label
_atom_site_fract_x
_atom_site_fract_y
_atom_site_fract_z
Si Si1 0.311023 0.820364 0.953631
Si Si2 0.270570 0.277608 0.663239
Si Si3 0.903045 0.819509 0.174072
Si Si4 0.102549 0.278192 0.553375
Si Si5 0.944656 0.111337 0.200312
Si Si6 0.193129 0.844356 0.192385
Si Si7 0.592798 0.801421 0.069411
Si Si8 0.563823 0.165833 0.763057
O O1 0.225915 0.846626 0.038320
O O2 0.340772 0.928168 0.126936
O O3 0.452645 0.491592 0.827322
O O4 0.230841 0.982794 0.854921
O O5 0.154201 0.360182 0.678745
O O6 0.197655 0.569184 0.709178
O O7 0.339334 0.179516 0.794688
O O8 0.364910 0.038140 0.454093
O O9 0.920246 0.790926 0.343199
O O10 0.943615 0.931372 0.187313
O O11 0.000000 0.500000 0.000000
O O12 0.000000 0.500000 0.500000
O O13 0.213865 0.976957 0.360532
O O14 0.051255 0.041938 0.272701
O O15 0.000000 0.000000 0.000000
O O16 0.291010 0.522786 0.107406
O O17 0.512891 0.839800 0.179725
O O18 0.500000 0.000000 0.000000
#
# Coordination Sequence:
#
# PCOD9073784 Si02
#       8
#     2   2   2   2   2   2   2   2
#     4  10  21  44  68 100 136 185 230 282 343 414
#     4  12  24  44  76  98 138 187 227 289 348 411
#     4  12  27  41  71 104 140 184 234 285 356 419
#     4  12  26  45  67 107 142 179 230 289 351 416
#     4  12  22  43  73 101 137 177 229 289 352 410
#     4  11  22  44  69  97 142 179 221 287 351 404
#     4  11  26  42  64 100 138 181 230 283 339 411
#     4  10  23  42  71  94 137 186 231 279 343 408
#
# _framework density 21.275773999999998
#
# number of rings (size 3 to 8) (size 9 to 14) (size 15 to 20)
#    0.000    0.750    5.000    2.625    1.750    2.500 
#    0.000    1.250    0.000    0.000    0.000    0.000 
#    0.000    0.000    0.000    0.000    0.000    0.000 
#
# Total GULP energy -89142.572953 kJ/mol
# GULP energy per Si atom -5571.410810 kJ/mol
# Density = 2.122735 g / cm^3
# Si number density = 21.275774 Si / 1000 Ang^3
#
#
#
# Elastic Constant Matrix: (Units=GPa)
#
#
# Indices 1 2 3 4 5 6 
#
# 1 89.8566 34.6937 19.0354 -15.9921 15.0893 -6.8910
# 2 34.6937 143.4971 69.5672 -35.4687 8.3572 -14.2420
# 3 19.0354 69.5672 111.2971 2.5853 3.5166 4.2169
# 4 -15.9921 -35.4687 2.5853 30.7842 -4.6895 5.1822
# 5 15.0893 8.3572 3.5166 -4.6895 28.2373 -8.2888
# 6 -6.8910 -14.2420 4.2169 5.1822 -8.2888 42.1915
#
#
#
# Elastic Compliance Matrix: (Units=1/GPa)
#
#
# Indices 1 2 3 4 5 6 
#
# 1 0.013805 -0.000622 -0.001932 0.005654 -0.005901 0.000384
# 2 -0.000622 0.019129 -0.012606 0.022122 0.001435 0.005180
# 3 -0.001932 -0.012606 0.017802 -0.016479 -0.001550 -0.004630
# 4 0.005654 0.022122 -0.016479 0.062340 0.003752 0.003118
# 5 -0.005901 0.001435 -0.001550 0.003752 0.041098 0.007289
# 6 0.000384 0.005180 -0.004630 0.003118 0.007289 0.027025
#
#
# Mechanical properties :
#
#
# Convention : Reuss Voigt Hill
#
# Bulk Modulus (GPa) = 48.97980 65.69372 57.33676
# Shear Modulus (GPa) = 22.90184 34.99958 28.95071
#
# Velocity S-wave (km/s) = 3.28446 4.06031 3.69282
# Velocity P-wave (km/s) = 6.12004 7.27501 6.72238
#
# Compressibility (1/GPa) = 0.02041658
#
# Stress axis : x y z
#
# Youngs Moduli (GPa) = 72.43914 52.27674 56.17361
#
# Poissons Ratio (x) = 0.03251 0.10851
# Poissons Ratio (y) = 0.04505 0.70812
# Poissons Ratio (z) = 0.13994 0.65899
#
# Static dielectric constant tensor:
#      x y z
#    x 1.497420 0.201400 0.143540 
#    y 0.201400 1.689010 -0.048740 
#    z 0.143540 -0.048740 1.899590 
# 
# From -- ./inp_files/245436.got.cif
#   From: 2010.05.17/outbox.ucp.g08.bks.cvg/sg2_123_cif.got.tgz:245436.got - 2010.06.11 11:32:03.
