data_PCOD9073732
_publ_section_title
;
Structure prediction by ZEFSAII (Michael W. Deem and Ramdas Pophale) SiO2 
 PCOD9073732
Probable space group: P -1
;
_chemical_formula_sum "Si O2"
_cell_formula_units_Z 16
_cell_length_a 9.000000
_cell_length_b 12.000000
_cell_length_c 15.000000
_cell_angle_alpha 110.000000
_cell_angle_beta 110.000000
_cell_angle_gamma 130.000000
_cell_volume 728.972637
_symmetry_space_group_name_H-M "P -1"
_symmetry_group_IT_number 2
_symmetry_cell_setting 'triclinic'
loop_
_space_group_symop_operation_xyz
x,y,z
-x,-y,-z
loop_
_atom_site_type_symbol
_atom_site_label
_atom_site_fract_x
_atom_site_fract_y
_atom_site_fract_z
Si Si1 0.768988 0.325198 0.663784
Si Si2 0.076836 0.833619 0.097439
Si Si3 0.776264 0.891586 0.043917
Si Si4 0.833013 0.186108 0.081012
Si Si5 0.729517 0.254278 0.427409
Si Si6 0.809671 0.610566 0.250990
Si Si7 0.808241 0.044593 0.426246
Si Si8 0.585585 0.702990 0.150600
O O1 0.760551 0.304170 0.550985
O O2 0.448115 0.123682 0.594497
O O3 0.945111 0.560649 0.784816
O O4 0.931329 0.305578 0.717329
O O5 0.966975 0.895392 0.066815
O O6 0.372384 0.047608 0.276876
O O7 0.201943 0.849767 0.040635
O O8 0.781882 0.561233 0.988729
O O9 0.670838 0.814365 0.104172
O O10 0.925242 0.114671 0.116149
O O11 0.461754 0.660740 0.861457
O O12 0.500000 0.000000 0.000000
O O13 0.000000 0.500000 0.500000
O O14 0.771263 0.140729 0.388708
O O15 0.722947 0.659560 0.179166
O O16 0.885734 0.729832 0.390744
O O17 0.738901 0.886660 0.307536
#
# Coordination Sequence:
#
# PCOD9073732 Si02
#       8
#     2   2   2   2   2   2   2   2
#     4  11  24  43  69  97 131 180 223 272 333 398
#     4  11  25  46  68  98 139 177 224 274 338 405
#     4  11  26  42  71 100 136 179 218 282 339 391
#     4  12  24  45  69  99 135 174 227 278 332 401
#     4  11  26  43  69  99 137 175 223 276 340 391
#     4  10  21  43  66  94 133 172 218 267 340 388
#     4  11  25  42  69  97 133 178 226 274 325 401
#     4  11  25  43  70 103 131 176 227 277 330 395
#
# _framework density 21.948698
#
# number of rings (size 3 to 8) (size 9 to 14) (size 15 to 20)
#    0.000    1.000    2.500    4.500   12.250    0.500 
#    0.000    0.625    0.000    0.000    0.000    0.000 
#    0.000    0.000    0.000    0.000    0.000    0.000 
#
# Total GULP energy -89316.797469 kJ/mol
# GULP energy per Si atom -5582.299842 kJ/mol
# Density = 2.189874 g / cm^3
# Si number density = 21.948698 Si / 1000 Ang^3
#
#
#
# Elastic Constant Matrix: (Units=GPa)
#
#
# Indices 1 2 3 4 5 6 
#
# 1 54.2505 34.4378 17.5117 4.2305 -17.8487 2.9529
# 2 34.4378 94.3210 30.5891 13.6034 -21.6273 -4.5198
# 3 17.5117 30.5891 73.5470 9.2283 -5.9728 -5.7840
# 4 4.2305 13.6034 9.2283 24.0488 -15.6106 -14.1545
# 5 -17.8487 -21.6273 -5.9728 -15.6106 13.3110 7.3480
# 6 2.9529 -4.5198 -5.7840 -14.1545 7.3480 33.1444
#
#
#
# Elastic Compliance Matrix: (Units=1/GPa)
#
#
# Indices 1 2 3 4 5 6 
#
# 1 -0.014056 -0.019543 0.010284 -0.089761 -0.148476 -0.005035
# 2 -0.019543 0.012447 -0.000068 -0.031969 -0.043138 -0.000662
# 3 0.010284 -0.000068 0.011971 0.026677 0.049458 0.001591
# 4 -0.089761 -0.031969 0.026677 -0.140352 -0.337757 0.023234
# 5 -0.148476 -0.043138 0.049458 -0.337757 -0.566494 -0.002676
# 6 -0.005035 -0.000662 0.001591 0.023234 -0.002676 0.041322
#
#
# Mechanical properties :
#
#
# Convention : Reuss Voigt Hill
#
# Bulk Modulus (GPa) = -120.59288 43.02173 -38.78557
# Shear Modulus (GPa) = -7.82140 23.40618 7.79239
#
# Velocity S-wave (km/s) = -1.88977 3.26913 1.88626
# Velocity P-wave (km/s) = 7.73460 5.82179 3.60075
#
# Compressibility (1/GPa) = -0.00829236
#
# Stress axis : x y z
#
# Youngs Moduli (GPa) = -71.14191 80.33975 83.53719
#
# Poissons Ratio (x) = 1.57009 -0.85910
# Poissons Ratio (y) = -1.39034 0.00566
# Poissons Ratio (z) = 0.73163 0.00544
#
# Static dielectric constant tensor:
#      x y z
#    x 1.841830 -0.025490 0.045770 
#    y -0.025490 1.812820 -0.009560 
#    z 0.045770 -0.009560 1.836850 
# 
# From -- ./inp_files/205321.got.cif
#   From: 2010.05.17/outbox.ucp.g08.bks.cvg/sg2_103_cif.got.tgz:205321.got - 2010.06.11 11:32:03.
