data_PCOD9073613
_publ_section_title
;
Structure prediction by ZEFSAII (Michael W. Deem and Ramdas Pophale) SiO2 
 PCOD9073613
Probable space group: P -1
;
_chemical_formula_sum "Si O2"
_cell_formula_units_Z 16
_cell_length_a 12.102736
_cell_length_b 9.732946
_cell_length_c 11.179843
_cell_angle_alpha 69.637486
_cell_angle_beta 131.038535
_cell_angle_gamma 128.290989
_cell_volume 775.764723
_symmetry_space_group_name_H-M "P -1"
_symmetry_group_IT_number 2
_symmetry_cell_setting 'triclinic'
loop_
_space_group_symop_operation_xyz
x,y,z
-x,-y,-z
loop_
_atom_site_type_symbol
_atom_site_label
_atom_site_fract_x
_atom_site_fract_y
_atom_site_fract_z
Si Si1 0.851747 0.578494 0.720515
Si Si2 0.388552 0.994589 0.532787
Si Si3 0.256199 0.821205 0.957618
Si Si4 0.545521 0.170606 0.138512
Si Si5 0.891015 0.356209 0.633864
Si Si6 0.171253 0.200781 0.576967
Si Si7 0.465805 0.698243 0.296835
Si Si8 0.772304 0.516667 0.290642
O O1 0.844347 0.410679 0.707404
O O2 0.843045 0.688895 0.573272
O O3 0.681336 0.500709 0.707265
O O4 0.049347 0.705971 0.870641
O O5 0.426003 0.916419 0.699379
O O6 0.194631 0.847355 0.396046
O O7 0.500000 0.000000 0.500000
O O8 0.444786 0.186059 0.554737
O O9 0.315175 0.810524 0.867928
O O10 0.349304 0.752194 0.127353
O O11 0.353486 0.027957 0.993888
O O12 0.586155 0.357299 0.155801
O O13 0.824103 0.431949 0.460420
O O14 0.095605 0.446253 0.734073
O O15 0.364439 0.239801 0.682027
O O16 0.187695 0.303278 0.679802
O O17 0.000000 0.000000 0.500000
#
# Coordination Sequence:
#
# PCOD9073613 Si02
#       8
#     2   2   2   2   2   2   2   2
#     4  11  21  38  61  86 121 156 197 253 300 354
#     4  10  18  31  55  88 118 147 194 254 299 347
#     4  10  21  36  64  88 120 152 204 250 297 353
#     4   9  19  33  58  88 114 153 199 251 290 347
#     4   9  16  29  55  85 108 140 198 247 294 330
#     4  11  25  38  60  87 123 161 201 248 300 358
#     4  11  23  39  58  92 124 160 195 242 312 364
#     4   9  17  33  55  81 111 149 195 250 286 342
#
# _framework density 20.624808000000002
#
# number of rings (size 3 to 8) (size 9 to 14) (size 15 to 20)
#    0.000    2.000    2.500    1.500    7.000    0.000 
#    0.000    0.625    0.000    0.750    0.000    0.000 
#    0.000    0.000    0.000    0.000    0.000    0.000 
#
# Total GULP energy -89102.336921 kJ/mol
# GULP energy per Si atom -5568.896058 kJ/mol
# Density = 2.057787 g / cm^3
# Si number density = 20.624808 Si / 1000 Ang^3
#
#
#
# Elastic Constant Matrix: (Units=GPa)
#
#
# Indices 1 2 3 4 5 6 
#
# 1 67.0315 35.7415 14.8971 15.3499 1.0808 18.8173
# 2 35.7415 108.1799 38.2530 36.4381 3.8158 15.9990
# 3 14.8971 38.2530 54.5210 19.5514 6.8300 8.1122
# 4 15.3499 36.4381 19.5514 36.2751 5.2713 5.1684
# 5 1.0808 3.8158 6.8300 5.2713 31.9512 6.3722
# 6 18.8173 15.9990 8.1122 5.1684 6.3722 28.5339
#
#
#
# Elastic Compliance Matrix: (Units=1/GPa)
#
#
# Indices 1 2 3 4 5 6 
#
# 1 0.021161 -0.004136 -0.000284 -0.003395 0.002701 -0.011544
# 2 -0.004136 0.017409 -0.006517 -0.012039 0.002134 -0.003477
# 3 -0.000284 -0.006517 0.026036 -0.006649 -0.003360 -0.001606
# 4 -0.003395 -0.012039 -0.006649 0.044880 -0.005211 0.003914
# 5 0.002701 0.002134 -0.003360 -0.005211 0.034271 -0.008732
# 6 -0.011544 -0.003477 -0.001606 0.003914 -0.008732 0.046306
#
#
# Mechanical properties :
#
#
# Convention : Reuss Voigt Hill
#
# Bulk Modulus (GPa) = 23.40097 45.27953 34.34025
# Shear Modulus (GPa) = 22.10630 28.74143 25.42386
#
# Velocity S-wave (km/s) = 3.27743 3.73706 3.51477
# Velocity P-wave (km/s) = 5.06880 6.37357 5.75826
#
# Compressibility (1/GPa) = 0.04273328
#
# Stress axis : x y z
#
# Youngs Moduli (GPa) = 47.25659 57.44242 38.40850
#
# Poissons Ratio (x) = 0.23756 0.01089
# Poissons Ratio (y) = 0.19543 0.25031
# Poissons Ratio (z) = 0.01340 0.37435
#
# Static dielectric constant tensor:
#      x y z
#    x 1.799640 0.063890 0.022850 
#    y 0.063890 1.877980 0.053020 
#    z 0.022850 0.053020 1.761820 
# 
# From -- ./inp_files/266882.got.cif
#   From: 2010.05.17/outbox.cif.g08.bks.cpg/sg2_134_cif.got.tgz:266882.got - 2010.06.03 11:33:40.
