data_PCOD9073101
_publ_section_title
;
Structure prediction by ZEFSAII (Michael W. Deem and Ramdas Pophale) SiO2 
 PCOD9073101
Probable space group: P -1
;
_chemical_formula_sum "Si O2"
_cell_formula_units_Z 16
_cell_length_a 15.000000
_cell_length_b 9.000000
_cell_length_c 15.000000
_cell_angle_alpha 120.000000
_cell_angle_beta 150.000000
_cell_angle_gamma 70.000000
_cell_volume 857.272107
_symmetry_space_group_name_H-M "P -1"
_symmetry_group_IT_number 2
_symmetry_cell_setting 'triclinic'
loop_
_space_group_symop_operation_xyz
x,y,z
-x,-y,-z
loop_
_atom_site_type_symbol
_atom_site_label
_atom_site_fract_x
_atom_site_fract_y
_atom_site_fract_z
Si Si1 0.442904 0.053109 0.861943
Si Si2 0.193352 0.299371 0.626369
Si Si3 0.646488 0.171954 0.462146
Si Si4 0.178412 0.696258 0.784943
Si Si5 0.074436 0.466278 0.151639
Si Si6 0.638849 0.815383 0.437952
Si Si7 0.795940 0.232531 0.967318
Si Si8 0.294349 0.165364 0.282762
O O1 0.284581 0.170368 0.733171
O O2 0.403153 0.897014 0.704101
O O3 0.629099 0.178896 0.030811
O O4 0.500000 0.000000 0.000000
O O5 0.207206 0.496630 0.736021
O O6 0.287896 0.300309 0.609894
O O7 0.976927 0.253199 0.399020
O O8 0.795791 0.353090 0.647376
O O9 0.475709 0.192184 0.384493
O O10 0.712832 0.012889 0.523331
O O11 0.134194 0.730424 0.860005
O O12 0.187995 0.312150 0.203083
O O13 0.000000 0.500000 0.000000
O O14 0.906590 0.385078 0.046649
O O15 0.419763 0.772076 0.225107
O O16 0.676485 0.810049 0.576103
O O17 0.807238 0.036696 0.885131
#
# Coordination Sequence:
#
# PCOD9073101 Si02
#       8
#     2   2   2   2   2   2   2   2
#     4  11  24  44  68  94 140 178 219 273 343 391
#     4  10  23  41  70  99 131 170 228 282 317 396
#     4  10  22  43  61  94 134 168 217 273 332 395
#     4  11  22  44  69  99 129 171 235 271 324 395
#     4  12  25  39  59  99 137 166 218 275 335 393
#     4  10  20  41  70  91 127 171 217 270 328 395
#     4  11  22  40  67  96 122 176 219 267 328 393
#     4  11  21  40  66  89 128 174 216 264 335 395
#
# _framework density 18.663851999999999
#
# number of rings (size 3 to 8) (size 9 to 14) (size 15 to 20)
#    0.000    1.250    3.750    4.875    0.000    5.500 
#    2.250    0.000    0.000    0.000    0.000    0.000 
#    0.000    0.000    0.000    0.000    0.000    0.000 
#
# Total GULP energy -89134.139152 kJ/mol
# GULP energy per Si atom -5570.883697 kJ/mol
# Density = 1.862137 g / cm^3
# Si number density = 18.663852 Si / 1000 Ang^3
#
#
#
# Elastic Constant Matrix: (Units=GPa)
#
#
# Indices 1 2 3 4 5 6 
#
# 1 94.9412 41.8695 43.9477 2.6768 -25.2235 10.8901
# 2 41.8695 101.9192 69.1395 -6.0226 -7.7339 8.6571
# 3 43.9477 69.1395 133.6543 10.6158 -17.1980 6.1779
# 4 2.6768 -6.0226 10.6158 48.5765 9.0067 -0.5833
# 5 -25.2235 -7.7339 -17.1980 9.0067 49.9089 -2.0253
# 6 10.8901 8.6571 6.1779 -0.5833 -2.0253 41.6404
#
#
#
# Elastic Compliance Matrix: (Units=1/GPa)
#
#
# Indices 1 2 3 4 5 6 
#
# 1 0.015518 -0.004831 -0.001395 -0.002470 0.006956 -0.002543
# 2 -0.004831 0.017528 -0.008259 0.004879 -0.003503 -0.001257
# 3 -0.001395 -0.008259 0.012973 -0.004389 0.003288 0.000256
# 4 -0.002470 0.004879 -0.004389 0.023444 -0.006223 0.000308
# 5 0.006956 -0.003503 0.003288 -0.006223 0.025247 -0.000438
# 6 -0.002543 -0.001257 0.000256 0.000308 -0.000438 0.024887
#
#
# Mechanical properties :
#
#
# Convention : Reuss Voigt Hill
#
# Bulk Modulus (GPa) = 58.65118 71.15869 64.90493
# Shear Modulus (GPa) = 32.41487 39.72902 36.07195
#
# Velocity S-wave (km/s) = 4.17198 4.61875 4.40104
# Velocity P-wave (km/s) = 7.39598 8.16413 7.78953
#
# Compressibility (1/GPa) = 0.01704995
#
# Stress axis : x y z
#
# Youngs Moduli (GPa) = 64.43976 57.05067 77.08393
#
# Poissons Ratio (x) = 0.27561 0.10752
# Poissons Ratio (y) = 0.31130 0.63664
# Poissons Ratio (z) = 0.08989 0.47118
#
# Static dielectric constant tensor:
#      x y z
#    x 1.676860 -0.022790 -0.002320 
#    y -0.022790 1.657140 -0.019920 
#    z -0.002320 -0.019920 1.675760 
# 
# From -- ./inp_files/529007.got.cif
#   From: 2010.05.17/outbox.ucp.g08.bks.cvg/sg2_265_cif.got.tgz:529007.got - 2010.06.11 11:32:03.
