data_PCOD9073986
_publ_section_title
;
Structure prediction by ZEFSAII (Michael W. Deem and Ramdas Pophale) SiO2 
 PCOD9073986
Probable space group: P -1
;
_chemical_formula_sum "Si O2"
_cell_formula_units_Z 16
_cell_length_a 15.000000
_cell_length_b 9.000000
_cell_length_c 9.000000
_cell_angle_alpha 110.000000
_cell_angle_beta 140.000000
_cell_angle_gamma 80.000000
_cell_volume 725.993766
_symmetry_space_group_name_H-M "P -1"
_symmetry_group_IT_number 2
_symmetry_cell_setting 'triclinic'
loop_
_space_group_symop_operation_xyz
x,y,z
-x,-y,-z
loop_
_atom_site_type_symbol
_atom_site_label
_atom_site_fract_x
_atom_site_fract_y
_atom_site_fract_z
Si Si1 0.679483 0.040139 0.350737
Si Si2 0.074394 0.843875 0.069444
Si Si3 0.176662 0.244206 0.077286
Si Si4 0.772543 0.330013 0.046477
Si Si5 0.143157 0.321423 0.755423
Si Si6 0.847536 0.084708 0.266169
Si Si7 0.523429 0.583365 0.395972
Si Si8 0.453419 0.260353 0.046762
O O1 0.787607 0.096116 0.637490
O O2 0.777493 0.053740 0.329871
O O3 0.597077 0.858016 0.197181
O O4 0.559377 0.155075 0.226034
O O5 0.127331 0.748822 0.966721
O O6 0.948317 0.743998 0.964848
O O7 0.000000 0.000000 0.000000
O O8 0.330504 0.296253 0.361414
O O9 0.147183 0.362958 0.948669
O O10 0.161440 0.070452 0.909823
O O11 0.845179 0.507086 0.249734
O O12 0.757380 0.209467 0.122568
O O13 0.617982 0.341562 0.790038
O O14 0.297649 0.271085 0.914846
O O15 0.008564 0.184169 0.508228
O O16 0.500000 0.500000 0.500000
O O17 0.526378 0.444117 0.225738
#
# Coordination Sequence:
#
# PCOD9073986 Si02
#       8
#     2   2   2   2   2   2   2   2
#     4  11  23  42  71  96 132 178 224 269 330 403
#     4  12  26  44  65 104 136 171 224 282 327 388
#     4  12  23  41  72  95 134 183 219 269 337 398
#     4  11  26  43  69  98 137 175 219 277 337 385
#     4  11  22  43  70  97 132 178 219 270 335 400
#     4  12  23  44  66 103 131 175 225 269 331 404
#     4  11  21  44  66  97 137 177 221 272 336 398
#     4  10  22  40  68  95 128 177 222 269 326 394
#
# _framework density 22.038757
#
# number of rings (size 3 to 8) (size 9 to 14) (size 15 to 20)
#    0.000    0.750    6.250    2.250    0.000    2.000 
#    4.500    2.500    0.000    0.000    0.000    0.000 
#    0.000    0.000    0.000    0.000    0.000    0.000 
#
# Total GULP energy -89206.653789 kJ/mol
# GULP energy per Si atom -5575.415862 kJ/mol
# Density = 2.198860 g / cm^3
# Si number density = 22.038757 Si / 1000 Ang^3
#
#
#
# Elastic Constant Matrix: (Units=GPa)
#
#
# Indices 1 2 3 4 5 6 
#
# 1 37.5999 8.8983 15.5642 4.5558 2.1984 -23.9947
# 2 8.8983 71.9729 32.0792 9.1508 1.5419 -18.4358
# 3 15.5642 32.0792 159.9097 16.7246 38.3295 -8.7196
# 4 4.5558 9.1508 16.7246 50.2727 -5.4395 2.6142
# 5 2.1984 1.5419 38.3295 -5.4395 29.3324 -5.9760
# 6 -23.9947 -18.4358 -8.7196 2.6142 -5.9760 31.5349
#
#
#
# Elastic Compliance Matrix: (Units=1/GPa)
#
#
# Indices 1 2 3 4 5 6 
#
# 1 0.062192 0.010403 -0.008300 -0.005912 0.015658 0.054566
# 2 0.010403 0.020689 -0.006116 -0.002676 0.009784 0.020396
# 3 -0.008300 -0.006116 0.012470 -0.003733 -0.017988 -0.009542
# 4 -0.005912 -0.002676 -0.003733 0.023441 0.008288 -0.007468
# 5 0.015658 0.009784 -0.017988 0.008288 0.062290 0.023777
# 6 0.054566 0.020396 -0.009542 -0.007468 0.023777 0.087640
#
#
# Mechanical properties :
#
#
# Convention : Reuss Voigt Hill
#
# Bulk Modulus (GPa) = 11.45135 42.50730 26.97933
# Shear Modulus (GPa) = 16.34764 36.42406 26.38585
#
# Velocity S-wave (km/s) = 2.72650 4.06979 3.46388
# Velocity P-wave (km/s) = 3.88832 6.43534 5.31661
#
# Compressibility (1/GPa) = 0.08732592
#
# Stress axis : x y z
#
# Youngs Moduli (GPa) = 16.07934 48.33509 80.19295
#
# Poissons Ratio (x) = -0.50285 0.66557
# Poissons Ratio (y) = -0.16728 0.49046
# Poissons Ratio (z) = 0.13345 0.29562
#
# Static dielectric constant tensor:
#      x y z
#    x 1.881780 0.106570 -0.019810 
#    y 0.106570 1.959990 0.000360 
#    z -0.019810 0.000360 1.808960 
# 
# From -- ./inp_files/299415.got.cif
#   From: 2010.05.17/outbox.ucp.g08.bks.cvg/sg2_150_cif.got.tgz:299415.got - 2010.06.11 11:32:03.
