data_PCOD9073210
_publ_section_title
;
Structure prediction by ZEFSAII (Michael W. Deem and Ramdas Pophale) SiO2 
 PCOD9073210
Probable space group: P -1
;
_chemical_formula_sum "Si O2"
_cell_formula_units_Z 14
_cell_length_a 15.000000
_cell_length_b 9.000000
_cell_length_c 12.000000
_cell_angle_alpha 40.000000
_cell_angle_beta 50.000000
_cell_angle_gamma 60.000000
_cell_volume 797.599357
_symmetry_space_group_name_H-M "P -1"
_symmetry_group_IT_number 2
_symmetry_cell_setting 'triclinic'
loop_
_space_group_symop_operation_xyz
x,y,z
-x,-y,-z
loop_
_atom_site_type_symbol
_atom_site_label
_atom_site_fract_x
_atom_site_fract_y
_atom_site_fract_z
Si Si1 0.085665 0.560944 0.132953
Si Si2 0.314165 0.540577 0.289095
Si Si3 0.591465 0.461912 0.129768
Si Si4 0.806966 0.592998 0.310073
Si Si5 0.756413 0.326287 0.274037
Si Si6 0.257366 0.868083 0.954644
Si Si7 0.246330 0.211877 0.329618
O O1 0.142057 0.748314 0.064458
O O2 0.134226 0.318191 0.289390
O O3 0.946930 0.576579 0.224990
O O4 0.143344 0.620304 0.931115
O O5 0.452885 0.494971 0.216810
O O6 0.253888 0.526427 0.465890
O O7 0.284885 0.776779 0.109415
O O8 0.263539 0.349480 0.353381
O O9 0.643012 0.404170 0.245271
O O10 0.639449 0.246020 0.139385
O O11 0.651175 0.686944 0.892750
O O12 0.774979 0.477829 0.283234
O O13 0.761410 0.859086 0.193832
O O14 0.754550 0.058730 0.476432
#
# Coordination Sequence:
#
# PCOD9073210 Si02
#       7
#     2   2   2   2   2   2   2
#     4   9  21  39  57  78 109 147 184 220 263 323
#     4  10  21  36  59  83 105 141 186 228 266 313
#     4   9  20  40  59  78 106 145 187 221 264 322
#     4  12  23  34  54  87 115 140 177 223 276 321
#     4  10  22  37  56  80 111 148 179 217 272 328
#     4   9  20  37  59  81 106 141 183 229 267 311
#     4   9  19  38  60  79 103 145 187 220 266 322
#
# _framework density 17.552672000000001
#
# number of rings (size 3 to 8) (size 9 to 14) (size 15 to 20)
#    0.000    2.857    0.000    4.286    0.000   10.286 
#    0.000    1.429    0.000    0.000    0.000    0.000 
#    0.000    0.000    0.000    0.000    0.000    0.000 
#
# Total GULP energy -77982.847789 kJ/mol
# GULP energy per Si atom -5570.203414 kJ/mol
# Density = 1.751272 g / cm^3
# Si number density = 17.552672 Si / 1000 Ang^3
#
#
#
# Elastic Constant Matrix: (Units=GPa)
#
#
# Indices 1 2 3 4 5 6 
#
# 1 137.8850 63.8746 71.4989 14.9217 24.8317 -11.0359
# 2 63.8746 66.3240 57.2735 6.7808 7.6094 -4.6502
# 3 71.4989 57.2735 118.0852 8.6485 30.7369 -8.2828
# 4 14.9217 6.7808 8.6485 33.4138 -5.4053 0.9975
# 5 24.8317 7.6094 30.7369 -5.4053 35.9825 6.5313
# 6 -11.0359 -4.6502 -8.2828 0.9975 6.5313 29.7720
#
#
#
# Elastic Compliance Matrix: (Units=1/GPa)
#
#
# Indices 1 2 3 4 5 6 
#
# 1 0.016955 -0.014463 0.000772 -0.006926 -0.011617 0.007021
# 2 -0.014463 0.039706 -0.015994 0.005595 0.017471 -0.007629
# 3 0.000772 -0.015994 0.021306 -0.005696 -0.017617 0.007771
# 4 -0.006926 0.005595 -0.005696 0.036069 0.015304 -0.007844
# 5 -0.011617 0.017471 -0.017617 0.015304 0.052833 -0.018582
# 6 0.007021 -0.007629 0.007771 -0.007844 -0.018582 0.041501
#
#
# Mechanical properties :
#
#
# Convention : Reuss Voigt Hill
#
# Bulk Modulus (GPa) = 53.76820 78.62092 66.19456
# Shear Modulus (GPa) = 18.25221 28.47681 23.36451
#
# Velocity S-wave (km/s) = 3.22817 4.03223 3.65239
# Velocity P-wave (km/s) = 6.67786 8.15887 7.45523
#
# Compressibility (1/GPa) = 0.01859835
#
# Stress axis : x y z
#
# Youngs Moduli (GPa) = 58.97809 25.18513 46.93500
#
# Poissons Ratio (x) = 0.36425 -0.03623
# Poissons Ratio (y) = 0.85298 0.75067
# Poissons Ratio (z) = -0.04553 0.40280
#
# Static dielectric constant tensor:
#      x y z
#    x 1.598700 -0.004890 -0.008720 
#    y -0.004890 1.601020 -0.004770 
#    z -0.008720 -0.004770 1.614680 
# 
# From -- ./inp_files/251453.got.cif
#   From: 2010.05.17/outbox.ucp.g08.bks.cvg/sg2_126_cif.got.tgz:251453.got - 2010.06.11 11:32:03.
