data_PCOD9073694
_publ_section_title
;
Structure prediction by ZEFSAII (Michael W. Deem and Ramdas Pophale) SiO2 
 PCOD9073694
Probable space group: P -1
;
_chemical_formula_sum "Si O2"
_cell_formula_units_Z 14
_cell_length_a 9.000000
_cell_length_b 9.000000
_cell_length_c 12.000000
_cell_angle_alpha 130.000000
_cell_angle_beta 120.000000
_cell_angle_gamma 60.000000
_cell_volume 621.029576
_symmetry_space_group_name_H-M "P -1"
_symmetry_group_IT_number 2
_symmetry_cell_setting 'triclinic'
loop_
_space_group_symop_operation_xyz
x,y,z
-x,-y,-z
loop_
_atom_site_type_symbol
_atom_site_label
_atom_site_fract_x
_atom_site_fract_y
_atom_site_fract_z
Si Si1 0.382645 0.720177 0.959227
Si Si2 0.745007 0.570389 0.555294
Si Si3 0.469068 0.669318 0.297212
Si Si4 0.166056 0.493088 0.188782
Si Si5 0.779506 0.012591 0.765051
Si Si6 0.849651 0.142213 0.280027
Si Si7 0.779990 0.763009 0.122037
O O1 0.419922 0.480895 0.829535
O O2 0.287972 0.810265 0.851730
O O3 0.580229 0.748979 0.062720
O O4 0.257753 0.838406 0.069329
O O5 0.579109 0.630930 0.435202
O O6 0.741248 0.530330 0.666839
O O7 0.805153 0.776132 0.683053
O O8 0.856121 0.354253 0.440480
O O9 0.284894 0.607534 0.217491
O O10 0.395047 0.892974 0.329901
O O11 0.955032 0.609943 0.170092
O O12 0.188373 0.292221 0.025535
O O13 0.961387 0.993445 0.757828
O O14 0.782385 0.990362 0.261047
#
# Coordination Sequence:
#
# PCOD9073694 Si02
#       7
#     2   2   2   2   2   2   2
#     4  10  23  40  68 100 124 166 214 269 320 376
#     4  11  25  41  63  96 131 174 211 261 317 383
#     4  10  22  44  67  96 130 165 216 265 320 380
#     4  10  21  42  69  96 127 166 215 267 319 374
#     4  12  23  44  64  97 132 171 210 264 322 376
#     4  11  23  43  66  96 132 167 216 263 317 382
#     4  10  21  42  68  98 126 163 218 269 312 380
#
# _framework density 22.543209999999998
#
# number of rings (size 3 to 8) (size 9 to 14) (size 15 to 20)
#    0.000    1.429    1.429    3.429    0.000    4.000 
#   10.286    0.000    0.000    0.000    0.000    0.000 
#    0.000    0.000    0.000    0.000    0.000    0.000 
#
# Total GULP energy -78071.767368 kJ/mol
# GULP energy per Si atom -5576.554812 kJ/mol
# Density = 2.249190 g / cm^3
# Si number density = 22.543210 Si / 1000 Ang^3
#
#
#
# Elastic Constant Matrix: (Units=GPa)
#
#
# Indices 1 2 3 4 5 6 
#
# 1 25.9080 -0.8584 9.7462 0.1925 -19.4798 -6.2887
# 2 -0.8584 87.1081 17.6442 14.1170 -20.4775 -1.6781
# 3 9.7462 17.6442 87.0805 -1.3973 -12.5816 14.7964
# 4 0.1925 14.1170 -1.3973 33.0923 0.3961 0.7225
# 5 -19.4798 -20.4775 -12.5816 0.3961 12.8719 -2.9251
# 6 -6.2887 -1.6781 14.7964 0.7225 -2.9251 22.1187
#
#
#
# Elastic Compliance Matrix: (Units=1/GPa)
#
#
# Indices 1 2 3 4 5 6 
#
# 1 -0.027338 -0.021162 -0.000753 0.010554 -0.080616 -0.019881
# 2 -0.021162 0.005445 -0.001164 -0.001754 -0.026322 -0.008248
# 3 -0.000753 -0.001164 0.014684 0.001205 0.009294 -0.008936
# 4 0.010554 -0.001754 0.001205 0.030724 0.014078 0.002919
# 5 -0.080616 -0.026322 0.009294 0.014078 -0.087341 -0.043145
# 6 -0.019881 -0.008248 -0.008936 0.002919 -0.043145 0.039109
#
#
# Mechanical properties :
#
#
# Convention : Reuss Voigt Hill
#
# Bulk Modulus (GPa) = -18.73826 28.12897 4.69536
# Shear Modulus (GPa) = 1369.51942 25.18755 697.35349
#
# Velocity S-wave (km/s) = 24.67443 3.34623 17.60717
# Velocity P-wave (km/s) = 28.34501 5.23780 20.38228
#
# Compressibility (1/GPa) = -0.05336675
#
# Stress axis : x y z
#
# Youngs Moduli (GPa) = -36.57890 183.66014 68.10015
#
# Poissons Ratio (x) = 3.88655 0.05126
# Poissons Ratio (y) = -0.77407 0.07930
# Poissons Ratio (z) = -0.02753 0.21386
#
# Static dielectric constant tensor:
#      x y z
#    x 1.890240 0.065800 0.025850 
#    y 0.065800 1.872930 0.028890 
#    z 0.025850 0.028890 1.821380 
# 
# From -- ./inp_files/157648.got.cif
#   From: 2010.05.17/outbox.ucp.g08.bks.cvg/sg2_79_cif.got.tgz:157648.got - 2010.06.11 11:32:03.
