data_PCOD9073584
_publ_section_title
;
Structure prediction by ZEFSAII (Michael W. Deem and Ramdas Pophale) SiO2 
 PCOD9073584
Probable space group: P -1
;
_chemical_formula_sum "Si O2"
_cell_formula_units_Z 16
_cell_length_a 15.000000
_cell_length_b 9.000000
_cell_length_c 15.000000
_cell_angle_alpha 50.000000
_cell_angle_beta 40.000000
_cell_angle_gamma 80.000000
_cell_volume 759.999475
_symmetry_space_group_name_H-M "P -1"
_symmetry_group_IT_number 2
_symmetry_cell_setting 'triclinic'
loop_
_space_group_symop_operation_xyz
x,y,z
-x,-y,-z
loop_
_atom_site_type_symbol
_atom_site_label
_atom_site_fract_x
_atom_site_fract_y
_atom_site_fract_z
Si Si1 0.386360 0.508942 0.187126
Si Si2 0.065428 0.591198 0.654666
Si Si3 0.860815 0.919135 0.917872
Si Si4 0.382355 0.102406 0.283033
Si Si5 0.482160 0.600443 0.567873
Si Si6 0.683013 0.085474 0.120160
Si Si7 0.000399 0.852337 0.471710
Si Si8 0.237897 0.369682 0.535742
O O1 0.404785 0.293072 0.263825
O O2 0.338228 0.550476 0.303191
O O3 0.208130 0.368491 0.315274
O O4 0.563635 0.750538 0.909628
O O5 0.070382 0.712122 0.510809
O O6 0.164039 0.474773 0.613733
O O7 0.182787 0.829501 0.539452
O O8 0.853971 0.358595 0.923030
O O9 0.891791 0.985292 0.762916
O O10 0.724336 0.616454 0.156869
O O11 0.062160 0.093379 0.740107
O O12 0.766401 0.011396 0.010685
O O13 0.535625 0.082462 0.185701
O O14 0.500000 0.500000 0.500000
O O15 0.617403 0.625455 0.524760
O O16 0.569243 0.882370 0.364695
O O17 0.000000 0.000000 0.500000
#
# Coordination Sequence:
#
# PCOD9073584 Si02
#       8
#     2   2   2   2   2   2   2   2
#     4  10  23  39  58  87 131 160 197 249 305 370
#     4  11  22  35  62  91 117 160 194 255 302 354
#     4   9  22  37  63  92 120 163 199 253 301 359
#     4  11  22  38  59  90 124 164 196 247 307 363
#     4  10  21  41  63  90 121 161 206 252 298 356
#     4  10  22  39  61  90 122 157 208 252 295 359
#     4  11  21  39  62  91 129 161 197 245 315 367
#     4  10  23  39  60  93 119 156 206 253 302 356
#
# _framework density 21.052645999999999
#
# number of rings (size 3 to 8) (size 9 to 14) (size 15 to 20)
#    0.000    1.750    2.500    1.500    3.500    7.500 
#    0.000    0.625    0.000    2.250    0.000    0.000 
#    0.000    0.000    0.000    0.000    0.000    0.000 
#
# Total GULP energy -89296.495275 kJ/mol
# GULP energy per Si atom -5581.030955 kJ/mol
# Density = 2.100473 g / cm^3
# Si number density = 21.052646 Si / 1000 Ang^3
#
#
#
# Elastic Constant Matrix: (Units=GPa)
#
#
# Indices 1 2 3 4 5 6 
#
# 1 46.4595 14.9577 9.4917 -9.0409 -6.8411 0.2997
# 2 14.9577 17.9048 11.0253 -12.9045 -6.2741 -4.9301
# 3 9.4917 11.0253 130.5449 -30.4102 -1.1744 -8.8772
# 4 -9.0409 -12.9045 -30.4102 30.8205 -2.4053 -6.5875
# 5 -6.8411 -6.2741 -1.1744 -2.4053 21.5847 -1.2305
# 6 0.2997 -4.9301 -8.8772 -6.5875 -1.2305 4.9533
#
#
#
# Elastic Compliance Matrix: (Units=1/GPa)
#
#
# Indices 1 2 3 4 5 6 
#
# 1 0.026504 -0.004925 0.003239 0.014047 0.009875 0.020434
# 2 -0.004925 -0.013239 -0.021474 -0.058506 -0.020755 -0.134328
# 3 0.003239 -0.021474 0.005548 -0.008385 -0.007249 -0.024578
# 4 0.014047 -0.058506 -0.008385 -0.020752 -0.021425 -0.107030
# 5 0.009875 -0.020755 -0.007249 -0.021425 0.037600 -0.053399
# 6 0.020434 -0.134328 -0.024578 -0.107030 -0.053399 -0.132704
#
#
# Mechanical properties :
#
#
# Convention : Reuss Voigt Hill
#
# Bulk Modulus (GPa) = -36.35537 29.53982 -3.40778
# Shear Modulus (GPa) = -83.48419 22.10068 -30.69176
#
# Velocity S-wave (km/s) = -6.30405 3.24355 -3.82233
# Velocity P-wave (km/s) = 8.38417 5.29994 4.59375
#
# Compressibility (1/GPa) = -0.02750625
#
# Stress axis : x y z
#
# Youngs Moduli (GPa) = 37.73053 -75.53609 180.23121
#
# Poissons Ratio (x) = -0.37205 -0.58385
# Poissons Ratio (y) = 0.18584 3.87027
# Poissons Ratio (z) = -0.12223 -1.62205
#
# Static dielectric constant tensor:
#      x y z
#    x 1.770760 -0.029300 0.014770 
#    y -0.029300 1.795630 -0.040010 
#    z 0.014770 -0.040010 1.775800 
# 
# From -- ./inp_files/454479.got.cif
#   From: 2010.05.17/outbox.ucp.g08.bks.cvg/sg2_228_cif.got.tgz:454479.got - 2010.06.11 11:32:03.
