data_PCOD9073170
_publ_section_title
;
Structure prediction by ZEFSAII (Michael W. Deem and Ramdas Pophale) SiO2 
 PCOD9073170
Probable space group: P -1
;
_chemical_formula_sum "Si O2"
_cell_formula_units_Z 16
_cell_length_a 12.464652
_cell_length_b 7.564495
_cell_length_c 14.118455
_cell_angle_alpha 58.046187
_cell_angle_beta 116.471767
_cell_angle_gamma 146.931339
_cell_volume 616.297383
_symmetry_space_group_name_H-M "P -1"
_symmetry_group_IT_number 2
_symmetry_cell_setting 'triclinic'
loop_
_space_group_symop_operation_xyz
x,y,z
-x,-y,-z
loop_
_atom_site_type_symbol
_atom_site_label
_atom_site_fract_x
_atom_site_fract_y
_atom_site_fract_z
Si Si1 0.849285 0.708360 0.295855
Si Si2 0.479752 0.207607 0.975270
Si Si3 0.903521 0.792872 0.924923
Si Si4 0.546906 0.853739 0.622011
Si Si5 0.314633 0.931285 0.692787
Si Si6 0.667577 0.161440 0.786643
Si Si7 0.101764 0.683014 0.877939
Si Si8 0.853283 0.101802 0.533052
O O1 0.656216 0.535082 0.317878
O O2 0.754340 0.365941 0.311195
O O3 0.005816 0.893240 0.388853
O O4 0.976612 0.967919 0.185672
O O5 0.681996 0.576391 0.909814
O O6 0.281482 0.036333 0.906449
O O7 0.500000 0.000000 0.000000
O O8 0.453640 0.145544 0.096123
O O9 0.918495 0.563184 0.004332
O O10 0.000000 0.000000 0.000000
O O11 0.500000 0.000000 0.500000
O O12 0.660096 0.066221 0.703810
O O13 0.680626 0.893036 0.599471
O O14 0.202308 0.771822 0.791833
O O15 0.242720 0.018663 0.573480
O O16 0.545378 0.208991 0.722036
O O17 0.888529 0.475146 0.823397
O O18 0.000000 0.500000 0.500000
#
# Coordination Sequence:
#
# PCOD9073170 Si02
#       8
#     2   2   2   2   2   2   2   2
#     4  10  20  33  51  79 120 146 179 229 292 321
#     4  10  21  39  58  81 113 153 192 230 278 342
#     4  11  20  38  56  82 121 148 183 238 285 338
#     4  11  19  31  52  86 117 141 190 237 277 332
#     4  10  18  33  54  87 111 142 191 234 275 335
#     4  11  19  34  56  84 112 142 194 237 275 329
#     4  11  22  36  62  84 111 157 190 226 285 337
#     4  10  18  31  53  79 116 150 183 230 286 330
#
# _framework density 25.961493000000001
#
# number of rings (size 3 to 8) (size 9 to 14) (size 15 to 20)
#    0.000    1.500    7.500    2.625    0.000    0.000 
#    2.250    3.125    0.000    0.750    0.000    5.250 
#    0.000    0.000    0.000    0.000    0.000    0.000 
#
# Total GULP energy -89525.731418 kJ/mol
# GULP energy per Si atom -5595.358214 kJ/mol
# Density = 2.590240 g / cm^3
# Si number density = 25.961493 Si / 1000 Ang^3
#
#
#
# Elastic Constant Matrix: (Units=GPa)
#
#
# Indices 1 2 3 4 5 6 
#
# 1 35.5914 45.3068 17.0338 5.7852 2.5284 21.5014
# 2 45.3068 166.2431 69.4551 19.5464 10.0391 65.6322
# 3 17.0338 69.4551 173.0746 19.6273 -10.2709 23.3087
# 4 5.7852 19.5464 19.6273 51.7887 9.2514 5.4411
# 5 2.5284 10.0391 -10.2709 9.2514 34.1735 -1.9693
# 6 21.5014 65.6322 23.3087 5.4411 -1.9693 52.1325
#
#
#
# Elastic Compliance Matrix: (Units=1/GPa)
#
#
# Indices 1 2 3 4 5 6 
#
# 1 0.044025 -0.009622 0.000412 -0.000710 -0.000470 -0.006172
# 2 -0.009622 0.017062 -0.004007 -0.001089 -0.006123 -0.015838
# 3 0.000412 -0.004007 0.007608 -0.002361 0.004181 0.001877
# 4 -0.000710 -0.001089 -0.002361 0.021784 -0.006223 0.000210
# 5 -0.000470 -0.006123 0.004181 -0.006223 0.034497 0.007986
# 6 -0.006172 -0.015838 0.001877 0.000210 0.007986 0.041107
#
#
# Mechanical properties :
#
#
# Convention : Reuss Voigt Hill
#
# Bulk Modulus (GPa) = 23.66171 70.94449 47.30310
# Shear Modulus (GPa) = 24.20070 43.82649 34.01359
#
# Velocity S-wave (km/s) = 3.05647 4.11315 3.62353
# Velocity P-wave (km/s) = 4.64650 7.06707 5.98053
#
# Compressibility (1/GPa) = 0.04226237
#
# Stress axis : x y z
#
# Youngs Moduli (GPa) = 22.71421 58.60851 131.43402
#
# Poissons Ratio (x) = 0.56393 -0.05418
# Poissons Ratio (y) = 0.21856 0.52666
# Poissons Ratio (z) = -0.00936 0.23485
#
# Static dielectric constant tensor:
#      x y z
#    x 2.225860 -0.065200 0.100930 
#    y -0.065200 2.097260 -0.034480 
#    z 0.100930 -0.034480 2.050260 
# 
# From -- ./inp_files/538246.got.cif
#   From: 2010.05.17/outbox.cif.g08.bks.cpg/sg2_270_cif.got.tgz:538246.got - 2010.06.03 11:33:40.
