data_PCOD9073900
_publ_section_title
;
Structure prediction by ZEFSAII (Michael W. Deem and Ramdas Pophale) SiO2 
 PCOD9073900
Probable space group: P -1
;
_chemical_formula_sum "Si O2"
_cell_formula_units_Z 14
_cell_length_a 15.000000
_cell_length_b 12.000000
_cell_length_c 21.000000
_cell_angle_alpha 150.000000
_cell_angle_beta 20.000000
_cell_angle_gamma 150.000000
_cell_volume 615.533390
_symmetry_space_group_name_H-M "P -1"
_symmetry_group_IT_number 2
_symmetry_cell_setting 'triclinic'
loop_
_space_group_symop_operation_xyz
x,y,z
-x,-y,-z
loop_
_atom_site_type_symbol
_atom_site_label
_atom_site_fract_x
_atom_site_fract_y
_atom_site_fract_z
Si Si1 0.254467 0.202980 0.068685
Si Si2 0.319996 0.160778 0.719221
Si Si3 0.553962 0.678036 0.767493
Si Si4 0.841212 0.996623 0.464642
Si Si5 0.523686 0.821900 0.712859
Si Si6 0.029324 0.410766 0.865827
Si Si7 0.560791 0.712434 0.153001
O O1 0.350411 0.450544 0.161837
O O2 0.247068 0.257583 0.024364
O O3 0.981807 0.008285 0.177642
O O4 0.481495 0.075631 0.867370
O O5 0.463183 0.402254 0.706147
O O6 0.314799 0.228468 0.831195
O O7 0.500000 0.000000 0.500000
O O8 0.570219 0.743280 0.713704
O O9 0.860953 0.815540 0.650384
O O10 0.290557 0.722736 0.002571
O O11 0.612223 0.112738 0.658756
O O12 0.763085 0.863560 0.520097
O O13 0.824494 0.785147 0.324650
O O14 0.229804 0.623707 0.795544
O O15 0.000000 0.500000 0.000000
#
# Coordination Sequence:
#
# PCOD9073900 Si02
#       7
#     2   2   2   2   2   2   2
#     4  10  22  48  69  96 133 175 228 275 333 394
#     4  12  26  41  67 100 137 176 223 273 335 403
#     4  11  24  41  63 100 128 173 214 273 341 383
#     4  11  23  42  66  98 129 171 223 270 327 396
#     4  10  22  43  69  93 130 172 219 274 328 396
#     4  10  22  39  63  91 130 167 209 270 327 384
#     4  10  25  44  71  96 132 182 222 275 330 399
#
# _framework density 22.744501
#
# number of rings (size 3 to 8) (size 9 to 14) (size 15 to 20)
#    0.000    1.429    1.429    2.571    4.000    5.714 
#    0.000    1.429    0.000    0.000    0.000    0.000 
#    0.000    0.000    0.000    0.000    0.000    0.000 
#
# Total GULP energy -78067.309767 kJ/mol
# GULP energy per Si atom -5576.236412 kJ/mol
# Density = 2.269273 g / cm^3
# Si number density = 22.744501 Si / 1000 Ang^3
#
#
#
# Elastic Constant Matrix: (Units=GPa)
#
#
# Indices 1 2 3 4 5 6 
#
# 1 46.5731 17.0630 -14.0300 13.2941 6.7965 -13.1433
# 2 17.0630 140.1146 32.9219 -3.5457 12.6649 -23.9769
# 3 -14.0300 32.9219 58.8007 13.7657 6.0283 8.7313
# 4 13.2941 -3.5457 13.7657 51.5532 1.1233 -1.8241
# 5 6.7965 12.6649 6.0283 1.1233 18.8189 1.1813
# 6 -13.1433 -23.9769 8.7313 -1.8241 1.1813 30.5756
#
#
#
# Elastic Compliance Matrix: (Units=1/GPa)
#
#
# Indices 1 2 3 4 5 6 
#
# 1 0.035851 -0.006174 0.015642 -0.013349 -0.013372 0.005823
# 2 -0.006174 0.013036 -0.011467 0.006038 -0.003943 0.011356
# 3 0.015642 -0.011467 0.032936 -0.013900 -0.006885 -0.012237
# 4 -0.013349 0.006038 -0.013900 0.027052 0.003316 0.004452
# 5 -0.013372 -0.003943 -0.006885 0.003316 0.063201 -0.009118
# 6 0.005823 0.011356 -0.012237 0.004452 -0.009118 0.048226
#
#
# Mechanical properties :
#
#
# Convention : Reuss Voigt Hill
#
# Bulk Modulus (GPa) = 12.84938 35.26646 24.05792
# Shear Modulus (GPa) = 19.98075 34.15844 27.06960
#
# Velocity S-wave (km/s) = 2.96714 3.87955 3.45361
# Velocity P-wave (km/s) = 4.17137 5.96717 5.14817
#
# Compressibility (1/GPa) = 0.07782478
#
# Stress axis : x y z
#
# Youngs Moduli (GPa) = 27.89341 76.71253 30.36169
#
# Poissons Ratio (x) = 0.47362 -0.47492
# Poissons Ratio (y) = 0.17221 0.34816
# Poissons Ratio (z) = -0.43631 0.87968
#
# Static dielectric constant tensor:
#      x y z
#    x 1.914270 0.029220 -0.043070 
#    y 0.029220 1.836430 0.018460 
#    z -0.043070 0.018460 1.937050 
# 
# From -- ./inp_files/260429.got.cif
#   From: 2010.05.17/outbox.ucp.g08.bks.cvg/sg2_131_cif.got.tgz:260429.got - 2010.06.11 11:32:03.
