data_PCOD9073885
_publ_section_title
;
Structure prediction by ZEFSAII (Michael W. Deem and Ramdas Pophale) SiO2 
 PCOD9073885
Probable space group: P -1
;
_chemical_formula_sum "Si O2"
_cell_formula_units_Z 14
_cell_length_a 15.000000
_cell_length_b 27.000000
_cell_length_c 15.000000
_cell_angle_alpha 20.000000
_cell_angle_beta 150.000000
_cell_angle_gamma 160.000000
_cell_volume 703.098487
_symmetry_space_group_name_H-M "P -1"
_symmetry_group_IT_number 2
_symmetry_cell_setting 'triclinic'
loop_
_space_group_symop_operation_xyz
x,y,z
-x,-y,-z
loop_
_atom_site_type_symbol
_atom_site_label
_atom_site_fract_x
_atom_site_fract_y
_atom_site_fract_z
Si Si1 0.330841 0.794510 0.044498
Si Si2 0.072805 0.151721 0.724774
Si Si3 0.629553 0.371976 0.810220
Si Si4 0.334303 0.139073 0.457232
Si Si5 0.711535 0.800249 0.478151
Si Si6 0.729339 0.475533 0.078682
Si Si7 0.491906 0.826921 0.761286
O O1 0.305220 0.713765 0.058675
O O2 0.529436 0.802561 0.256915
O O3 0.036243 0.634849 0.101162
O O4 0.404917 0.008880 0.737493
O O5 0.332371 0.247058 0.740285
O O6 0.166808 0.371886 0.457288
O O7 0.790755 0.980466 0.724016
O O8 0.000000 0.000000 0.000000
O O9 0.599755 0.306743 0.999173
O O10 0.346403 0.194684 0.477116
O O11 0.538460 0.336393 0.232804
O O12 0.030631 0.997213 0.405804
O O13 0.667669 0.598905 0.775232
O O14 0.681805 0.331100 0.203169
O O15 0.500000 0.000000 0.500000
#
# Coordination Sequence:
#
# PCOD9073885 Si02
#       7
#     2   2   2   2   2   2   2
#     4  11  24  40  66  97 126 167 213 262 320 383
#     4   9  21  37  58  83 121 163 211 248 303 365
#     4  10  22  39  60  88 128 163 208 260 306 371
#     4  10  23  46  65  95 127 164 211 269 324 385
#     4  10  24  43  69  93 126 165 213 267 327 379
#     4  11  25  40  65  96 129 166 219 258 318 381
#     4  11  23  39  59  91 129 170 207 256 313 376
#
# _framework density 19.911861999999999
#
# number of rings (size 3 to 8) (size 9 to 14) (size 15 to 20)
#    0.000    1.714    0.000    2.571    8.000    6.286 
#    0.000    0.000    0.000    0.000    0.000    0.000 
#    0.000    0.000    0.000    0.000    0.000    0.000 
#
# Total GULP energy -78051.059598 kJ/mol
# GULP energy per Si atom -5575.075686 kJ/mol
# Density = 1.986654 g / cm^3
# Si number density = 19.911862 Si / 1000 Ang^3
#
#
#
# Elastic Constant Matrix: (Units=GPa)
#
#
# Indices 1 2 3 4 5 6 
#
# 1 77.3035 -5.3222 3.5703 -5.7802 -2.0420 9.8491
# 2 -5.3222 88.8182 21.0940 10.4705 -15.1904 17.7724
# 3 3.5703 21.0940 101.2895 1.3952 2.7238 8.4539
# 4 -5.7802 10.4705 1.3952 37.1094 5.6373 0.3941
# 5 -2.0420 -15.1904 2.7238 5.6373 40.9959 -4.7291
# 6 9.8491 17.7724 8.4539 0.3941 -4.7291 30.5966
#
#
#
# Elastic Compliance Matrix: (Units=1/GPa)
#
#
# Indices 1 2 3 4 5 6 
#
# 1 0.013916 0.001943 -0.000483 0.001603 0.000602 -0.005403
# 2 0.001943 0.015047 -0.002645 -0.004611 0.005592 -0.007711
# 3 -0.000483 -0.002645 0.010615 0.000588 -0.001969 -0.001553
# 4 0.001603 -0.004611 0.000588 0.029321 -0.005612 0.000755
# 5 0.000602 0.005592 -0.001969 -0.005612 0.027563 0.001435
# 6 -0.005403 -0.007711 -0.001553 0.000755 0.001435 0.039543
#
#
# Mechanical properties :
#
#
# Convention : Reuss Voigt Hill
#
# Bulk Modulus (GPa) = 26.87512 34.01061 30.44287
# Shear Modulus (GPa) = 33.16178 38.27833 35.72006
#
# Velocity S-wave (km/s) = 4.08539 4.38926 4.24005
# Velocity P-wave (km/s) = 5.98166 6.54256 6.26839
#
# Compressibility (1/GPa) = 0.03720914
#
# Stress axis : x y z
#
# Youngs Moduli (GPa) = 71.85835 66.46011 94.20557
#
# Poissons Ratio (x) = -0.12917 0.04546
# Poissons Ratio (y) = -0.13966 0.24920
# Poissons Ratio (z) = 0.03468 0.17581
#
# Static dielectric constant tensor:
#      x y z
#    x 1.685050 0.007540 0.022820 
#    y 0.007540 1.768670 0.008480 
#    z 0.022820 0.008480 1.723590 
# 
# From -- ./inp_files/323255.got.cif
#   From: 2010.05.17/outbox.ucp.g08.bks.cvg/sg2_162_cif.got.tgz:323255.got - 2010.06.11 11:32:03.
