data_PCOD9073734
_publ_section_title
;
Structure prediction by ZEFSAII (Michael W. Deem and Ramdas Pophale) SiO2 
 PCOD9073734
Probable space group: P -1
;
_chemical_formula_sum "Si O2"
_cell_formula_units_Z 14
_cell_length_a 6.000000
_cell_length_b 18.000000
_cell_length_c 9.000000
_cell_angle_alpha 130.000000
_cell_angle_beta 70.000000
_cell_angle_gamma 110.000000
_cell_volume 689.539475
_symmetry_space_group_name_H-M "P -1"
_symmetry_group_IT_number 2
_symmetry_cell_setting 'triclinic'
loop_
_space_group_symop_operation_xyz
x,y,z
-x,-y,-z
loop_
_atom_site_type_symbol
_atom_site_label
_atom_site_fract_x
_atom_site_fract_y
_atom_site_fract_z
Si Si1 0.703475 0.285987 0.784067
Si Si2 0.702179 0.874656 0.823144
Si Si3 0.882716 0.684125 0.472581
Si Si4 0.843025 0.584420 0.675292
Si Si5 0.610076 0.495447 0.134347
Si Si6 0.134985 0.904500 0.020273
Si Si7 0.896933 0.757983 0.124580
O O1 0.404102 0.250171 0.798958
O O2 0.833891 0.285029 0.592688
O O3 0.900933 0.242652 0.789889
O O4 0.729702 0.398515 0.977504
O O5 0.743998 0.775976 0.603947
O O6 0.406980 0.870089 0.907769
O O7 0.913464 0.879584 0.913989
O O8 0.789232 0.977349 0.850214
O O9 0.838897 0.642882 0.596767
O O10 0.776944 0.596198 0.271605
O O11 0.591393 0.526959 0.721119
O O12 0.000000 0.500000 0.500000
O O13 0.922604 0.665303 0.890769
O O14 0.500000 0.500000 0.000000
O O15 0.001229 0.855725 0.133658
#
# Coordination Sequence:
#
# PCOD9073734 Si02
#       7
#     2   2   2   2   2   2   2
#     4  11  25  42  62  94 133 182 211 264 330 399
#     4  10  23  39  69 102 126 170 216 284 327 385
#     4  12  23  41  65  98 132 172 230 272 319 390
#     4  11  23  36  62 100 126 173 223 277 314 389
#     4  11  24  42  63  93 139 179 214 266 334 392
#     4  10  21  43  66  97 135 165 218 273 346 381
#     4  11  23  43  66  91 134 179 214 261 343 387
#
# _framework density 20.303405999999999
#
# number of rings (size 3 to 8) (size 9 to 14) (size 15 to 20)
#    0.000    1.143    1.429    5.143    4.000    2.286 
#    0.000    1.429    0.000    0.000    0.000    0.000 
#    0.000    0.000    0.000    0.000    0.000    0.000 
#
# Total GULP energy -77964.144438 kJ/mol
# GULP energy per Si atom -5568.867460 kJ/mol
# Density = 2.025719 g / cm^3
# Si number density = 20.303406 Si / 1000 Ang^3
#
#
#
# Elastic Constant Matrix: (Units=GPa)
#
#
# Indices 1 2 3 4 5 6 
#
# 1 157.4090 63.9622 36.5014 -13.9933 -22.2179 7.5027
# 2 63.9622 135.6652 41.0407 -10.0902 -22.8662 10.2716
# 3 36.5014 41.0407 48.8831 -14.5513 -31.6155 6.0432
# 4 -13.9933 -10.0902 -14.5513 33.8729 -0.9058 -4.6129
# 5 -22.2179 -22.8662 -31.6155 -0.9058 49.6588 -1.8817
# 6 7.5027 10.2716 6.0432 -4.6129 -1.8817 40.0417
#
#
#
# Elastic Compliance Matrix: (Units=1/GPa)
#
#
# Indices 1 2 3 4 5 6 
#
# 1 0.008431 -0.002805 -0.003299 0.001213 0.000395 -0.000204
# 2 -0.002805 0.010974 -0.008679 -0.001840 -0.001809 -0.001277
# 3 -0.003299 -0.008679 0.056681 0.020978 0.030927 -0.001840
# 4 0.001213 -0.001840 0.020978 0.039162 0.013850 0.002241
# 5 0.000395 -0.001809 0.030927 0.013850 0.039392 -0.000831
# 6 -0.000204 -0.001277 -0.001840 0.002241 -0.000831 0.025837
#
#
# Mechanical properties :
#
#
# Convention : Reuss Voigt Hill
#
# Bulk Modulus (GPa) = 21.49627 69.44064 45.46845
# Shear Modulus (GPa) = 22.16813 38.07823 30.12318
#
# Velocity S-wave (km/s) = 3.30789 4.33536 3.85600
# Velocity P-wave (km/s) = 5.01996 7.70300 6.50139
#
# Compressibility (1/GPa) = 0.04651969
#
# Stress axis : x y z
#
# Youngs Moduli (GPa) = 118.61241 91.12605 17.64250
#
# Poissons Ratio (x) = 0.25558 0.05821
# Poissons Ratio (y) = 0.33267 0.15312
# Poissons Ratio (z) = 0.39133 0.79090
#
# Static dielectric constant tensor:
#      x y z
#    x 1.799070 -0.002310 0.004580 
#    y -0.002310 1.764050 -0.030560 
#    z 0.004580 -0.030560 1.752660 
# 
# From -- ./inp_files/43833.got.cif
#   From: 2010.05.17/outbox.ucp.g08.bks.cvg/sg2_22_cif.got.tgz:43833.got - 2010.06.11 11:32:03.
