data_PCOD9073041
_publ_section_title
;
Structure prediction by ZEFSAII (Michael W. Deem and Ramdas Pophale) SiO2 
 PCOD9073041
Probable space group: P -1
;
_chemical_formula_sum "Si O2"
_cell_formula_units_Z 14
_cell_length_a 18.000000
_cell_length_b 12.000000
_cell_length_c 9.000000
_cell_angle_alpha 110.000000
_cell_angle_beta 70.000000
_cell_angle_gamma 160.000000
_cell_volume 623.501542
_symmetry_space_group_name_H-M "P -1"
_symmetry_group_IT_number 2
_symmetry_cell_setting 'triclinic'
loop_
_space_group_symop_operation_xyz
x,y,z
-x,-y,-z
loop_
_atom_site_type_symbol
_atom_site_label
_atom_site_fract_x
_atom_site_fract_y
_atom_site_fract_z
Si Si1 0.677762 0.929324 0.351221
Si Si2 0.728830 0.802860 0.776444
Si Si3 0.595625 0.243918 0.387966
Si Si4 0.136641 0.246302 0.822388
Si Si5 0.676602 0.295419 0.898878
Si Si6 0.953512 0.135047 0.450656
Si Si7 0.094002 0.738166 0.946301
O O1 0.504474 0.585638 0.260223
O O2 0.560569 0.872021 0.492622
O O3 0.859666 0.116301 0.413454
O O4 0.768700 0.111792 0.220135
O O5 0.820001 0.936864 0.606310
O O6 0.890136 0.948411 0.833334
O O7 0.760604 0.974281 0.913980
O O8 0.724304 0.489385 0.277550
O O9 0.794959 0.500656 0.490749
O O10 0.444996 0.925461 0.272096
O O11 0.107550 0.067066 0.704263
O O12 0.249167 0.462338 0.996031
O O13 0.896591 0.533767 0.907316
O O14 0.500000 0.000000 0.000000
O O15 0.000000 0.500000 0.000000
#
# Coordination Sequence:
#
# PCOD9073041 Si02
#       7
#     2   2   2   2   2   2   2
#     4  12  24  41  73 110 137 182 243 290 348 421
#     4  10  20  42  71 103 143 182 232 289 350 418
#     4  10  20  40  68 104 147 182 227 291 349 415
#     4   9  17  38  69 102 141 185 231 279 350 426
#     4   9  21  42  68  94 140 191 227 278 357 422
#     4  11  21  39  74 108 139 178 235 291 345 422
#     4  11  27  47  65 100 146 188 236 290 357 424
#
# _framework density 22.453834000000001
#
# number of rings (size 3 to 8) (size 9 to 14) (size 15 to 20)
#    0.000    1.714    2.857    2.571    2.000    1.714 
#    2.571    3.571    0.000    0.000    0.000    0.000 
#    0.000    0.000    0.000    0.000    0.000    0.000 
#
# Total GULP energy -78083.157557 kJ/mol
# GULP energy per Si atom -5577.368397 kJ/mol
# Density = 2.240273 g / cm^3
# Si number density = 22.453834 Si / 1000 Ang^3
#
#
#
# Elastic Constant Matrix: (Units=GPa)
#
#
# Indices 1 2 3 4 5 6 
#
# 1 75.4727 37.9362 46.5258 4.0330 2.5263 13.6864
# 2 37.9362 72.6855 90.2045 31.3736 21.3370 15.5249
# 3 46.5258 90.2045 121.3765 36.5898 -12.1989 -9.9545
# 4 4.0330 31.3736 36.5898 60.8156 -10.1927 8.7750
# 5 2.5263 21.3370 -12.1989 -10.1927 27.6146 -4.3335
# 6 13.6864 15.5249 -9.9545 8.7750 -4.3335 27.1025
#
#
#
# Elastic Compliance Matrix: (Units=1/GPa)
#
#
# Indices 1 2 3 4 5 6 
#
# 1 0.021253 -0.009101 -0.003937 0.007718 0.004834 -0.008691
# 2 -0.009101 -0.012000 0.017260 -0.003441 0.019929 0.022110
# 3 -0.003937 0.017260 -0.003169 -0.008576 -0.019005 -0.009325
# 4 0.007718 -0.003441 -0.008576 0.025613 0.005662 -0.012464
# 5 0.004834 0.019929 -0.019005 0.005662 0.010779 -0.020947
# 6 -0.008691 0.022110 -0.009325 -0.012464 -0.020947 0.025882
#
#
# Mechanical properties :
#
#
# Convention : Reuss Voigt Hill
#
# Bulk Modulus (GPa) = 68.82869 68.76308 68.79588
# Shear Modulus (GPa) = 77.21215 29.43109 53.32162
#
# Velocity S-wave (km/s) = 5.87041 3.62434 4.87840
# Velocity P-wave (km/s) = 8.75608 6.94299 7.90171
#
# Compressibility (1/GPa) = 0.01452883
#
# Stress axis : x y z
#
# Youngs Moduli (GPa) = 47.05194 -83.33397 -315.53837
#
# Poissons Ratio (x) = -0.75844 -1.24215
# Poissons Ratio (y) = 0.42823 5.44626
# Poissons Ratio (z) = 0.18523 1.43836
#
# Static dielectric constant tensor:
#      x y z
#    x 1.845110 0.023790 -0.042760 
#    y 0.023790 1.862670 -0.030220 
#    z -0.042760 -0.030220 1.891130 
# 
# From -- ./inp_files/333514.got.cif
#   From: 2010.05.17/outbox.ucp.g08.bks.cvg/sg2_167_cif.got.tgz:333514.got - 2010.06.11 11:32:03.
