data_PCOD9073286
_publ_section_title
;
Structure prediction by ZEFSAII (Michael W. Deem and Ramdas Pophale) SiO2 
 PCOD9073286
Probable space group: P -1
;
_chemical_formula_sum "Si O2"
_cell_formula_units_Z 16
_cell_length_a 9.000000
_cell_length_b 21.000000
_cell_length_c 9.000000
_cell_angle_alpha 120.000000
_cell_angle_beta 100.000000
_cell_angle_gamma 130.000000
_cell_volume 751.240448
_symmetry_space_group_name_H-M "P -1"
_symmetry_group_IT_number 2
_symmetry_cell_setting 'triclinic'
loop_
_space_group_symop_operation_xyz
x,y,z
-x,-y,-z
loop_
_atom_site_type_symbol
_atom_site_label
_atom_site_fract_x
_atom_site_fract_y
_atom_site_fract_z
Si Si1 0.821889 0.521127 0.593915
Si Si2 0.810639 0.825666 0.425852
Si Si3 0.254526 0.755637 0.490311
Si Si4 0.208480 0.550559 0.826810
Si Si5 0.913077 0.998969 0.826098
Si Si6 0.695681 0.075587 0.470693
Si Si7 0.224754 0.255852 0.339937
Si Si8 0.774801 0.192210 0.137412
O O1 0.731051 0.461775 0.338841
O O2 0.534901 0.412614 0.515980
O O3 0.003056 0.532510 0.720603
O O4 0.043689 0.680780 0.794907
O O5 0.971182 0.970413 0.662315
O O6 0.756748 0.772247 0.524182
O O7 0.033210 0.867747 0.419322
O O8 0.501832 0.696947 0.134801
O O9 0.562868 0.857922 0.598299
O O10 0.185462 0.796882 0.422511
O O11 0.332653 0.808686 0.737565
O O12 0.990987 0.587744 0.268477
O O13 0.000000 0.000000 0.000000
O O14 0.084841 0.146836 0.055067
O O15 0.500000 0.000000 0.500000
O O16 0.479353 0.954623 0.164712
O O17 0.000490 0.228329 0.284914
#
# Coordination Sequence:
#
# PCOD9073286 Si02
#       8
#     2   2   2   2   2   2   2   2
#     4  10  24  43  67 102 137 181 223 276 344 398
#     4  11  25  43  69 103 134 181 229 281 339 397
#     4  11  22  45  70  95 136 185 224 273 339 405
#     4  10  24  44  68  98 141 178 225 280 334 409
#     4  10  21  37  69 101 131 174 227 275 327 401
#     4  12  27  44  66 103 138 177 224 286 343 398
#     4  11  21  41  70 102 135 181 229 273 336 412
#     4  11  22  44  70  96 139 182 225 274 339 410
#
# _framework density 21.298107999999999
#
# number of rings (size 3 to 8) (size 9 to 14) (size 15 to 20)
#    0.000    1.250    2.500    3.750    1.750    6.500 
#    0.000    1.875    0.000    0.000    0.000    0.000 
#    0.000    0.000    0.000    0.000    0.000    0.000 
#
# Total GULP energy -89374.559408 kJ/mol
# GULP energy per Si atom -5585.909963 kJ/mol
# Density = 2.124963 g / cm^3
# Si number density = 21.298108 Si / 1000 Ang^3
#
#
#
# Elastic Constant Matrix: (Units=GPa)
#
#
# Indices 1 2 3 4 5 6 
#
# 1 59.0788 5.6383 22.8184 0.2204 4.3386 -2.7533
# 2 5.6383 89.4264 16.2885 10.5521 -3.2107 -4.0086
# 3 22.8184 16.2885 95.4370 -4.2509 7.1218 -5.4766
# 4 0.2204 10.5521 -4.2509 27.1618 -0.0458 -2.6727
# 5 4.3386 -3.2107 7.1218 -0.0458 24.7661 8.5028
# 6 -2.7533 -4.0086 -5.4766 -2.6727 8.5028 24.1672
#
#
#
# Elastic Compliance Matrix: (Units=1/GPa)
#
#
# Indices 1 2 3 4 5 6 
#
# 1 0.018871 -0.000395 -0.004126 -0.000442 -0.002900 0.002121
# 2 -0.000395 0.012342 -0.002412 -0.005159 0.002331 0.000065
# 3 -0.004126 -0.002412 0.012592 0.003323 -0.004563 0.003956
# 4 -0.000442 -0.005159 0.003323 0.039873 -0.003338 0.005431
# 5 -0.002900 0.002331 -0.004563 -0.003338 0.048858 -0.018537
# 6 0.002121 0.000065 0.003956 0.005431 -0.018537 0.049650
#
#
# Mechanical properties :
#
#
# Convention : Reuss Voigt Hill
#
# Bulk Modulus (GPa) = 33.40185 37.04808 35.22496
# Shear Modulus (GPa) = 24.26810 28.49883 26.38346
#
# Velocity S-wave (km/s) = 3.37923 3.66196 3.52344
# Velocity P-wave (km/s) = 5.56262 5.94245 5.75567
#
# Compressibility (1/GPa) = 0.02993846
#
# Stress axis : x y z
#
# Youngs Moduli (GPa) = 52.99037 81.02464 79.41650
#
# Poissons Ratio (x) = 0.03202 0.32769
# Poissons Ratio (y) = 0.02094 0.19155
# Poissons Ratio (z) = 0.21865 0.19543
#
# Static dielectric constant tensor:
#      x y z
#    x 1.851990 -0.031860 -0.041170 
#    y -0.031860 1.767990 0.003990 
#    z -0.041170 0.003990 1.728320 
# 
# From -- ./inp_files/223866.got.cif
#   From: 2010.05.17/outbox.ucp.g08.bks.cvg/sg2_112_cif.got.tgz:223866.got - 2010.06.11 11:32:03.
