data_PCOD9073065
_publ_section_title
;
Structure prediction by ZEFSAII (Michael W. Deem and Ramdas Pophale) SiO2 
 PCOD9073065
Probable space group: P -1
;
_chemical_formula_sum "Si O2"
_cell_formula_units_Z 14
_cell_length_a 16.142844
_cell_length_b 14.303106
_cell_length_c 10.749341
_cell_angle_alpha 29.663775
_cell_angle_beta 145.186804
_cell_angle_gamma 142.579474
_cell_volume 671.991665
_symmetry_space_group_name_H-M "P -1"
_symmetry_group_IT_number 2
_symmetry_cell_setting 'triclinic'
loop_
_space_group_symop_operation_xyz
x,y,z
-x,-y,-z
loop_
_atom_site_type_symbol
_atom_site_label
_atom_site_fract_x
_atom_site_fract_y
_atom_site_fract_z
Si Si1 0.188671 0.823579 0.028157
Si Si2 0.411599 0.551371 0.061803
Si Si3 0.046348 0.801982 0.265681
Si Si4 0.637480 0.766998 0.279424
Si Si5 0.588113 0.332045 0.670036
Si Si6 0.075306 0.442288 0.850889
Si Si7 0.352607 0.824856 0.492254
O O1 0.277765 0.748919 0.115796
O O2 0.020720 0.688612 0.006513
O O3 0.283072 0.814446 0.281665
O O4 0.214844 0.053680 0.765549
O O5 0.529476 0.737876 0.058402
O O6 0.490388 0.378494 0.379180
O O7 0.379412 0.618703 0.807961
O O8 0.256123 0.499966 0.007439
O O9 0.965695 0.687354 0.176309
O O10 0.223137 0.855311 0.389532
O O11 0.021751 0.639099 0.533290
O O12 0.000000 0.000000 0.000000
O O13 0.657579 0.549430 0.563943
O O14 0.533737 0.791032 0.239734
O O15 0.500000 0.000000 0.500000
#
# Coordination Sequence:
#
# PCOD9073065 Si02
#       7
#     2   2   2   2   2   2   2
#     4  11  20  33  57  80 106 136 177 218 267 307
#     4   9  18  37  53  73 113 137 165 222 261 306
#     4   9  19  34  52  69 111 153 165 197 268 324
#     4   9  19  38  57  72 106 141 180 219 256 308
#     4   9  20  36  59  74 100 144 186 209 260 312
#     4   9  20  34  48  81 109 132 174 221 255 310
#     4  10  18  31  52  83 106 129 171 218 257 306
#
# _framework density 20.833590999999998
#
# number of rings (size 3 to 8) (size 9 to 14) (size 15 to 20)
#    0.857    1.714    1.429    1.286    0.000    5.143 
#    0.000    1.429    0.000    0.000    0.000    0.000 
#    0.000    0.000    0.000    0.000    0.000    0.000 
#
# Total GULP energy -77969.884224 kJ/mol
# GULP energy per Si atom -5569.277445 kJ/mol
# Density = 2.078617 g / cm^3
# Si number density = 20.833591 Si / 1000 Ang^3
#
#
#
# Elastic Constant Matrix: (Units=GPa)
#
#
# Indices 1 2 3 4 5 6 
#
# 1 42.4454 9.6353 -4.9021 -20.5978 -6.1391 13.8483
# 2 9.6353 56.6371 14.5660 -17.9044 5.5983 20.6916
# 3 -4.9021 14.5660 45.3239 -16.6951 0.7028 -1.5317
# 4 -20.5978 -17.9044 -16.6951 28.1322 1.1498 -9.3474
# 5 -6.1391 5.5983 0.7028 1.1498 29.7916 -2.1220
# 6 13.8483 20.6916 -1.5317 -9.3474 -2.1220 25.9373
#
#
#
# Elastic Compliance Matrix: (Units=1/GPa)
#
#
# Indices 1 2 3 4 5 6 
#
# 1 0.057033 0.005553 0.024070 0.054941 0.007089 -0.013079
# 2 0.005553 0.032015 -0.005525 0.013268 -0.007007 -0.024623
# 3 0.024070 -0.005525 0.042248 0.042201 0.004056 0.009591
# 4 0.054941 0.013268 0.042201 0.109939 0.003768 0.002502
# 5 0.007089 -0.007007 0.004056 0.003768 0.036559 0.006393
# 6 -0.013079 -0.024623 0.009591 0.002502 0.006393 0.067172
#
#
# Mechanical properties :
#
#
# Convention : Reuss Voigt Hill
#
# Bulk Modulus (GPa) = 5.57126 20.33387 12.95257
# Shear Modulus (GPa) = 14.02130 25.11269 19.56700
#
# Velocity S-wave (km/s) = 2.59707 3.47565 3.06797
# Velocity P-wave (km/s) = 3.41657 5.08804 4.33365
#
# Compressibility (1/GPa) = 0.17949258
#
# Stress axis : x y z
#
# Youngs Moduli (GPa) = 17.53359 31.23543 23.66974
#
# Poissons Ratio (x) = -0.17345 -0.56972
# Poissons Ratio (y) = -0.09736 0.13076
# Poissons Ratio (z) = -0.42203 0.17256
#
# Static dielectric constant tensor:
#      x y z
#    x 1.740380 -0.007010 -0.039890 
#    y -0.007010 1.762920 0.005270 
#    z -0.039890 0.005270 1.802820 
# 
# From -- ./inp_files/311805.got.cif
#   From: 2010.05.17/outbox.cif.g08.bks.cpg/sg2_156_cif.got.tgz:311805.got - 2010.06.03 11:33:40.
