data_PCOD9073175
_publ_section_title
;
Structure prediction by ZEFSAII (Michael W. Deem and Ramdas Pophale) SiO2 
 PCOD9073175
Probable space group: P -1
;
_chemical_formula_sum "Si O2"
_cell_formula_units_Z 16
_cell_length_a 12.285985
_cell_length_b 11.286423
_cell_length_c 8.371669
_cell_angle_alpha 79.788850
_cell_angle_beta 123.305508
_cell_angle_gamma 137.956050
_cell_volume 592.079130
_symmetry_space_group_name_H-M "P -1"
_symmetry_group_IT_number 2
_symmetry_cell_setting 'triclinic'
loop_
_space_group_symop_operation_xyz
x,y,z
-x,-y,-z
loop_
_atom_site_type_symbol
_atom_site_label
_atom_site_fract_x
_atom_site_fract_y
_atom_site_fract_z
Si Si1 0.977106 0.649353 0.737990
Si Si2 0.140226 0.664484 0.438283
Si Si3 0.302946 0.145187 0.383230
Si Si4 0.625932 0.001479 0.246571
Si Si5 0.542221 0.730333 0.059463
Si Si6 0.986405 0.901149 0.655210
Si Si7 0.469051 0.433848 0.215313
Si Si8 0.977192 0.755541 0.068543
O O1 0.207943 0.823719 0.794008
O O2 0.849938 0.435298 0.658784
O O3 0.888396 0.704857 0.568403
O O4 0.968637 0.681186 0.909352
O O5 0.355082 0.874052 0.638749
O O6 0.000000 0.500000 0.500000
O O7 0.006673 0.675691 0.249006
O O8 0.136145 0.124847 0.300154
O O9 0.481360 0.357559 0.399317
O O10 0.324120 0.070745 0.568663
O O11 0.193471 0.985590 0.198625
O O12 0.463404 0.799348 0.058912
O O13 0.562448 0.636468 0.228514
O O14 0.462381 0.599724 0.871745
O O15 0.772839 0.938295 0.142989
O O16 0.000000 0.000000 0.500000
O O17 0.221555 0.302756 0.037034
#
# Coordination Sequence:
#
# PCOD9073175 Si02
#       8
#     2   2   2   2   2   2   2   2
#     4  10  18  31  53  80 107 133 173 226 259 305
#     4   9  20  35  52  79 101 134 185 228 258 299
#     4  11  18  31  53  82 105 137 177 214 262 314
#     4   9  19  34  53  73 108 140 173 216 261 306
#     4  10  21  34  48  75 116 145 171 214 271 316
#     4  11  18  32  56  82 107 139 173 218 268 311
#     4  11  22  32  49  81 116 142 171 214 269 327
#     4  11  20  31  54  79 108 138 176 221 264 314
#
# _framework density 27.023416999999998
#
# number of rings (size 3 to 8) (size 9 to 14) (size 15 to 20)
#    0.000    1.750    5.000    2.250    0.000    0.500 
#    0.000    0.000    0.000    7.500    0.000    1.750 
#    0.000    0.000    0.000    0.000    0.000    0.000 
#
# Total GULP energy -89071.759677 kJ/mol
# GULP energy per Si atom -5566.984980 kJ/mol
# Density = 2.696191 g / cm^3
# Si number density = 27.023417 Si / 1000 Ang^3
#
#
#
# Elastic Constant Matrix: (Units=GPa)
#
#
# Indices 1 2 3 4 5 6 
#
# 1 75.1191 52.2984 42.4072 -0.9667 -17.8732 -31.2887
# 2 52.2984 172.0790 37.8909 10.1667 -7.0364 -33.5681
# 3 42.4072 37.8909 96.2162 -6.1702 -18.1864 -21.6363
# 4 -0.9667 10.1667 -6.1702 59.2924 -20.4529 -18.3616
# 5 -17.8732 -7.0364 -18.1864 -20.4529 36.5152 9.3088
# 6 -31.2887 -33.5681 -21.6363 -18.3616 9.3088 55.6542
#
#
#
# Elastic Compliance Matrix: (Units=1/GPa)
#
#
# Indices 1 2 3 4 5 6 
#
# 1 0.026947 -0.005010 -0.004664 0.008289 0.011717 0.011089
# 2 -0.005010 0.007873 -0.001391 -0.002330 -0.003229 0.001162
# 3 -0.004664 -0.001391 0.015380 0.005200 0.007252 0.003021
# 4 0.008289 -0.002330 0.005200 0.028005 0.018993 0.011339
# 5 0.011717 -0.003229 0.007252 0.018993 0.045177 0.006169
# 6 0.011089 0.001162 0.003021 0.011339 0.006169 0.028787
#
#
# Mechanical properties :
#
#
# Convention : Reuss Voigt Hill
#
# Bulk Modulus (GPa) = 35.62464 67.62304 51.62384
# Shear Modulus (GPa) = 27.22531 44.34688 35.78609
#
# Velocity S-wave (km/s) = 3.17751 4.05539 3.64299
# Velocity P-wave (km/s) = 5.16465 6.85612 6.06960
#
# Compressibility (1/GPa) = 0.02807046
#
# Stress axis : x y z
#
# Youngs Moduli (GPa) = 37.11050 127.02393 65.02000
#
# Poissons Ratio (x) = 0.63640 0.30323
# Poissons Ratio (y) = 0.18593 0.09041
# Poissons Ratio (z) = 0.17307 0.17663
#
# Static dielectric constant tensor:
#      x y z
#    x 2.266160 0.012680 0.084910 
#    y 0.012680 2.134060 0.034120 
#    z 0.084910 0.034120 2.252060 
# 
# From -- ./inp_files/305140.got.cif
#   From: 2010.05.17/outbox.cif.g08.bks.cpg/sg2_153_cif.got.tgz:305140.got - 2010.06.03 11:33:40.
