data_PCOD9073459
_publ_section_title
;
Structure prediction by ZEFSAII (Michael W. Deem and Ramdas Pophale) SiO2 
 PCOD9073459
Probable space group: P -1
;
_chemical_formula_sum "Si O2"
_cell_formula_units_Z 14
_cell_length_a 17.493488
_cell_length_b 9.289833
_cell_length_c 7.592407
_cell_angle_alpha 95.239817
_cell_angle_beta 35.305157
_cell_angle_gamma 72.798277
_cell_volume 543.627391
_symmetry_space_group_name_H-M "P -1"
_symmetry_group_IT_number 2
_symmetry_cell_setting 'triclinic'
loop_
_space_group_symop_operation_xyz
x,y,z
-x,-y,-z
loop_
_atom_site_type_symbol
_atom_site_label
_atom_site_fract_x
_atom_site_fract_y
_atom_site_fract_z
Si Si1 0.885225 0.838694 0.614945
Si Si2 0.415749 0.159370 0.899312
Si Si3 0.307571 0.751872 0.849889
Si Si4 0.434376 0.702336 0.199550
Si Si5 0.905042 0.922012 0.228860
Si Si6 0.324484 0.423835 0.772184
Si Si7 0.809613 0.761154 0.100654
O O1 0.985064 0.809924 0.247101
O O2 0.827413 0.030679 0.828176
O O3 0.718052 0.875650 0.843891
O O4 0.915604 0.718635 0.716593
O O5 0.423593 0.269974 0.053261
O O6 0.352616 0.300157 0.871253
O O7 0.611174 0.963146 0.481141
O O8 0.361288 0.733072 0.541245
O O9 0.241739 0.636403 0.996437
O O10 0.477501 0.663561 0.641951
O O11 0.287521 0.875910 0.375443
O O12 0.500000 0.500000 0.000000
O O13 0.896283 0.795944 0.093418
O O14 0.000000 0.000000 0.000000
O O15 0.220186 0.389634 0.836891
#
# Coordination Sequence:
#
# PCOD9073459 Si02
#       7
#     2   2   2   2   2   2   2
#     4  11  19  36  62  83 116 159 189 245 300 340
#     4   9  17  32  54  89 122 141 191 247 297 347
#     4  10  18  31  54  92 119 150 180 238 308 347
#     4  10  22  35  57  90 125 145 191 252 294 341
#     4  11  26  40  57  86 118 160 207 237 283 355
#     4   9  16  27  55  82 125 141 180 235 301 344
#     4  10  18  38  55  85 118 150 194 248 282 354
#
# _framework density 25.752934
#
# number of rings (size 3 to 8) (size 9 to 14) (size 15 to 20)
#    0.000    2.000    5.714    0.857    6.000    4.000 
#    0.000    0.000    0.000    4.286    0.000    0.000 
#    0.000    0.000    0.000    0.000    0.000    0.000 
#
# Total GULP energy -78219.118171 kJ/mol
# GULP energy per Si atom -5587.079869 kJ/mol
# Density = 2.569432 g / cm^3
# Si number density = 25.752934 Si / 1000 Ang^3
#
#
#
# Elastic Constant Matrix: (Units=GPa)
#
#
# Indices 1 2 3 4 5 6 
#
# 1 106.7314 54.4034 44.7196 0.6223 10.9170 27.1637
# 2 54.4034 212.1101 27.9198 -5.3267 6.6058 45.9142
# 3 44.7196 27.9198 48.6605 -23.6092 17.3045 11.1057
# 4 0.6223 -5.3267 -23.6092 35.6750 0.5394 -6.2108
# 5 10.9170 6.6058 17.3045 0.5394 28.4637 -5.9942
# 6 27.1637 45.9142 11.1057 -6.2108 -5.9942 54.3445
#
#
#
# Elastic Compliance Matrix: (Units=1/GPa)
#
#
# Indices 1 2 3 4 5 6 
#
# 1 0.030415 -0.001526 -0.048584 -0.034213 0.017620 -0.005952
# 2 -0.001526 0.006226 -0.000886 -0.000394 -0.001262 -0.004501
# 3 -0.048584 -0.000886 0.129672 0.087771 -0.061278 0.001805
# 4 -0.034213 -0.000394 0.087771 0.088155 -0.040748 0.005078
# 5 0.017620 -0.001262 -0.061278 -0.040748 0.068306 0.007659
# 6 -0.005952 -0.004501 0.001805 0.005078 0.007659 0.026235
#
#
# Mechanical properties :
#
#
# Convention : Reuss Voigt Hill
#
# Bulk Modulus (GPa) = 15.54636 69.06531 42.30583
# Shear Modulus (GPa) = 10.58333 39.72726 25.15530
#
# Velocity S-wave (km/s) = 2.02941 3.93189 3.12876
# Velocity P-wave (km/s) = 3.39723 6.89128 5.43281
#
# Compressibility (1/GPa) = 0.06432376
#
# Stress axis : x y z
#
# Youngs Moduli (GPa) = 32.87827 160.61426 7.71174
#
# Poissons Ratio (x) = 0.24504 0.37466
# Poissons Ratio (y) = 0.05016 0.00683
# Poissons Ratio (z) = 1.59735 0.14226
#
# Static dielectric constant tensor:
#      x y z
#    x 2.171720 0.024600 -0.106380 
#    y 0.024600 2.006840 0.011380 
#    z -0.106380 0.011380 2.201970 
# 
# From -- ./inp_files/341891.got.cif
#   From: 2010.05.17/outbox.cif.g08.bks.cpg/sg2_171_cif.got.tgz:341891.got - 2010.06.03 11:33:40.
