data_PCOD9073436
_publ_section_title
;
Structure prediction by ZEFSAII (Michael W. Deem and Ramdas Pophale) SiO2 
 PCOD9073436
Probable space group: P -1
;
_chemical_formula_sum "Si O2"
_cell_formula_units_Z 16
_cell_length_a 15.000000
_cell_length_b 9.000000
_cell_length_c 24.000000
_cell_angle_alpha 70.000000
_cell_angle_beta 160.000000
_cell_angle_gamma 120.000000
_cell_volume 865.715661
_symmetry_space_group_name_H-M "P -1"
_symmetry_group_IT_number 2
_symmetry_cell_setting 'triclinic'
loop_
_space_group_symop_operation_xyz
x,y,z
-x,-y,-z
loop_
_atom_site_type_symbol
_atom_site_label
_atom_site_fract_x
_atom_site_fract_y
_atom_site_fract_z
Si Si1 0.759858 0.792284 0.413180
Si Si2 0.781011 0.336690 0.259330
Si Si3 0.774173 0.665702 0.022244
Si Si4 0.674313 0.351673 0.929218
Si Si5 0.306518 0.139098 0.416487
Si Si6 0.108140 0.717804 0.330876
Si Si7 0.327149 0.714516 0.275062
Si Si8 0.381809 0.981573 0.995286
O O1 0.507480 0.670351 0.231579
O O2 0.560588 0.798087 0.348032
O O3 0.965073 0.706366 0.563180
O O4 0.000000 0.000000 0.500000
O O5 0.498143 0.293515 0.140951
O O6 0.948582 0.547182 0.303546
O O7 0.584760 0.190408 0.113229
O O8 0.606931 0.455228 0.925325
O O9 0.895686 0.679470 0.155351
O O10 0.090490 0.775709 0.153635
O O11 0.572251 0.149596 0.919381
O O12 0.053874 0.495050 0.128011
O O13 0.575051 0.248689 0.513610
O O14 0.453640 0.245925 0.547721
O O15 0.988801 0.115451 0.214736
O O16 0.211027 0.920810 0.391291
O O17 0.500000 0.000000 0.000000
#
# Coordination Sequence:
#
# PCOD9073436 Si02
#       8
#     2   2   2   2   2   2   2   2
#     4  12  25  45  65  93 127 176 226 272 314 380
#     4  12  24  40  68  95 133 169 220 264 326 388
#     4   9  21  41  66  95 128 166 208 267 329 384
#     4  10  24  44  67  87 135 171 220 262 325 380
#     4  10  22  38  65  97 133 161 211 263 328 393
#     4  10  21  39  65  97 132 167 202 270 332 387
#     4   9  23  44  66  89 131 174 212 269 328 378
#     4  12  24  37  66 103 129 171 210 266 329 394
#
# _framework density 18.481819000000002
#
# number of rings (size 3 to 8) (size 9 to 14) (size 15 to 20)
#    0.750    0.750    2.500    2.250    3.500    1.000 
#    0.000    0.625    0.000    0.000    0.000    0.000 
#    0.000    0.000    0.000    0.000    0.000    0.000 
#
# Total GULP energy -89096.808187 kJ/mol
# GULP energy per Si atom -5568.550512 kJ/mol
# Density = 1.843975 g / cm^3
# Si number density = 18.481819 Si / 1000 Ang^3
#
#
#
# Elastic Constant Matrix: (Units=GPa)
#
#
# Indices 1 2 3 4 5 6 
#
# 1 79.6706 23.1425 39.1890 -11.0034 17.2512 8.0064
# 2 23.1425 42.5806 23.0598 -0.2392 12.6949 6.2200
# 3 39.1890 23.0598 126.3308 -12.5778 -4.2100 -0.8670
# 4 -11.0034 -0.2392 -12.5778 33.4802 -7.3547 -0.6397
# 5 17.2512 12.6949 -4.2100 -7.3547 39.5264 4.1265
# 6 8.0064 6.2200 -0.8670 -0.6397 4.1265 22.3781
#
#
#
# Elastic Compliance Matrix: (Units=1/GPa)
#
#
# Indices 1 2 3 4 5 6 
#
# 1 0.018466 -0.005054 -0.004749 0.002856 -0.005972 -0.004203
# 2 -0.005054 0.032709 -0.005308 -0.005574 -0.009283 -0.005937
# 3 -0.004749 -0.005308 0.010927 0.003734 0.005352 0.002718
# 4 0.002856 -0.005574 0.003734 0.033755 0.007190 0.000311
# 5 -0.005972 -0.009283 0.005352 0.007190 0.032893 -0.000936
# 6 -0.004203 -0.005937 0.002718 0.000311 -0.000936 0.048127
#
#
# Mechanical properties :
#
#
# Convention : Reuss Voigt Hill
#
# Bulk Modulus (GPa) = 31.36754 46.59607 38.98181
# Shear Modulus (GPa) = 22.96467 29.95632 26.46049
#
# Velocity S-wave (km/s) = 3.52881 4.03035 3.78789
# Velocity P-wave (km/s) = 5.79761 6.85017 6.34575
#
# Compressibility (1/GPa) = 0.03188009
#
# Stress axis : x y z
#
# Youngs Moduli (GPa) = 54.15438 30.57217 91.51935
#
# Poissons Ratio (x) = 0.15450 0.43465
# Poissons Ratio (y) = 0.27368 0.48578
# Poissons Ratio (z) = 0.25719 0.16228
#
# Static dielectric constant tensor:
#      x y z
#    x 1.642700 -0.036180 0.024440 
#    y -0.036180 1.650000 0.002110 
#    z 0.024440 0.002110 1.663120 
# 
# From -- ./inp_files/611648.got.cif
#   From: 2010.05.17/outbox.ucp.g08.bks.cvg/sg2_306_cif.got.tgz:611648.got - 2010.06.11 11:32:03.
