data_PCOD9073193
_publ_section_title
;
Structure prediction by ZEFSAII (Michael W. Deem and Ramdas Pophale) SiO2 
 PCOD9073193
Probable space group: P -1
;
_chemical_formula_sum "Si O2"
_cell_formula_units_Z 14
_cell_length_a 9.000000
_cell_length_b 12.000000
_cell_length_c 30.000000
_cell_angle_alpha 20.000000
_cell_angle_beta 40.000000
_cell_angle_gamma 40.000000
_cell_volume 696.397529
_symmetry_space_group_name_H-M "P -1"
_symmetry_group_IT_number 2
_symmetry_cell_setting 'triclinic'
loop_
_space_group_symop_operation_xyz
x,y,z
-x,-y,-z
loop_
_atom_site_type_symbol
_atom_site_label
_atom_site_fract_x
_atom_site_fract_y
_atom_site_fract_z
Si Si1 0.723903 0.663479 0.378134
Si Si2 0.996417 0.742213 0.196922
Si Si3 0.044597 0.828777 0.417406
Si Si4 0.401031 0.379166 0.445997
Si Si5 0.489733 0.199232 0.294801
Si Si6 0.288116 0.241548 0.931507
Si Si7 0.784039 0.550583 0.229345
O O1 0.500000 0.500000 0.500000
O O2 0.919966 0.427232 0.452748
O O3 0.826957 0.674087 0.301247
O O4 0.623627 0.028817 0.284294
O O5 0.238195 0.452606 0.250725
O O6 0.881747 0.739870 0.175761
O O7 0.065104 0.100264 0.052295
O O8 0.277571 0.707720 0.378824
O O9 0.819024 0.764571 0.466854
O O10 0.981265 0.214622 0.300223
O O11 0.559424 0.440646 0.345166
O O12 0.540626 0.100351 0.552562
O O13 0.672838 0.397228 0.200374
O O14 0.286047 0.243902 0.877184
O O15 0.500000 0.000000 0.000000
#
# Coordination Sequence:
#
# PCOD9073193 Si02
#       7
#     2   2   2   2   2   2   2
#     4  11  23  39  63  96 127 154 198 251 309 368
#     4  11  24  40  62  89 125 167 199 247 305 354
#     4  10  21  35  60  95 121 153 197 246 309 361
#     4  10  21  36  61  96 121 151 198 257 301 358
#     4  10  21  42  63  91 127 157 204 249 296 364
#     4  10  24  42  62  87 118 166 214 246 293 362
#     4  12  22  39  64  88 125 159 200 254 306 354
#
# _framework density 20.103459999999998
#
# number of rings (size 3 to 8) (size 9 to 14) (size 15 to 20)
#    0.000    1.429    1.429    4.286    4.000    2.286 
#    0.000    2.857    0.000    6.857    0.000    0.000 
#    0.000    0.000    0.000    0.000    0.000    0.000 
#
# Total GULP energy -78105.902310 kJ/mol
# GULP energy per Si atom -5578.993022 kJ/mol
# Density = 2.005770 g / cm^3
# Si number density = 20.103460 Si / 1000 Ang^3
#
#
#
# Elastic Constant Matrix: (Units=GPa)
#
#
# Indices 1 2 3 4 5 6 
#
# 1 105.6093 42.1182 37.3404 8.4183 5.4485 14.3544
# 2 42.1182 92.8353 47.7323 4.8636 7.8107 11.9644
# 3 37.3404 47.7323 93.5142 18.7426 6.7537 5.5492
# 4 8.4183 4.8636 18.7426 11.4596 -0.2006 4.1849
# 5 5.4485 7.8107 6.7537 -0.2006 27.7105 1.6339
# 6 14.3544 11.9644 5.5492 4.1849 1.6339 29.3124
#
#
#
# Elastic Compliance Matrix: (Units=1/GPa)
#
#
# Indices 1 2 3 4 5 6 
#
# 1 0.012553 -0.003860 -0.002272 -0.002510 -0.000624 -0.003749
# 2 -0.003860 0.017590 -0.009628 0.013007 -0.001449 -0.005243
# 3 -0.002272 -0.009628 0.023321 -0.034536 -0.003112 0.005731
# 4 -0.002510 0.013007 -0.034536 0.147126 0.007428 -0.018961
# 5 -0.000624 -0.001449 -0.003112 0.007428 0.037529 -0.001666
# 6 -0.003749 -0.005243 0.005731 -0.018961 -0.001666 0.039806
#
#
# Mechanical properties :
#
#
# Convention : Reuss Voigt Hill
#
# Bulk Modulus (GPa) = 45.56877 60.70450 53.13663
# Shear Modulus (GPa) = 15.78486 24.68103 20.23294
#
# Velocity S-wave (km/s) = 2.80515 3.50766 3.17589
# Velocity P-wave (km/s) = 5.76265 6.83129 6.31960
#
# Compressibility (1/GPa) = 0.02194486
#
# Stress axis : x y z
#
# Youngs Moduli (GPa) = 79.66023 56.85200 42.87903
#
# Poissons Ratio (x) = 0.21946 0.09740
# Poissons Ratio (y) = 0.30751 0.41283
# Poissons Ratio (z) = 0.18096 0.54736
#
# Static dielectric constant tensor:
#      x y z
#    x 1.789380 0.010620 -0.031050 
#    y 0.010620 1.701140 -0.047830 
#    z -0.031050 -0.047830 1.744460 
# 
# From -- ./inp_files/255700.got.cif
#   From: 2010.05.17/outbox.ucp.g08.bks.cvg/sg2_128_cif.got.tgz:255700.got - 2010.06.11 11:32:03.
