data_PCOD9073387
_publ_section_title
;
Structure prediction by ZEFSAII (Michael W. Deem and Ramdas Pophale) SiO2 
 PCOD9073387
Probable space group: P -1
;
_chemical_formula_sum "Si O2"
_cell_formula_units_Z 14
_cell_length_a 6.000000
_cell_length_b 24.000000
_cell_length_c 27.000000
_cell_angle_alpha 10.000000
_cell_angle_beta 70.000000
_cell_angle_gamma 70.000000
_cell_volume 634.106208
_symmetry_space_group_name_H-M "P -1"
_symmetry_group_IT_number 2
_symmetry_cell_setting 'triclinic'
loop_
_space_group_symop_operation_xyz
x,y,z
-x,-y,-z
loop_
_atom_site_type_symbol
_atom_site_label
_atom_site_fract_x
_atom_site_fract_y
_atom_site_fract_z
Si Si1 0.711523 0.296282 0.407024
Si Si2 0.663357 0.388413 0.773703
Si Si3 0.416821 0.871888 0.173919
Si Si4 0.060366 0.106629 0.170314
Si Si5 0.943090 0.888720 0.257709
Si Si6 0.632941 0.958314 0.606107
Si Si7 0.317410 0.444494 0.136009
O O1 0.476822 0.334206 0.426294
O O2 0.887995 0.150895 0.563925
O O3 0.741689 0.092596 0.531830
O O4 0.732767 0.652959 0.070671
O O5 0.805793 0.564502 0.564663
O O6 0.515107 0.127456 0.982799
O O7 0.795732 0.182583 0.986701
O O8 0.500000 0.500000 0.500000
O O9 0.145763 0.849579 0.234261
O O10 0.500000 0.000000 0.000000
O O11 0.012950 0.968645 0.239756
O O12 0.863853 0.352796 0.993265
O O13 0.776606 0.779534 0.706161
O O14 0.481089 0.230039 0.349030
O O15 0.463012 0.700723 0.869515
#
# Coordination Sequence:
#
# PCOD9073387 Si02
#       7
#     2   2   2   2   2   2   2
#     4  12  24  40  66  97 135 175 230 287 332 396
#     4  12  26  46  74 101 140 184 227 278 343 409
#     4  12  28  48  74 106 143 172 225 286 336 414
#     4  12  24  40  66  97 135 175 230 287 332 396
#     4  12  26  46  74 101 140 184 227 278 343 409
#     4  10  21  39  61  90 131 177 227 280 337 400
#     4  10  21  39  61  90 131 177 227 280 337 400
#
# _framework density 22.078320000000001
#
# number of rings (size 3 to 8) (size 9 to 14) (size 15 to 20)
#    0.000    0.571    1.429    6.857    2.000    4.571 
#    0.000    0.000    0.000    0.000    0.000    0.000 
#    0.000    0.000    0.000    0.000    0.000    0.000 
#
# Total GULP energy -77956.156787 kJ/mol
# GULP energy per Si atom -5568.296913 kJ/mol
# Density = 2.202807 g / cm^3
# Si number density = 22.078320 Si / 1000 Ang^3
#
#
#
# Elastic Constant Matrix: (Units=GPa)
#
#
# Indices 1 2 3 4 5 6 
#
# 1 7.4848 -4.2543 6.0886 -0.9402 19.3011 -0.0630
# 2 -4.2543 131.2647 -3.7481 15.7248 21.9487 0.5195
# 3 6.0886 -3.7481 99.0736 28.5265 12.8085 -3.4938
# 4 -0.9402 15.7248 28.5265 57.8631 3.0408 4.5928
# 5 19.3011 21.9487 12.8085 3.0408 44.7048 7.9864
# 6 -0.0630 0.5195 -3.4938 4.5928 7.9864 46.0656
#
#
#
# Elastic Compliance Matrix: (Units=1/GPa)
#
#
# Indices 1 2 3 4 5 6 
#
# 1 -0.361293 -0.042566 -0.004569 0.000851 0.183912 -0.032330
# 2 -0.042566 0.003859 0.001398 -0.003104 0.016757 -0.002591
# 3 -0.004569 0.001398 0.012742 -0.006777 -0.002263 0.002012
# 4 0.000851 -0.003104 -0.006777 0.021605 0.002166 -0.003007
# 5 0.183912 0.016757 -0.002263 0.002166 -0.066770 0.011251
# 6 -0.032330 -0.002591 0.002012 -0.003007 0.011251 0.020195
#
#
# Mechanical properties :
#
#
# Convention : Reuss Voigt Hill
#
# Bulk Modulus (GPa) = -2.29271 25.99949 11.85339
# Shear Modulus (GPa) = -11.80423 45.70919 16.95248
#
# Velocity S-wave (km/s) = -2.31476 4.55501 2.77399
# Velocity P-wave (km/s) = 2.86092 6.28218 3.95480
#
# Compressibility (1/GPa) = -0.43616476
#
# Stress axis : x y z
#
# Youngs Moduli (GPa) = -2.76784 259.14420 78.48086
#
# Poissons Ratio (x) = 11.03067 0.35855
# Poissons Ratio (y) = -0.11782 -0.10972
# Poissons Ratio (z) = -0.01265 -0.36229
#
# Static dielectric constant tensor:
#      x y z
#    x 1.949100 -0.035350 -0.071880 
#    y -0.035350 1.789280 -0.072220 
#    z -0.071880 -0.072220 1.862580 
# 
# From -- ./inp_files/14324.got.cif
#   From: 2010.05.17/outbox.ucp.g08.bks.cvg/sg2_8_cif.got.tgz:14324.got - 2010.06.11 11:32:03.
