data_PCOD9073334
_publ_section_title
;
Structure prediction by ZEFSAII (Michael W. Deem and Ramdas Pophale) SiO2 
 PCOD9073334
Probable space group: P -1
;
_chemical_formula_sum "Si O2"
_cell_formula_units_Z 12
_cell_length_a 9.000000
_cell_length_b 9.000000
_cell_length_c 9.000000
_cell_angle_alpha 100.000000
_cell_angle_beta 130.000000
_cell_angle_gamma 70.000000
_cell_volume 523.686142
_symmetry_space_group_name_H-M "P -1"
_symmetry_group_IT_number 2
_symmetry_cell_setting 'triclinic'
loop_
_space_group_symop_operation_xyz
x,y,z
-x,-y,-z
loop_
_atom_site_type_symbol
_atom_site_label
_atom_site_fract_x
_atom_site_fract_y
_atom_site_fract_z
Si Si1 0.280150 0.477079 0.343584
Si Si2 0.110405 0.805075 0.427428
Si Si3 0.834491 0.406881 0.330667
Si Si4 0.537413 0.861457 0.614950
Si Si5 0.309627 0.130011 0.964194
Si Si6 0.347035 0.470247 0.052353
O O1 0.500000 0.500000 0.500000
O O2 0.135659 0.625702 0.356724
O O3 0.321607 0.300812 0.396528
O O4 0.241266 0.487709 0.146338
O O5 0.096632 0.769587 0.586467
O O6 0.316820 0.844937 0.524069
O O7 0.897057 0.895844 0.233046
O O8 0.800679 0.407903 0.132951
O O9 0.000000 0.500000 0.500000
O O10 0.582861 0.475830 0.219656
O O11 0.500000 0.000000 0.500000
O O12 0.662618 0.881399 0.843140
O O13 0.343178 0.297081 0.967043
O O14 0.500000 0.000000 0.000000
#
# Coordination Sequence:
#
# PCOD9073334 Si02
#       6
#     2   2   2   2   2   2
#     4   9  18  40  67  92 125 159 208 270 313 370
#     4  11  22  43  66  92 128 168 212 265 323 369
#     4  11  20  37  64  96 127 157 203 262 318 380
#     4  10  23  44  63  92 129 167 212 261 319 381
#     4  11  24  43  62  88 130 173 212 260 313 383
#     4  10  21  38  62  97 128 155 209 263 318 375
#
# _framework density 22.914487999999999
#
# number of rings (size 3 to 8) (size 9 to 14) (size 15 to 20)
#    0.000    1.667    6.667    0.000    0.000    5.333 
#    3.000    0.000    0.000    0.000    0.000    0.000 
#    0.000    0.000    0.000    0.000    0.000    0.000 
#
# Total GULP energy -66858.439937 kJ/mol
# GULP energy per Si atom -5571.536661 kJ/mol
# Density = 2.286233 g / cm^3
# Si number density = 22.914488 Si / 1000 Ang^3
#
#
#
# Elastic Constant Matrix: (Units=GPa)
#
#
# Indices 1 2 3 4 5 6 
#
# 1 65.8656 32.9922 37.4344 -11.8996 14.1241 24.9683
# 2 32.9922 88.5872 44.0040 -5.4664 -24.9697 5.1234
# 3 37.4344 44.0040 161.3650 -28.3863 21.6137 19.0157
# 4 -11.8996 -5.4664 -28.3863 28.2892 5.0469 -5.1843
# 5 14.1241 -24.9697 21.6137 5.0469 39.3615 -7.4114
# 6 24.9683 5.1234 19.0157 -5.1843 -7.4114 41.1159
#
#
#
# Elastic Compliance Matrix: (Units=1/GPa)
#
#
# Indices 1 2 3 4 5 6 
#
# 1 0.670128 -0.605413 0.301157 0.533735 -0.967119 -0.577821
# 2 -0.605413 0.569759 -0.283961 -0.492874 0.897132 0.527547
# 3 0.301157 -0.283961 0.150987 0.255404 -0.454128 -0.266985
# 4 0.533735 -0.492874 0.255404 0.477411 -0.792927 -0.463559
# 5 -0.967119 0.897132 -0.454128 -0.792927 1.452126 0.847314
# 6 -0.577821 0.527547 -0.266985 -0.463559 0.847314 0.527238
#
#
# Mechanical properties :
#
#
# Convention : Reuss Voigt Hill
#
# Bulk Modulus (GPa) = 4.66327 60.51987 32.59157
# Shear Modulus (GPa) = 0.98125 35.17914 18.08019
#
# Velocity S-wave (km/s) = 0.65510 3.92246 2.81201
# Velocity P-wave (km/s) = 1.61607 6.85440 4.97968
#
# Compressibility (1/GPa) = 0.21444197
#
# Stress axis : x y z
#
# Youngs Moduli (GPa) = 1.49225 1.75513 6.62307
#
# Poissons Ratio (x) = 1.06258 -1.99459
# Poissons Ratio (y) = 0.90343 1.88069
# Poissons Ratio (z) = -0.44940 0.49839
#
# Static dielectric constant tensor:
#      x y z
#    x 1.973920 -0.055020 -0.141570 
#    y -0.055020 1.953260 0.019840 
#    z -0.141570 0.019840 1.992560 
# 
# From -- ./inp_files/159436.got.cif
#   From: 2010.05.17/outbox.ucp.g08.bks.cvg/sg2_80_cif.got.tgz:159436.got - 2010.06.11 11:32:03.
