data_PCOD9073830
_publ_section_title
;
Structure prediction by ZEFSAII (Michael W. Deem and Ramdas Pophale) SiO2 
 PCOD9073830
Probable space group: P -1
;
_chemical_formula_sum "Si O2"
_cell_formula_units_Z 12
_cell_length_a 16.438956
_cell_length_b 11.298231
_cell_length_c 12.069682
_cell_angle_alpha 63.338783
_cell_angle_beta 38.963284
_cell_angle_gamma 33.230818
_cell_volume 626.380095
_symmetry_space_group_name_H-M "P -1"
_symmetry_group_IT_number 2
_symmetry_cell_setting 'triclinic'
loop_
_space_group_symop_operation_xyz
x,y,z
-x,-y,-z
loop_
_atom_site_type_symbol
_atom_site_label
_atom_site_fract_x
_atom_site_fract_y
_atom_site_fract_z
Si Si1 0.597360 0.224793 0.100460
Si Si2 0.801339 0.394558 0.277581
Si Si3 0.943340 0.920530 0.170341
Si Si4 0.484504 0.395051 0.903392
Si Si5 0.371471 0.729073 0.425611
Si Si6 0.466390 0.185842 0.458273
O O1 0.536106 0.429046 0.120758
O O2 0.436903 0.269884 0.330670
O O3 0.535373 0.277757 0.013612
O O4 0.901533 0.913511 0.919400
O O5 0.643450 0.539772 0.268397
O O6 0.640622 0.420039 0.499414
O O7 0.757573 0.563093 0.327017
O O8 0.832887 0.054311 0.353393
O O9 0.729379 0.020447 0.296218
O O10 0.207496 0.611960 0.050555
O O11 0.000000 0.000000 0.000000
O O12 0.679520 0.188806 0.682122
O O13 0.500000 0.000000 0.500000
#
# Coordination Sequence:
#
# PCOD9073830 Si02
#       6
#     2   2   2   2   2   2
#     4  11  22  35  53  87 121 147 183 236 293 333
#     4  10  19  34  57  82 114 145 192 237 277 338
#     4  11  19  38  62  84 114 149 194 238 278 334
#     4  11  21  33  57  87 119 146 183 238 289 341
#     4  10  18  31  57  87 109 143 190 238 285 325
#     4  11  23  39  60  84 113 151 196 236 279 338
#
# _framework density 19.157696999999999
#
# number of rings (size 3 to 8) (size 9 to 14) (size 15 to 20)
#    0.000    1.333    5.000    3.000    0.000    2.667 
#    0.000    0.833    0.000    5.000    0.000    0.000 
#    0.000    0.000    0.000    0.000    0.000    0.000 
#
# Total GULP energy -66900.432157 kJ/mol
# GULP energy per Si atom -5575.036013 kJ/mol
# Density = 1.911409 g / cm^3
# Si number density = 19.157697 Si / 1000 Ang^3
#
#
#
# Elastic Constant Matrix: (Units=GPa)
#
#
# Indices 1 2 3 4 5 6 
#
# 1 79.3602 31.4605 52.0445 -13.0959 37.4274 2.0339
# 2 31.4605 55.9581 32.8832 -8.6645 19.2653 9.5698
# 3 52.0445 32.8832 80.0163 -3.6192 36.5659 -5.7245
# 4 -13.0959 -8.6645 -3.6192 23.5170 -8.4354 5.0626
# 5 37.4274 19.2653 36.5659 -8.4354 42.7290 -10.2626
# 6 2.0339 9.5698 -5.7245 5.0626 -10.2626 32.5382
#
#
#
# Elastic Compliance Matrix: (Units=1/GPa)
#
#
# Indices 1 2 3 4 5 6 
#
# 1 0.031188 -0.000715 -0.012740 0.011610 -0.016436 -0.010971
# 2 -0.000715 0.029917 -0.009640 0.009987 -0.005977 -0.013889
# 3 -0.012740 -0.009640 0.029375 -0.011336 -0.010099 0.007378
# 4 0.011610 0.009987 -0.011336 0.054739 0.002631 -0.013344
# 5 -0.016436 -0.005977 -0.010099 0.002631 0.053882 0.017594
# 6 -0.010971 -0.013889 0.007378 -0.013344 0.017594 0.044427
#
#
# Mechanical properties :
#
#
# Convention : Reuss Voigt Hill
#
# Bulk Modulus (GPa) = 22.57861 49.79012 36.18436
# Shear Modulus (GPa) = 16.42138 26.35325 21.38731
#
# Velocity S-wave (km/s) = 2.93092 3.71293 3.34486
# Velocity P-wave (km/s) = 4.82338 6.66537 5.81774
#
# Compressibility (1/GPa) = 0.04428971
#
# Stress axis : x y z
#
# Youngs Moduli (GPa) = 32.06383 33.42617 34.04211
#
# Poissons Ratio (x) = 0.02391 0.43370
# Poissons Ratio (y) = 0.02293 0.32816
# Poissons Ratio (z) = 0.40850 0.32222
#
# Static dielectric constant tensor:
#      x y z
#    x 1.696190 -0.009570 0.039690 
#    y -0.009570 1.674390 0.045930 
#    z 0.039690 0.045930 1.772570 
# 
# From -- ./inp_files/389344.got.cif
#   From: 2010.05.17/outbox.cif.g08.bks.cpg/sg2_195_cif.got.tgz:389344.got - 2010.06.03 11:33:40.
