data_PCOD9073105
_publ_section_title
;
Structure prediction by ZEFSAII (Michael W. Deem and Ramdas Pophale) SiO2 
 PCOD9073105
Probable space group: P -1
;
_chemical_formula_sum "Si O2"
_cell_formula_units_Z 14
_cell_length_a 12.000000
_cell_length_b 9.000000
_cell_length_c 6.000000
_cell_angle_alpha 80.000000
_cell_angle_beta 80.000000
_cell_angle_gamma 100.000000
_cell_volume 614.427936
_symmetry_space_group_name_H-M "P -1"
_symmetry_group_IT_number 2
_symmetry_cell_setting 'triclinic'
loop_
_space_group_symop_operation_xyz
x,y,z
-x,-y,-z
loop_
_atom_site_type_symbol
_atom_site_label
_atom_site_fract_x
_atom_site_fract_y
_atom_site_fract_z
Si Si1 0.773700 0.837278 0.613536
Si Si2 0.558457 0.607144 0.645925
Si Si3 0.253041 0.864582 0.220642
Si Si4 0.920815 0.377005 0.337272
Si Si5 0.617748 0.336254 0.989734
Si Si6 0.903279 0.064423 0.149269
Si Si7 0.850426 0.567910 0.923476
O O1 0.678897 0.723022 0.529453
O O2 0.868788 0.936898 0.390968
O O3 0.808773 0.726418 0.826409
O O4 0.721177 0.975427 0.697253
O O5 0.500000 0.500000 0.500000
O O6 0.583379 0.476441 0.835847
O O7 0.469135 0.698215 0.765765
O O8 0.169243 0.726206 0.430483
O O9 0.367274 0.804614 0.130920
O O10 0.192109 0.910974 0.005338
O O11 0.058731 0.440828 0.308775
O O12 0.937290 0.235512 0.199731
O O13 0.891806 0.523412 0.169092
O O14 0.746722 0.418398 0.989554
O O15 0.000000 0.000000 0.000000
#
# Coordination Sequence:
#
# PCOD9073105 Si02
#       7
#     2   2   2   2   2   2   2
#     4  10  24  43  65  97 129 172 217 269 328 381
#     4  10  24  44  68  94 123 167 219 278 327 381
#     4  11  23  42  64  95 138 170 210 269 324 393
#     4  10  22  38  63  96 132 176 216 262 316 388
#     4  10  23  42  65  95 129 166 217 272 328 380
#     4  11  22  39  62  95 137 179 212 258 323 386
#     4  10  20  42  62  94 133 168 225 259 314 386
#
# _framework density 22.785422000000001
#
# number of rings (size 3 to 8) (size 9 to 14) (size 15 to 20)
#    0.000    1.714    1.429    1.714    2.000    8.000 
#   10.286    1.429    0.000    0.000    0.000    0.000 
#    0.000    0.000    0.000    0.000    0.000    0.000 
#
# Total GULP energy -77939.704204 kJ/mol
# GULP energy per Si atom -5567.121729 kJ/mol
# Density = 2.273356 g / cm^3
# Si number density = 22.785422 Si / 1000 Ang^3
#
#
#
# Elastic Constant Matrix: (Units=GPa)
#
#
# Indices 1 2 3 4 5 6 
#
# 1 53.9906 23.4540 7.5847 4.3277 -11.7089 -10.0985
# 2 23.4540 127.4463 21.8344 -16.9895 -8.7802 -21.2121
# 3 7.5847 21.8344 44.9057 -26.0476 -3.9719 -19.2170
# 4 4.3277 -16.9895 -26.0476 45.9375 -10.8828 -3.4248
# 5 -11.7089 -8.7802 -3.9719 -10.8828 17.3253 16.7850
# 6 -10.0985 -21.2121 -19.2170 -3.4248 16.7850 36.4604
#
#
#
# Elastic Compliance Matrix: (Units=1/GPa)
#
#
# Indices 1 2 3 4 5 6 
#
# 1 0.023676 -0.003763 -0.005160 -0.002872 0.017637 -0.006740
# 2 -0.003763 0.010029 0.001481 0.005520 0.000803 0.005722
# 3 -0.005160 0.001481 0.057713 0.036715 0.002338 0.032223
# 4 -0.002872 0.005520 0.036715 0.052978 0.030041 0.012914
# 5 0.017637 0.000803 0.002338 0.030041 0.145017 -0.057354
# 6 -0.006740 0.005722 0.032223 0.012914 -0.057354 0.073489
#
#
# Mechanical properties :
#
#
# Convention : Reuss Voigt Hill
#
# Bulk Modulus (GPa) = 13.06609 36.89877 24.98243
# Shear Modulus (GPa) = 12.39783 31.50926 21.95354
#
# Velocity S-wave (km/s) = 2.33515 3.72273 3.10738
# Velocity P-wave (km/s) = 3.60797 5.89130 4.88492
#
# Compressibility (1/GPa) = 0.07653398
#
# Stress axis : x y z
#
# Youngs Moduli (GPa) = 42.23772 99.71411 17.32707
#
# Poissons Ratio (x) = 0.37519 0.08940
# Poissons Ratio (y) = 0.15893 -0.02565
# Poissons Ratio (z) = 0.21793 -0.14763
#
# Static dielectric constant tensor:
#      x y z
#    x 4.050870 0.446780 1.531270 
#    y 0.446780 1.925570 0.406480 
#    z 1.531270 0.406480 3.055390 
# 
# From -- ./inp_files/46390.got.cif
#   From: 2010.05.17/outbox.ucp.g08.bks.cvg/sg2_24_cif.got.tgz:46390.got - 2010.06.11 11:32:03.
