data_PCOD9073324
_publ_section_title
;
Structure prediction by ZEFSAII (Michael W. Deem and Ramdas Pophale) SiO2 
 PCOD9073324
Probable space group: P -1
;
_chemical_formula_sum "Si O2"
_cell_formula_units_Z 16
_cell_length_a 18.000000
_cell_length_b 12.000000
_cell_length_c 12.000000
_cell_angle_alpha 70.000000
_cell_angle_beta 50.000000
_cell_angle_gamma 30.000000
_cell_volume 822.245522
_symmetry_space_group_name_H-M "P -1"
_symmetry_group_IT_number 2
_symmetry_cell_setting 'triclinic'
loop_
_space_group_symop_operation_xyz
x,y,z
-x,-y,-z
loop_
_atom_site_type_symbol
_atom_site_label
_atom_site_fract_x
_atom_site_fract_y
_atom_site_fract_z
Si Si1 0.243927 0.281550 0.333340
Si Si2 0.986645 0.067139 0.819053
Si Si3 0.840974 0.696537 0.200609
Si Si4 0.721839 0.412849 0.440758
Si Si5 0.444102 0.287850 0.732670
Si Si6 0.334250 0.313880 0.459440
Si Si7 0.879997 0.444127 0.855246
Si Si8 0.376686 0.598184 0.780561
O O1 0.268488 0.345487 0.389215
O O2 0.258679 0.328843 0.181149
O O3 0.000000 0.500000 0.500000
O O4 0.401152 0.996970 0.309371
O O5 0.978929 0.219778 0.772815
O O6 0.077644 0.891841 0.686991
O O7 0.174759 0.827767 0.809698
O O8 0.749910 0.281709 0.021223
O O9 0.761387 0.668168 0.357053
O O10 0.958918 0.645716 0.200427
O O11 0.603011 0.017863 0.295541
O O12 0.000000 0.500000 0.000000
O O13 0.638074 0.585331 0.355698
O O14 0.766995 0.451031 0.485476
O O15 0.521845 0.552341 0.630226
O O16 0.526100 0.321386 0.695614
O O17 0.251591 0.467383 0.944072
#
# Coordination Sequence:
#
# PCOD9073324 Si02
#       8
#     2   2   2   2   2   2   2   2
#     4  12  25  40  60  84 126 166 201 243 300 367
#     4   9  19  35  58  93 116 154 202 244 296 358
#     4  11  22  39  63  90 121 157 197 260 306 345
#     4  11  21  36  63  88 125 151 196 258 305 340
#     4  10  21  38  61  94 118 155 206 249 299 362
#     4  11  24  39  56  92 122 155 208 245 300 363
#     4  11  22  40  66  87 124 161 202 245 302 364
#     4   9  19  33  60  90 120 149 197 251 301 350
#
# _framework density 19.458908000000001
#
# number of rings (size 3 to 8) (size 9 to 14) (size 15 to 20)
#    0.000    1.500    1.250    6.375    3.500    1.000 
#    0.000    0.625    0.000    1.500    0.000    0.000 
#    0.000    0.000    0.000    0.000    0.000    0.000 
#
# Total GULP energy -89099.616308 kJ/mol
# GULP energy per Si atom -5568.726019 kJ/mol
# Density = 1.941462 g / cm^3
# Si number density = 19.458908 Si / 1000 Ang^3
#
#
#
# Elastic Constant Matrix: (Units=GPa)
#
#
# Indices 1 2 3 4 5 6 
#
# 1 133.6602 53.0283 40.0003 10.7552 22.4526 22.2804
# 2 53.0283 77.8978 18.6482 -0.1307 9.2834 22.5618
# 3 40.0003 18.6482 86.6106 3.5004 12.0346 16.5383
# 4 10.7552 -0.1307 3.5004 30.8219 12.2214 5.4017
# 5 22.4526 9.2834 12.0346 12.2214 21.2905 0.7114
# 6 22.2804 22.5618 16.5383 5.4017 0.7114 29.6771
#
#
#
# Elastic Compliance Matrix: (Units=1/GPa)
#
#
# Indices 1 2 3 4 5 6 
#
# 1 0.012762 -0.005972 -0.002685 0.000090 -0.009277 -0.003339
# 2 -0.005972 0.021507 0.001570 0.007543 -0.007831 -0.013927
# 3 -0.002685 0.001570 0.014981 0.003952 -0.008320 -0.008046
# 4 0.000090 0.007543 0.003952 0.047644 -0.032435 -0.015898
# 5 -0.009277 -0.007831 -0.008320 -0.032435 0.082772 0.021475
# 6 -0.003339 -0.013927 -0.008046 -0.015898 0.021475 0.053653
#
#
# Mechanical properties :
#
#
# Convention : Reuss Voigt Hill
#
# Bulk Modulus (GPa) = 28.51032 57.94690 43.22861
# Shear Modulus (GPa) = 19.29125 28.79069 24.04097
#
# Velocity S-wave (km/s) = 3.15204 3.85068 3.51874
# Velocity P-wave (km/s) = 5.28493 7.04373 6.22674
#
# Compressibility (1/GPa) = 0.03507502
#
# Stress axis : x y z
#
# Youngs Moduli (GPa) = 78.35484 46.49713 66.75200
#
# Poissons Ratio (x) = 0.27770 0.17926
# Poissons Ratio (y) = 0.46797 -0.10482
# Poissons Ratio (z) = 0.21041 -0.07302
#
# Static dielectric constant tensor:
#      x y z
#    x 1.730870 0.055210 -0.012050 
#    y 0.055210 1.709400 -0.006810 
#    z -0.012050 -0.006810 1.727300 
# 
# From -- ./inp_files/432762.got.cif
#   From: 2010.05.17/outbox.ucp.g08.bks.cvg/sg2_217_cif.got.tgz:432762.got - 2010.06.11 11:32:03.
