data_PCOD9073555
_publ_section_title
;
Structure prediction by ZEFSAII (Michael W. Deem and Ramdas Pophale) SiO2 
 PCOD9073555
Probable space group: P -1
;
_chemical_formula_sum "Si O2"
_cell_formula_units_Z 16
_cell_length_a 15.000000
_cell_length_b 12.000000
_cell_length_c 15.000000
_cell_angle_alpha 40.000000
_cell_angle_beta 30.000000
_cell_angle_gamma 60.000000
_cell_volume 747.221570
_symmetry_space_group_name_H-M "P -1"
_symmetry_group_IT_number 2
_symmetry_cell_setting 'triclinic'
loop_
_space_group_symop_operation_xyz
x,y,z
-x,-y,-z
loop_
_atom_site_type_symbol
_atom_site_label
_atom_site_fract_x
_atom_site_fract_y
_atom_site_fract_z
Si Si1 0.442349 0.059579 0.208534
Si Si2 0.321307 0.272737 0.909142
Si Si3 0.181920 0.846305 0.384147
Si Si4 0.351651 0.589711 0.302783
Si Si5 0.160630 0.908231 0.723424
Si Si6 0.183086 0.517063 0.979244
Si Si7 0.738692 0.908642 0.103199
Si Si8 0.347408 0.206624 0.543568
O O1 0.331402 0.931563 0.291358
O O2 0.290859 0.982103 0.472923
O O3 0.643935 0.048679 0.072083
O O4 0.512593 0.284738 0.976803
O O5 0.200023 0.040478 0.197297
O O6 0.514460 0.377535 0.744282
O O7 0.212512 0.405793 0.935737
O O8 0.382961 0.267039 0.757611
O O9 0.238035 0.712633 0.352824
O O10 0.962050 0.677056 0.716040
O O11 0.251064 0.351667 0.519174
O O12 0.106492 0.675990 0.928086
O O13 0.281619 0.039322 0.626301
O O14 0.967128 0.945326 0.862147
O O15 0.403838 0.651394 0.754442
O O16 0.709683 0.872851 0.256336
#
# Coordination Sequence:
#
# PCOD9073555 Si02
#       8
#     2   2   2   2   2   2   2   2
#     4  11  23  44  71  98 140 167 215 274 335 392
#     4  10  21  40  67  99 134 168 213 272 338 399
#     4  11  20  41  68 102 137 164 213 274 338 404
#     4  10  21  43  69  98 132 176 209 274 336 389
#     4  12  27  46  65  95 135 179 226 277 312 387
#     4  11  24  39  66  97 131 181 215 264 340 385
#     4  12  23  43  72  96 131 177 216 274 334 387
#     4  11  26  46  66  92 136 177 231 271 318 381
#
# _framework density 21.412658
#
# number of rings (size 3 to 8) (size 9 to 14) (size 15 to 20)
#    0.000    1.000    3.750    3.375    0.000    7.500 
#    0.000    0.625    0.000    0.000    0.000    0.000 
#    0.000    0.000    0.000    0.000    0.000    0.000 
#
# Total GULP energy -89257.758750 kJ/mol
# GULP energy per Si atom -5578.609922 kJ/mol
# Density = 2.136392 g / cm^3
# Si number density = 21.412658 Si / 1000 Ang^3
#
#
#
# Elastic Constant Matrix: (Units=GPa)
#
#
# Indices 1 2 3 4 5 6 
#
# 1 93.4881 33.9172 9.6779 -3.5372 16.6802 -4.6605
# 2 33.9172 114.4097 12.4366 -14.3596 8.6630 -0.0003
# 3 9.6779 12.4366 22.6810 4.7016 9.4881 -3.6454
# 4 -3.5372 -14.3596 4.7016 36.6006 -5.1931 -2.1794
# 5 16.6802 8.6630 9.4881 -5.1931 29.5391 14.8320
# 6 -4.6605 -0.0003 -3.6454 -2.1794 14.8320 33.8977
#
#
#
# Elastic Compliance Matrix: (Units=1/GPa)
#
#
# Indices 1 2 3 4 5 6 
#
# 1 0.014177 -0.003788 0.002323 -0.001622 -0.011505 0.007129
# 2 -0.003788 0.011066 -0.007376 0.005262 0.003432 -0.002477
# 3 0.002323 -0.007376 0.068318 -0.015070 -0.034736 0.021896
# 4 -0.001622 0.005262 -0.015070 0.032639 0.012589 -0.005254
# 5 -0.011505 0.003432 -0.034736 0.012589 0.070458 -0.035337
# 6 0.007129 -0.002477 0.021896 -0.005254 -0.035337 0.047960
#
#
# Mechanical properties :
#
#
# Convention : Reuss Voigt Hill
#
# Bulk Modulus (GPa) = 13.17898 38.07135 25.62516
# Shear Modulus (GPa) = 17.38576 31.64397 24.51487
#
# Velocity S-wave (km/s) = 2.85254 3.84841 3.38727
# Velocity P-wave (km/s) = 4.12522 6.12906 5.22412
#
# Compressibility (1/GPa) = 0.07587843
#
# Stress axis : x y z
#
# Youngs Moduli (GPa) = 70.53633 90.36840 14.63753
#
# Poissons Ratio (x) = 0.34229 -0.03400
# Poissons Ratio (y) = 0.26717 0.10797
# Poissons Ratio (z) = -0.16384 0.66656
#
# Static dielectric constant tensor:
#      x y z
#    x 1.774920 -0.023460 -0.019560 
#    y -0.023460 1.834450 0.045660 
#    z -0.019560 0.045660 1.860280 
# 
# From -- ./inp_files/532325.got.cif
#   From: 2010.05.17/outbox.ucp.g08.bks.cvg/sg2_267_cif.got.tgz:532325.got - 2010.06.11 11:32:03.
