data_PCOD9073402
_publ_section_title
;
Structure prediction by ZEFSAII (Michael W. Deem and Ramdas Pophale) SiO2 
 PCOD9073402
Probable space group: P -1
;
_chemical_formula_sum "Si O2"
_cell_formula_units_Z 16
_cell_length_a 9.000000
_cell_length_b 9.000000
_cell_length_c 15.000000
_cell_angle_alpha 100.000000
_cell_angle_beta 40.000000
_cell_angle_gamma 110.000000
_cell_volume 725.993766
_symmetry_space_group_name_H-M "P -1"
_symmetry_group_IT_number 2
_symmetry_cell_setting 'triclinic'
loop_
_space_group_symop_operation_xyz
x,y,z
-x,-y,-z
loop_
_atom_site_type_symbol
_atom_site_label
_atom_site_fract_x
_atom_site_fract_y
_atom_site_fract_z
Si Si1 0.604583 0.895007 0.321576
Si Si2 0.163868 0.849718 0.636660
Si Si3 0.366105 0.906152 0.961531
Si Si4 0.854884 0.828589 0.415405
Si Si5 0.479756 0.683329 0.731200
Si Si6 0.170372 0.464091 0.339155
Si Si7 0.145115 0.348923 0.779625
Si Si8 0.623554 0.178332 0.763653
O O1 0.425215 0.842338 0.483464
O O2 0.727600 0.760258 0.235482
O O3 0.428313 0.880766 0.319321
O O4 0.791038 0.071950 0.276768
O O5 0.974013 0.679533 0.677159
O O6 0.120227 0.998199 0.619669
O O7 0.446167 0.808760 0.833417
O O8 0.385209 0.068959 0.915349
O O9 0.137686 0.759684 0.088138
O O10 0.500000 0.000000 0.000000
O O11 0.650044 0.774918 0.580408
O O12 0.798441 0.686759 0.352344
O O13 0.127819 0.850903 0.325261
O O14 0.636204 0.593470 0.702904
O O15 0.246864 0.534329 0.783496
O O16 0.307044 0.630667 0.244382
O O17 0.000000 0.500000 0.500000
#
# Coordination Sequence:
#
# PCOD9073402 Si02
#       8
#     2   2   2   2   2   2   2   2
#     4  10  21  39  66  97 138 173 228 278 347 403
#     4  10  21  39  63 105 141 178 214 287 350 411
#     4  12  28  49  70  95 144 190 241 280 341 422
#     4  11  23  42  79 105 141 174 240 283 356 409
#     4  12  24  43  75 107 136 186 231 290 347 411
#     4  12  22  39  69 103 147 169 228 288 354 408
#     4  11  24  48  69 103 142 184 227 293 344 413
#     4  12  23  45  68 103 134 187 222 287 346 411
#
# _framework density 22.038757
#
# number of rings (size 3 to 8) (size 9 to 14) (size 15 to 20)
#    0.000    0.750    5.000    2.250    1.750    2.000 
#    4.500    0.625    0.000    0.000    0.000    0.000 
#    0.000    0.000    0.000    0.000    0.000    0.000 
#
# Total GULP energy -89172.552808 kJ/mol
# GULP energy per Si atom -5573.284551 kJ/mol
# Density = 2.198860 g / cm^3
# Si number density = 22.038757 Si / 1000 Ang^3
#
#
#
# Elastic Constant Matrix: (Units=GPa)
#
#
# Indices 1 2 3 4 5 6 
#
# 1 101.7212 54.5390 13.1450 6.0822 -3.1935 32.8666
# 2 54.5390 187.3712 32.0981 -10.0562 7.6338 43.0218
# 3 13.1450 32.0981 73.7210 -4.0685 16.0758 14.7424
# 4 6.0822 -10.0562 -4.0685 34.5992 8.1523 -0.4827
# 5 -3.1935 7.6338 16.0758 8.1523 19.3199 2.2688
# 6 32.8666 43.0218 14.7424 -0.4827 2.2688 50.8947
#
#
#
# Elastic Compliance Matrix: (Units=1/GPa)
#
#
# Indices 1 2 3 4 5 6 
#
# 1 0.014463 -0.002977 -0.002140 -0.005769 0.008562 -0.006639
# 2 -0.002977 0.007637 -0.001000 0.003429 -0.003649 -0.004048
# 3 -0.002140 -0.001000 0.019287 0.006687 -0.018539 -0.002470
# 4 -0.005769 0.003429 0.006687 0.037273 -0.023636 0.000297
# 5 0.008562 -0.003649 -0.018539 -0.023636 0.080119 -0.000870
# 6 -0.006639 -0.004048 -0.002470 0.000297 -0.000870 0.028115
#
#
# Mechanical properties :
#
#
# Convention : Reuss Voigt Hill
#
# Bulk Modulus (GPa) = 34.30217 62.48639 48.39428
# Shear Modulus (GPa) = 23.94107 38.49816 31.21962
#
# Velocity S-wave (km/s) = 3.29951 4.18405 3.76783
# Velocity P-wave (km/s) = 5.48762 7.19418 6.39805
#
# Compressibility (1/GPa) = 0.02915268
#
# Stress axis : x y z
#
# Youngs Moduli (GPa) = 69.14401 130.94064 51.84768
#
# Poissons Ratio (x) = 0.38982 0.11097
# Poissons Ratio (y) = 0.20584 0.05184
# Poissons Ratio (z) = 0.14799 0.13091
#
# Static dielectric constant tensor:
#      x y z
#    x 1.931280 -0.003640 0.003540 
#    y -0.003640 1.807120 -0.008920 
#    z 0.003540 -0.008920 1.878430 
# 
# From -- ./inp_files/495115.got.cif
#   From: 2010.05.17/outbox.ucp.g08.bks.cvg/sg2_248_cif.got.tgz:495115.got - 2010.06.11 11:32:03.
