data_PCOD9073095
_publ_section_title
;
Structure prediction by ZEFSAII (Michael W. Deem and Ramdas Pophale) SiO2 
 PCOD9073095
Probable space group: P -1
;
_chemical_formula_sum "Si O2"
_cell_formula_units_Z 16
_cell_length_a 15.000000
_cell_length_b 18.000000
_cell_length_c 9.000000
_cell_angle_alpha 150.000000
_cell_angle_beta 140.000000
_cell_angle_gamma 40.000000
_cell_volume 740.097418
_symmetry_space_group_name_H-M "P -1"
_symmetry_group_IT_number 2
_symmetry_cell_setting 'triclinic'
loop_
_space_group_symop_operation_xyz
x,y,z
-x,-y,-z
loop_
_atom_site_type_symbol
_atom_site_label
_atom_site_fract_x
_atom_site_fract_y
_atom_site_fract_z
Si Si1 0.028648 0.915913 0.195588
Si Si2 0.286292 0.815870 0.742805
Si Si3 0.746463 0.481209 0.991777
Si Si4 0.549334 0.256584 0.866449
Si Si5 0.029805 0.461792 0.141233
Si Si6 0.769387 0.367061 0.163389
Si Si7 0.557218 0.969945 0.852056
Si Si8 0.137340 0.155322 0.889100
O O1 0.981939 0.809554 0.073259
O O2 0.876908 0.057137 0.231108
O O3 0.144835 0.986380 0.542962
O O4 0.109441 0.807144 0.978197
O O5 0.279446 0.657499 0.382009
O O6 0.345815 0.785821 0.932218
O O7 0.395197 0.890108 0.919769
O O8 0.607027 0.637534 0.087001
O O9 0.888509 0.515445 0.162686
O O10 0.756304 0.423394 0.074410
O O11 0.538114 0.102972 0.500681
O O12 0.619404 0.353813 0.013135
O O13 0.159204 0.523610 0.466879
O O14 0.000000 0.500000 0.000000
O O15 0.085808 0.275166 0.900490
O O16 0.714283 0.836814 0.839788
O O17 0.500000 0.000000 0.000000
#
# Coordination Sequence:
#
# PCOD9073095 Si02
#       8
#     2   2   2   2   2   2   2   2
#     4  10  20  41  72  96 128 175 231 282 336 400
#     4  11  24  44  70  99 138 179 228 290 352 400
#     4  12  24  46  71  96 141 184 232 281 345 417
#     4  12  27  44  66 106 143 182 228 281 354 412
#     4  12  26  43  66 104 139 179 232 288 350 401
#     4  12  25  43  70 101 135 184 235 281 340 417
#     4  11  24  43  69  99 136 185 234 280 341 417
#     4  10  20  41  68  95 129 175 231 277 332 406
#
# _framework density 21.618776
#
# number of rings (size 3 to 8) (size 9 to 14) (size 15 to 20)
#    0.000    0.750    2.500    6.000    3.500    2.500 
#    2.250    0.000    0.000    0.000    0.000    0.000 
#    0.000    0.000    0.000    0.000    0.000    0.000 
#
# Total GULP energy -89353.561063 kJ/mol
# GULP energy per Si atom -5584.597566 kJ/mol
# Density = 2.156957 g / cm^3
# Si number density = 21.618776 Si / 1000 Ang^3
#
#
#
# Elastic Constant Matrix: (Units=GPa)
#
#
# Indices 1 2 3 4 5 6 
#
# 1 28.9035 -30.8564 -2.5015 -1.7035 6.9829 6.0900
# 2 -30.8564 28.1236 -1.9032 -7.7332 -16.1326 11.3264
# 3 -2.5015 -1.9032 87.9153 -20.5619 -0.2031 -1.4402
# 4 -1.7035 -7.7332 -20.5619 28.4049 0.9325 -13.2821
# 5 6.9829 -16.1326 -0.2031 0.9325 31.8881 -10.3350
# 6 6.0900 11.3264 -1.4402 -13.2821 -10.3350 20.1304
#
#
#
# Elastic Compliance Matrix: (Units=1/GPa)
#
#
# Indices 1 2 3 4 5 6 
#
# 1 -0.034507 -0.059554 -0.002243 -0.002353 -0.010593 0.036796
# 2 -0.059554 -0.044202 0.000352 0.009071 0.007514 0.052755
# 3 -0.002243 0.000352 0.016275 0.019883 0.005970 0.017829
# 4 -0.002353 0.009071 0.019883 0.079927 0.022821 0.061484
# 5 -0.010593 0.007514 0.005970 0.022821 0.049830 0.040044
# 6 0.036796 0.052755 0.017829 0.061484 0.040044 0.071263
#
#
# Mechanical properties :
#
#
# Convention : Reuss Voigt Hill
#
# Bulk Modulus (GPa) = -5.39591 8.26891 1.43650
# Shear Modulus (GPa) = 25.03724 28.09823 26.56774
#
# Velocity S-wave (km/s) = 3.40682 3.60907 3.50940
# Velocity P-wave (km/s) = 3.60192 4.60438 4.13365
#
# Compressibility (1/GPa) = -0.18532543
#
# Stress axis : x y z
#
# Youngs Moduli (GPa) = -28.97974 -22.62350 61.44566
#
# Poissons Ratio (x) = -1.34732 0.13783
# Poissons Ratio (y) = -1.72586 -0.02161
# Poissons Ratio (z) = -0.06500 0.00796
#
# Static dielectric constant tensor:
#      x y z
#    x 1.790930 -0.035970 -0.002400 
#    y -0.035970 1.881930 0.023850 
#    z -0.002400 0.023850 1.770910 
# 
# From -- ./inp_files/318200.got.cif
#   From: 2010.05.17/outbox.ucp.g08.bks.cvg/sg2_160_cif.got.tgz:318200.got - 2010.06.11 11:32:03.
