data_PCOD9073066
_publ_section_title
;
Structure prediction by ZEFSAII (Michael W. Deem and Ramdas Pophale) SiO2 
 PCOD9073066
Probable space group: P -1
;
_chemical_formula_sum "Si O2"
_cell_formula_units_Z 16
_cell_length_a 24.000000
_cell_length_b 15.000000
_cell_length_c 6.000000
_cell_angle_alpha 90.000000
_cell_angle_beta 90.000000
_cell_angle_gamma 160.000000
_cell_volume 738.763510
_symmetry_space_group_name_H-M "P -1"
_symmetry_group_IT_number 2
_symmetry_cell_setting 'triclinic'
loop_
_space_group_symop_operation_xyz
x,y,z
-x,-y,-z
loop_
_atom_site_type_symbol
_atom_site_label
_atom_site_fract_x
_atom_site_fract_y
_atom_site_fract_z
Si Si1 0.087663 0.415538 0.342838
Si Si2 0.235244 0.143353 0.448722
Si Si3 0.668956 0.103465 0.394017
Si Si4 0.819473 0.744946 0.591265
Si Si5 0.458200 0.709574 0.771631
Si Si6 0.664986 0.354045 0.850822
Si Si7 0.476055 0.391310 0.192211
Si Si8 0.065370 0.626291 0.754209
O O1 0.198876 0.623189 0.541838
O O2 0.217479 0.555244 0.188238
O O3 0.984497 0.343781 0.242897
O O4 0.941357 0.136294 0.441486
O O5 0.214403 0.205984 0.319022
O O6 0.304627 0.163511 0.308264
O O7 0.376762 0.371363 0.632378
O O8 0.756628 0.155283 0.256324
O O9 0.609599 0.968688 0.622817
O O10 0.505547 0.901285 0.288714
O O11 0.692014 0.539106 0.390515
O O12 0.773404 0.600220 0.766776
O O13 0.000000 0.000000 0.500000
O O14 0.510142 0.691941 0.878672
O O15 0.399561 0.706867 0.912870
O O16 0.500000 0.500000 0.000000
O O17 0.000000 0.500000 0.500000
O O18 0.000000 0.500000 0.000000
#
# Coordination Sequence:
#
# PCOD9073066 Si02
#       8
#     2   2   2   2   2   2   2   2
#     4  11  23  44  66 104 133 179 234 286 347 423
#     4  10  21  41  65  94 132 168 226 280 337 416
#     4  10  24  45  68  93 138 184 226 284 350 420
#     4  10  20  41  64  90 134 170 219 282 344 407
#     4  10  23  40  65  96 130 176 223 276 347 419
#     4  11  23  42  69  99 134 183 228 283 354 417
#     4  10  21  41  64  96 125 170 221 280 343 410
#     4  10  24  47  70  99 137 185 235 294 347 408
#
# _framework density 21.657810000000001
#
# number of rings (size 3 to 8) (size 9 to 14) (size 15 to 20)
#    0.000    1.750    1.250    1.875    3.500    4.000 
#   15.750    0.000    0.000    0.000    0.000    0.000 
#    0.000    0.000    0.000    0.000    0.000    0.000 
#
# Total GULP energy -89209.665900 kJ/mol
# GULP energy per Si atom -5575.604119 kJ/mol
# Density = 2.160852 g / cm^3
# Si number density = 21.657810 Si / 1000 Ang^3
#
#
#
# Elastic Constant Matrix: (Units=GPa)
#
#
# Indices 1 2 3 4 5 6 
#
# 1 163.7409 17.0734 23.2190 -15.6006 -30.3725 23.4545
# 2 17.0734 91.7983 8.1193 -14.9593 -17.4008 21.2028
# 3 23.2190 8.1193 62.1125 -26.5797 -15.9616 1.7648
# 4 -15.6006 -14.9593 -26.5797 24.1137 9.5474 -14.7465
# 5 -30.3725 -17.4008 -15.9616 9.5474 33.5800 -13.0893
# 6 23.4545 21.2028 1.7648 -14.7465 -13.0893 37.4416
#
#
#
# Elastic Compliance Matrix: (Units=1/GPa)
#
#
# Indices 1 2 3 4 5 6 
#
# 1 0.007714 0.000345 -0.002113 -0.001408 0.005112 -0.003696
# 2 0.000345 0.013570 0.002907 0.007862 0.005285 -0.003094
# 3 -0.002113 0.002907 0.045801 0.061652 0.014281 0.026793
# 4 -0.001408 0.007862 0.061652 0.141062 0.012887 0.053587
# 5 0.005112 0.005285 0.014281 0.012887 0.045810 0.014223
# 6 -0.003696 -0.003094 0.026793 0.053587 0.014223 0.055590
#
#
# Mechanical properties :
#
#
# Convention : Reuss Voigt Hill
#
# Bulk Modulus (GPa) = 14.41655 46.05281 30.23468
# Shear Modulus (GPa) = 15.13373 36.97639 26.05506
#
# Velocity S-wave (km/s) = 2.64628 4.13643 3.47224
# Velocity P-wave (km/s) = 4.00101 6.64255 5.48322
#
# Compressibility (1/GPa) = 0.06936473
#
# Stress axis : x y z
#
# Youngs Moduli (GPa) = 129.63030 73.69456 21.83357
#
# Poissons Ratio (x) = -0.02544 0.04613
# Poissons Ratio (y) = -0.04476 -0.06348
# Poissons Ratio (z) = 0.27387 -0.21426
#
# Static dielectric constant tensor:
#      x y z
#    x 1.820750 -0.045840 0.003430 
#    y -0.045840 1.827520 -0.001960 
#    z 0.003430 -0.001960 1.837960 
# 
# From -- ./inp_files/82971.got.cif
#   From: 2010.05.17/outbox.ucp.g08.bks.cvg/sg2_42_cif.got.tgz:82971.got - 2010.06.11 11:32:03.
