data_PCOD9073202
_publ_section_title
;
Structure prediction by ZEFSAII (Michael W. Deem and Ramdas Pophale) SiO2 
 PCOD9073202
Probable space group: P -1
;
_chemical_formula_sum "Si O2"
_cell_formula_units_Z 16
_cell_length_a 12.000000
_cell_length_b 9.000000
_cell_length_c 15.000000
_cell_angle_alpha 110.000000
_cell_angle_beta 70.000000
_cell_angle_gamma 50.000000
_cell_volume 728.972637
_symmetry_space_group_name_H-M "P -1"
_symmetry_group_IT_number 2
_symmetry_cell_setting 'triclinic'
loop_
_space_group_symop_operation_xyz
x,y,z
-x,-y,-z
loop_
_atom_site_type_symbol
_atom_site_label
_atom_site_fract_x
_atom_site_fract_y
_atom_site_fract_z
Si Si1 0.159028 0.785967 0.071045
Si Si2 0.868325 0.553608 0.971722
Si Si3 0.400097 0.785397 0.290056
Si Si4 0.326546 0.194751 0.303762
Si Si5 0.348215 0.558304 0.675401
Si Si6 0.368402 0.476612 0.449759
Si Si7 0.765383 0.653740 0.831037
Si Si8 0.131950 0.829821 0.286756
O O1 0.089195 0.682356 0.081742
O O2 0.213519 0.786897 0.155768
O O3 0.380173 0.527228 0.893623
O O4 0.928620 0.136734 0.170479
O O5 0.911578 0.546350 0.854390
O O6 0.000000 0.500000 0.000000
O O7 0.596152 0.886903 0.135854
O O8 0.500886 0.693784 0.341295
O O9 0.218283 0.852784 0.341674
O O10 0.297427 0.066564 0.339383
O O11 0.306719 0.380453 0.401964
O O12 0.181316 0.349447 0.283516
O O13 0.405145 0.423349 0.534884
O O14 0.422087 0.659960 0.675658
O O15 0.144654 0.845658 0.576010
O O16 0.781849 0.445358 0.777923
O O17 0.500000 0.000000 0.000000
#
# Coordination Sequence:
#
# PCOD9073202 Si02
#       8
#     2   2   2   2   2   2   2   2
#     4   9  19  36  57  84 112 142 186 236 289 336
#     4   9  17  32  55  83 111 142 186 237 278 323
#     4  11  22  36  58  86 116 149 188 239 290 334
#     4  10  21  36  53  81 117 150 187 230 281 338
#     4  10  21  38  60  82 110 152 194 236 283 337
#     4  10  22  40  59  81 113 155 197 231 274 339
#     4   9  19  36  57  82 112 147 188 233 280 330
#     4  10  21  38  60  83 113 150 189 232 278 340
#
# _framework density 21.948698
#
# number of rings (size 3 to 8) (size 9 to 14) (size 15 to 20)
#    0.000    2.250    0.000    3.000    0.000    5.000 
#    0.000    5.000    0.000    0.000    0.000    0.000 
#    0.000    0.000    0.000    0.000    0.000    0.000 
#
# Total GULP energy -89360.836967 kJ/mol
# GULP energy per Si atom -5585.052310 kJ/mol
# Density = 2.189874 g / cm^3
# Si number density = 21.948698 Si / 1000 Ang^3
#
#
#
# Elastic Constant Matrix: (Units=GPa)
#
#
# Indices 1 2 3 4 5 6 
#
# 1 70.6398 46.9058 6.6263 -1.4650 25.9456 -19.4383
# 2 46.9058 135.2777 21.1454 -11.4629 17.9545 -23.3481
# 3 6.6263 21.1454 49.1642 5.3870 2.4541 4.0846
# 4 -1.4650 -11.4629 5.3870 26.4776 -2.5084 13.0264
# 5 25.9456 17.9545 2.4541 -2.5084 35.0084 1.7974
# 6 -19.4383 -23.3481 4.0846 13.0264 1.7974 32.2371
#
#
#
# Elastic Compliance Matrix: (Units=1/GPa)
#
#
# Indices 1 2 3 4 5 6 
#
# 1 0.032141 -0.005080 -0.001390 -0.013466 -0.023243 0.022614
# 2 -0.005080 0.011140 -0.004741 0.003184 -0.001614 0.004409
# 3 -0.001390 -0.004741 0.023378 -0.003871 0.001842 -0.005772
# 4 -0.013466 0.003184 -0.003871 0.054308 0.013949 -0.028046
# 5 -0.023243 -0.001614 0.001842 0.013949 0.048709 -0.023770
# 6 0.022614 0.004409 -0.005772 -0.028046 -0.023770 0.061239
#
#
# Mechanical properties :
#
#
# Convention : Reuss Voigt Hill
#
# Bulk Modulus (GPa) = 22.60592 44.93742 33.77167
# Shear Modulus (GPa) = 18.65095 30.77157 24.71126
#
# Velocity S-wave (km/s) = 2.91821 3.74836 3.35903
# Velocity P-wave (km/s) = 4.65579 6.26513 5.51943
#
# Compressibility (1/GPa) = 0.04423620
#
# Stress axis : x y z
#
# Youngs Moduli (GPa) = 31.11322 89.76867 42.77470
#
# Poissons Ratio (x) = 0.45604 0.05946
# Poissons Ratio (y) = 0.15806 0.20280
# Poissons Ratio (z) = 0.04325 0.42560
#
# Static dielectric constant tensor:
#      x y z
#    x 1.750560 -0.025880 -0.022590 
#    y -0.025880 1.858600 -0.017870 
#    z -0.022590 -0.017870 1.842290 
# 
# From -- ./inp_files/257121.got.cif
#   From: 2010.05.17/outbox.ucp.g08.bks.cvg/sg2_129_cif.got.tgz:257121.got - 2010.06.11 11:32:03.
