data_PCOD9073269
_publ_section_title
;
Structure prediction by ZEFSAII (Michael W. Deem and Ramdas Pophale) SiO2 
 PCOD9073269
Probable space group: P -1
;
_chemical_formula_sum "Si O2"
_cell_formula_units_Z 15
_cell_length_a 6.000000
_cell_length_b 6.000000
_cell_length_c 21.000000
_cell_angle_alpha 60.000000
_cell_angle_beta 100.000000
_cell_angle_gamma 90.000000
_cell_volume 641.418803
_symmetry_space_group_name_H-M "P -1"
_symmetry_group_IT_number 2
_symmetry_cell_setting 'triclinic'
loop_
_space_group_symop_operation_xyz
x,y,z
-x,-y,-z
loop_
_atom_site_type_symbol
_atom_site_label
_atom_site_fract_x
_atom_site_fract_y
_atom_site_fract_z
Si Si1 0.853312 0.396860 0.450357
Si Si2 0.400412 0.347958 0.275825
Si Si3 0.806200 0.928167 0.317302
Si Si4 0.038674 0.193914 0.187172
Si Si5 0.297275 0.717875 0.943384
Si Si6 0.630368 0.098146 0.855406
Si Si7 0.188173 0.081318 0.413813
Si Si8 0.000000 0.000000 0.000000
O O1 0.734472 0.647357 0.372610
O O2 0.000000 0.500000 0.500000
O O3 0.034718 0.257106 0.430284
O O4 0.712764 0.177364 0.506148
O O5 0.454153 0.635866 0.222302
O O6 0.355769 0.246036 0.359164
O O7 0.162563 0.336401 0.228016
O O8 0.596517 0.144505 0.285958
O O9 0.915091 0.967393 0.248009
O O10 0.008121 0.985081 0.367788
O O11 0.851875 0.365405 0.111734
O O12 0.233970 0.079665 0.165450
O O13 0.420164 0.965478 0.892580
O O14 0.500000 0.500000 0.000000
O O15 0.132005 0.804833 0.980580
O O16 0.808468 0.110277 0.920303
#
# Coordination Sequence:
#
# PCOD9073269 Si02
#       8
#     2   2   2   2   2   2   2   1
#     4   9  18  38  64  90 130 172 219 264 324 387
#     4  11  24  40  66  95 134 172 220 276 336 399
#     4  10  21  37  63  95 128 173 219 272 326 395
#     4  10  24  43  64  95 131 173 220 278 332 399
#     4  11  26  46  72  98 133 178 226 282 350 412
#     4  11  25  43  65  97 129 173 220 276 340 406
#     4   9  20  39  61  92 130 174 213 272 325 387
#     4  10  26  44  68  98 132 170 222 284 334 410
#
# _framework density 23.385656999999998
#
# number of rings (size 3 to 8) (size 9 to 14) (size 15 to 20)
#    0.000    1.867    0.000    2.000    5.600    8.000 
#    0.000    6.000    0.000    0.000    0.000    0.000 
#    0.000    0.000    0.000    0.000    0.000    0.000 
#
# Total GULP energy -83659.740146 kJ/mol
# GULP energy per Si atom -5577.316010 kJ/mol
# Density = 2.333243 g / cm^3
# Si number density = 23.385657 Si / 1000 Ang^3
#
#
#
# Elastic Constant Matrix: (Units=GPa)
#
#
# Indices 1 2 3 4 5 6 
#
# 1 35.2999 0.1692 16.9868 -7.8890 4.5895 4.0768
# 2 0.1692 39.9770 25.4467 -9.3928 -3.5973 1.7836
# 3 16.9868 25.4467 100.9935 3.8286 3.5632 13.2795
# 4 -7.8890 -9.3928 3.8286 51.2004 -5.0208 -4.2380
# 5 4.5895 -3.5973 3.5632 -5.0208 43.0892 -7.5047
# 6 4.0768 1.7836 13.2795 -4.2380 -7.5047 28.7864
#
#
#
# Elastic Compliance Matrix: (Units=1/GPa)
#
#
# Indices 1 2 3 4 5 6 
#
# 1 0.033577 0.005768 -0.007088 0.006448 -0.002004 -0.001416
# 2 0.005768 0.034090 -0.010669 0.008803 0.004937 0.004576
# 3 -0.007088 -0.010669 0.014979 -0.005042 -0.003148 -0.006808
# 4 0.006448 0.008803 -0.005042 0.023367 0.004125 0.005383
# 5 -0.002004 0.004937 -0.003148 0.004125 0.026115 0.008846
# 6 -0.001416 0.004576 -0.006808 0.005383 0.008846 0.040895
#
#
# Mechanical properties :
#
#
# Convention : Reuss Voigt Hill
#
# Bulk Modulus (GPa) = 17.04538 29.05285 23.04911
# Shear Modulus (GPa) = 23.08856 33.52637 28.30747
#
# Velocity S-wave (km/s) = 3.14554 3.79044 3.48294
# Velocity P-wave (km/s) = 4.52738 5.62200 5.10412
#
# Compressibility (1/GPa) = 0.05866693
#
# Stress axis : x y z
#
# Youngs Moduli (GPa) = 29.78212 29.33450 66.75808
#
# Poissons Ratio (x) = -0.16919 0.47321
# Poissons Ratio (y) = -0.17178 0.71224
# Poissons Ratio (z) = 0.21111 0.31297
#
# Static dielectric constant tensor:
#      x y z
#    x 1.810290 0.066850 0.005260 
#    y 0.066850 1.883900 -0.015960 
#    z 0.005260 -0.015960 1.916360 
# 
# From -- ./inp_files/7921.got.cif
#   From: 2010.05.17/outbox.ucp.g08.bks.cvg/sg2_4_cif.got.tgz:7921.got - 2010.06.11 11:32:03.
