data_PCOD9073145
_publ_section_title
;
Structure prediction by ZEFSAII (Michael W. Deem and Ramdas Pophale) SiO2 
 PCOD9073145
Probable space group: P -1
;
_chemical_formula_sum "Si O2"
_cell_formula_units_Z 16
_cell_length_a 30.000000
_cell_length_b 18.000000
_cell_length_c 24.000000
_cell_angle_alpha 20.000000
_cell_angle_beta 170.000000
_cell_angle_gamma 160.000000
_cell_volume 747.142172
_symmetry_space_group_name_H-M "P -1"
_symmetry_group_IT_number 2
_symmetry_cell_setting 'triclinic'
loop_
_space_group_symop_operation_xyz
x,y,z
-x,-y,-z
loop_
_atom_site_type_symbol
_atom_site_label
_atom_site_fract_x
_atom_site_fract_y
_atom_site_fract_z
Si Si1 0.801347 0.012854 0.129756
Si Si2 0.851820 0.310906 0.088575
Si Si3 0.994056 0.156566 0.102962
Si Si4 0.609959 0.418417 0.048597
Si Si5 0.470337 0.362677 0.792430
Si Si6 0.472883 0.144852 0.530806
Si Si7 0.341079 0.060171 0.698886
Si Si8 0.978936 0.139471 0.758593
O O1 0.752092 0.139145 0.036245
O O2 0.112529 0.080602 0.448092
O O3 0.677369 0.742623 0.172937
O O4 0.638695 0.113660 0.812048
O O5 0.162726 0.298289 0.480536
O O6 0.624379 0.234381 0.909957
O O7 0.888939 0.575503 0.937383
O O8 0.162077 0.052796 0.427624
O O9 0.679304 0.096142 0.772593
O O10 0.029212 0.061861 0.152378
O O11 0.629589 0.386534 0.029380
O O12 0.798586 0.297830 0.400808
O O13 0.727153 0.689480 0.004092
O O14 0.529059 0.597310 0.665990
O O15 0.568904 0.168947 0.018571
O O16 0.181845 0.979210 0.300538
#
# Coordination Sequence:
#
# PCOD9073145 Si02
#       8
#     2   2   2   2   2   2   2   2
#     4  10  22  42  62  89 119 162 208 234 292 364
#     4  11  23  39  62  86 129 159 195 250 296 352
#     4  10  21  39  64  90 117 159 208 240 291 361
#     4  10  21  41  66  88 122 155 199 259 292 350
#     4  11  22  40  59  93 129 151 193 257 308 337
#     4   9  22  40  61  91 123 156 197 253 293 355
#     4  11  21  38  63  91 119 163 201 241 296 361
#     4  10  20  43  67  86 115 164 205 238 301 362
#
# _framework density 21.414933999999999
#
# number of rings (size 3 to 8) (size 9 to 14) (size 15 to 20)
#    0.000    1.750    2.500    1.500    0.000    7.500 
#    6.750    5.000    0.000    0.000    0.000    0.000 
#    0.000    0.000    0.000    0.000    0.000    0.000 
#
# Total GULP energy -89128.396363 kJ/mol
# GULP energy per Si atom -5570.524773 kJ/mol
# Density = 2.136619 g / cm^3
# Si number density = 21.414934 Si / 1000 Ang^3
#
#
#
# Elastic Constant Matrix: (Units=GPa)
#
#
# Indices 1 2 3 4 5 6 
#
# 1 75.3492 40.6380 23.9401 6.2071 19.2648 27.2129
# 2 40.6380 132.7668 38.3579 3.2853 18.9291 33.4387
# 3 23.9401 38.3579 43.7193 -17.3822 23.1979 14.3044
# 4 6.2071 3.2853 -17.3822 33.1751 11.3344 2.6798
# 5 19.2648 18.9291 23.1979 11.3344 35.8864 4.4059
# 6 27.2129 33.4387 14.3044 2.6798 4.4059 40.6057
#
#
#
# Elastic Compliance Matrix: (Units=1/GPa)
#
#
# Indices 1 2 3 4 5 6 
#
# 1 0.021720 0.000763 -0.022420 -0.018432 0.009119 -0.007060
# 2 0.000763 0.019817 -0.067680 -0.054934 0.049593 0.005256
# 3 -0.022420 -0.067680 0.489130 0.406071 -0.386091 -0.086455
# 4 -0.018432 -0.054934 0.406071 0.371113 -0.331757 -0.073952
# 5 0.009119 0.049593 -0.386091 -0.331757 0.342109 0.073833
# 6 -0.007060 0.005256 -0.086455 -0.073952 0.073833 0.052355
#
#
# Mechanical properties :
#
#
# Convention : Reuss Voigt Hill
#
# Bulk Modulus (GPa) = 2.84096 50.85637 26.84867
# Shear Modulus (GPa) = 3.14021 31.86007 17.50014
#
# Velocity S-wave (km/s) = 1.21225 3.86132 2.86176
# Velocity P-wave (km/s) = 1.81353 6.60904 4.84604
#
# Compressibility (1/GPa) = 0.35199354
#
# Stress axis : x y z
#
# Youngs Moduli (GPa) = 46.04098 50.46197 2.04445
#
# Poissons Ratio (x) = -0.03852 0.04584
# Poissons Ratio (y) = -0.03514 0.13837
# Poissons Ratio (z) = 1.03224 3.41526
#
# Static dielectric constant tensor:
#      x y z
#    x 1.795600 -0.008650 -0.029390 
#    y -0.008650 1.808740 0.045220 
#    z -0.029390 0.045220 1.799370 
# 
# From -- ./inp_files/597230.got.cif
#   From: 2010.05.17/outbox.ucp.g08.bks.cvg/sg2_299_cif.got.tgz:597230.got - 2010.06.11 11:32:03.
