data_PCOD9073808
_publ_section_title
;
Structure prediction by ZEFSAII (Michael W. Deem and Ramdas Pophale) SiO2 
 PCOD9073808
Probable space group: P -1
;
_chemical_formula_sum "Si O2"
_cell_formula_units_Z 16
_cell_length_a 15.000000
_cell_length_b 15.000000
_cell_length_c 9.000000
_cell_angle_alpha 80.000000
_cell_angle_beta 80.000000
_cell_angle_gamma 150.000000
_cell_volume 750.794245
_symmetry_space_group_name_H-M "P -1"
_symmetry_group_IT_number 2
_symmetry_cell_setting 'triclinic'
loop_
_space_group_symop_operation_xyz
x,y,z
-x,-y,-z
loop_
_atom_site_type_symbol
_atom_site_label
_atom_site_fract_x
_atom_site_fract_y
_atom_site_fract_z
Si Si1 0.210476 0.750134 0.436819
Si Si2 0.669097 0.418700 0.262919
Si Si3 0.678758 0.879646 0.282793
Si Si4 0.185115 0.291286 0.075036
Si Si5 0.635876 0.744860 0.022531
Si Si6 0.401109 0.011151 0.897943
Si Si7 0.651603 0.938128 0.814501
Si Si8 0.044919 0.503567 0.823366
O O1 0.435724 0.901752 0.273246
O O2 0.177766 0.703199 0.634586
O O3 0.000000 0.500000 0.500000
O O4 0.195789 0.839594 0.362343
O O5 0.534474 0.314166 0.483764
O O6 0.502587 0.234820 0.228835
O O7 0.821972 0.469508 0.226911
O O8 0.778553 0.612381 0.110003
O O9 0.628038 0.766320 0.190997
O O10 0.701877 0.002627 0.170910
O O11 0.911272 0.060846 0.252265
O O12 0.377208 0.496336 0.087795
O O13 0.234433 0.231188 0.044937
O O14 0.760279 0.946443 0.847794
O O15 0.489401 0.146520 0.980488
O O16 0.209168 0.762743 0.086409
O O17 0.000000 0.500000 0.000000
#
# Coordination Sequence:
#
# PCOD9073808 Si02
#       8
#     2   2   2   2   2   2   2   2
#     4  12  25  41  66  94 127 176 222 270 334 399
#     4  11  24  42  64  99 129 170 225 272 331 404
#     4  11  22  42  68  98 137 171 221 276 334 394
#     4  10  21  45  72  96 133 178 218 273 348 386
#     4   9  22  44  70  98 134 175 222 278 332 400
#     4  11  23  44  62  93 131 170 224 270 328 403
#     4  10  23  42  64  90 133 171 217 275 321 394
#     4  12  26  41  65  94 131 174 217 275 329 395
#
# _framework density 21.310765
#
# number of rings (size 3 to 8) (size 9 to 14) (size 15 to 20)
#    0.000    1.250    3.750    1.500    3.500    1.500 
#    6.750    5.625    0.000    0.000    0.000    0.000 
#    0.000    0.000    0.000    0.000    0.000    0.000 
#
# Total GULP energy -89258.299190 kJ/mol
# GULP energy per Si atom -5578.643699 kJ/mol
# Density = 2.126226 g / cm^3
# Si number density = 21.310765 Si / 1000 Ang^3
#
#
#
# Elastic Constant Matrix: (Units=GPa)
#
#
# Indices 1 2 3 4 5 6 
#
# 1 140.9736 32.1323 58.3178 -10.0297 5.9059 -12.8530
# 2 32.1323 47.5725 15.7088 10.5378 -2.7582 -7.1952
# 3 58.3178 15.7088 98.5146 13.6637 8.1102 -6.4898
# 4 -10.0297 10.5378 13.6637 22.5424 -1.3730 3.5478
# 5 5.9059 -2.7582 8.1102 -1.3730 27.1590 -5.1133
# 6 -12.8530 -7.1952 -6.4898 3.5478 -5.1133 34.9851
#
#
#
# Elastic Compliance Matrix: (Units=1/GPa)
#
#
# Indices 1 2 3 4 5 6 
#
# 1 0.014567 -0.010670 -0.009263 0.017104 -0.000695 -0.000397
# 2 -0.010670 0.033341 0.004379 -0.023787 0.004479 0.006817
# 3 -0.009263 0.004379 0.017771 -0.017471 -0.003340 0.002078
# 4 0.017104 -0.023787 -0.017471 0.075215 0.001131 -0.009311
# 5 -0.000695 0.004479 -0.003340 0.001131 0.039556 0.005713
# 6 -0.000397 0.006817 0.002078 -0.009311 0.005713 0.032004
#
#
# Mechanical properties :
#
#
# Convention : Reuss Voigt Hill
#
# Bulk Modulus (GPa) = 28.92519 55.48650 42.20584
# Shear Modulus (GPa) = 19.60123 28.99743 24.29933
#
# Velocity S-wave (km/s) = 3.03608 3.69276 3.38040
# Velocity P-wave (km/s) = 5.08850 6.65397 5.92318
#
# Compressibility (1/GPa) = 0.03457194
#
# Stress axis : x y z
#
# Youngs Moduli (GPa) = 68.64695 29.99308 56.27142
#
# Poissons Ratio (x) = 0.32001 0.52126
# Poissons Ratio (y) = 0.73243 -0.24642
# Poissons Ratio (z) = 0.63590 -0.13134
#
# Static dielectric constant tensor:
#      x y z
#    x 1.947310 0.039400 -0.038780 
#    y 0.039400 1.841620 -0.036440 
#    z -0.038780 -0.036440 1.883660 
# 
# From -- ./inp_files/39170.got.cif
#   From: 2010.05.17/outbox.ucp.g08.bks.cvg/sg2_20_cif.got.tgz:39170.got - 2010.06.11 11:32:03.
