data_PCOD9073426
_publ_section_title
;
Structure prediction by ZEFSAII (Michael W. Deem and Ramdas Pophale) SiO2 
 PCOD9073426
Probable space group: P -1
;
_chemical_formula_sum "Si O2"
_cell_formula_units_Z 16
_cell_length_a 13.607342
_cell_length_b 9.224026
_cell_length_c 9.882677
_cell_angle_alpha 93.804508
_cell_angle_beta 113.634718
_cell_angle_gamma 45.850415
_cell_volume 771.427426
_symmetry_space_group_name_H-M "P -1"
_symmetry_group_IT_number 2
_symmetry_cell_setting 'triclinic'
loop_
_space_group_symop_operation_xyz
x,y,z
-x,-y,-z
loop_
_atom_site_type_symbol
_atom_site_label
_atom_site_fract_x
_atom_site_fract_y
_atom_site_fract_z
Si Si1 0.322412 0.644415 0.266937
Si Si2 0.026377 0.967985 0.817620
Si Si3 0.023520 0.233389 0.027821
Si Si4 0.526723 0.226714 0.533607
Si Si5 0.659252 0.427714 0.049850
Si Si6 0.401007 0.093270 0.621731
Si Si7 0.664597 0.763997 0.119470
Si Si8 0.765891 0.708190 0.886935
O O1 0.437263 0.417060 0.388971
O O2 0.390004 0.741010 0.320199
O O3 0.314755 0.608736 0.101958
O O4 0.160139 0.810473 0.276379
O O5 0.184752 0.795931 0.804980
O O6 0.019204 0.811228 0.863742
O O7 0.076925 0.049215 0.950361
O O8 0.153308 0.227115 0.118017
O O9 0.872961 0.464253 0.893651
O O10 0.411843 0.231424 0.551556
O O11 0.639674 0.003533 0.500028
O O12 0.644495 0.610483 0.094254
O O13 0.500000 0.500000 0.000000
O O14 0.301707 0.214213 0.709895
O O15 0.584540 0.881557 0.754161
O O16 0.778932 0.697172 0.057215
O O17 0.500000 0.000000 0.000000
#
# Coordination Sequence:
#
# PCOD9073426 Si02
#       8
#     2   2   2   2   2   2   2   2
#     4  11  20  39  60  85 117 147 206 234 280 348
#     4  11  20  36  57  87 120 145 186 246 293 345
#     4  10  18  31  54  86 118 144 179 228 315 337
#     4  10  22  35  59  83 109 166 200 234 262 336
#     4  12  23  35  60  94 118 148 181 248 320 342
#     4  10  20  36  54  82 116 151 197 231 281 342
#     4  10  20  34  55  82 122 143 177 245 301 345
#     4  10  19  32  56  89 114 145 186 245 297 346
#
# _framework density 20.740772
#
# number of rings (size 3 to 8) (size 9 to 14) (size 15 to 20)
#    0.000    1.500    3.750    3.750    3.500    0.000 
#    0.000    0.000    0.000    7.500    6.500    0.000 
#    0.000    0.000    0.000    0.000    0.000    0.000 
#
# Total GULP energy -89105.625984 kJ/mol
# GULP energy per Si atom -5569.101624 kJ/mol
# Density = 2.069357 g / cm^3
# Si number density = 20.740772 Si / 1000 Ang^3
#
#
#
# Elastic Constant Matrix: (Units=GPa)
#
#
# Indices 1 2 3 4 5 6 
#
# 1 75.2337 33.8724 6.3909 8.5706 3.3794 8.5653
# 2 33.8724 99.1899 8.6341 5.3961 -2.2631 12.6227
# 3 6.3909 8.6341 46.8729 18.7014 -9.1534 8.3292
# 4 8.5706 5.3961 18.7014 28.4933 1.2812 4.5248
# 5 3.3794 -2.2631 -9.1534 1.2812 25.1035 0.4574
# 6 8.5653 12.6227 8.3292 4.5248 0.4574 32.8623
#
#
#
# Elastic Compliance Matrix: (Units=1/GPa)
#
#
# Indices 1 2 3 4 5 6 
#
# 1 0.016358 -0.005228 -0.000041 -0.003518 -0.002477 -0.001726
# 2 -0.005228 0.012372 -0.000740 0.000159 0.001600 -0.003246
# 3 -0.000041 -0.000740 0.033743 -0.021734 0.013451 -0.005452
# 4 -0.003518 0.000159 -0.021734 0.050920 -0.010026 -0.000507
# 5 -0.002477 0.001600 0.013451 -0.010026 0.045777 -0.002635
# 6 -0.001726 -0.003246 -0.005452 -0.000507 -0.002635 0.033615
#
#
# Mechanical properties :
#
#
# Convention : Reuss Voigt Hill
#
# Bulk Modulus (GPa) = 19.81946 35.45461 27.63704
# Shear Modulus (GPa) = 22.56097 28.78510 25.67303
#
# Velocity S-wave (km/s) = 3.30170 3.72943 3.52206
# Velocity P-wave (km/s) = 4.91034 5.97295 5.46752
#
# Compressibility (1/GPa) = 0.05045545
#
# Stress axis : x y z
#
# Youngs Moduli (GPa) = 61.13328 80.82521 29.63578
#
# Poissons Ratio (x) = 0.42255 0.00121
# Poissons Ratio (y) = 0.31960 0.02194
# Poissons Ratio (z) = 0.00249 0.05983
#
# Static dielectric constant tensor:
#      x y z
#    x 1.767000 -0.027440 -0.001800 
#    y -0.027440 1.769000 -0.000260 
#    z -0.001800 -0.000260 1.807600 
# 
# From -- ./inp_files/446086.got.cif
#   From: 2010.05.17/outbox.cif.g08.bks.cpg/sg2_224_cif.got.tgz:446086.got - 2010.06.03 11:33:40.
