data_PCOD9073621
_publ_section_title
;
Structure prediction by ZEFSAII (Michael W. Deem and Ramdas Pophale) SiO2 
 PCOD9073621
Probable space group: P -1
;
_chemical_formula_sum "Si O2"
_cell_formula_units_Z 12
_cell_length_a 15.000000
_cell_length_b 9.000000
_cell_length_c 12.000000
_cell_angle_alpha 50.000000
_cell_angle_beta 30.000000
_cell_angle_gamma 40.000000
_cell_volume 519.584618
_symmetry_space_group_name_H-M "P -1"
_symmetry_group_IT_number 2
_symmetry_cell_setting 'triclinic'
loop_
_space_group_symop_operation_xyz
x,y,z
-x,-y,-z
loop_
_atom_site_type_symbol
_atom_site_label
_atom_site_fract_x
_atom_site_fract_y
_atom_site_fract_z
Si Si1 0.502501 0.923452 0.405969
Si Si2 0.127345 0.604562 0.719646
Si Si3 0.678957 0.149848 0.739109
Si Si4 0.221552 0.935688 0.066475
Si Si5 0.023120 0.137209 0.804443
Si Si6 0.181830 0.348557 0.154871
O O1 0.685983 0.651898 0.327221
O O2 0.500000 0.000000 0.500000
O O3 0.275681 0.980265 0.582785
O O4 0.572799 0.068924 0.190894
O O5 0.234233 0.711494 0.480409
O O6 0.934113 0.622017 0.851513
O O7 0.986113 0.806020 0.863474
O O8 0.739973 0.130706 0.813391
O O9 0.795201 0.880038 0.705376
O O10 0.427189 0.275400 0.925605
O O11 0.157009 0.798966 0.123920
O O12 0.971059 0.393661 0.759581
O O13 0.000000 0.000000 0.000000
#
# Coordination Sequence:
#
# PCOD9073621 Si02
#       6
#     2   2   2   2   2   2
#     4  12  24  43  68  96 132 175 216 271 327 379
#     4  11  23  46  70  94 135 172 219 269 322 395
#     4  10  24  44  69  96 132 176 216 267 328 389
#     4  11  25  42  66 104 129 170 223 265 329 387
#     4  12  24  41  66  98 134 173 218 270 329 383
#     4  10  21  41  67  93 133 171 216 264 326 386
#
# _framework density 23.095372000000001
#
# number of rings (size 3 to 8) (size 9 to 14) (size 15 to 20)
#    0.000    1.000    3.333    3.500    0.000    8.000 
#    0.000    4.167    0.000    0.000    0.000    0.000 
#    0.000    0.000    0.000    0.000    0.000    0.000 
#
# Total GULP energy -67010.353458 kJ/mol
# GULP energy per Si atom -5584.196121 kJ/mol
# Density = 2.304281 g / cm^3
# Si number density = 23.095372 Si / 1000 Ang^3
#
#
#
# Elastic Constant Matrix: (Units=GPa)
#
#
# Indices 1 2 3 4 5 6 
#
# 1 68.7178 6.9071 41.5445 -19.9169 -32.1211 -3.9867
# 2 6.9071 63.8945 -0.1750 1.2435 13.0149 -19.0483
# 3 41.5445 -0.1750 131.2598 -21.6704 -16.7717 -15.8035
# 4 -19.9169 1.2435 -21.6704 34.4007 -11.0899 -12.1011
# 5 -32.1211 13.0149 -16.7717 -11.0899 28.7850 16.7599
# 6 -3.9867 -19.0483 -15.8035 -12.1011 16.7599 30.6484
#
#
#
# Elastic Compliance Matrix: (Units=1/GPa)
#
#
# Indices 1 2 3 4 5 6 
#
# 1 -0.014361 0.023448 -0.000052 -0.013503 -0.053017 0.036339
# 2 0.023448 0.003340 0.000677 0.024026 0.037550 -0.005573
# 3 -0.000052 0.000677 0.011273 0.011701 0.006451 0.007319
# 4 -0.013503 0.024026 0.011701 0.034555 -0.036574 0.052853
# 5 -0.053017 0.037550 0.006451 -0.036574 -0.080447 0.049319
# 6 0.036339 -0.005573 0.007319 0.052853 0.049319 0.031564
#
#
# Mechanical properties :
#
#
# Convention : Reuss Voigt Hill
#
# Bulk Modulus (GPa) = 20.66226 40.04727 30.35477
# Shear Modulus (GPa) = -108.49168 33.13986 -37.67591
#
# Velocity S-wave (km/s) = -6.86130 3.79213 -4.04334
# Velocity P-wave (km/s) = 7.33513 6.04577 2.93707
#
# Compressibility (1/GPa) = 0.04839741
#
# Stress axis : x y z
#
# Youngs Moduli (GPa) = -69.63463 299.37647 88.70673
#
# Poissons Ratio (x) = -7.01966 0.00461
# Poissons Ratio (y) = 1.63277 -0.06003
# Poissons Ratio (z) = -0.00362 -0.20259
#
# Static dielectric constant tensor:
#      x y z
#    x 1.932250 0.123540 0.024000 
#    y 0.123540 1.916050 0.008070 
#    z 0.024000 0.008070 1.878970 
# 
# From -- ./inp_files/149800.got.cif
#   From: 2010.05.17/outbox.ucp.g08.bks.cvg/sg2_75_cif.got.tgz:149800.got - 2010.06.11 11:32:03.
