data_PCOD9073995
_publ_section_title
;
Structure prediction by ZEFSAII (Michael W. Deem and Ramdas Pophale) SiO2 
 PCOD9073995
Probable space group: P -1
;
_chemical_formula_sum "Si O2"
_cell_formula_units_Z 14
_cell_length_a 12.000000
_cell_length_b 9.000000
_cell_length_c 9.000000
_cell_angle_alpha 130.000000
_cell_angle_beta 60.000000
_cell_angle_gamma 100.000000
_cell_volume 628.643806
_symmetry_space_group_name_H-M "P -1"
_symmetry_group_IT_number 2
_symmetry_cell_setting 'triclinic'
loop_
_space_group_symop_operation_xyz
x,y,z
-x,-y,-z
loop_
_atom_site_type_symbol
_atom_site_label
_atom_site_fract_x
_atom_site_fract_y
_atom_site_fract_z
Si Si1 0.647242 0.499095 0.456124
Si Si2 0.812664 0.546339 0.866398
Si Si3 0.804423 0.313612 0.002521
Si Si4 0.472557 0.804368 0.958021
Si Si5 0.949821 0.886951 0.095691
Si Si6 0.515751 0.797223 0.266634
Si Si7 0.746871 0.273583 0.499541
O O1 0.500000 0.500000 0.500000
O O2 0.743510 0.517809 0.268796
O O3 0.731363 0.301002 0.350565
O O4 0.605373 0.652863 0.714746
O O5 0.814889 0.434169 0.636032
O O6 0.845690 0.371926 0.852149
O O7 0.904083 0.699110 0.934526
O O8 0.663195 0.665892 0.080134
O O9 0.669623 0.232239 0.022360
O O10 0.932746 0.182363 0.910104
O O11 0.472300 0.832908 0.150436
O O12 0.500000 0.000000 0.000000
O O13 0.824471 0.051686 0.346223
O O14 0.000000 0.000000 0.000000
O O15 0.406916 0.686213 0.328079
O O16 0.500000 0.000000 0.500000
#
# Coordination Sequence:
#
# PCOD9073995 Si02
#       7
#     2   2   2   2   2   2   2
#     4  10  22  40  69  97 141 179 222 289 353 406
#     4  12  26  47  74 104 143 185 239 296 355 419
#     4  11  25  48  68 102 144 184 236 289 353 424
#     4  11  25  41  70 109 140 181 236 294 354 420
#     4  12  28  48  72 101 143 192 241 285 350 435
#     4  12  24  42  73 105 140 180 233 295 357 408
#     4  12  24  47  71 104 140 188 236 292 356 420
#
# _framework density 22.270163
#
# number of rings (size 3 to 8) (size 9 to 14) (size 15 to 20)
#    0.000    0.571    5.714    2.571    8.000    1.143 
#    2.571    0.000    0.000    0.000    0.000    0.000 
#    0.000    0.000    0.000    0.000    0.000    0.000 
#
# Total GULP energy -78038.101818 kJ/mol
# GULP energy per Si atom -5574.150130 kJ/mol
# Density = 2.221948 g / cm^3
# Si number density = 22.270163 Si / 1000 Ang^3
#
#
#
# Elastic Constant Matrix: (Units=GPa)
#
#
# Indices 1 2 3 4 5 6 
#
# 1 147.9011 50.9852 21.6184 11.7084 6.6582 -24.7902
# 2 50.9852 80.6329 -2.2404 8.5305 8.5156 -0.9319
# 3 21.6184 -2.2404 61.8892 10.0645 14.4827 -13.7943
# 4 11.7084 8.5305 10.0645 28.6995 -1.1743 -0.9947
# 5 6.6582 8.5156 14.4827 -1.1743 36.8954 2.8352
# 6 -24.7902 -0.9319 -13.7943 -0.9947 2.8352 34.5677
#
#
#
# Elastic Compliance Matrix: (Units=1/GPa)
#
#
# Indices 1 2 3 4 5 6 
#
# 1 0.010513 -0.006486 -0.002238 -0.001356 -0.000060 0.006438
# 2 -0.006486 0.017512 0.004124 -0.004267 -0.004450 -0.002291
# 3 -0.002238 0.004124 0.022702 -0.008415 -0.010355 0.008173
# 4 -0.001356 -0.004267 -0.008415 0.039734 0.006089 -0.003801
# 5 -0.000060 -0.004450 -0.010355 0.006089 0.032924 -0.006820
# 6 0.006438 -0.002291 0.008173 -0.003801 -0.006820 0.037195
#
#
# Mechanical properties :
#
#
# Convention : Reuss Voigt Hill
#
# Bulk Modulus (GPa) = 24.07968 47.90552 35.99260
# Shear Modulus (GPa) = 27.22986 34.70320 30.96653
#
# Velocity S-wave (km/s) = 3.50051 3.95179 3.73298
# Velocity P-wave (km/s) = 5.21288 6.50999 5.89721
#
# Compressibility (1/GPa) = 0.04152878
#
# Stress axis : x y z
#
# Youngs Moduli (GPa) = 95.11880 57.10254 44.04883
#
# Poissons Ratio (x) = 0.37035 0.09857
# Poissons Ratio (y) = 0.61691 -0.18166
# Poissons Ratio (z) = 0.21286 -0.23549
#
# Static dielectric constant tensor:
#      x y z
#    x 1.747560 0.118320 0.072980 
#    y 0.118320 1.635770 -0.054780 
#    z 0.072980 -0.054780 1.829920 
# 
# From -- ./inp_files/177014.got.cif
#   From: 2010.05.17/outbox.ucp.g08.bks.cvg/sg2_89_cif.got.tgz:177014.got - 2010.06.11 11:32:03.
