data_PCOD9073059
_publ_section_title
;
Structure prediction by ZEFSAII (Michael W. Deem and Ramdas Pophale) SiO2 
 PCOD9073059
Probable space group: P -1
;
_chemical_formula_sum "Si O2"
_cell_formula_units_Z 14
_cell_length_a 30.000000
_cell_length_b 30.000000
_cell_length_c 9.000000
_cell_angle_alpha 30.000000
_cell_angle_beta 150.000000
_cell_angle_gamma 170.000000
_cell_volume 695.153643
_symmetry_space_group_name_H-M "P -1"
_symmetry_group_IT_number 2
_symmetry_cell_setting 'triclinic'
loop_
_space_group_symop_operation_xyz
x,y,z
-x,-y,-z
loop_
_atom_site_type_symbol
_atom_site_label
_atom_site_fract_x
_atom_site_fract_y
_atom_site_fract_z
Si Si1 0.472637 0.012824 0.074368
Si Si2 0.832326 0.609767 0.498021
Si Si3 0.718794 0.048352 0.703327
Si Si4 0.075044 0.443403 0.332701
Si Si5 0.683780 0.810786 0.165181
Si Si6 0.378729 0.069065 0.888674
Si Si7 0.787942 0.720376 0.848221
O O1 0.540904 0.971772 0.396458
O O2 0.458837 0.052548 0.079224
O O3 0.695351 0.271512 0.871235
O O4 0.190456 0.767644 0.897343
O O5 0.617629 0.361083 0.701303
O O6 0.837744 0.560526 0.499571
O O7 0.778577 0.661330 0.149813
O O8 0.119545 0.864808 0.654685
O O9 0.981897 0.326276 0.568534
O O10 0.655383 0.888443 0.913501
O O11 0.701027 0.018324 0.917018
O O12 0.741929 0.784681 0.527344
O O13 0.431691 0.535180 0.148234
O O14 0.931687 0.036936 0.117514
#
# Coordination Sequence:
#
# PCOD9073059 Si02
#       7
#     2   2   2   2   2   2   2
#     4  10  23  41  58  86 125 166 196 241 302 359
#     4  10  20  41  62  82 121 166 198 236 302 367
#     4  12  23  40  61  95 123 154 206 257 290 350
#     4  10  22  37  62  88 116 158 209 245 293 349
#     4  10  23  35  65  94 116 150 202 255 302 344
#     4  10  24  38  60  89 124 166 195 236 306 361
#     4  10  20  42  61  90 120 154 196 251 308 352
#
# _framework density 20.139433
#
# number of rings (size 3 to 8) (size 9 to 14) (size 15 to 20)
#    0.000    1.714    1.429    2.143    4.000    4.571 
#    0.000    5.714    0.000    0.000    0.000    0.000 
#    0.000    0.000    0.000    0.000    0.000    0.000 
#
# Total GULP energy -78089.169145 kJ/mol
# GULP energy per Si atom -5577.797796 kJ/mol
# Density = 2.009359 g / cm^3
# Si number density = 20.139433 Si / 1000 Ang^3
#
#
#
# Elastic Constant Matrix: (Units=GPa)
#
#
# Indices 1 2 3 4 5 6 
#
# 1 87.3106 12.9689 31.3231 -12.2732 -12.8844 12.1238
# 2 12.9689 105.1430 25.1402 -4.6652 -2.7125 14.0663
# 3 31.3231 25.1402 155.2519 -11.6169 10.6719 0.5830
# 4 -12.2732 -4.6652 -11.6169 17.4089 2.0062 2.1768
# 5 -12.8844 -2.7125 10.6719 2.0062 42.9355 -12.6548
# 6 12.1238 14.0663 0.5830 2.1768 -12.6548 24.9390
#
#
#
# Elastic Compliance Matrix: (Units=1/GPa)
#
#
# Indices 1 2 3 4 5 6 
#
# 1 0.015000 0.000144 -0.002500 0.009483 0.002691 -0.006777
# 2 0.000144 0.010886 -0.001461 0.003049 -0.001114 -0.007007
# 3 -0.002500 -0.001461 0.007620 0.003243 -0.002849 0.000132
# 4 0.009483 0.003049 0.003243 0.069657 -0.005529 -0.015291
# 5 0.002691 -0.001114 -0.002849 -0.005529 0.029345 0.014759
# 6 -0.006777 -0.007007 0.000132 -0.015291 0.014759 0.056166
#
#
# Mechanical properties :
#
#
# Convention : Reuss Voigt Hill
#
# Bulk Modulus (GPa) = 38.64935 54.06334 46.35634
# Shear Modulus (GPa) = 24.39844 35.60824 30.00334
#
# Velocity S-wave (km/s) = 3.48440 4.20942 3.86396
# Velocity P-wave (km/s) = 5.95152 7.10834 6.55550
#
# Compressibility (1/GPa) = 0.02587366
#
# Stress axis : x y z
#
# Youngs Moduli (GPa) = 66.66727 91.85779 131.23292
#
# Poissons Ratio (x) = -0.01326 0.32804
# Poissons Ratio (y) = -0.00962 0.19173
# Poissons Ratio (z) = 0.16665 0.13420
#
# Static dielectric constant tensor:
#      x y z
#    x 1.730790 -0.037900 -0.004490 
#    y -0.037900 1.723990 0.008690 
#    z -0.004490 0.008690 1.760310 
# 
# From -- ./inp_files/99125.got.cif
#   From: 2010.05.17/outbox.ucp.g08.bks.cvg/sg2_50_cif.got.tgz:99125.got - 2010.06.11 11:32:03.
