data_PCOD9073548
_publ_section_title
;
Structure prediction by ZEFSAII (Michael W. Deem and Ramdas Pophale) SiO2 
 PCOD9073548
Probable space group: P -1
;
_chemical_formula_sum "Si O2"
_cell_formula_units_Z 16
_cell_length_a 18.000000
_cell_length_b 12.000000
_cell_length_c 9.000000
_cell_angle_alpha 50.000000
_cell_angle_beta 120.000000
_cell_angle_gamma 150.000000
_cell_volume 736.400153
_symmetry_space_group_name_H-M "P -1"
_symmetry_group_IT_number 2
_symmetry_cell_setting 'triclinic'
loop_
_space_group_symop_operation_xyz
x,y,z
-x,-y,-z
loop_
_atom_site_type_symbol
_atom_site_label
_atom_site_fract_x
_atom_site_fract_y
_atom_site_fract_z
Si Si1 0.745788 0.123394 0.556753
Si Si2 0.033011 0.291430 0.232288
Si Si3 0.983342 0.626596 0.531924
Si Si4 0.146088 0.254779 0.824334
Si Si5 0.519415 0.362574 0.076954
Si Si6 0.281876 0.742057 0.883625
Si Si7 0.777497 0.725559 0.459427
Si Si8 0.474770 0.722571 0.178473
O O1 0.879793 0.351522 0.607295
O O2 0.716593 0.207780 0.330773
O O3 0.839930 0.136134 0.540220
O O4 0.599077 0.885555 0.716152
O O5 0.045679 0.404187 0.295763
O O6 0.126468 0.271733 0.371111
O O7 0.115584 0.481639 0.011140
O O8 0.860996 0.996730 0.320705
O O9 0.909147 0.662203 0.347391
O O10 0.306822 0.452560 0.895936
O O11 0.196407 0.263538 0.702044
O O12 0.000000 0.000000 0.000000
O O13 0.500000 0.500000 0.000000
O O14 0.488832 0.309863 0.912896
O O15 0.373655 0.997122 0.841543
O O16 0.374934 0.723789 0.025065
O O17 0.621095 0.492410 0.599081
#
# Coordination Sequence:
#
# PCOD9073548 Si02
#       8
#     2   2   2   2   2   2   2   2
#     4  11  24  42  64  98 134 169 219 274 334 389
#     4   9  19  36  62  91 127 166 211 265 317 386
#     4  10  23  42  66  93 133 172 216 271 325 395
#     4  11  24  41  69  97 129 173 221 266 330 396
#     4  12  27  44  65  96 136 176 219 274 336 391
#     4  10  21  40  67  97 127 169 223 273 332 391
#     4   9  20  36  62  95 125 164 219 261 319 387
#     4  10  22  41  67  94 133 176 219 271 328 400
#
# _framework density 21.727318
#
# number of rings (size 3 to 8) (size 9 to 14) (size 15 to 20)
#    0.000    1.750    0.000    3.000   10.500    4.500 
#    2.250    1.250    0.000    0.000    0.000    0.000 
#    0.000    0.000    0.000    0.000    0.000    0.000 
#
# Total GULP energy -89112.653983 kJ/mol
# GULP energy per Si atom -5569.540874 kJ/mol
# Density = 2.167787 g / cm^3
# Si number density = 21.727318 Si / 1000 Ang^3
#
#
#
# Elastic Constant Matrix: (Units=GPa)
#
#
# Indices 1 2 3 4 5 6 
#
# 1 85.8054 23.5851 27.7618 -14.1787 -29.5194 2.4461
# 2 23.5851 83.3786 47.9971 -20.0710 -21.8241 2.4535
# 3 27.7618 47.9971 135.9483 -31.2770 -53.6302 -1.5577
# 4 -14.1787 -20.0710 -31.2770 39.7160 18.2537 -10.7077
# 5 -29.5194 -21.8241 -53.6302 18.2537 46.9900 1.4225
# 6 2.4461 2.4535 -1.5577 -10.7077 1.4225 41.8452
#
#
#
# Elastic Compliance Matrix: (Units=1/GPa)
#
#
# Indices 1 2 3 4 5 6 
#
# 1 0.015512 -0.002612 0.002144 0.000756 0.010711 -0.000845
# 2 -0.002612 0.016098 -0.004612 0.004065 -0.001011 0.000112
# 3 0.002144 -0.004612 0.015522 0.003924 0.015359 0.001205
# 4 0.000756 0.004065 0.003924 0.036699 -0.007703 0.009516
# 5 0.010711 -0.001011 0.015359 -0.007703 0.048171 -0.003604
# 6 -0.000845 0.000112 0.001205 0.009516 -0.003604 0.026543
#
#
# Mechanical properties :
#
#
# Convention : Reuss Voigt Hill
#
# Bulk Modulus (GPa) = 27.04761 55.98003 41.51382
# Shear Modulus (GPa) = 27.61976 39.42948 33.52462
#
# Velocity S-wave (km/s) = 3.56926 4.26460 3.93233
# Velocity P-wave (km/s) = 5.42787 7.07600 6.30602
#
# Compressibility (1/GPa) = 0.03697184
#
# Stress axis : x y z
#
# Youngs Moduli (GPa) = 64.46519 62.11908 64.42489
#
# Poissons Ratio (x) = 0.16224 -0.13811
# Poissons Ratio (y) = 0.16836 0.29715
# Poissons Ratio (z) = -0.13820 0.28651
#
# Static dielectric constant tensor:
#      x y z
#    x 1.845160 -0.061450 0.003220 
#    y -0.061450 1.884260 0.016680 
#    z 0.003220 0.016680 1.791330 
# 
# From -- ./inp_files/332930.got.cif
#   From: 2010.05.17/outbox.ucp.g08.bks.cvg/sg2_167_cif.got.tgz:332930.got - 2010.06.11 11:32:03.
