data_PCOD9073250
_publ_section_title
;
Structure prediction by ZEFSAII (Michael W. Deem and Ramdas Pophale) SiO2 
 PCOD9073250
Probable space group: P -1
;
_chemical_formula_sum "Si O2"
_cell_formula_units_Z 16
_cell_length_a 11.664328
_cell_length_b 21.055754
_cell_length_c 23.354188
_cell_angle_alpha 26.405877
_cell_angle_beta 24.641021
_cell_angle_gamma 23.242799
_cell_volume 877.622117
_symmetry_space_group_name_H-M "P -1"
_symmetry_group_IT_number 2
_symmetry_cell_setting 'triclinic'
loop_
_space_group_symop_operation_xyz
x,y,z
-x,-y,-z
loop_
_atom_site_type_symbol
_atom_site_label
_atom_site_fract_x
_atom_site_fract_y
_atom_site_fract_z
Si Si1 0.665758 0.672394 0.332238
Si Si2 0.123577 0.814384 0.764801
Si Si3 0.191637 0.688104 0.010817
Si Si4 0.023243 0.953539 0.461114
Si Si5 0.229099 0.835112 0.290397
Si Si6 0.176217 0.300068 0.410069
Si Si7 0.750096 0.723036 0.741612
Si Si8 0.847776 0.665333 0.079906
O O1 0.401976 0.816547 0.378681
O O2 0.460786 0.696629 0.347280
O O3 0.969702 0.684868 0.164071
O O4 0.846852 0.483176 0.429442
O O5 0.493140 0.729260 0.690535
O O6 0.958957 0.745013 0.015124
O O7 0.879619 0.988071 0.772362
O O8 0.989578 0.694563 0.934415
O O9 0.500000 0.500000 0.000000
O O10 0.368046 0.782050 0.873254
O O11 0.112088 0.881625 0.652049
O O12 0.834261 0.858730 0.612014
O O13 0.000000 0.000000 0.500000
O O14 0.453215 0.775043 0.180645
O O15 0.896033 0.841746 0.426561
O O16 0.186522 0.306132 0.331690
O O17 0.980867 0.537049 0.819241
#
# Coordination Sequence:
#
# PCOD9073250 Si02
#       8
#     2   2   2   2   2   2   2   2
#     4  10  18  33  58  83 118 149 184 224 278 353
#     4  11  22  33  54  84 120 142 177 244 286 329
#     4   9  15  27  51  90 118 129 163 222 291 345
#     4  11  26  44  56  74 111 165 204 229 269 325
#     4  10  19  28  48  85 128 149 162 214 296 361
#     4  12  17  31  58  94 114 139 182 231 299 341
#     4  11  18  34  61  85 118 146 183 228 285 350
#     4  10  18  31  53  89 119 143 175 221 294 357
#
# _framework density 18.231082000000001
#
# number of rings (size 3 to 8) (size 9 to 14) (size 15 to 20)
#    0.000    1.500    7.500    2.625    0.000    0.000 
#    0.000    1.875    0.000    0.000    0.000    0.000 
#    0.000    0.000    0.000    0.000    0.000    0.000 
#
# Total GULP energy -89170.935961 kJ/mol
# GULP energy per Si atom -5573.183498 kJ/mol
# Density = 1.818959 g / cm^3
# Si number density = 18.231082 Si / 1000 Ang^3
#
#
#
# Elastic Constant Matrix: (Units=GPa)
#
#
# Indices 1 2 3 4 5 6 
#
# 1 67.3483 32.3549 38.3686 -3.7694 17.2859 8.2801
# 2 32.3549 45.9543 21.3419 13.0143 -0.9274 2.0443
# 3 38.3686 21.3419 119.4090 20.3670 11.6569 7.9181
# 4 -3.7694 13.0143 20.3670 25.7646 -11.2073 3.6685
# 5 17.2859 -0.9274 11.6569 -11.2073 20.3715 2.0496
# 6 8.2801 2.0443 7.9181 3.6685 2.0496 19.7282
#
#
#
# Elastic Compliance Matrix: (Units=1/GPa)
#
#
# Indices 1 2 3 4 5 6 
#
# 1 0.044488 -0.033664 -0.009903 0.025416 -0.018221 -0.014042
# 2 -0.033664 0.052079 0.005818 -0.034248 0.007560 0.011981
# 3 -0.009903 0.005818 0.015443 -0.022623 -0.012907 0.002903
# 4 0.025416 -0.034248 -0.022623 0.101709 0.047983 -0.021937
# 5 -0.018221 0.007560 -0.012907 0.047983 0.099401 -0.007206
# 6 -0.014042 0.011981 0.002903 -0.021937 -0.007206 0.059004
#
#
# Mechanical properties :
#
#
# Convention : Reuss Voigt Hill
#
# Bulk Modulus (GPa) = 27.38881 46.31581 36.85231
# Shear Modulus (GPa) = 10.87441 22.54927 16.71184
#
# Velocity S-wave (km/s) = 2.44494 3.52072 3.03094
# Velocity P-wave (km/s) = 4.79855 6.47976 5.70146
#
# Compressibility (1/GPa) = 0.03651126
#
# Stress axis : x y z
#
# Youngs Moduli (GPa) = 22.47778 19.20145 64.75389
#
# Poissons Ratio (x) = 0.64640 0.64128
# Poissons Ratio (y) = 0.75670 -0.37673
# Poissons Ratio (z) = 0.22261 -0.11171
#
# Static dielectric constant tensor:
#      x y z
#    x 1.615700 -0.054160 0.025520 
#    y -0.054160 1.653200 -0.007290 
#    z 0.025520 -0.007290 1.738510 
# 
# From -- ./inp_files/623686.got.cif
#   From: 2010.05.17/outbox.cif.g08.bks.cpg/sg2_312_cif.got.tgz:623686.got - 2010.06.03 11:33:40.
