data_PCOD9073759
_publ_section_title
;
Structure prediction by ZEFSAII (Michael W. Deem and Ramdas Pophale) SiO2 
 PCOD9073759
Probable space group: P -1
;
_chemical_formula_sum "Si O2"
_cell_formula_units_Z 16
_cell_length_a 12.000000
_cell_length_b 27.000000
_cell_length_c 9.000000
_cell_angle_alpha 30.000000
_cell_angle_beta 40.000000
_cell_angle_gamma 30.000000
_cell_volume 727.497153
_symmetry_space_group_name_H-M "P -1"
_symmetry_group_IT_number 2
_symmetry_cell_setting 'triclinic'
loop_
_space_group_symop_operation_xyz
x,y,z
-x,-y,-z
loop_
_atom_site_type_symbol
_atom_site_label
_atom_site_fract_x
_atom_site_fract_y
_atom_site_fract_z
Si Si1 0.379373 0.147573 0.261554
Si Si2 0.588464 0.765636 0.686873
Si Si3 0.797752 0.514440 0.256087
Si Si4 0.952035 0.266195 0.182488
Si Si5 0.053440 0.252751 0.766813
Si Si6 0.648067 0.195404 0.672653
Si Si7 0.224076 0.975393 0.297869
Si Si8 0.225647 0.472052 0.393271
O O1 0.329776 0.199977 0.343463
O O2 0.159884 0.221364 0.190204
O O3 0.500000 0.000000 0.500000
O O4 0.557236 0.164518 0.981217
O O5 0.769063 0.721931 0.487388
O O6 0.374801 0.894990 0.496427
O O7 0.592552 0.649374 0.038214
O O8 0.777065 0.532892 0.409395
O O9 0.852049 0.376070 0.556800
O O10 0.000000 0.500000 0.000000
O O11 0.850908 0.195382 0.505621
O O12 0.777412 0.419262 0.962909
O O13 0.006179 0.246639 0.002447
O O14 0.170068 0.109128 0.971776
O O15 0.687105 0.107120 0.727182
O O16 0.443940 0.338481 0.462780
O O17 0.000000 0.000000 0.500000
O O18 0.000000 0.500000 0.500000
#
# Coordination Sequence:
#
# PCOD9073759 Si02
#       8
#     2   2   2   2   2   2   2   2
#     4  12  25  43  68 102 141 183 227 288 357 401
#     4  11  22  43  68 100 134 176 234 285 347 412
#     4   9  20  37  68  98 130 169 226 290 342 402
#     4  11  23  44  71 101 136 181 236 284 341 416
#     4  10  21  43  69  95 132 180 232 279 336 419
#     4  12  25  44  71 102 140 182 232 286 341 420
#     4  12  25  44  66  97 138 184 232 275 338 417
#     4  11  21  42  72 101 134 180 231 283 348 413
#
# _framework density 21.993213000000001
#
# number of rings (size 3 to 8) (size 9 to 14) (size 15 to 20)
#    0.000    1.000    3.750    3.000    3.500    0.500 
#    2.250    0.625    0.000    0.000    0.000    0.000 
#    0.000    0.000    0.000    0.000    0.000    0.000 
#
# Total GULP energy -89189.298476 kJ/mol
# GULP energy per Si atom -5574.331155 kJ/mol
# Density = 2.194316 g / cm^3
# Si number density = 21.993213 Si / 1000 Ang^3
#
#
#
# Elastic Constant Matrix: (Units=GPa)
#
#
# Indices 1 2 3 4 5 6 
#
# 1 28.1735 8.2245 39.4996 3.8697 -16.9192 -0.2394
# 2 8.2245 75.9905 31.6139 -25.5366 -2.4394 11.1267
# 3 39.4996 31.6139 160.0847 -24.8753 4.2226 -17.5995
# 4 3.8697 -25.5366 -24.8753 50.0579 0.5495 -6.1545
# 5 -16.9192 -2.4394 4.2226 0.5495 11.6825 1.9970
# 6 -0.2394 11.1267 -17.5995 -6.1545 1.9970 21.4051
#
#
#
# Elastic Compliance Matrix: (Units=1/GPa)
#
#
# Indices 1 2 3 4 5 6 
#
# 1 -0.051501 -0.006077 0.022868 0.017535 -0.090912 0.034908
# 2 -0.006077 0.018340 -0.001723 0.007970 -0.003284 -0.008420
# 3 0.022868 -0.001723 -0.001018 -0.004019 0.034002 -0.004014
# 4 0.017535 0.007970 -0.004019 0.019866 0.028292 -0.004179
# 5 -0.090912 -0.003284 0.034002 0.028292 -0.067739 0.043101
# 6 0.034908 -0.008420 -0.004014 -0.004179 0.043101 0.042962
#
#
# Mechanical properties :
#
#
# Convention : Reuss Voigt Hill
#
# Bulk Modulus (GPa) = -247.35006 46.99164 -100.17921
# Shear Modulus (GPa) = -70.84754 28.95649 -20.94552
#
# Velocity S-wave (km/s) = -5.68184 3.63245 -3.08939
# Velocity P-wave (km/s) = 12.48019 6.24546 7.64033
#
# Compressibility (1/GPa) = -0.00404285
#
# Stress axis : x y z
#
# Youngs Moduli (GPa) = -19.41728 54.52594 -982.08712
#
# Poissons Ratio (x) = 0.33135 22.45825
# Poissons Ratio (y) = -0.11800 -1.69201
# Poissons Ratio (z) = 0.44403 0.09394
#
# Static dielectric constant tensor:
#      x y z
#    x 1.783540 -0.035450 -0.003600 
#    y -0.035450 1.888740 -0.048490 
#    z -0.003600 -0.048490 1.844840 
# 
# From -- ./inp_files/285766.got.cif
#   From: 2010.05.17/outbox.ucp.g08.bks.cvg/sg2_143_cif.got.tgz:285766.got - 2010.06.11 11:32:03.
