data_PCOD9073528
_publ_section_title
;
Structure prediction by ZEFSAII (Michael W. Deem and Ramdas Pophale) SiO2 
 PCOD9073528
Probable space group: P -1
;
_chemical_formula_sum "Si O2"
_cell_formula_units_Z 16
_cell_length_a 9.000000
_cell_length_b 12.000000
_cell_length_c 15.000000
_cell_angle_alpha 120.000000
_cell_angle_beta 120.000000
_cell_angle_gamma 110.000000
_cell_volume 745.925389
_symmetry_space_group_name_H-M "P -1"
_symmetry_group_IT_number 2
_symmetry_cell_setting 'triclinic'
loop_
_space_group_symop_operation_xyz
x,y,z
-x,-y,-z
loop_
_atom_site_type_symbol
_atom_site_label
_atom_site_fract_x
_atom_site_fract_y
_atom_site_fract_z
Si Si1 0.692202 0.343353 0.806427
Si Si2 0.316510 0.305628 0.798519
Si Si3 0.833010 0.686952 0.679997
Si Si4 0.835191 0.988924 0.252360
Si Si5 0.096913 0.298919 0.088436
Si Si6 0.018849 0.512434 0.405211
Si Si7 0.535000 0.390238 0.142467
Si Si8 0.525786 0.009294 0.296661
O O1 0.528772 0.336616 0.824554
O O2 0.749155 0.468950 0.787278
O O3 0.534192 0.112546 0.680875
O O4 0.000000 0.500000 0.000000
O O5 0.077575 0.073955 0.677130
O O6 0.246512 0.370811 0.729877
O O7 0.500000 0.500000 0.000000
O O8 0.500000 0.500000 0.500000
O O9 0.912774 0.759483 0.836533
O O10 0.940888 0.606876 0.664857
O O11 0.957240 0.841005 0.694828
O O12 0.689874 0.016914 0.276004
O O13 0.599529 0.770914 0.041628
O O14 0.289331 0.315035 0.094222
O O15 0.780848 0.129506 0.888334
O O16 0.000000 0.500000 0.500000
O O17 0.721277 0.397311 0.249019
O O18 0.272676 0.748908 0.537644
#
# Coordination Sequence:
#
# PCOD9073528 Si02
#       8
#     2   2   2   2   2   2   2   2
#     4   8  16  35  60  89 120 155 199 244 295 357
#     4   8  16  35  61  91 115 150 203 251 288 353
#     4  12  27  43  60  88 127 163 205 253 305 359
#     4  10  21  40  66  89 120 166 206 245 300 364
#     4  10  22  40  65  91 125 162 203 244 302 371
#     4  12  25  42  61  90 128 156 205 258 304 354
#     4  10  22  40  66  96 120 158 203 252 303 362
#     4  10  21  40  66  92 120 164 203 250 302 357
#
# _framework density 21.449867000000001
#
# number of rings (size 3 to 8) (size 9 to 14) (size 15 to 20)
#    0.000    2.000    1.250    1.500    3.500    2.500 
#    2.250    2.500    0.000    0.000    0.000    0.000 
#    0.000    0.000    0.000    0.000    0.000    0.000 
#
# Total GULP energy -89154.523298 kJ/mol
# GULP energy per Si atom -5572.157706 kJ/mol
# Density = 2.140105 g / cm^3
# Si number density = 21.449867 Si / 1000 Ang^3
#
#
#
# Elastic Constant Matrix: (Units=GPa)
#
#
# Indices 1 2 3 4 5 6 
#
# 1 30.6979 21.9064 2.8122 -14.8941 2.4291 -12.0745
# 2 21.9064 85.8436 -5.8565 25.4649 8.8251 12.2640
# 3 2.8122 -5.8565 18.9849 6.4664 8.1372 -3.2212
# 4 -14.8941 25.4649 6.4664 36.9025 -2.8980 5.8009
# 5 2.4291 8.8251 8.1372 -2.8980 27.8118 0.8635
# 6 -12.0745 12.2640 -3.2212 5.8009 0.8635 31.8547
#
#
#
# Elastic Compliance Matrix: (Units=1/GPa)
#
#
# Indices 1 2 3 4 5 6 
#
# 1 -0.155454 0.113077 0.136462 -0.161780 -0.077315 -0.057103
# 2 0.113077 -0.062715 -0.082291 0.100580 0.043365 0.039194
# 3 0.136462 -0.082291 -0.035805 0.111646 0.034486 0.058521
# 4 -0.161780 0.100580 0.111646 -0.121761 -0.061123 -0.064925
# 5 -0.077315 0.043365 0.034486 -0.061123 0.013475 -0.031748
# 6 -0.057103 0.039194 0.058521 -0.064925 -0.031748 0.013260
#
#
# Mechanical properties :
#
#
# Convention : Reuss Voigt Hill
#
# Bulk Modulus (GPa) = 12.41902 19.25006 15.83454
# Shear Modulus (GPa) = -7.61435 27.09143 9.73854
#
# Velocity S-wave (km/s) = -1.88614 3.55774 2.13307
# Velocity P-wave (km/s) = 1.02906 5.08632 3.66944
#
# Compressibility (1/GPa) = 0.08052164
#
# Stress axis : x y z
#
# Youngs Moduli (GPa) = -6.43279 -15.94511 -27.92909
#
# Poissons Ratio (x) = 1.80303 3.81126
# Poissons Ratio (y) = 0.72740 -2.29832
# Poissons Ratio (z) = 0.87783 -1.31214
#
# Static dielectric constant tensor:
#      x y z
#    x 1.734980 0.022620 -0.055180 
#    y 0.022620 1.954940 -0.047800 
#    z -0.055180 -0.047800 1.802840 
# 
# From -- ./inp_files/184848.got.cif
#   From: 2010.05.17/outbox.ucp.g08.bks.cvg/sg2_93_cif.got.tgz:184848.got - 2010.06.11 11:32:03.
