data_PCOD9073317
_publ_section_title
;
Structure prediction by ZEFSAII (Michael W. Deem and Ramdas Pophale) SiO2 
 PCOD9073317
Probable space group: P -1
;
_chemical_formula_sum "Si O2"
_cell_formula_units_Z 13
_cell_length_a 8.767317
_cell_length_b 5.494350
_cell_length_c 21.697964
_cell_angle_alpha 85.729249
_cell_angle_beta 151.369698
_cell_angle_gamma 96.425167
_cell_volume 497.051658
_symmetry_space_group_name_H-M "P -1"
_symmetry_group_IT_number 2
_symmetry_cell_setting 'triclinic'
loop_
_space_group_symop_operation_xyz
x,y,z
-x,-y,-z
loop_
_atom_site_type_symbol
_atom_site_label
_atom_site_fract_x
_atom_site_fract_y
_atom_site_fract_z
Si Si1 0.282630 0.728793 0.875048
Si Si2 0.476413 0.312412 0.591876
Si Si3 0.223715 0.236286 0.783346
Si Si4 0.933682 0.285579 0.057482
Si Si5 0.946420 0.215889 0.871772
Si Si6 0.000000 0.000000 0.500000
Si Si7 0.666067 0.174666 0.492894
O O1 0.193200 0.480477 0.809019
O O2 0.164075 0.714917 0.903696
O O3 0.158014 0.973306 0.798700
O O4 0.673119 0.769794 0.010326
O O5 0.523011 0.586322 0.577801
O O6 0.722892 0.258237 0.734014
O O7 0.127652 0.245901 0.499162
O O8 0.494213 0.106428 0.549146
O O9 0.002250 0.230372 0.645742
O O10 0.600836 0.246141 0.904841
O O11 0.091232 0.559137 0.100419
O O12 0.134309 0.055361 0.124306
O O13 0.237381 0.850517 0.544707
#
# Coordination Sequence:
#
# PCOD9073317 Si02
#       7
#     2   2   2   2   2   1   2
#     4  10  19  33  55  78 103 143 177 205 248 298
#     4  10  20  35  55  80 101 133 176 209 262 309
#     4  10  18  31  54  79 104 133 178 212 248 302
#     4  10  19  33  55  78 103 143 177 205 248 298
#     4  10  18  31  54  79 104 133 178 212 248 302
#     4   8  22  36  58  76  94 140 174 208 258 318
#     4  10  20  35  55  80 101 133 176 209 262 309
#
# _framework density 26.154223999999999
#
# number of rings (size 3 to 8) (size 9 to 14) (size 15 to 20)
#    0.923    1.231    0.000    6.923    0.000    0.000 
#    0.000    0.000    0.000   38.769    0.000    0.000 
#    0.000    0.000    0.000    0.000    0.000    0.000 
#
# Total GULP energy -72468.295428 kJ/mol
# GULP energy per Si atom -5574.484264 kJ/mol
# Density = 2.609470 g / cm^3
# Si number density = 26.154224 Si / 1000 Ang^3
#
#
#
# Elastic Constant Matrix: (Units=GPa)
#
#
# Indices 1 2 3 4 5 6 
#
# 1 31.4886 33.6615 0.4632 1.1135 -10.8917 12.9816
# 2 33.6615 275.4460 74.0589 -10.7678 6.2981 -32.2467
# 3 0.4632 74.0589 157.5146 -10.2757 -18.9345 -15.7543
# 4 1.1135 -10.7678 -10.2757 45.5751 -4.8614 -2.5651
# 5 -10.8917 6.2981 -18.9345 -4.8614 -16.6041 9.4789
# 6 12.9816 -32.2467 -15.7543 -2.5651 9.4789 29.6117
#
#
#
# Elastic Compliance Matrix: (Units=1/GPa)
#
#
# Indices 1 2 3 4 5 6 
#
# 1 0.033222 -0.004480 -0.002825 -0.006021 -0.026009 -0.013142
# 2 -0.004480 0.004824 -0.000744 0.002149 0.007599 0.004575
# 3 -0.002825 -0.000744 0.006898 0.001365 -0.003624 0.005377
# 4 -0.006021 0.002149 0.001365 0.023398 0.000654 0.007524
# 5 -0.026009 0.007599 -0.003624 0.000654 -0.022132 0.024890
# 6 -0.013142 0.004575 0.005377 0.007524 0.024890 0.040059
#
#
# Mechanical properties :
#
#
# Convention : Reuss Voigt Hill
#
# Bulk Modulus (GPa) = 34.66594 75.64626 55.15610
# Shear Modulus (GPa) = 44.65072 35.46759 40.05915
#
# Velocity S-wave (km/s) = 4.13632 3.68651 3.91788
# Velocity P-wave (km/s) = 6.00795 6.86341 6.44988
#
# Compressibility (1/GPa) = 0.02884676
#
# Stress axis : x y z
#
# Youngs Moduli (GPa) = 30.10046 207.30854 144.97653
#
# Poissons Ratio (x) = 0.92865 0.40959
# Poissons Ratio (y) = 0.13484 0.10780
# Poissons Ratio (z) = 0.08504 0.15415
#
# Static dielectric constant tensor:
#      x y z
#    x 2.031990 0.045600 -0.043560 
#    y 0.045600 2.254410 0.046260 
#    z -0.043560 0.046260 2.077980 
# 
# From -- ./inp_files/132346.got.cif
#   From: 2010.05.17/outbox.cif.g08.bks.cpg/sg2_67_cif.got.tgz:132346.got - 2010.06.03 11:33:40.
