data_PCOD9073351
_publ_section_title
;
Structure prediction by ZEFSAII (Michael W. Deem and Ramdas Pophale) SiO2 
 PCOD9073351
Probable space group: P -1
;
_chemical_formula_sum "Si O2"
_cell_formula_units_Z 14
_cell_length_a 15.000000
_cell_length_b 15.000000
_cell_length_c 15.000000
_cell_angle_alpha 160.000000
_cell_angle_beta 40.000000
_cell_angle_gamma 140.000000
_cell_volume 725.414092
_symmetry_space_group_name_H-M "P -1"
_symmetry_group_IT_number 2
_symmetry_cell_setting 'triclinic'
loop_
_space_group_symop_operation_xyz
x,y,z
-x,-y,-z
loop_
_atom_site_type_symbol
_atom_site_label
_atom_site_fract_x
_atom_site_fract_y
_atom_site_fract_z
Si Si1 0.342212 0.909402 0.583841
Si Si2 0.288109 0.325331 0.162724
Si Si3 0.976285 0.188114 0.352085
Si Si4 0.388255 0.052309 0.994761
Si Si5 0.140721 0.507726 0.843398
Si Si6 0.333002 0.083518 0.272141
Si Si7 0.083894 0.688356 0.864428
O O1 0.329980 0.628144 0.380474
O O2 0.188429 0.868291 0.608678
O O3 0.500000 0.000000 0.500000
O O4 0.332867 0.136923 0.876370
O O5 0.114873 0.233623 0.221729
O O6 0.371952 0.273623 0.140869
O O7 0.014513 0.467432 0.638549
O O8 0.002904 0.934649 0.151757
O O9 0.529125 0.928052 0.783201
O O10 0.251535 0.824851 0.856751
O O11 0.371889 0.158988 0.208927
O O12 0.227711 0.271138 0.561507
O O13 0.085145 0.534838 0.811620
O O14 0.000000 0.500000 0.000000
O O15 0.248821 0.779576 0.042439
#
# Coordination Sequence:
#
# PCOD9073351 Si02
#       7
#     2   2   2   2   2   2   2
#     4  12  26  44  62  93 133 162 202 268 325 372
#     4  11  22  41  69  93 122 164 218 256 306 386
#     4  11  22  42  68  91 118 167 217 256 315 368
#     4   9  21  40  65  99 122 157 214 266 315 351
#     4  11  22  39  57  88 130 171 209 240 309 378
#     4  10  22  38  64  91 130 162 201 268 310 353
#     4  10  21  38  65  91 121 160 208 262 298 371
#
# _framework density 19.299322
#
# number of rings (size 3 to 8) (size 9 to 14) (size 15 to 20)
#    0.000    1.429    0.000    6.857    0.000    9.714 
#    7.714    0.000    0.000    0.000    0.000    0.000 
#    0.000    0.000    0.000    0.000    0.000    0.000 
#
# Total GULP energy -78059.459018 kJ/mol
# GULP energy per Si atom -5575.675644 kJ/mol
# Density = 1.925540 g / cm^3
# Si number density = 19.299322 Si / 1000 Ang^3
#
#
#
# Elastic Constant Matrix: (Units=GPa)
#
#
# Indices 1 2 3 4 5 6 
#
# 1 161.8941 50.6691 43.7145 -0.8765 -28.0162 21.5221
# 2 50.6691 81.9777 22.6833 -20.9136 -11.1500 15.4382
# 3 43.7145 22.6833 130.9327 -1.7655 -18.0842 7.5362
# 4 -0.8765 -20.9136 -1.7655 28.8125 6.9960 -6.8016
# 5 -28.0162 -11.1500 -18.0842 6.9960 34.8412 -1.2985
# 6 21.5221 15.4382 7.5362 -6.8016 -1.2985 23.8162
#
#
#
# Elastic Compliance Matrix: (Units=1/GPa)
#
#
# Indices 1 2 3 4 5 6 
#
# 1 0.010398 -0.005650 -0.001202 -0.007249 0.007123 -0.007036
# 2 -0.005650 0.020064 -0.001445 0.013896 -0.001795 -0.003572
# 3 -0.001202 -0.001445 0.008800 -0.001623 0.003426 -0.001039
# 4 -0.007249 0.013896 -0.001623 0.050118 -0.011851 0.011724
# 5 0.007123 -0.001795 0.003426 -0.011851 0.037726 -0.007685
# 6 -0.007036 -0.003572 -0.001039 0.011724 -0.007685 0.053920
#
#
# Mechanical properties :
#
#
# Convention : Reuss Voigt Hill
#
# Bulk Modulus (GPa) = 44.11197 67.65979 55.88588
# Shear Modulus (GPa) = 24.36924 34.67648 29.52286
#
# Velocity S-wave (km/s) = 3.55730 4.24343 3.91543
# Velocity P-wave (km/s) = 6.30705 7.69046 7.03285
#
# Compressibility (1/GPa) = 0.02266959
#
# Stress axis : x y z
#
# Youngs Moduli (GPa) = 96.16802 49.84089 113.63425
#
# Poissons Ratio (x) = 0.28160 0.13657
# Poissons Ratio (y) = 0.54335 0.16415
# Poissons Ratio (z) = 0.11558 0.07200
#
# Static dielectric constant tensor:
#      x y z
#    x 1.679300 -0.033580 0.009530 
#    y -0.033580 1.743530 -0.012130 
#    z 0.009530 -0.012130 1.682140 
# 
# From -- ./inp_files/134187.got.cif
#   From: 2010.05.17/outbox.ucp.g08.bks.cvg/sg2_68_cif.got.tgz:134187.got - 2010.06.11 11:32:03.
