data_PCOD9073457
_publ_section_title
;
Structure prediction by ZEFSAII (Michael W. Deem and Ramdas Pophale) SiO2 
 PCOD9073457
Probable space group: P -1
;
_chemical_formula_sum "Si O2"
_cell_formula_units_Z 16
_cell_length_a 15.000000
_cell_length_b 12.000000
_cell_length_c 9.000000
_cell_angle_alpha 80.000000
_cell_angle_beta 90.000000
_cell_angle_gamma 150.000000
_cell_volume 759.581896
_symmetry_space_group_name_H-M "P -1"
_symmetry_group_IT_number 2
_symmetry_cell_setting 'triclinic'
loop_
_space_group_symop_operation_xyz
x,y,z
-x,-y,-z
loop_
_atom_site_type_symbol
_atom_site_label
_atom_site_fract_x
_atom_site_fract_y
_atom_site_fract_z
Si Si1 0.832893 0.027876 0.184964
Si Si2 0.614752 0.428464 0.160616
Si Si3 0.472771 0.478197 0.328504
Si Si4 0.580186 0.016891 0.711076
Si Si5 0.961217 0.398151 0.680624
Si Si6 0.690818 0.094406 0.345101
Si Si7 0.989499 0.188013 0.820308
Si Si8 0.162002 0.221994 0.196932
O O1 0.758576 0.051058 0.280893
O O2 0.991226 0.121309 0.236628
O O3 0.650919 0.749728 0.214094
O O4 0.920722 0.150859 0.993379
O O5 0.487307 0.375220 0.263767
O O6 0.526206 0.209700 0.172849
O O7 0.790766 0.592435 0.225177
O O8 0.697809 0.576161 0.977374
O O9 0.500000 0.500000 0.500000
O O10 0.282375 0.329597 0.318320
O O11 0.475886 0.020207 0.703725
O O12 0.764296 0.231099 0.761452
O O13 0.630690 0.031221 0.536314
O O14 0.947856 0.248418 0.702600
O O15 0.000000 0.500000 0.500000
O O16 0.130781 0.623273 0.731608
O O17 0.905015 0.974218 0.820611
#
# Coordination Sequence:
#
# PCOD9073457 Si02
#       8
#     2   2   2   2   2   2   2   2
#     4  11  24  42  63  98 133 167 219 269 323 383
#     4  11  20  42  70  95 127 175 220 260 327 391
#     4  12  25  41  65 100 132 167 213 272 327 383
#     4  10  21  39  67  90 124 174 218 264 324 383
#     4  10  22  40  64  93 122 173 222 258 320 386
#     4  10  22  42  60  90 135 167 214 272 319 379
#     4  11  21  43  70  91 130 177 217 268 318 391
#     4  11  24  44  69  94 131 176 215 261 329 398
#
# _framework density 21.064219999999999
#
# number of rings (size 3 to 8) (size 9 to 14) (size 15 to 20)
#    0.000    1.250    3.750    2.625    1.750    3.000 
#    4.500    0.625    0.000    0.000    0.000    0.000 
#    0.000    0.000    0.000    0.000    0.000    0.000 
#
# Total GULP energy -89261.466709 kJ/mol
# GULP energy per Si atom -5578.841669 kJ/mol
# Density = 2.101628 g / cm^3
# Si number density = 21.064220 Si / 1000 Ang^3
#
#
#
# Elastic Constant Matrix: (Units=GPa)
#
#
# Indices 1 2 3 4 5 6 
#
# 1 174.9227 29.6276 43.4334 3.0361 1.2650 6.9141
# 2 29.6276 57.2929 5.1371 -11.7256 8.2870 23.4780
# 3 43.4334 5.1371 24.7298 -1.4294 0.5014 -4.4030
# 4 3.0361 -11.7256 -1.4294 22.9657 -6.3954 4.1518
# 5 1.2650 8.2870 0.5014 -6.3954 33.9730 6.0205
# 6 6.9141 23.4780 -4.4030 4.1518 6.0205 36.4015
#
#
#
# Elastic Compliance Matrix: (Units=1/GPa)
#
#
# Indices 1 2 3 4 5 6 
#
# 1 0.011580 -0.004924 -0.019770 -0.005040 0.000270 -0.000885
# 2 -0.004924 0.034704 -0.001578 0.022754 0.000329 -0.024289
# 3 -0.019770 -0.001578 0.078250 0.003605 -0.001860 0.014134
# 4 -0.005040 0.022754 0.003605 0.062947 0.010364 -0.022176
# 5 0.000270 0.000329 -0.001860 0.010364 0.032574 -0.007058
# 6 -0.000885 -0.024289 0.014134 -0.022176 -0.007058 0.048711
#
#
# Mechanical properties :
#
#
# Convention : Reuss Voigt Hill
#
# Bulk Modulus (GPa) = 13.89049 45.92685 29.90867
# Shear Modulus (GPa) = 14.47990 30.58453 22.53222
#
# Velocity S-wave (km/s) = 2.62471 3.81460 3.27416
# Velocity P-wave (km/s) = 3.97418 6.42278 5.34071
#
# Compressibility (1/GPa) = 0.07199170
#
# Stress axis : x y z
#
# Youngs Moduli (GPa) = 86.35442 28.81496 12.77954
#
# Poissons Ratio (x) = 0.14187 0.25265
# Poissons Ratio (y) = 0.42517 0.02016
# Poissons Ratio (z) = 1.70724 0.04546
#
# Static dielectric constant tensor:
#      x y z
#    x 1.750210 0.051790 0.013870 
#    y 0.051790 1.943730 -0.115240 
#    z 0.013870 -0.115240 1.873390 
# 
# From -- ./inp_files/273714.got.cif
#   From: 2010.05.17/outbox.ucp.g08.bks.cvg/sg2_137_cif.got.tgz:273714.got - 2010.06.11 11:32:03.
