data_PCOD9073944
_publ_section_title
;
Structure prediction by ZEFSAII (Michael W. Deem and Ramdas Pophale) SiO2 
 PCOD9073944
Probable space group: P -1
;
_chemical_formula_sum "Si O2"
_cell_formula_units_Z 16
_cell_length_a 9.000000
_cell_length_b 9.000000
_cell_length_c 15.000000
_cell_angle_alpha 120.000000
_cell_angle_beta 60.000000
_cell_angle_gamma 80.000000
_cell_volume 751.948787
_symmetry_space_group_name_H-M "P -1"
_symmetry_group_IT_number 2
_symmetry_cell_setting 'triclinic'
loop_
_space_group_symop_operation_xyz
x,y,z
-x,-y,-z
loop_
_atom_site_type_symbol
_atom_site_label
_atom_site_fract_x
_atom_site_fract_y
_atom_site_fract_z
Si Si1 0.473700 0.712384 0.915631
Si Si2 0.816870 0.257108 0.712895
Si Si3 0.822819 0.871051 0.292853
Si Si4 0.610556 0.726899 0.444064
Si Si5 0.776329 0.301644 0.181217
Si Si6 0.626108 0.936276 0.819717
Si Si7 0.806507 0.893663 0.098191
Si Si8 0.829020 0.852298 0.559371
O O1 0.620893 0.491727 0.852951
O O2 0.341968 0.683769 0.871518
O O3 0.605777 0.783911 0.844694
O O4 0.353265 0.900687 0.079812
O O5 0.974964 0.185370 0.728162
O O6 0.949867 0.253894 0.587585
O O7 0.755156 0.095273 0.659424
O O8 0.716761 0.767687 0.341760
O O9 0.852669 0.815679 0.162740
O O10 0.638111 0.114651 0.431791
O O11 0.671062 0.497012 0.337626
O O12 0.697156 0.789312 0.521269
O O13 0.793670 0.108426 0.166320
O O14 0.000438 0.249317 0.068567
O O15 0.407549 0.059644 0.865581
O O16 0.808829 0.809862 0.655363
#
# Coordination Sequence:
#
# PCOD9073944 Si02
#       8
#     2   2   2   2   2   2   2   2
#     4  10  24  43  63  90 127 163 205 252 307 362
#     4  10  24  41  61  93 127 163 201 250 310 368
#     4  10  22  40  62  91 124 161 202 253 308 359
#     4  10  22  41  63  92 124 162 203 256 308 360
#     4  10  24  41  66  91 123 162 207 257 303 359
#     4  10  22  44  66  89 123 163 206 258 301 362
#     4  10  22  44  63  93 121 161 210 256 303 358
#     4  10  22  42  62  93 124 163 202 251 309 360
#
# _framework density 21.278044999999999
#
# number of rings (size 3 to 8) (size 9 to 14) (size 15 to 20)
#    0.000    2.000    1.250    0.000   12.250    2.000 
#    0.000    0.000    0.000    0.000    0.000    0.000 
#    0.000    0.000    0.000    0.000    0.000    0.000 
#
# Total GULP energy -89376.683486 kJ/mol
# GULP energy per Si atom -5586.042718 kJ/mol
# Density = 2.122962 g / cm^3
# Si number density = 21.278045 Si / 1000 Ang^3
#
#
#
# Elastic Constant Matrix: (Units=GPa)
#
#
# Indices 1 2 3 4 5 6 
#
# 1 76.2965 0.6971 6.0651 7.4299 17.4297 -0.4614
# 2 0.6971 26.8129 23.7713 -3.2586 9.1118 -7.6417
# 3 6.0651 23.7713 37.1773 5.8816 20.3118 1.4791
# 4 7.4299 -3.2586 5.8816 46.0004 0.9717 6.2609
# 5 17.4297 9.1118 20.3118 0.9717 33.0327 -3.0675
# 6 -0.4614 -7.6417 1.4791 6.2609 -3.0675 20.7002
#
#
#
# Elastic Compliance Matrix: (Units=1/GPa)
#
#
# Indices 1 2 3 4 5 6 
#
# 1 0.015470 -0.002458 0.005583 -0.002922 -0.010990 -0.001706
# 2 -0.002458 0.164647 -0.135372 0.018690 0.045206 0.071445
# 3 0.005583 -0.135372 0.154275 -0.020036 -0.065875 -0.064575
# 4 -0.002922 0.018690 -0.020036 0.025695 0.008109 0.001696
# 5 -0.010990 0.045206 -0.065875 0.008109 0.066522 0.028555
# 6 -0.001706 0.071445 -0.064575 0.001696 0.028555 0.082978
#
#
# Mechanical properties :
#
#
# Convention : Reuss Voigt Hill
#
# Bulk Modulus (GPa) = 14.30697 22.37262 18.33979
# Shear Modulus (GPa) = 6.27052 27.26354 16.76703
#
# Velocity S-wave (km/s) = 1.71853 3.58341 2.81017
# Velocity P-wave (km/s) = 3.26745 5.25912 4.37804
#
# Compressibility (1/GPa) = 0.06989603
#
# Stress axis : x y z
#
# Youngs Moduli (GPa) = 64.63980 6.07361 6.48193
#
# Poissons Ratio (x) = 0.01493 -0.03619
# Poissons Ratio (y) = 0.15890 0.87747
# Poissons Ratio (z) = -0.36086 0.82220
#
# Static dielectric constant tensor:
#      x y z
#    x 1.746440 -0.014200 -0.015200 
#    y -0.014200 1.791180 -0.015280 
#    z -0.015200 -0.015280 1.772630 
# 
# From -- ./inp_files/495562.got.cif
#   From: 2010.05.17/outbox.ucp.g08.bks.cvg/sg2_248_cif.got.tgz:495562.got - 2010.06.11 11:32:03.
