data_PCOD9073927
_publ_section_title
;
Structure prediction by ZEFSAII (Michael W. Deem and Ramdas Pophale) SiO2 
 PCOD9073927
Probable space group: P -1
;
_chemical_formula_sum "Si O2"
_cell_formula_units_Z 12
_cell_length_a 9.000000
_cell_length_b 15.000000
_cell_length_c 9.000000
_cell_angle_alpha 50.000000
_cell_angle_beta 90.000000
_cell_angle_gamma 50.000000
_cell_volume 506.304040
_symmetry_space_group_name_H-M "P -1"
_symmetry_group_IT_number 2
_symmetry_cell_setting 'triclinic'
loop_
_space_group_symop_operation_xyz
x,y,z
-x,-y,-z
loop_
_atom_site_type_symbol
_atom_site_label
_atom_site_fract_x
_atom_site_fract_y
_atom_site_fract_z
Si Si1 0.679370 0.195930 0.805353
Si Si2 0.242559 0.332696 0.800253
Si Si3 0.015157 0.680196 0.613375
Si Si4 0.423752 0.002145 0.332252
Si Si5 0.524540 0.479355 0.312924
Si Si6 0.968888 0.155468 0.286345
O O1 0.528996 0.180395 0.884142
O O2 0.526393 0.343025 0.500653
O O3 0.609300 0.345703 0.757928
O O4 0.000000 0.000000 0.000000
O O5 0.208334 0.446027 0.816476
O O6 0.000000 0.500000 0.500000
O O7 0.247716 0.205817 0.014655
O O8 0.158728 0.687649 0.509538
O O9 0.017447 0.750168 0.692055
O O10 0.718736 0.816374 0.451468
O O11 0.233240 0.014345 0.336494
O O12 0.500000 0.000000 0.500000
O O13 0.331190 0.630446 0.011845
O O14 0.000000 0.000000 0.500000
#
# Coordination Sequence:
#
# PCOD9073927 Si02
#       6
#     2   2   2   2   2   2
#     4  10  22  39  68  96 133 173 219 280 337 395
#     4  11  24  44  71  99 135 178 226 280 342 401
#     4  10  24  44  69  98 140 173 227 279 338 396
#     4  10  24  44  68  99 136 175 229 276 340 402
#     4  10  22  41  63 101 133 172 228 272 336 401
#     4  11  25  43  68 101 138 180 226 277 339 406
#
# _framework density 23.701174000000002
#
# number of rings (size 3 to 8) (size 9 to 14) (size 15 to 20)
#    0.000    1.667    0.000    2.500   11.667    4.667 
#    3.000    0.000    0.000    0.000    0.000    0.000 
#    0.000    0.000    0.000    0.000    0.000    0.000 
#
# Total GULP energy -66809.897723 kJ/mol
# GULP energy per Si atom -5567.491477 kJ/mol
# Density = 2.364723 g / cm^3
# Si number density = 23.701174 Si / 1000 Ang^3
#
#
#
# Elastic Constant Matrix: (Units=GPa)
#
#
# Indices 1 2 3 4 5 6 
#
# 1 174.5653 38.7800 61.7503 -4.2763 -10.5731 -42.6063
# 2 38.7800 82.2961 31.4642 -12.2501 8.6516 -21.6632
# 3 61.7503 31.4642 127.8417 11.0073 -3.1110 -23.7088
# 4 -4.2763 -12.2501 11.0073 10.3979 -14.9284 11.9688
# 5 -10.5731 8.6516 -3.1110 -14.9284 36.6467 1.2529
# 6 -42.6063 -21.6632 -23.7088 11.9688 1.2529 41.8708
#
#
#
# Elastic Compliance Matrix: (Units=1/GPa)
#
#
# Indices 1 2 3 4 5 6 
#
# 1 0.008735 -0.001825 -0.002271 -0.001653 0.001843 0.007076
# 2 -0.001825 0.013023 0.003327 -0.034000 -0.017751 0.017015
# 3 -0.002271 0.003327 -0.001542 0.071172 0.028195 -0.022651
# 4 -0.001653 -0.034000 0.071172 -0.440800 -0.171175 0.152152
# 5 0.001843 -0.017751 0.028195 -0.171175 -0.037333 0.058704
# 6 0.007076 0.017015 -0.022651 0.152152 0.058704 -0.018188
#
#
# Mechanical properties :
#
#
# Convention : Reuss Voigt Hill
#
# Bulk Modulus (GPa) = 53.53663 72.07691 62.80677
# Shear Modulus (GPa) = -10.67597 34.63031 11.97717
#
# Velocity S-wave (km/s) = -2.12466 3.82661 2.25042
# Velocity P-wave (km/s) = 4.07656 7.07111 5.77144
#
# Compressibility (1/GPa) = 0.01867880
#
# Stress axis : x y z
#
# Youngs Moduli (GPa) = 114.47573 76.78609 -648.33029
#
# Poissons Ratio (x) = 0.14016 -1.47215
# Poissons Ratio (y) = 0.20896 2.15721
# Poissons Ratio (z) = 0.25994 -0.25549
#
# Static dielectric constant tensor:
#      x y z
#    x 1.831730 -0.013340 -0.075940 
#    y -0.013340 2.014490 0.098010 
#    z -0.075940 0.098010 1.963640 
# 
# From -- ./inp_files/99962.got.cif
#   From: 2010.05.17/outbox.ucp.g08.bks.cvg/sg2_50_cif.got.tgz:99962.got - 2010.06.11 11:32:03.
