data_PCOD9073882
_publ_section_title
;
Structure prediction by ZEFSAII (Michael W. Deem and Ramdas Pophale) SiO2 
 PCOD9073882
Probable space group: P -1
;
_chemical_formula_sum "Si O2"
_cell_formula_units_Z 16
_cell_length_a 9.000000
_cell_length_b 15.000000
_cell_length_c 15.000000
_cell_angle_alpha 140.000000
_cell_angle_beta 140.000000
_cell_angle_gamma 40.000000
_cell_volume 753.872439
_symmetry_space_group_name_H-M "P -1"
_symmetry_group_IT_number 2
_symmetry_cell_setting 'triclinic'
loop_
_space_group_symop_operation_xyz
x,y,z
-x,-y,-z
loop_
_atom_site_type_symbol
_atom_site_label
_atom_site_fract_x
_atom_site_fract_y
_atom_site_fract_z
Si Si1 0.640914 0.913403 0.364019
Si Si2 0.500042 0.586979 0.656139
Si Si3 0.993422 0.343728 0.403915
Si Si4 0.136478 0.639000 0.082302
Si Si5 0.680543 0.846417 0.916300
Si Si6 0.169678 0.090349 0.156027
Si Si7 0.965913 0.634246 0.189783
Si Si8 0.467747 0.805367 0.369330
O O1 0.498814 0.847113 0.315559
O O2 0.877406 0.775233 0.323093
O O3 0.428946 0.998384 0.258712
O O4 0.711131 0.037189 0.541586
O O5 0.500000 0.500000 0.500000
O O6 0.543198 0.735035 0.768635
O O7 0.740862 0.478776 0.743147
O O8 0.242820 0.628613 0.622136
O O9 0.996691 0.249084 0.246307
O O10 0.253552 0.245418 0.500535
O O11 0.000000 0.500000 0.500000
O O12 0.956893 0.679036 0.117667
O O13 0.376223 0.673524 0.237040
O O14 0.959720 0.757793 0.020033
O O15 0.192780 0.466640 0.948667
O O16 0.733343 0.881505 0.870091
O O17 0.500000 0.000000 0.000000
O O18 0.000000 0.000000 0.000000
#
# Coordination Sequence:
#
# PCOD9073882 Si02
#       8
#     2   2   2   2   2   2   2   2
#     4  10  22  39  59  87 119 154 197 242 293 352
#     4  11  23  40  63  90 122 158 199 247 298 356
#     4  11  23  40  63  90 122 158 199 247 298 356
#     4  10  22  39  59  87 119 154 197 242 293 352
#     4  11  23  39  61  90 122 159 201 246 299 355
#     4  11  23  39  61  90 122 159 201 246 299 355
#     4  10  22  40  61  88 119 154 197 242 295 353
#     4  10  22  40  61  88 119 154 197 242 295 353
#
# _framework density 21.223749999999999
#
# number of rings (size 3 to 8) (size 9 to 14) (size 15 to 20)
#    0.000    1.500    0.000    4.500    0.000    9.000 
#    0.000    0.000    0.000    0.000    0.000    0.000 
#    0.000    0.000    0.000    0.000    0.000    0.000 
#
# Total GULP energy -89337.381985 kJ/mol
# GULP energy per Si atom -5583.586374 kJ/mol
# Density = 2.117544 g / cm^3
# Si number density = 21.223750 Si / 1000 Ang^3
#
#
#
# Elastic Constant Matrix: (Units=GPa)
#
#
# Indices 1 2 3 4 5 6 
#
# 1 36.1226 59.9832 -9.4895 -30.6033 -35.0642 -51.1139
# 2 59.9832 60.1788 28.9894 19.0203 -12.7996 6.0649
# 3 -9.4895 28.9894 22.1651 -12.1576 -18.2277 -55.7194
# 4 -30.6033 19.0203 -12.1576 1.3532 -11.3134 -32.1154
# 5 -35.0642 -12.7996 -18.2277 -11.3134 30.6183 -17.3340
# 6 -51.1139 6.0649 -55.7194 -32.1154 -17.3340 -10.2632
#
#
#
# Elastic Compliance Matrix: (Units=1/GPa)
#
#
# Indices 1 2 3 4 5 6 
#
# 1 0.019710 -0.010733 -0.018960 0.005582 -0.000980 -0.017381
# 2 -0.010733 0.025437 0.010283 -0.007539 0.011350 0.017085
# 3 -0.018960 0.010283 0.033622 -0.028692 -0.001846 0.010871
# 4 0.005582 -0.007539 -0.028692 0.052073 -0.008650 -0.024819
# 5 -0.000980 0.011350 -0.001846 -0.008650 0.030440 -0.002733
# 6 -0.017381 0.017085 0.010871 -0.024819 -0.002733 0.022483
#
#
# Mechanical properties :
#
#
# Convention : Reuss Voigt Hill
#
# Bulk Modulus (GPa) = 25.03316 30.82585 27.92950
# Shear Modulus (GPa) = 21.19522 6.94056 14.06789
#
# Velocity S-wave (km/s) = 3.16358 1.81033 2.57736
# Velocity P-wave (km/s) = 5.01645 4.35034 4.69522
#
# Compressibility (1/GPa) = 0.03994702
#
# Stress axis : x y z
#
# Youngs Moduli (GPa) = 50.73591 39.31217 29.74264
#
# Poissons Ratio (x) = 0.42195 0.56393
# Poissons Ratio (y) = 0.54457 -0.30583
# Poissons Ratio (z) = 0.96196 -0.40423
#
# Static dielectric constant tensor:
#      x y z
#    x 1.804160 0.029570 -0.107590 
#    y 0.029570 1.768370 -0.010140 
#    z -0.107590 -0.010140 1.807030 
# 
# From -- ./inp_files/403506.got.cif
#   From: 2010.05.17/outbox.ucp.g08.bks.cvg/sg2_202_cif.got.tgz:403506.got - 2010.06.11 11:32:03.
