data_PCOD9073703
_publ_section_title
;
Structure prediction by ZEFSAII (Michael W. Deem and Ramdas Pophale) SiO2 
 PCOD9073703
Probable space group: P -1
;
_chemical_formula_sum "Si O2"
_cell_formula_units_Z 16
_cell_length_a 11.491326
_cell_length_b 6.979003
_cell_length_c 8.288364
_cell_angle_alpha 74.132813
_cell_angle_beta 88.507723
_cell_angle_gamma 65.556691
_cell_volume 579.190273
_symmetry_space_group_name_H-M "P -1"
_symmetry_group_IT_number 2
_symmetry_cell_setting 'triclinic'
loop_
_space_group_symop_operation_xyz
x,y,z
-x,-y,-z
loop_
_atom_site_type_symbol
_atom_site_label
_atom_site_fract_x
_atom_site_fract_y
_atom_site_fract_z
Si Si1 0.366546 0.517175 0.576197
Si Si2 0.829219 0.192235 0.966367
Si Si3 0.442505 0.569838 0.156536
Si Si4 0.349595 0.137297 0.778411
Si Si5 0.218967 0.011092 0.534667
Si Si6 0.407315 0.138569 0.324175
Si Si7 0.020283 0.239414 0.733715
Si Si8 0.877918 0.532382 0.109987
O O1 0.500000 0.500000 0.500000
O O2 0.435967 0.422356 0.764791
O O3 0.312174 0.338546 0.599493
O O4 0.262036 0.762878 0.530231
O O5 0.689565 0.220880 0.909194
O O6 0.880266 0.271549 0.785955
O O7 0.837845 0.346952 0.078560
O O8 0.907947 0.947413 0.086418
O O9 0.401331 0.381063 0.266985
O O10 0.500000 0.500000 0.000000
O O11 0.297152 0.987999 0.706789
O O12 0.259693 0.255926 0.907094
O O13 0.503114 0.989087 0.802061
O O14 0.274978 0.117277 0.368891
O O15 0.075849 0.139705 0.580343
O O16 0.500000 0.000000 0.500000
O O17 0.056531 0.441080 0.728758
O O18 0.000000 0.500000 0.000000
#
# Coordination Sequence:
#
# PCOD9073703 Si02
#       8
#     2   2   2   2   2   2   2   2
#     4  12  21  37  62  89 120 167 201 242 305 372
#     4  10  21  38  55  87 124 155 200 252 306 356
#     4  12  24  38  60  93 130 153 201 266 302 351
#     4  10  18  31  56  83 113 150 200 240 287 354
#     4  10  18  36  60  85 111 153 212 240 286 369
#     4  10  19  37  56  81 120 160 195 238 299 368
#     4   9  19  37  64  82 115 167 198 242 309 370
#     4   9  18  33  55  82 113 155 201 240 294 363
#
# _framework density 27.624773999999999
#
# number of rings (size 3 to 8) (size 9 to 14) (size 15 to 20)
#    0.000    1.750    3.750    3.000    1.750    0.000 
#    2.250    1.875    0.000    0.750    0.000    0.000 
#    0.000    0.000    0.000    0.000    0.000    0.000 
#
# Total GULP energy -89089.800068 kJ/mol
# GULP energy per Si atom -5568.112504 kJ/mol
# Density = 2.756190 g / cm^3
# Si number density = 27.624774 Si / 1000 Ang^3
#
#
#
# Elastic Constant Matrix: (Units=GPa)
#
#
# Indices 1 2 3 4 5 6 
#
# 1 103.7926 22.5576 25.8024 11.9655 -35.7791 -20.9274
# 2 22.5576 143.8624 19.0239 6.7840 -7.5203 -0.1415
# 3 25.8024 19.0239 49.7331 0.8273 -19.9844 -16.7745
# 4 11.9655 6.7840 0.8273 50.0325 -7.9221 -15.7645
# 5 -35.7791 -7.5203 -19.9844 -7.9221 39.8832 11.8794
# 6 -20.9274 -0.1415 -16.7745 -15.7645 11.8794 45.9614
#
#
#
# Elastic Compliance Matrix: (Units=1/GPa)
#
#
# Indices 1 2 3 4 5 6 
#
# 1 0.014939 -0.001513 -0.001579 -0.000576 0.011285 0.003107
# 2 -0.001513 0.007626 -0.003303 -0.001462 -0.001255 -0.002048
# 3 -0.001579 -0.003303 0.029561 0.004888 0.011102 0.008867
# 4 -0.000576 -0.001462 0.004888 0.023556 0.003768 0.008623
# 5 0.011285 -0.001255 0.011102 0.003768 0.041333 -0.000204
# 6 0.003107 -0.002048 0.008867 0.008623 -0.000204 0.029412
#
#
# Mechanical properties :
#
#
# Convention : Reuss Voigt Hill
#
# Bulk Modulus (GPa) = 25.42271 48.01733 36.72002
# Shear Modulus (GPa) = 29.01407 42.50904 35.76156
#
# Velocity S-wave (km/s) = 3.24434 3.92701 3.60188
# Velocity P-wave (km/s) = 4.82257 6.16292 5.53348
#
# Compressibility (1/GPa) = 0.03933491
#
# Stress axis : x y z
#
# Youngs Moduli (GPa) = 66.93788 131.12252 33.82866
#
# Poissons Ratio (x) = 0.19845 0.05343
# Poissons Ratio (y) = 0.10131 0.11173
# Poissons Ratio (z) = 0.10573 0.43307
#
# Static dielectric constant tensor:
#      x y z
#    x 2.297230 -0.023790 -0.165690 
#    y -0.023790 2.242850 0.049400 
#    z -0.165690 0.049400 2.483020 
# 
# From -- ./inp_files/292076.got.cif
#   From: 2010.05.17/outbox.cif.g08.bks.cpg/sg2_147_cif.got.tgz:292076.got - 2010.06.03 11:33:40.
