data_PCOD9073044
_publ_section_title
;
Structure prediction by ZEFSAII (Michael W. Deem and Ramdas Pophale) SiO2 
 PCOD9073044
Probable space group: P -1
;
_chemical_formula_sum "Si O2"
_cell_formula_units_Z 14
_cell_length_a 15.000000
_cell_length_b 12.000000
_cell_length_c 21.000000
_cell_angle_alpha 160.000000
_cell_angle_beta 150.000000
_cell_angle_gamma 30.000000
_cell_volume 615.533390
_symmetry_space_group_name_H-M "P -1"
_symmetry_group_IT_number 2
_symmetry_cell_setting 'triclinic'
loop_
_space_group_symop_operation_xyz
x,y,z
-x,-y,-z
loop_
_atom_site_type_symbol
_atom_site_label
_atom_site_fract_x
_atom_site_fract_y
_atom_site_fract_z
Si Si1 0.169567 0.446788 0.153043
Si Si2 0.711588 0.352122 0.978322
Si Si3 0.342467 0.113579 0.410573
Si Si4 0.895873 0.847242 0.297525
Si Si5 0.550137 0.252496 0.218928
Si Si6 0.038156 0.823192 0.730331
Si Si7 0.685811 0.140914 0.981676
O O1 0.343342 0.480802 0.237760
O O2 0.018776 0.763735 0.263315
O O3 0.268423 0.234644 0.162975
O O4 0.079186 0.168717 0.914381
O O5 0.533995 0.678640 0.060975
O O6 0.625072 0.105118 0.751072
O O7 0.861101 0.502590 0.118077
O O8 0.780022 0.162598 0.984687
O O9 0.335116 0.505092 0.607013
O O10 0.154419 0.042689 0.278970
O O11 0.500000 0.000000 0.500000
O O12 0.687173 0.061065 0.257977
O O13 0.000000 0.000000 0.500000
O O14 0.500000 0.000000 0.000000
O O15 0.000000 0.500000 0.500000
O O16 0.216963 0.679980 0.809745
#
# Coordination Sequence:
#
# PCOD9073044 Si02
#       7
#     2   2   2   2   2   2   2
#     4  10  24  46  70 101 149 183 236 296 361 419
#     4  11  21  45  67 103 141 183 239 288 351 422
#     4  12  26  43  73  98 136 186 236 292 354 419
#     4  12  27  45  74 106 148 188 241 295 362 426
#     4  12  28  49  71 106 149 187 237 302 364 424
#     4  10  20  40  68  96 133 176 236 284 346 414
#     4   9  22  38  73  97 140 184 230 294 345 425
#
# _framework density 22.744501
#
# number of rings (size 3 to 8) (size 9 to 14) (size 15 to 20)
#    0.857    0.286    2.857    2.571    4.000    4.571 
#    2.571    0.000    0.000    0.000    0.000    0.000 
#    0.000    0.000    0.000    0.000    0.000    0.000 
#
# Total GULP energy -78019.446560 kJ/mol
# GULP energy per Si atom -5572.817611 kJ/mol
# Density = 2.269273 g / cm^3
# Si number density = 22.744501 Si / 1000 Ang^3
#
#
#
# Elastic Constant Matrix: (Units=GPa)
#
#
# Indices 1 2 3 4 5 6 
#
# 1 36.9738 8.4753 13.5316 -13.1964 -7.8712 -10.2839
# 2 8.4753 53.6250 11.7306 -7.4809 4.5862 -3.8740
# 3 13.5316 11.7306 136.2532 -21.1902 -12.7177 12.5874
# 4 -13.1964 -7.4809 -21.1902 28.9087 -3.9823 3.2126
# 5 -7.8712 4.5862 -12.7177 -3.9823 36.1311 -4.3877
# 6 -10.2839 -3.8740 12.5874 3.2126 -4.3877 46.6284
#
#
#
# Elastic Compliance Matrix: (Units=1/GPa)
#
#
# Indices 1 2 3 4 5 6 
#
# 1 0.039103 -0.004077 -0.000554 0.017077 0.011739 0.008363
# 2 -0.004077 0.020222 -0.001485 0.001694 -0.003704 0.000717
# 3 -0.000554 -0.001485 0.009215 0.006950 0.003730 -0.002861
# 4 0.017077 0.001694 0.006950 0.049521 0.011372 -0.000311
# 5 0.011739 -0.003704 0.003730 0.011372 0.033716 0.003664
# 6 0.008363 0.000717 -0.002861 -0.000311 0.003664 0.024489
#
#
# Mechanical properties :
#
#
# Convention : Reuss Voigt Hill
#
# Bulk Modulus (GPa) = 17.75841 32.70302 25.23071
# Shear Modulus (GPa) = 24.12361 35.20792 29.66577
#
# Velocity S-wave (km/s) = 3.26027 3.93870 3.61543
# Velocity P-wave (km/s) = 4.69012 5.92403 5.34282
#
# Compressibility (1/GPa) = 0.05631136
#
# Stress axis : x y z
#
# Youngs Moduli (GPa) = 25.57320 49.45123 108.51437
#
# Poissons Ratio (x) = 0.20159 0.06006
# Poissons Ratio (y) = 0.10425 0.16110
# Poissons Ratio (z) = 0.01416 0.07341
#
# Static dielectric constant tensor:
#      x y z
#    x 1.986390 -0.016510 0.033040 
#    y -0.016510 1.927160 0.049680 
#    z 0.033040 0.049680 1.895370 
# 
# From -- ./inp_files/598073.got.cif
#   From: 2010.05.17/outbox.ucp.g08.bks.cvg/sg2_300_cif.got.tgz:598073.got - 2010.06.11 11:32:03.
