data_PCOD9073863
_publ_section_title
;
Structure prediction by ZEFSAII (Michael W. Deem and Ramdas Pophale) SiO2 
 PCOD9073863
Probable space group: P -1
;
_chemical_formula_sum "Si O2"
_cell_formula_units_Z 16
_cell_length_a 10.817634
_cell_length_b 11.462902
_cell_length_c 8.452131
_cell_angle_alpha 69.560543
_cell_angle_beta 53.277477
_cell_angle_gamma 94.641278
_cell_volume 726.260685
_symmetry_space_group_name_H-M "P -1"
_symmetry_group_IT_number 2
_symmetry_cell_setting 'triclinic'
loop_
_space_group_symop_operation_xyz
x,y,z
-x,-y,-z
loop_
_atom_site_type_symbol
_atom_site_label
_atom_site_fract_x
_atom_site_fract_y
_atom_site_fract_z
Si Si1 0.837620 0.835541 0.545746
Si Si2 0.386139 0.752541 0.343458
Si Si3 0.540503 0.459565 0.233352
Si Si4 0.457778 0.669888 0.999773
Si Si5 0.241756 0.046686 0.958804
Si Si6 0.852595 0.099156 0.558751
Si Si7 0.017769 0.179682 0.900799
Si Si8 0.260066 0.438385 0.684829
O O1 0.649726 0.753128 0.773967
O O2 0.891574 0.814895 0.339966
O O3 0.960578 0.802869 0.586596
O O4 0.860783 0.989421 0.482325
O O5 0.262551 0.825754 0.442725
O O6 0.309157 0.596847 0.533386
O O7 0.567976 0.844402 0.232712
O O8 0.397673 0.746571 0.143844
O O9 0.609578 0.373842 0.105354
O O10 0.392928 0.393737 0.505873
O O11 0.690921 0.563443 0.169609
O O12 0.452140 0.536731 0.157612
O O13 0.115155 0.119451 0.976657
O O14 0.213101 0.981123 0.186900
O O15 0.173231 0.920946 0.944160
O O16 0.074323 0.335273 0.834764
#
# Coordination Sequence:
#
# PCOD9073863 Si02
#       8
#     2   2   2   2   2   2   2   2
#     4  10  20  36  59  83 113 154 195 245 281 346
#     4  11  22  37  60  88 121 154 189 241 297 343
#     4   9  18  31  54  87 117 150 195 234 284 351
#     4  10  18  31  58  88 115 147 193 244 286 336
#     4  10  20  35  58  85 117 153 191 239 281 346
#     4  10  22  39  57  84 117 157 196 234 294 349
#     4  10  20  36  58  90 117 151 200 233 289 347
#     4  10  19  34  58  86 120 156 188 239 291 345
#
# _framework density 22.030657999999999
#
# number of rings (size 3 to 8) (size 9 to 14) (size 15 to 20)
#    0.000    2.000    2.500    2.625    0.000    0.000 
#    0.000    4.375    0.000    0.750    0.000    0.000 
#    0.000    0.000    0.000    0.000    0.000    0.125 
#
# Total GULP energy -89135.791295 kJ/mol
# GULP energy per Si atom -5570.986956 kJ/mol
# Density = 2.198052 g / cm^3
# Si number density = 22.030658 Si / 1000 Ang^3
#
#
#
# Elastic Constant Matrix: (Units=GPa)
#
#
# Indices 1 2 3 4 5 6 
#
# 1 53.7731 81.0796 20.8005 8.9841 15.5454 15.1577
# 2 81.0796 74.5454 8.1723 -24.1429 -35.1493 37.9064
# 3 20.8005 8.1723 30.7117 -19.0739 -12.3429 9.8098
# 4 8.9841 -24.1429 -19.0739 22.6985 -7.8176 -0.4832
# 5 15.5454 -35.1493 -12.3429 -7.8176 -11.0576 2.2915
# 6 15.1577 37.9064 9.8098 -0.4832 2.2915 39.5444
#
#
#
# Elastic Compliance Matrix: (Units=1/GPa)
#
#
# Indices 1 2 3 4 5 6 
#
# 1 0.015532 -0.002390 0.002671 0.001719 0.024055 -0.005698
# 2 -0.002390 0.008936 -0.009636 -0.004241 -0.018886 -0.004217
# 3 0.002671 -0.009636 0.035617 0.013519 -0.014845 0.000403
# 4 0.001719 -0.004241 0.013519 0.040774 -0.027575 0.002149
# 5 0.024055 -0.018886 -0.014845 -0.027575 0.041516 0.009823
# 6 -0.005698 -0.004217 0.000403 0.002149 0.009823 0.030872
#
#
# Mechanical properties :
#
#
# Convention : Reuss Voigt Hill
#
# Bulk Modulus (GPa) = 24.16861 42.12612 33.14737
# Shear Modulus (GPa) = 24.30151 13.50224 18.90188
#
# Velocity S-wave (km/s) = 3.32486 2.47834 2.93231
# Velocity P-wave (km/s) = 5.07286 5.22997 5.15201
#
# Compressibility (1/GPa) = 0.04137598
#
# Stress axis : x y z
#
# Youngs Moduli (GPa) = 64.38360 111.90180 28.07634
#
# Poissons Ratio (x) = 0.26743 -0.07500
# Poissons Ratio (y) = 0.15387 0.27055
# Poissons Ratio (z) = -0.17199 1.07831
#
# Static dielectric constant tensor:
#      x y z
#    x 1.837600 0.073120 0.007000 
#    y 0.073120 1.900300 -0.052230 
#    z 0.007000 -0.052230 1.952650 
# 
# From -- ./inp_files/257426.got.cif
#   From: 2010.05.17/outbox.cif.g08.bks.cpg/sg2_129_cif.got.tgz:257426.got - 2010.06.03 11:33:40.
