data_PCOD9073880
_publ_section_title
;
Structure prediction by ZEFSAII (Michael W. Deem and Ramdas Pophale) SiO2 
 PCOD9073880
Probable space group: P -1
;
_chemical_formula_sum "Si O2"
_cell_formula_units_Z 16
_cell_length_a 20.195978
_cell_length_b 6.650089
_cell_length_c 7.591847
_cell_angle_alpha 61.629380
_cell_angle_beta 104.823489
_cell_angle_gamma 62.206127
_cell_volume 626.843304
_symmetry_space_group_name_H-M "P -1"
_symmetry_group_IT_number 2
_symmetry_cell_setting 'triclinic'
loop_
_space_group_symop_operation_xyz
x,y,z
-x,-y,-z
loop_
_atom_site_type_symbol
_atom_site_label
_atom_site_fract_x
_atom_site_fract_y
_atom_site_fract_z
Si Si1 0.813472 0.901615 0.471663
Si Si2 0.195626 0.813121 0.000345
Si Si3 0.618954 0.610246 0.579703
Si Si4 0.095434 0.684810 0.602538
Si Si5 0.277092 0.339656 0.673920
Si Si6 0.001733 0.737797 0.179926
Si Si7 0.592724 0.974542 0.758787
Si Si8 0.238559 0.191590 0.198522
O O1 0.754628 0.835015 0.355509
O O2 0.921806 0.589014 0.731293
O O3 0.766359 0.005563 0.587298
O O4 0.817460 0.092157 0.251775
O O5 0.285062 0.745357 0.162461
O O6 0.213004 0.498427 0.150797
O O7 0.105864 0.075266 0.946839
O O8 0.660028 0.681937 0.425212
O O9 0.601291 0.757990 0.704008
O O10 0.518321 0.741735 0.401856
O O11 0.171627 0.655306 0.547039
O O12 0.048669 0.628894 0.450112
O O13 0.162547 0.401881 0.904116
O O14 0.000000 0.000000 0.500000
O O15 0.346480 0.197257 0.950347
O O16 0.000000 0.000000 0.000000
O O17 0.651463 0.038423 0.679641
#
# Coordination Sequence:
#
# PCOD9073880 Si02
#       8
#     2   2   2   2   2   2   2   2
#     4  11  21  35  57  84 114 152 187 229 286 344
#     4  11  20  34  58  82 114 148 193 230 282 347
#     4  10  19  37  59  88 110 151 195 237 290 336
#     4  10  18  31  59  83 111 150 190 230 285 342
#     4  10  19  34  60  83 113 155 188 233 291 338
#     4  11  19  35  59  81 110 156 187 232 290 335
#     4   9  19  34  64  82 114 150 192 241 285 340
#     4  10  19  38  57  79 116 152 182 238 289 329
#
# _framework density 25.524722000000001
#
# number of rings (size 3 to 8) (size 9 to 14) (size 15 to 20)
#    0.000    1.750    5.000    1.500    0.000    0.000 
#    0.000    1.875   33.000    0.000    0.000    0.000 
#    0.000    0.000    0.000    0.000    0.000    0.000 
#
# Total GULP energy -89215.190930 kJ/mol
# GULP energy per Si atom -5575.949433 kJ/mol
# Density = 2.546663 g / cm^3
# Si number density = 25.524722 Si / 1000 Ang^3
#
#
#
# Elastic Constant Matrix: (Units=GPa)
#
#
# Indices 1 2 3 4 5 6 
#
# 1 162.5659 49.4140 71.7399 -16.2858 20.3590 -43.0439
# 2 49.4140 66.3227 33.8250 2.6113 19.6147 -26.3399
# 3 71.7399 33.8250 138.2982 5.3187 15.8549 -30.0555
# 4 -16.2858 2.6113 5.3187 41.3489 -17.5689 9.1995
# 5 20.3590 19.6147 15.8549 -17.5689 67.3472 -7.7324
# 6 -43.0439 -26.3399 -30.0555 9.1995 -7.7324 53.7925
#
#
#
# Elastic Compliance Matrix: (Units=1/GPa)
#
#
# Indices 1 2 3 4 5 6 
#
# 1 0.010590 -0.005081 -0.003823 0.004593 0.000741 0.003171
# 2 -0.005081 0.024685 -0.000548 -0.008156 -0.006717 0.008145
# 3 -0.003823 -0.000548 0.010364 -0.004261 -0.001901 0.002919
# 4 0.004593 -0.008156 -0.004261 0.032728 0.009736 -0.006897
# 5 0.000741 -0.006717 -0.001901 0.009736 0.019263 -0.002655
# 6 0.003171 0.008145 0.002919 -0.006897 -0.002655 0.027544
#
#
# Mechanical properties :
#
#
# Convention : Reuss Voigt Hill
#
# Bulk Modulus (GPa) = 37.40426 75.23828 56.32127
# Shear Modulus (GPa) = 32.68197 46.64491 39.66344
#
# Velocity S-wave (km/s) = 3.58216 4.27949 3.94626
# Velocity P-wave (km/s) = 5.63871 7.34571 6.54807
#
# Compressibility (1/GPa) = 0.02673492
#
# Stress axis : x y z
#
# Youngs Moduli (GPa) = 94.43123 40.51044 96.48682
#
# Poissons Ratio (x) = 0.20582 0.36887
# Poissons Ratio (y) = 0.47978 0.05289
# Poissons Ratio (z) = 0.36101 0.02221
#
# Static dielectric constant tensor:
#      x y z
#    x 2.064310 0.054340 -0.008740 
#    y 0.054340 2.326350 -0.028680 
#    z -0.008740 -0.028680 2.007130 
# 
# From -- ./inp_files/328434.got.cif
#   From: 2010.05.17/outbox.cif.g08.bks.cpg/sg2_165_cif.got.tgz:328434.got - 2010.06.03 11:33:40.
