data_PCOD9073417
_publ_section_title
;
Structure prediction by ZEFSAII (Michael W. Deem and Ramdas Pophale) SiO2 
 PCOD9073417
Probable space group: P -1
;
_chemical_formula_sum "Si O2"
_cell_formula_units_Z 15
_cell_length_a 9.000000
_cell_length_b 15.000000
_cell_length_c 12.000000
_cell_angle_alpha 150.000000
_cell_angle_beta 60.000000
_cell_angle_gamma 130.000000
_cell_volume 613.666794
_symmetry_space_group_name_H-M "P -1"
_symmetry_group_IT_number 2
_symmetry_cell_setting 'triclinic'
loop_
_space_group_symop_operation_xyz
x,y,z
-x,-y,-z
loop_
_atom_site_type_symbol
_atom_site_label
_atom_site_fract_x
_atom_site_fract_y
_atom_site_fract_z
Si Si1 0.110336 0.373478 0.797356
Si Si2 0.500000 0.500000 0.500000
Si Si3 0.714595 0.427833 0.741387
Si Si4 0.515486 0.693003 0.073163
Si Si5 0.900780 0.842774 0.650979
Si Si6 0.452452 0.846812 0.952445
Si Si7 0.253672 0.925590 0.737050
Si Si8 0.942432 0.216415 0.910754
O O1 0.042972 0.246786 0.574171
O O2 0.058749 0.227458 0.766484
O O3 0.336877 0.542983 0.898553
O O4 0.000000 0.500000 0.000000
O O5 0.671116 0.708405 0.607597
O O6 0.371243 0.616103 0.696879
O O7 0.575286 0.330155 0.795219
O O8 0.700145 0.260232 0.479600
O O9 0.655804 0.593316 0.901956
O O10 0.936595 0.557164 0.840237
O O11 0.629961 0.926334 0.248874
O O12 0.027475 0.848697 0.715811
O O13 0.947092 0.065026 0.835899
O O14 0.283669 0.851577 0.097089
O O15 0.500000 0.000000 0.000000
O O16 0.650195 0.927440 0.036726
#
# Coordination Sequence:
#
# PCOD9073417 Si02
#       8
#     2   1   2   2   2   2   2   2
#     4  11  23  42  71 107 151 192 234 285 359 426
#     4  12  26  52  78  94 146 184 244 290 362 424
#     4  10  22  40  67 104 149 181 232 286 348 421
#     4  10  21  39  64 107 147 188 226 284 346 425
#     4  12  25  45  73 108 143 190 237 298 352 426
#     4  12  28  50  73 104 133 189 242 301 354 431
#     4  12  25  43  73 102 139 184 238 294 357 412
#     4  11  23  48  71 105 148 188 240 287 356 428
#
# _framework density 24.443231999999998
#
# number of rings (size 3 to 8) (size 9 to 14) (size 15 to 20)
#    0.000    0.800    2.667    5.600    1.867    2.667 
#    0.000    1.333    0.000    0.000    0.000    0.000 
#    0.000    0.000    0.000    0.000    0.000    0.000 
#
# Total GULP energy -83602.741931 kJ/mol
# GULP energy per Si atom -5573.516129 kJ/mol
# Density = 2.438760 g / cm^3
# Si number density = 24.443232 Si / 1000 Ang^3
#
#
#
# Elastic Constant Matrix: (Units=GPa)
#
#
# Indices 1 2 3 4 5 6 
#
# 1 74.5434 13.9440 -4.6730 -4.4512 -0.5491 11.7888
# 2 13.9440 84.4476 12.0448 18.8317 -4.0630 11.3627
# 3 -4.6730 12.0448 58.5468 6.3013 -22.3943 3.6579
# 4 -4.4512 18.8317 6.3013 21.3464 -2.7547 -1.2597
# 5 -0.5491 -4.0630 -22.3943 -2.7547 24.5460 4.8334
# 6 11.7888 11.3627 3.6579 -1.2597 4.8334 15.1175
#
#
#
# Elastic Compliance Matrix: (Units=1/GPa)
#
#
# Indices 1 2 3 4 5 6 
#
# 1 0.016871 -0.001917 0.005625 0.003751 0.008673 -0.015537
# 2 -0.001917 0.018080 0.000664 -0.016840 0.004648 -0.015145
# 3 0.005625 0.000664 0.032568 -0.006061 0.034025 -0.024150
# 4 0.003751 -0.016840 -0.006061 0.064755 -0.004518 0.018040
# 5 0.008673 0.004648 0.034025 -0.004518 0.081056 -0.044782
# 6 -0.015537 -0.015145 -0.024150 0.018040 -0.044782 0.111312
#
#
# Mechanical properties :
#
#
# Convention : Reuss Voigt Hill
#
# Bulk Modulus (GPa) = 13.11216 28.90771 21.00993
# Shear Modulus (GPa) = 14.64904 25.28345 19.96625
#
# Velocity S-wave (km/s) = 2.45073 3.21966 2.86114
# Velocity P-wave (km/s) = 3.65843 5.06693 4.41915
#
# Compressibility (1/GPa) = 0.07626511
#
# Stress axis : x y z
#
# Youngs Moduli (GPa) = 59.27253 55.30952 30.70458
#
# Poissons Ratio (x) = 0.10601 -0.17273
# Poissons Ratio (y) = 0.11360 -0.02038
# Poissons Ratio (z) = -0.33343 -0.03672
#
# Static dielectric constant tensor:
#      x y z
#    x 2.106490 0.029110 0.038150 
#    y 0.029110 1.973910 0.068470 
#    z 0.038150 0.068470 1.647640 
# 
# From -- ./inp_files/399917.got.cif
#   From: 2010.05.17/outbox.ucp.g08.bks.cvg/sg2_200_cif.got.tgz:399917.got - 2010.06.11 11:32:03.
