data_PCOD9073308
_publ_section_title
;
Structure prediction by ZEFSAII (Michael W. Deem and Ramdas Pophale) SiO2 
 PCOD9073308
Probable space group: P -1
;
_chemical_formula_sum "Si O2"
_cell_formula_units_Z 16
_cell_length_a 9.000000
_cell_length_b 15.000000
_cell_length_c 15.000000
_cell_angle_alpha 150.000000
_cell_angle_beta 110.000000
_cell_angle_gamma 90.000000
_cell_volume 738.562284
_symmetry_space_group_name_H-M "P -1"
_symmetry_group_IT_number 2
_symmetry_cell_setting 'triclinic'
loop_
_space_group_symop_operation_xyz
x,y,z
-x,-y,-z
loop_
_atom_site_type_symbol
_atom_site_label
_atom_site_fract_x
_atom_site_fract_y
_atom_site_fract_z
Si Si1 0.171067 0.859246 0.072285
Si Si2 0.644805 0.261032 0.855183
Si Si3 0.774352 0.778144 0.956936
Si Si4 0.372288 0.705519 0.508793
Si Si5 0.490305 0.569285 0.874914
Si Si6 0.241028 0.841146 0.768877
Si Si7 0.369811 0.719030 0.325644
Si Si8 0.799599 0.408553 0.294342
O O1 0.195642 0.736722 0.051713
O O2 0.392929 0.087309 0.286579
O O3 0.111372 0.690979 0.832319
O O4 0.010272 0.895252 0.094666
O O5 0.726728 0.374595 0.873172
O O6 0.470390 0.985809 0.571873
O O7 0.551807 0.356062 0.977187
O O8 0.658378 0.523217 0.672482
O O9 0.704815 0.746165 0.018915
O O10 0.720047 0.921775 0.021809
O O11 0.297709 0.787923 0.640379
O O12 0.263580 0.646205 0.337730
O O13 0.479306 0.347611 0.694398
O O14 0.337609 0.558517 0.765162
O O15 0.319100 0.773134 0.806948
O O16 0.997646 0.657547 0.577899
#
# Coordination Sequence:
#
# PCOD9073308 Si02
#       8
#     2   2   2   2   2   2   2   2
#     4  10  21  41  64  89 128 157 200 252 298 356
#     4   9  18  35  61  89 119 158 193 245 298 351
#     4  11  23  38  64  91 119 163 203 243 303 356
#     4  10  22  42  61  91 120 162 198 252 299 355
#     4  10  21  38  60  87 121 158 199 244 300 355
#     4  11  23  42  63  87 125 158 205 255 294 364
#     4   9  18  34  63  88 116 156 201 236 303 352
#     4  10  23  42  63  90 119 164 203 248 308 352
#
# _framework density 21.663710999999999
#
# number of rings (size 3 to 8) (size 9 to 14) (size 15 to 20)
#    0.000    2.000    1.250    2.625    5.250    2.500 
#    0.000    5.625    2.750    4.500    0.000    0.000 
#    0.000    0.000    0.000    0.000    0.000    0.000 
#
# Total GULP energy -89157.019363 kJ/mol
# GULP energy per Si atom -5572.313710 kJ/mol
# Density = 2.161440 g / cm^3
# Si number density = 21.663711 Si / 1000 Ang^3
#
#
#
# Elastic Constant Matrix: (Units=GPa)
#
#
# Indices 1 2 3 4 5 6 
#
# 1 107.0421 22.9476 4.3476 -11.3243 -1.8878 -6.4391
# 2 22.9476 86.8766 9.9566 -17.6398 -8.0880 -12.4599
# 3 4.3476 9.9566 41.9213 12.9568 -5.9259 -9.4913
# 4 -11.3243 -17.6398 12.9568 29.7675 4.4551 -14.4410
# 5 -1.8878 -8.0880 -5.9259 4.4551 38.7451 11.3816
# 6 -6.4391 -12.4599 -9.4913 -14.4410 11.3816 15.7645
#
#
#
# Elastic Compliance Matrix: (Units=1/GPa)
#
#
# Indices 1 2 3 4 5 6 
#
# 1 0.006566 -0.012834 0.003870 -0.029229 0.013919 -0.041957
# 2 -0.012834 -0.018765 0.010848 -0.089733 0.045131 -0.128326
# 3 0.003870 0.010848 0.023440 0.032579 -0.017265 0.066576
# 4 -0.029229 -0.089733 0.032579 -0.249188 0.125793 -0.382334
# 5 0.013919 0.045131 -0.017265 0.125793 -0.030639 0.168314
# 6 -0.041957 -0.128326 0.066576 -0.382334 0.168314 -0.486802
#
#
# Mechanical properties :
#
#
# Convention : Reuss Voigt Hill
#
# Bulk Modulus (GPa) = 66.63998 34.48260 50.56129
# Shear Modulus (GPa) = -6.62996 30.09463 11.73234
#
# Velocity S-wave (km/s) = -1.75130 3.73120 2.32968
# Velocity P-wave (km/s) = 5.17093 5.87489 5.53411
#
# Compressibility (1/GPa) = 0.01500601
#
# Stress axis : x y z
#
# Youngs Moduli (GPa) = 152.30813 -53.28976 42.66241
#
# Poissons Ratio (x) = -0.68394 -0.16508
# Poissons Ratio (y) = 1.95477 -0.46279
# Poissons Ratio (z) = -0.58936 0.57807
#
# Static dielectric constant tensor:
#      x y z
#    x 1.767020 0.015550 0.048680 
#    y 0.015550 1.840130 -0.041520 
#    z 0.048680 -0.041520 1.871700 
# 
# From -- ./inp_files/505936.got.cif
#   From: 2010.05.17/outbox.ucp.g08.bks.cvg/sg2_253_cif.got.tgz:505936.got - 2010.06.11 11:32:03.
