data_PCOD9073907
_publ_section_title
;
Structure prediction by ZEFSAII (Michael W. Deem and Ramdas Pophale) SiO2 
 PCOD9073907
Probable space group: P -1
;
_chemical_formula_sum "Si O2"
_cell_formula_units_Z 14
_cell_length_a 15.000000
_cell_length_b 15.000000
_cell_length_c 30.000000
_cell_angle_alpha 20.000000
_cell_angle_beta 160.000000
_cell_angle_gamma 160.000000
_cell_volume 690.755125
_symmetry_space_group_name_H-M "P -1"
_symmetry_group_IT_number 2
_symmetry_cell_setting 'triclinic'
loop_
_space_group_symop_operation_xyz
x,y,z
-x,-y,-z
loop_
_atom_site_type_symbol
_atom_site_label
_atom_site_fract_x
_atom_site_fract_y
_atom_site_fract_z
Si Si1 0.433472 0.534684 0.688833
Si Si2 0.172161 0.529159 0.163299
Si Si3 0.346989 0.951287 0.809919
Si Si4 0.854498 0.186406 0.322098
Si Si5 0.157679 0.871125 0.349199
Si Si6 0.087994 0.065721 0.886664
Si Si7 0.828715 0.122241 0.830460
O O1 0.662200 0.444345 0.817146
O O2 0.330277 0.690783 0.528876
O O3 0.133086 0.257821 0.695225
O O4 0.609133 0.786536 0.690385
O O5 0.934320 0.196014 0.220327
O O6 0.435493 0.698277 0.244177
O O7 0.010766 0.730534 0.994149
O O8 0.214820 0.872409 0.735597
O O9 0.568704 0.818537 0.990259
O O10 0.061116 0.536597 0.264183
O O11 0.525160 0.072952 0.240227
O O12 0.000000 0.000000 0.500000
O O13 0.013919 0.813996 0.259679
O O14 0.922524 0.095446 0.837516
O O15 0.000000 0.000000 0.000000
#
# Coordination Sequence:
#
# PCOD9073907 Si02
#       7
#     2   2   2   2   2   2   2
#     4  10  22  42  59  87 123 162 194 260 315 372
#     4  10  22  39  64  86 124 158 203 259 317 361
#     4  10  22  40  59  92 125 155 211 259 305 375
#     4  12  26  43  66  97 133 173 216 268 328 388
#     4  10  23  39  62  87 121 157 210 248 311 379
#     4  10  25  38  65  93 120 161 217 253 311 380
#     4  12  24  44  71  94 133 173 216 269 328 378
#
# _framework density 20.267674
#
# number of rings (size 3 to 8) (size 9 to 14) (size 15 to 20)
#    0.857    0.571    1.429    3.429    4.000    3.429 
#    0.000    0.000    0.000    0.000    0.000    0.000 
#    0.000    0.000    0.000    0.000    0.000    0.000 
#
# Total GULP energy -78076.840995 kJ/mol
# GULP energy per Si atom -5576.917214 kJ/mol
# Density = 2.022154 g / cm^3
# Si number density = 20.267674 Si / 1000 Ang^3
#
#
#
# Elastic Constant Matrix: (Units=GPa)
#
#
# Indices 1 2 3 4 5 6 
#
# 1 60.5466 -17.2673 15.7886 5.8118 -13.0306 -4.3722
# 2 -17.2673 29.5289 -6.3993 4.1038 -1.3027 31.1062
# 3 15.7886 -6.3993 60.1526 10.1835 -26.0913 -9.5602
# 4 5.8118 4.1038 10.1835 27.1348 -6.1223 5.0272
# 5 -13.0306 -1.3027 -26.0913 -6.1223 29.7597 10.3311
# 6 -4.3722 31.1062 -9.5602 5.0272 10.3311 19.8252
#
#
#
# Elastic Compliance Matrix: (Units=1/GPa)
#
#
# Indices 1 2 3 4 5 6 
#
# 1 0.016316 -0.007234 -0.002533 -0.004843 -0.001931 0.015961
# 2 -0.007234 -0.023940 -0.002132 -0.009155 -0.025520 0.050559
# 3 -0.002533 -0.002132 0.027669 -0.006736 0.018896 0.007990
# 4 -0.004843 -0.009155 -0.006736 0.042096 0.000551 -0.000914
# 5 -0.001931 -0.025520 0.018896 0.000551 0.038400 0.028577
# 6 0.015961 0.050559 0.007990 -0.000914 0.028577 -0.036174
#
#
# Mechanical properties :
#
#
# Convention : Reuss Voigt Hill
#
# Bulk Modulus (GPa) = -266.42999 14.94135 -125.74432
# Shear Modulus (GPa) = 57.52852 25.88435 41.70643
#
# Velocity S-wave (km/s) = 5.33348 3.57757 4.54120
# Velocity P-wave (km/s) = 9.68571 4.94503 5.88896
#
# Compressibility (1/GPa) = -0.00375333
#
# Stress axis : x y z
#
# Youngs Moduli (GPa) = 61.29139 -41.77088 36.14156
#
# Poissons Ratio (x) = -0.30217 0.09154
# Poissons Ratio (y) = 0.44339 0.07705
# Poissons Ratio (z) = 0.15524 -0.08905
#
# Static dielectric constant tensor:
#      x y z
#    x 1.759300 0.023690 -0.004380 
#    y 0.023690 1.717090 -0.023580 
#    z -0.004380 -0.023580 1.698480 
# 
# From -- ./inp_files/366840.got.cif
#   From: 2010.05.17/outbox.ucp.g08.bks.cvg/sg2_184_cif.got.tgz:366840.got - 2010.06.11 11:32:03.
