data_PCOD9073429
_publ_section_title
;
Structure prediction by ZEFSAII (Michael W. Deem and Ramdas Pophale) SiO2 
 PCOD9073429
Probable space group: P -1
;
_chemical_formula_sum "Si O2"
_cell_formula_units_Z 16
_cell_length_a 15.000000
_cell_length_b 12.000000
_cell_length_c 9.000000
_cell_angle_alpha 100.000000
_cell_angle_beta 110.000000
_cell_angle_gamma 30.000000
_cell_volume 734.803614
_symmetry_space_group_name_H-M "P -1"
_symmetry_group_IT_number 2
_symmetry_cell_setting 'triclinic'
loop_
_space_group_symop_operation_xyz
x,y,z
-x,-y,-z
loop_
_atom_site_type_symbol
_atom_site_label
_atom_site_fract_x
_atom_site_fract_y
_atom_site_fract_z
Si Si1 0.710047 0.827140 0.034742
Si Si2 0.692954 0.226075 0.531203
Si Si3 0.194886 0.655207 0.016906
Si Si4 0.146001 0.107984 0.248757
Si Si5 0.119436 0.462593 0.660027
Si Si6 0.029791 0.003829 0.768728
Si Si7 0.553052 0.012506 0.682834
Si Si8 0.346957 0.858618 0.812253
O O1 0.861504 0.608737 0.179137
O O2 0.715078 0.954660 0.113810
O O3 0.500000 0.000000 0.000000
O O4 0.694570 0.815030 0.847341
O O5 0.500000 0.500000 0.500000
O O6 0.662894 0.159668 0.374329
O O7 0.888478 0.095104 0.585905
O O8 0.741236 0.120559 0.692978
O O9 0.026605 0.734410 0.928665
O O10 0.142045 0.792279 0.880853
O O11 0.422284 0.390658 0.076449
O O12 0.133620 0.774310 0.163952
O O13 0.016356 0.287217 0.353503
O O14 0.317372 0.015173 0.290539
O O15 0.338769 0.258060 0.685282
O O16 0.000000 0.500000 0.500000
O O17 0.195236 0.922895 0.802973
O O18 0.500000 0.000000 0.500000
#
# Coordination Sequence:
#
# PCOD9073429 Si02
#       8
#     2   2   2   2   2   2   2   2
#     4  10  24  42  69 101 140 177 234 277 341 416
#     4  11  24  46  66  98 140 177 225 291 340 404
#     4  10  21  39  65  91 132 169 218 284 333 398
#     4  11  24  44  67  94 137 178 228 278 352 402
#     4  11  22  45  66  98 139 181 227 288 343 405
#     4  10  22  41  63  97 129 171 226 274 336 409
#     4  11  23  44  69 101 135 184 233 286 343 413
#     4  12  22  42  69  96 133 181 221 277 348 405
#
# _framework density 21.774525000000001
#
# number of rings (size 3 to 8) (size 9 to 14) (size 15 to 20)
#    0.000    1.250    2.500    3.750    1.750    0.500 
#   11.250    2.500    0.000    0.000    0.000    0.000 
#    0.000    0.000    0.000    0.000    0.000    0.000 
#
# Total GULP energy -89101.839353 kJ/mol
# GULP energy per Si atom -5568.864960 kJ/mol
# Density = 2.172497 g / cm^3
# Si number density = 21.774525 Si / 1000 Ang^3
#
#
#
# Elastic Constant Matrix: (Units=GPa)
#
#
# Indices 1 2 3 4 5 6 
#
# 1 129.2676 24.6159 41.5633 -15.5651 25.6728 -24.9046
# 2 24.6159 80.5012 27.3724 -26.7640 -9.5307 -10.7180
# 3 41.5633 27.3724 133.9215 -14.0063 24.5519 3.8279
# 4 -15.5651 -26.7640 -14.0063 38.6428 -4.2577 9.7945
# 5 25.6728 -9.5307 24.5519 -4.2577 36.2538 -2.1949
# 6 -24.9046 -10.7180 3.8279 9.7945 -2.1949 33.9494
#
#
#
# Elastic Compliance Matrix: (Units=1/GPa)
#
#
# Indices 1 2 3 4 5 6 
#
# 1 0.011823 -0.003096 -0.001975 -0.000871 -0.007486 0.007686
# 2 -0.003096 0.020574 -0.004215 0.012311 0.012018 0.001924
# 3 -0.001975 -0.004215 0.010394 0.000432 -0.006972 -0.004527
# 4 -0.000871 0.012311 0.000432 0.036790 0.007462 -0.006932
# 5 -0.007486 0.012018 -0.006972 0.007462 0.041619 -0.000373
# 6 0.007686 0.001924 -0.004527 -0.006932 -0.000373 0.038187
#
#
# Mechanical properties :
#
#
# Convention : Reuss Voigt Hill
#
# Bulk Modulus (GPa) = 41.28931 58.97703 50.13317
# Shear Modulus (GPa) = 26.87684 38.44510 32.66097
#
# Velocity S-wave (km/s) = 3.51711 4.20646 3.87714
# Velocity P-wave (km/s) = 5.95792 7.12296 6.56633
#
# Compressibility (1/GPa) = 0.02421934
#
# Stress axis : x y z
#
# Youngs Moduli (GPa) = 84.58056 48.60413 96.20715
#
# Poissons Ratio (x) = 0.15049 0.18999
# Poissons Ratio (y) = 0.26189 0.40551
# Poissons Ratio (z) = 0.16703 0.20487
#
# Static dielectric constant tensor:
#      x y z
#    x 1.878770 0.067020 -0.027190 
#    y 0.067020 1.816500 0.103970 
#    z -0.027190 0.103970 1.879570 
# 
# From -- ./inp_files/307786.got.cif
#   From: 2010.05.17/outbox.ucp.g08.bks.cvg/sg2_154_cif.got.tgz:307786.got - 2010.06.11 11:32:03.
