data_PCOD9073297
_publ_section_title
;
Structure prediction by ZEFSAII (Michael W. Deem and Ramdas Pophale) SiO2 
 PCOD9073297
Probable space group: P -1
;
_chemical_formula_sum "Si O2"
_cell_formula_units_Z 14
_cell_length_a 27.000000
_cell_length_b 6.000000
_cell_length_c 15.000000
_cell_angle_alpha 130.000000
_cell_angle_beta 20.000000
_cell_angle_gamma 130.000000
_cell_volume 629.659215
_symmetry_space_group_name_H-M "P -1"
_symmetry_group_IT_number 2
_symmetry_cell_setting 'triclinic'
loop_
_space_group_symop_operation_xyz
x,y,z
-x,-y,-z
loop_
_atom_site_type_symbol
_atom_site_label
_atom_site_fract_x
_atom_site_fract_y
_atom_site_fract_z
Si Si1 0.257913 0.395237 0.354016
Si Si2 0.738855 0.679198 0.133077
Si Si3 0.901765 0.763944 0.239111
Si Si4 0.006686 0.441056 0.235943
Si Si5 0.517077 0.048707 0.875324
Si Si6 0.501255 0.471421 0.635085
Si Si7 0.752748 0.322167 0.257482
O O1 0.156114 0.241203 0.564517
O O2 0.331618 0.729557 0.337080
O O3 0.143590 0.421879 0.474205
O O4 0.394031 0.217595 0.079813
O O5 0.618889 0.554667 0.377753
O O6 0.656063 0.635570 0.168203
O O7 0.782943 0.020856 0.171301
O O8 0.889838 0.546490 0.849459
O O9 0.766890 0.612785 0.368328
O O10 0.962183 0.096165 0.195479
O O11 0.000000 0.500000 0.000000
O O12 0.123210 0.594408 0.005864
O O13 0.500243 0.747790 0.772148
O O14 0.500000 0.000000 0.000000
O O15 0.584311 0.247142 0.491917
#
# Coordination Sequence:
#
# PCOD9073297 Si02
#       7
#     2   2   2   2   2   2   2
#     4  11  23  38  60  87 122 158 199 246 305 357
#     4  10  21  38  58  91 121 158 197 254 301 357
#     4  12  21  34  60  92 123 153 194 254 309 356
#     4  11  21  35  56  89 124 149 195 249 305 359
#     4  11  24  42  61  87 122 164 202 246 292 362
#     4  10  22  38  61  84 122 160 207 244 298 357
#     4  11  20  33  58  89 122 154 193 251 308 354
#
# _framework density 22.234248999999998
#
# number of rings (size 3 to 8) (size 9 to 14) (size 15 to 20)
#    0.000    1.143    2.857    4.286    2.000    1.143 
#    0.000    0.714    0.000    6.000    0.000    0.000 
#    0.000    0.000    0.000    0.000    0.000    0.000 
#
# Total GULP energy -78018.533817 kJ/mol
# GULP energy per Si atom -5572.752415 kJ/mol
# Density = 2.218364 g / cm^3
# Si number density = 22.234249 Si / 1000 Ang^3
#
#
#
# Elastic Constant Matrix: (Units=GPa)
#
#
# Indices 1 2 3 4 5 6 
#
# 1 87.4162 -1.2482 42.9526 15.1801 -55.4599 14.6650
# 2 -1.2482 28.7650 6.0738 4.7183 -20.8136 -0.9588
# 3 42.9526 6.0738 73.0358 7.9596 -52.9144 1.7676
# 4 15.1801 4.7183 7.9596 28.4831 -3.6956 -1.5784
# 5 -55.4599 -20.8136 -52.9144 -3.6956 52.1127 -1.7806
# 6 14.6650 -0.9588 1.7676 -1.5784 -1.7806 27.4016
#
#
#
# Elastic Compliance Matrix: (Units=1/GPa)
#
#
# Indices 1 2 3 4 5 6 
#
# 1 -0.005446 -0.028100 -0.027782 0.009624 -0.044498 0.001386
# 2 -0.028100 -0.003839 -0.025974 0.016350 -0.056179 0.013871
# 3 -0.027782 -0.025974 0.009417 0.013392 -0.029010 0.012238
# 4 0.009624 0.016350 0.013392 0.027618 0.032269 -0.001755
# 5 -0.044498 -0.056179 -0.029010 0.032269 -0.077070 0.020571
# 6 0.001386 0.013871 0.012238 -0.001755 0.020571 0.036684
#
#
# Mechanical properties :
#
#
# Convention : Reuss Voigt Hill
#
# Bulk Modulus (GPa) = -6.11319 31.64148 12.76414
# Shear Modulus (GPa) = 51.78778 31.02873 41.40826
#
# Velocity S-wave (km/s) = 4.83140 3.73974 4.32019
# Velocity P-wave (km/s) = 5.32615 5.73667 5.53522
#
# Compressibility (1/GPa) = -0.16358058
#
# Stress axis : x y z
#
# Youngs Moduli (GPa) = -183.61196 -260.46111 106.19284
#
# Poissons Ratio (x) = -7.31908 2.95022
# Poissons Ratio (y) = -5.15958 2.75823
# Poissons Ratio (z) = -5.10105 -6.76515
#
# Static dielectric constant tensor:
#      x y z
#    x 2.000940 -0.037540 -0.123740 
#    y -0.037540 1.792910 0.029180 
#    z -0.123740 0.029180 1.851750 
# 
# From -- ./inp_files/63897.got.cif
#   From: 2010.05.17/outbox.ucp.g08.bks.cvg/sg2_32_cif.got.tgz:63897.got - 2010.06.11 11:32:03.
