data_PCOD9073486
_publ_section_title
;
Structure prediction by ZEFSAII (Michael W. Deem and Ramdas Pophale) SiO2 
 PCOD9073486
Probable space group: P -1
;
_chemical_formula_sum "Si O2"
_cell_formula_units_Z 14
_cell_length_a 9.000000
_cell_length_b 15.000000
_cell_length_c 15.000000
_cell_angle_alpha 30.000000
_cell_angle_beta 70.000000
_cell_angle_gamma 90.000000
_cell_volume 738.562284
_symmetry_space_group_name_H-M "P -1"
_symmetry_group_IT_number 2
_symmetry_cell_setting 'triclinic'
loop_
_space_group_symop_operation_xyz
x,y,z
-x,-y,-z
loop_
_atom_site_type_symbol
_atom_site_label
_atom_site_fract_x
_atom_site_fract_y
_atom_site_fract_z
Si Si1 0.041890 0.010121 0.641204
Si Si2 0.736528 0.612784 0.362018
Si Si3 0.176850 0.515913 0.899082
Si Si4 0.291529 0.924821 0.391653
Si Si5 0.325311 0.852423 0.240949
Si Si6 0.542002 0.828386 0.676279
Si Si7 0.993541 0.919872 0.210454
O O1 0.247855 0.109502 0.457641
O O2 0.906411 0.083657 0.571004
O O3 0.088269 0.082918 0.672861
O O4 0.908708 0.733357 0.902388
O O5 0.500000 0.500000 0.500000
O O6 0.744248 0.404442 0.526155
O O7 0.823005 0.735599 0.334451
O O8 0.876008 0.824024 0.080864
O O9 0.244621 0.702187 0.644691
O O10 0.352660 0.598355 0.865141
O O11 0.000000 0.500000 0.000000
O O12 0.371912 0.939159 0.261340
O O13 0.436610 0.131172 0.255717
O O14 0.146759 0.862371 0.241988
O O15 0.500000 0.000000 0.000000
O O16 0.500000 0.000000 0.500000
#
# Coordination Sequence:
#
# PCOD9073486 Si02
#       7
#     2   2   2   2   2   2   2
#     4  11  22  42  64  89 133 158 209 259 308 379
#     4  11  22  42  67  90 128 165 217 262 318 372
#     4  11  22  41  65  91 128 167 204 256 317 368
#     4  10  23  41  63  94 125 166 210 257 313 372
#     4  11  22  43  66  92 131 166 213 265 312 377
#     4  10  21  40  62  93 126 159 208 255 306 380
#     4  10  24  41  64  97 121 173 209 262 322 371
#
# _framework density 18.955746999999999
#
# number of rings (size 3 to 8) (size 9 to 14) (size 15 to 20)
#    0.000    1.429    4.286    1.714    0.000    4.000 
#    0.000    1.429    0.000    0.000    0.000    0.000 
#    0.000    0.000    0.000    0.000    0.000    0.000 
#
# Total GULP energy -78127.749196 kJ/mol
# GULP energy per Si atom -5580.553514 kJ/mol
# Density = 1.891260 g / cm^3
# Si number density = 18.955747 Si / 1000 Ang^3
#
#
#
# Elastic Constant Matrix: (Units=GPa)
#
#
# Indices 1 2 3 4 5 6 
#
# 1 99.4935 58.6585 37.3996 -7.0851 0.2965 11.7342
# 2 58.6585 180.8491 50.5679 2.6372 -7.5786 17.5907
# 3 37.3996 50.5679 77.5449 -7.1306 5.9573 2.3856
# 4 -7.0851 2.6372 -7.1306 38.9773 -4.6621 6.5605
# 5 0.2965 -7.5786 5.9573 -4.6621 35.6515 -5.4227
# 6 11.7342 17.5907 2.3856 6.5605 -5.4227 48.4091
#
#
#
# Elastic Compliance Matrix: (Units=1/GPa)
#
#
# Indices 1 2 3 4 5 6 
#
# 1 0.013994 -0.003108 -0.004428 0.002332 -0.000093 -0.002371
# 2 -0.003108 0.007863 -0.003851 -0.001314 0.001938 -0.001519
# 3 -0.004428 -0.003851 0.017974 0.002188 -0.003360 0.000914
# 4 0.002332 -0.001314 0.002188 0.027468 0.002372 -0.003652
# 5 -0.000093 0.001938 -0.003360 0.002372 0.029713 0.002491
# 6 -0.002371 -0.001519 0.000914 -0.003652 0.002491 0.022513
#
#
# Mechanical properties :
#
#
# Convention : Reuss Voigt Hill
#
# Bulk Modulus (GPa) = 58.63049 72.34880 65.48965
# Shear Modulus (GPa) = 33.78779 38.69169 36.23974
#
# Velocity S-wave (km/s) = 4.22649 4.52282 4.37717
# Velocity P-wave (km/s) = 7.40372 8.09473 7.75692
#
# Compressibility (1/GPa) = 0.01705597
#
# Stress axis : x y z
#
# Youngs Moduli (GPa) = 71.46065 127.18555 55.63619
#
# Poissons Ratio (x) = 0.39530 0.24635
# Poissons Ratio (y) = 0.22211 0.21427
# Poissons Ratio (z) = 0.31641 0.48982
#
# Static dielectric constant tensor:
#      x y z
#    x 1.654400 0.022870 -0.002600 
#    y 0.022870 1.667280 -0.006540 
#    z -0.002600 -0.006540 1.685930 
# 
# From -- ./inp_files/314886.got.cif
#   From: 2010.05.17/outbox.ucp.g08.bks.cvg/sg2_158_cif.got.tgz:314886.got - 2010.06.11 11:32:03.
