data_PCOD9073663
_publ_section_title
;
Structure prediction by ZEFSAII (Michael W. Deem and Ramdas Pophale) SiO2 
 PCOD9073663
Probable space group: P -1
;
_chemical_formula_sum "Si O2"
_cell_formula_units_Z 16
_cell_length_a 12.000000
_cell_length_b 9.000000
_cell_length_c 9.000000
_cell_angle_alpha 60.000000
_cell_angle_beta 110.000000
_cell_angle_gamma 120.000000
_cell_volume 723.492119
_symmetry_space_group_name_H-M "P -1"
_symmetry_group_IT_number 2
_symmetry_cell_setting 'triclinic'
loop_
_space_group_symop_operation_xyz
x,y,z
-x,-y,-z
loop_
_atom_site_type_symbol
_atom_site_label
_atom_site_fract_x
_atom_site_fract_y
_atom_site_fract_z
Si Si1 0.613345 0.196630 0.913593
Si Si2 0.729151 0.730204 0.946190
Si Si3 0.393414 0.336245 0.753206
Si Si4 0.803246 0.075363 0.225368
Si Si5 0.979543 0.667198 0.994937
Si Si6 0.501400 0.277383 0.355827
Si Si7 0.310093 0.875849 0.575089
Si Si8 0.800288 0.169766 0.765764
O O1 0.533346 0.323919 0.820365
O O2 0.683053 0.183393 0.800553
O O3 0.726677 0.204054 0.073163
O O4 0.500000 0.000000 0.000000
O O5 0.837824 0.659785 0.972747
O O6 0.609663 0.687746 0.801745
O O7 0.791851 0.957663 0.875502
O O8 0.663585 0.658383 0.111439
O O9 0.419799 0.541085 0.599597
O O10 0.287814 0.142955 0.734982
O O11 0.801241 0.112588 0.377821
O O12 0.937252 0.150312 0.160562
O O13 0.000000 0.500000 0.000000
O O14 0.063264 0.698179 0.168196
O O15 0.598538 0.237018 0.306390
O O16 0.420137 0.087971 0.503121
O O17 0.233732 0.794948 0.430767
#
# Coordination Sequence:
#
# PCOD9073663 Si02
#       8
#     2   2   2   2   2   2   2   2
#     4   9  17  33  61  91 120 156 210 254 313 354
#     4  11  21  40  65  97 125 164 217 264 316 368
#     4  11  21  35  64  97 128 163 209 271 307 377
#     4  10  22  40  63  91 126 170 211 261 312 371
#     4  11  25  42  69  93 121 164 225 272 304 364
#     4  10  24  36  63  97 129 169 202 255 322 391
#     4  10  23  43  61  93 136 171 200 254 334 379
#     4  10  21  42  65  87 129 175 201 260 317 378
#
# _framework density 22.114961000000001
#
# number of rings (size 3 to 8) (size 9 to 14) (size 15 to 20)
#    0.000    1.750    3.750    1.500   14.000    0.500 
#    0.000    3.125    0.000    0.000    0.000    0.000 
#    0.000    0.000    0.000    0.000    0.000    0.000 
#
# Total GULP energy -89160.110234 kJ/mol
# GULP energy per Si atom -5572.506890 kJ/mol
# Density = 2.206463 g / cm^3
# Si number density = 22.114961 Si / 1000 Ang^3
#
#
#
# Elastic Constant Matrix: (Units=GPa)
#
#
# Indices 1 2 3 4 5 6 
#
# 1 161.8596 32.8274 36.0052 3.7800 7.6825 -20.1826
# 2 32.8274 120.3005 28.9262 -0.8369 16.4315 -19.7657
# 3 36.0052 28.9262 10.7203 -3.6991 17.5574 -1.9731
# 4 3.7800 -0.8369 -3.6991 -19.5790 5.0130 10.5143
# 5 7.6825 16.4315 17.5574 5.0130 14.8897 -0.0251
# 6 -20.1826 -19.7657 -1.9731 10.5143 -0.0251 30.9029
#
#
#
# Elastic Compliance Matrix: (Units=1/GPa)
#
#
# Indices 1 2 3 4 5 6 
#
# 1 0.004816 -0.001875 0.013706 -0.003400 -0.015426 0.003965
# 2 -0.001875 0.010801 0.006637 -0.002845 -0.017809 0.007061
# 3 0.013706 0.006637 -0.092049 0.037687 0.081447 -0.005437
# 4 -0.003400 -0.002845 0.037687 -0.054956 -0.021014 0.017047
# 5 -0.015426 -0.017809 0.081447 -0.021014 0.005793 -0.009110
# 6 0.003965 0.007061 -0.005437 0.017047 -0.009110 0.033311
#
#
# Mechanical properties :
#
#
# Convention : Reuss Voigt Hill
#
# Bulk Modulus (GPa) = -25.31947 54.26648 14.47351
# Shear Modulus (GPa) = -35.11577 18.25083 -8.43247
#
# Velocity S-wave (km/s) = -3.98914 2.87587 -1.95481
# Velocity P-wave (km/s) = 5.71765 5.96818 1.20988
#
# Compressibility (1/GPa) = -0.03949530
#
# Stress axis : x y z
#
# Youngs Moduli (GPa) = 207.65877 92.58390 -10.86378
#
# Poissons Ratio (x) = 0.17358 0.14890
# Poissons Ratio (y) = 0.38933 0.07211
# Poissons Ratio (z) = -2.84617 -0.61451
#
# Static dielectric constant tensor:
#      x y z
#    x 1.839490 -0.018290 -0.066580 
#    y -0.018290 1.866610 0.006070 
#    z -0.066580 0.006070 1.921420 
# 
# From -- ./inp_files/242641.got.cif
#   From: 2010.05.17/outbox.ucp.g08.bks.cvg/sg2_122_cif.got.tgz:242641.got - 2010.06.11 11:32:03.
