data_PCOD9073571
_publ_section_title
;
Structure prediction by ZEFSAII (Michael W. Deem and Ramdas Pophale) SiO2 
 PCOD9073571
Probable space group: P -1
;
_chemical_formula_sum "Si O2"
_cell_formula_units_Z 16
_cell_length_a 9.000000
_cell_length_b 9.000000
_cell_length_c 15.000000
_cell_angle_alpha 40.000000
_cell_angle_beta 110.000000
_cell_angle_gamma 100.000000
_cell_volume 725.993766
_symmetry_space_group_name_H-M "P -1"
_symmetry_group_IT_number 2
_symmetry_cell_setting 'triclinic'
loop_
_space_group_symop_operation_xyz
x,y,z
-x,-y,-z
loop_
_atom_site_type_symbol
_atom_site_label
_atom_site_fract_x
_atom_site_fract_y
_atom_site_fract_z
Si Si1 0.454596 0.534159 0.607049
Si Si2 0.924809 0.000858 0.385789
Si Si3 0.549049 0.781003 0.675577
Si Si4 0.104839 0.251749 0.163016
Si Si5 0.859102 0.027075 0.887369
Si Si6 0.241704 0.465022 0.443026
Si Si7 0.603296 0.255727 0.156373
Si Si8 0.473117 0.998982 0.098726
O O1 0.466409 0.597040 0.684785
O O2 0.292216 0.569202 0.500665
O O3 0.594828 0.627222 0.536172
O O4 0.498482 0.259195 0.739197
O O5 0.857096 0.753517 0.470731
O O6 0.782173 0.219278 0.244985
O O7 0.000000 0.000000 0.500000
O O8 0.039890 0.069688 0.301062
O O9 0.735082 0.700078 0.773028
O O10 0.483861 0.839866 0.733557
O O11 0.500000 0.000000 0.500000
O O12 0.123550 0.113235 0.137213
O O13 0.000000 0.500000 0.000000
O O14 0.834155 0.304716 0.731803
O O15 0.710588 0.924175 0.949973
O O16 0.000000 0.000000 0.000000
O O17 0.595683 0.125559 0.121382
O O18 0.500000 0.500000 0.000000
O O19 0.500000 0.000000 0.000000
#
# Coordination Sequence:
#
# PCOD9073571 Si02
#       8
#     2   2   2   2   2   2   2   2
#     4  10  21  40  73  99 135 184 238 299 362 413
#     4  12  27  45  74 109 148 197 243 303 375 435
#     4  12  24  44  74 103 136 190 247 294 361 436
#     4  12  28  48  71 109 155 195 237 302 379 443
#     4  11  27  44  72 105 144 192 239 299 371 442
#     4  10  22  44  70 102 142 186 247 299 352 442
#     4  12  25  45  69 107 144 183 248 307 354 437
#     4  11  24  44  71 102 138 186 243 299 363 429
#
# _framework density 22.038757
#
# number of rings (size 3 to 8) (size 9 to 14) (size 15 to 20)
#    0.000    0.750    2.500    4.500    8.750    0.500 
#    0.000    1.250    0.000    0.000    0.000    0.000 
#    0.000    0.000    0.000    0.000    0.000    0.000 
#
# Total GULP energy -89210.368350 kJ/mol
# GULP energy per Si atom -5575.648022 kJ/mol
# Density = 2.198860 g / cm^3
# Si number density = 22.038757 Si / 1000 Ang^3
#
#
#
# Elastic Constant Matrix: (Units=GPa)
#
#
# Indices 1 2 3 4 5 6 
#
# 1 60.3063 37.3523 35.2313 31.6094 -8.9144 -5.5500
# 2 37.3523 127.5944 73.2520 27.5106 5.8286 3.3783
# 3 35.2313 73.2520 131.4946 46.1002 9.1203 -2.6584
# 4 31.6094 27.5106 46.1002 51.7649 4.7487 3.3054
# 5 -8.9144 5.8286 9.1203 4.7487 43.9474 14.6609
# 6 -5.5500 3.3783 -2.6584 3.3054 14.6609 31.4483
#
#
#
# Elastic Compliance Matrix: (Units=1/GPa)
#
#
# Indices 1 2 3 4 5 6 
#
# 1 0.030187 -0.006125 0.000836 -0.016861 0.007072 0.004531
# 2 -0.006125 0.012880 -0.006592 0.003038 -0.000943 -0.002902
# 3 0.000836 -0.006592 0.014941 -0.010371 -0.002376 0.004317
# 4 -0.016861 0.003038 -0.010371 0.037981 -0.003610 -0.006487
# 5 0.007072 -0.000943 -0.002376 -0.003610 0.029234 -0.012101
# 6 0.004531 -0.002902 0.004317 -0.006487 -0.012101 0.039598
#
#
# Mechanical properties :
#
#
# Convention : Reuss Voigt Hill
#
# Bulk Modulus (GPa) = 29.19987 67.89629 48.54808
# Shear Modulus (GPa) = 25.00024 37.00277 31.00150
#
# Velocity S-wave (km/s) = 3.37170 4.10199 3.75464
# Velocity P-wave (km/s) = 5.33254 7.30134 6.39318
#
# Compressibility (1/GPa) = 0.03424673
#
# Stress axis : x y z
#
# Youngs Moduli (GPa) = 33.12672 77.64046 66.92932
#
# Poissons Ratio (x) = 0.47553 -0.05597
# Poissons Ratio (y) = 0.20289 0.44121
# Poissons Ratio (z) = -0.02770 0.51182
#
# Static dielectric constant tensor:
#      x y z
#    x 1.912070 0.075820 0.076290 
#    y 0.075820 1.740970 -0.078350 
#    z 0.076290 -0.078350 1.794130 
# 
# From -- ./inp_files/494324.got.cif
#   From: 2010.05.17/outbox.ucp.g08.bks.cvg/sg2_248_cif.got.tgz:494324.got - 2010.06.11 11:32:03.
