data_PCOD9073536
_publ_section_title
;
Structure prediction by ZEFSAII (Michael W. Deem and Ramdas Pophale) SiO2 
 PCOD9073536
Probable space group: P -1
;
_chemical_formula_sum "Si O2"
_cell_formula_units_Z 16
_cell_length_a 15.155225
_cell_length_b 5.667438
_cell_length_c 19.119417
_cell_angle_alpha 96.160180
_cell_angle_beta 157.333424
_cell_angle_gamma 90.067014
_cell_volume 607.300669
_symmetry_space_group_name_H-M "P -1"
_symmetry_group_IT_number 2
_symmetry_cell_setting 'triclinic'
loop_
_space_group_symop_operation_xyz
x,y,z
-x,-y,-z
loop_
_atom_site_type_symbol
_atom_site_label
_atom_site_fract_x
_atom_site_fract_y
_atom_site_fract_z
Si Si1 0.586760 0.336644 0.845725
Si Si2 0.934645 0.584051 0.619594
Si Si3 0.767072 0.142821 0.395113
Si Si4 0.690402 0.683761 0.050886
Si Si5 0.758467 0.981015 0.236581
Si Si6 0.287476 0.553698 0.211346
Si Si7 0.993981 0.882082 0.799326
Si Si8 0.234108 0.058489 0.223078
O O1 0.646635 0.477788 0.821682
O O2 0.377104 0.090743 0.674314
O O3 0.530241 0.476519 0.877873
O O4 0.824739 0.253857 0.036386
O O5 0.759363 0.389389 0.436194
O O6 0.112395 0.440694 0.777967
O O7 0.086977 0.796090 0.688619
O O8 0.845139 0.707759 0.624639
O O9 0.663648 0.086267 0.239508
O O10 0.045525 0.153467 0.595615
O O11 0.600463 0.796703 0.058422
O O12 0.838036 0.891697 0.112995
O O13 0.355575 0.343783 0.301515
O O14 0.364274 0.843912 0.296924
O O15 0.000000 0.500000 0.000000
O O16 0.847171 0.958098 0.756449
O O17 0.000000 0.000000 0.000000
#
# Coordination Sequence:
#
# PCOD9073536 Si02
#       8
#     2   2   2   2   2   2   2   2
#     4  11  21  32  54  87 115 142 182 244 292 331
#     4   9  19  36  56  77 106 149 191 228 275 349
#     4  10  21  36  57  81 111 144 190 234 283 345
#     4   9  19  34  54  81 113 140 189 231 283 344
#     4   9  19  39  58  77 104 154 192 226 282 345
#     4  10  19  33  53  84 119 154 188 233 291 354
#     4  10  19  33  56  83 109 147 189 230 284 341
#     4  10  18  31  55  82 114 154 189 235 284 353
#
# _framework density 26.346093
#
# number of rings (size 3 to 8) (size 9 to 14) (size 15 to 20)
#    0.000    2.250    2.500    1.875    1.750    1.500 
#    0.000    5.625    0.000    1.500    0.000    0.000 
#    0.000    0.000    0.000    0.000    0.000    0.000 
#
# Total GULP energy -89587.823449 kJ/mol
# GULP energy per Si atom -5599.238966 kJ/mol
# Density = 2.628613 g / cm^3
# Si number density = 26.346093 Si / 1000 Ang^3
#
#
#
# Elastic Constant Matrix: (Units=GPa)
#
#
# Indices 1 2 3 4 5 6 
#
# 1 165.0305 49.3422 47.6929 7.9620 -23.9581 -15.9697
# 2 49.3422 132.3418 26.5650 8.9679 -8.4712 -18.9511
# 3 47.6929 26.5650 103.0904 8.0227 -22.3806 -11.0307
# 4 7.9620 8.9679 8.0227 46.6799 -4.8423 -9.7141
# 5 -23.9581 -8.4712 -22.3806 -4.8423 37.1223 3.5743
# 6 -15.9697 -18.9511 -11.0307 -9.7141 3.5743 48.3393
#
#
#
# Elastic Compliance Matrix: (Units=1/GPa)
#
#
# Indices 1 2 3 4 5 6 
#
# 1 0.007924 -0.002142 -0.002327 -0.000005 0.003124 0.001015
# 2 -0.002142 0.008945 -0.001066 -0.000694 -0.000309 0.002439
# 3 -0.002327 -0.001066 0.012430 -0.000732 0.005548 0.001092
# 4 -0.000005 -0.000694 -0.000732 0.022715 0.001977 0.003978
# 5 0.003124 -0.000309 0.005548 0.001977 0.032470 0.000173
# 6 0.001015 0.002439 0.001092 0.003978 0.000173 0.023015
#
#
# Mechanical properties :
#
#
# Convention : Reuss Voigt Hill
#
# Bulk Modulus (GPa) = 54.85592 71.96253 63.40922
# Shear Modulus (GPa) = 40.11367 44.88580 42.49974
#
# Velocity S-wave (km/s) = 3.90624 4.13207 4.02074
# Velocity P-wave (km/s) = 6.41961 7.08088 6.75834
#
# Compressibility (1/GPa) = 0.01822957
#
# Stress axis : x y z
#
# Youngs Moduli (GPa) = 126.19361 111.79023 80.45189
#
# Poissons Ratio (x) = 0.23942 0.18720
# Poissons Ratio (y) = 0.27027 0.08579
# Poissons Ratio (z) = 0.29364 0.11921
#
# Static dielectric constant tensor:
#      x y z
#    x 2.032390 -0.101990 0.019400 
#    y -0.101990 2.178930 -0.061230 
#    z 0.019400 -0.061230 2.118590 
# 
# From -- ./inp_files/43354.got.cif
#   From: 2010.05.17/outbox.cif.g08.bks.cpg/sg2_22_cif.got.tgz:43354.got - 2010.06.03 11:33:40.
