data_PCOD9073005
_publ_section_title
;
Structure prediction by ZEFSAII (Michael W. Deem and Ramdas Pophale) SiO2 
 PCOD9073005
Probable space group: P -1
;
_chemical_formula_sum "Si O2"
_cell_formula_units_Z 16
_cell_length_a 18.000000
_cell_length_b 6.000000
_cell_length_c 15.000000
_cell_angle_alpha 100.000000
_cell_angle_beta 150.000000
_cell_angle_gamma 70.000000
_cell_volume 734.803614
_symmetry_space_group_name_H-M "P -1"
_symmetry_group_IT_number 2
_symmetry_cell_setting 'triclinic'
loop_
_space_group_symop_operation_xyz
x,y,z
-x,-y,-z
loop_
_atom_site_type_symbol
_atom_site_label
_atom_site_fract_x
_atom_site_fract_y
_atom_site_fract_z
Si Si1 0.972829 0.680478 0.348276
Si Si2 0.669639 0.859428 0.469014
Si Si3 0.729403 0.502237 0.665281
Si Si4 0.775292 0.359814 0.059044
Si Si5 0.329864 0.830628 0.881682
Si Si6 0.927072 0.098111 0.710240
Si Si7 0.578842 0.634104 0.707242
Si Si8 0.675510 0.583025 0.278150
O O1 0.877792 0.520562 0.202147
O O2 0.052012 0.775748 0.353371
O O3 0.133894 0.492633 0.553313
O O4 0.830951 0.912787 0.266191
O O5 0.724993 0.725022 0.612303
O O6 0.659354 0.667794 0.370835
O O7 0.791964 0.977093 0.563709
O O8 0.499605 0.077274 0.330358
O O9 0.878004 0.276236 0.758384
O O10 0.705927 0.565192 0.751293
O O11 0.571192 0.441165 0.477850
O O12 0.702167 0.298247 0.069759
O O13 0.648404 0.502719 0.862741
O O14 0.897917 0.117988 0.120107
O O15 0.338469 0.665714 0.791553
O O16 0.517149 0.802899 0.086175
#
# Coordination Sequence:
#
# PCOD9073005 Si02
#       8
#     2   2   2   2   2   2   2   2
#     4  11  22  43  62  90 129 166 202 258 310 361
#     4  11  20  39  63  87 118 163 206 247 307 370
#     4  10  20  40  60  92 119 160 206 248 312 366
#     4  11  22  41  60  92 125 160 204 255 305 368
#     4  10  25  40  61  97 124 158 215 250 305 375
#     4  10  21  38  62  86 122 159 206 245 307 370
#     4  10  23  36  63  90 123 158 202 259 304 366
#     4  11  21  43  65  89 126 165 203 258 308 366
#
# _framework density 21.774525000000001
#
# number of rings (size 3 to 8) (size 9 to 14) (size 15 to 20)
#    0.000    1.500    2.500    2.250    1.750    2.000 
#    2.250    4.375    0.000    0.000    0.000    0.000 
#    0.000    0.000    0.000    0.000    0.000    0.000 
#
# Total GULP energy -89241.906420 kJ/mol
# GULP energy per Si atom -5577.619151 kJ/mol
# Density = 2.172497 g / cm^3
# Si number density = 21.774525 Si / 1000 Ang^3
#
#
#
# Elastic Constant Matrix: (Units=GPa)
#
#
# Indices 1 2 3 4 5 6 
#
# 1 83.9304 41.1484 14.8457 -15.6415 9.6158 -13.3726
# 2 41.1484 96.0760 25.8939 -28.6167 3.6828 -26.6829
# 3 14.8457 25.8939 72.4303 -9.6591 6.0015 -13.8726
# 4 -15.6415 -28.6167 -9.6591 20.5133 -8.1020 5.0217
# 5 9.6158 3.6828 6.0015 -8.1020 33.4400 -8.7889
# 6 -13.3726 -26.6829 -13.8726 5.0217 -8.7889 43.1187
#
#
#
# Elastic Compliance Matrix: (Units=1/GPa)
#
#
# Indices 1 2 3 4 5 6 
#
# 1 0.015627 -0.005571 -0.000554 0.002597 -0.003075 0.000291
# 2 -0.005571 0.025734 -0.002419 0.031557 0.009941 0.011770
# 3 -0.000554 -0.002419 0.015760 0.002506 -0.001034 0.002899
# 4 0.002597 0.031557 0.002506 0.101843 0.023712 0.014112
# 5 -0.003075 0.009941 -0.001034 0.023712 0.038225 0.009896
# 6 0.000291 0.011770 0.002899 0.014112 0.009896 0.031872
#
#
# Mechanical properties :
#
#
# Convention : Reuss Voigt Hill
#
# Bulk Modulus (GPa) = 24.98051 46.24585 35.61318
# Shear Modulus (GPa) = 19.26839 30.78431 25.02635
#
# Velocity S-wave (km/s) = 2.97796 3.76410 3.39387
# Velocity P-wave (km/s) = 4.82925 6.33845 5.63460
#
# Compressibility (1/GPa) = 0.04003121
#
# Stress axis : x y z
#
# Youngs Moduli (GPa) = 63.99329 38.85975 63.45240
#
# Poissons Ratio (x) = 0.21649 0.03518
# Poissons Ratio (y) = 0.35651 0.15349
# Poissons Ratio (z) = 0.03548 0.09400
#
# Static dielectric constant tensor:
#      x y z
#    x 1.760110 0.005630 -0.005250 
#    y 0.005630 1.842050 -0.035110 
#    z -0.005250 -0.035110 1.839760 
# 
# From -- ./inp_files/44697.got.cif
#   From: 2010.05.17/outbox.ucp.g08.bks.cvg/sg2_23_cif.got.tgz:44697.got - 2010.06.11 11:32:03.
