data_PCOD9073368
_publ_section_title
;
Structure prediction by ZEFSAII (Michael W. Deem and Ramdas Pophale) SiO2 
 PCOD9073368
Probable space group: P -1
;
_chemical_formula_sum "Si O2"
_cell_formula_units_Z 16
_cell_length_a 21.000000
_cell_length_b 9.000000
_cell_length_c 18.000000
_cell_angle_alpha 130.000000
_cell_angle_beta 160.000000
_cell_angle_gamma 60.000000
_cell_volume 818.070593
_symmetry_space_group_name_H-M "P -1"
_symmetry_group_IT_number 2
_symmetry_cell_setting 'triclinic'
loop_
_space_group_symop_operation_xyz
x,y,z
-x,-y,-z
loop_
_atom_site_type_symbol
_atom_site_label
_atom_site_fract_x
_atom_site_fract_y
_atom_site_fract_z
Si Si1 0.822342 0.256977 0.389293
Si Si2 0.218906 0.002043 0.266853
Si Si3 0.761774 0.051196 0.549627
Si Si4 0.603802 0.566440 0.215860
Si Si5 0.692181 0.044744 0.031320
Si Si6 0.342654 0.698250 0.199150
Si Si7 0.780152 0.407775 0.128590
Si Si8 0.042310 0.234006 0.774477
O O1 0.718711 0.427300 0.329480
O O2 0.030961 0.375488 0.610073
O O3 0.883622 0.195109 0.517479
O O4 0.685985 0.078609 0.124537
O O5 0.414986 0.218749 0.527677
O O6 0.208734 0.937703 0.323537
O O7 0.282672 0.839407 0.237178
O O8 0.000000 0.000000 0.000000
O O9 0.539387 0.051161 0.285596
O O10 0.923027 0.201847 0.713392
O O11 0.746394 0.812935 0.442166
O O12 0.500000 0.500000 0.000000
O O13 0.420528 0.549545 0.063459
O O14 0.835789 0.918477 0.137739
O O15 0.791074 0.265038 0.163781
O O16 0.249852 0.714509 0.021873
O O17 0.219898 0.462191 0.020771
#
# Coordination Sequence:
#
# PCOD9073368 Si02
#       8
#     2   2   2   2   2   2   2   2
#     4  11  23  38  61  98 132 182 222 254 312 385
#     4  11  25  45  77  94 121 163 227 279 328 388
#     4  11  25  44  65 101 130 175 216 275 331 382
#     4  11  21  39  65  97 128 177 225 268 302 379
#     4  11  22  41  61  94 142 178 214 259 317 389
#     4  10  24  47  65 101 122 166 220 273 330 387
#     4  10  21  38  69  91 128 174 224 265 311 378
#     4  11  27  39  66  97 142 171 208 269 333 391
#
# _framework density 19.558214
#
# number of rings (size 3 to 8) (size 9 to 14) (size 15 to 20)
#    0.000    1.250    5.000    1.500    7.000    4.000 
#    0.000    1.250    0.000    0.000    0.000    0.000 
#    0.000    0.000    0.000    0.000    0.000    0.000 
#
# Total GULP energy -89172.475825 kJ/mol
# GULP energy per Si atom -5573.279739 kJ/mol
# Density = 1.951370 g / cm^3
# Si number density = 19.558214 Si / 1000 Ang^3
#
#
#
# Elastic Constant Matrix: (Units=GPa)
#
#
# Indices 1 2 3 4 5 6 
#
# 1 160.2234 36.9974 54.6506 -10.1979 -1.9070 17.7700
# 2 36.9974 82.6710 30.0531 -32.3821 5.8188 3.7040
# 3 54.6506 30.0531 100.0840 -23.1567 0.0326 11.2695
# 4 -10.1979 -32.3821 -23.1567 32.2295 1.9129 -4.4575
# 5 -1.9070 5.8188 0.0326 1.9129 41.2229 0.1865
# 6 17.7700 3.7040 11.2695 -4.4575 0.1865 29.9610
#
#
#
# Elastic Compliance Matrix: (Units=1/GPa)
#
#
# Indices 1 2 3 4 5 6 
#
# 1 0.008827 -0.004388 -0.004296 -0.005316 0.001295 -0.003876
# 2 -0.004388 0.022976 0.000405 0.022671 -0.004512 0.003011
# 3 -0.004296 0.000405 0.014552 0.009325 -0.000693 -0.001584
# 4 -0.005316 0.022671 0.009325 0.059999 -0.006264 0.005808
# 5 0.001295 -0.004512 -0.000693 -0.006264 0.025251 -0.001039
# 6 -0.003876 0.003011 -0.001584 0.005808 -0.001039 0.036770
#
#
# Mechanical properties :
#
#
# Convention : Reuss Voigt Hill
#
# Bulk Modulus (GPa) = 33.56157 65.15339 49.35748
# Shear Modulus (GPa) = 25.65881 35.43450 30.54665
#
# Velocity S-wave (km/s) = 3.62597 4.26108 3.95629
# Velocity P-wave (km/s) = 5.89299 7.58907 6.79416
#
# Compressibility (1/GPa) = 0.02979598
#
# Stress axis : x y z
#
# Youngs Moduli (GPa) = 113.29075 43.52434 68.71873
#
# Poissons Ratio (x) = 0.19099 0.29522
# Poissons Ratio (y) = 0.49713 -0.02783
# Poissons Ratio (z) = 0.48671 -0.01762
#
# Static dielectric constant tensor:
#      x y z
#    x 1.702840 -0.033060 -0.028780 
#    y -0.033060 1.680500 0.042180 
#    z -0.028780 0.042180 1.769850 
# 
# From -- ./inp_files/519799.got.cif
#   From: 2010.05.17/outbox.ucp.g08.bks.cvg/sg2_260_cif.got.tgz:519799.got - 2010.06.11 11:32:03.
