data_PCOD9073046
_publ_section_title
;
Structure prediction by ZEFSAII (Michael W. Deem and Ramdas Pophale) SiO2 
 PCOD9073046
Probable space group: P -1
;
_chemical_formula_sum "Si O2"
_cell_formula_units_Z 14
_cell_length_a 12.000000
_cell_length_b 9.000000
_cell_length_c 12.000000
_cell_angle_alpha 130.000000
_cell_angle_beta 120.000000
_cell_angle_gamma 40.000000
_cell_volume 638.079485
_symmetry_space_group_name_H-M "P -1"
_symmetry_group_IT_number 2
_symmetry_cell_setting 'triclinic'
loop_
_space_group_symop_operation_xyz
x,y,z
-x,-y,-z
loop_
_atom_site_type_symbol
_atom_site_label
_atom_site_fract_x
_atom_site_fract_y
_atom_site_fract_z
Si Si1 0.672941 0.465064 0.809034
Si Si2 0.839931 0.891424 0.531334
Si Si3 0.954971 0.781800 0.035911
Si Si4 0.372807 0.640427 0.897073
Si Si5 0.976516 0.711249 0.269168
Si Si6 0.753950 0.563555 0.425727
Si Si7 0.650232 0.520412 0.591494
O O1 0.499418 0.625001 0.869113
O O2 0.616512 0.644492 0.757152
O O3 0.839960 0.369678 0.917941
O O4 0.735402 0.188630 0.661063
O O5 0.758908 0.783447 0.498039
O O6 0.850969 0.845676 0.379646
O O7 0.041980 0.699908 0.580271
O O8 0.901924 0.841682 0.171787
O O9 0.813512 0.062377 0.040188
O O10 0.956315 0.575271 0.868703
O O11 0.325722 0.485781 0.737060
O O12 0.500000 0.500000 0.000000
O O13 0.135422 0.693736 0.379630
O O14 0.654666 0.619445 0.520372
O O15 0.500000 0.500000 0.500000
#
# Coordination Sequence:
#
# PCOD9073046 Si02
#       7
#     2   2   2   2   2   2   2
#     4  11  24  42  74 101 131 191 228 285 351 406
#     4  10  22  41  72 103 131 179 233 286 353 401
#     4  10  23  48  68 100 144 183 238 280 342 428
#     4  12  27  42  66 102 142 187 230 277 354 419
#     4   9  22  42  76 100 134 190 228 289 352 401
#     4  10  22  42  65 100 139 174 228 290 341 410
#     4  10  20  40  68  99 133 169 231 285 339 404
#
# _framework density 21.940840000000001
#
# number of rings (size 3 to 8) (size 9 to 14) (size 15 to 20)
#    0.000    1.714    2.857    0.000    4.000    6.286 
#    2.571    6.429    0.000    0.000    0.000    0.000 
#    0.000    0.000    0.000    0.000    0.000    0.000 
#
# Total GULP energy -77993.769380 kJ/mol
# GULP energy per Si atom -5570.983527 kJ/mol
# Density = 2.189090 g / cm^3
# Si number density = 21.940840 Si / 1000 Ang^3
#
#
#
# Elastic Constant Matrix: (Units=GPa)
#
#
# Indices 1 2 3 4 5 6 
#
# 1 132.0073 0.7205 21.6740 -9.6079 11.1518 -5.9291
# 2 0.7205 77.3784 29.1279 -20.8423 22.3855 -7.6498
# 3 21.6740 29.1279 99.6253 -22.5805 18.8865 0.6898
# 4 -9.6079 -20.8423 -22.5805 39.0128 -3.5263 3.1867
# 5 11.1518 22.3855 18.8865 -3.5263 40.4521 -9.4667
# 6 -5.9291 -7.6498 0.6898 3.1867 -9.4667 32.6133
#
#
#
# Elastic Compliance Matrix: (Units=1/GPa)
#
#
# Indices 1 2 3 4 5 6 
#
# 1 0.008163 0.001665 -0.001480 0.001764 -0.002061 0.001135
# 2 0.001665 0.018606 -0.002342 0.008099 -0.008623 0.001422
# 3 -0.001480 -0.002342 0.013294 0.005903 -0.004700 -0.003041
# 4 0.001764 0.008099 0.005903 0.033544 -0.005447 -0.002763
# 5 -0.002061 -0.008623 -0.004700 -0.005447 0.033653 0.008003
# 6 0.001135 0.001422 -0.003041 -0.002763 0.008003 0.033859
#
#
# Mechanical properties :
#
#
# Convention : Reuss Voigt Hill
#
# Bulk Modulus (GPa) = 27.97201 45.78398 36.87800
# Shear Modulus (GPa) = 31.77634 39.58154 35.67894
#
# Velocity S-wave (km/s) = 3.80975 4.25197 4.03692
# Velocity P-wave (km/s) = 5.66822 6.70955 6.21075
#
# Compressibility (1/GPa) = 0.03575002
#
# Stress axis : x y z
#
# Youngs Moduli (GPa) = 122.50801 53.74506 75.22127
#
# Poissons Ratio (x) = -0.08947 0.11132
# Poissons Ratio (y) = -0.20395 0.17613
# Poissons Ratio (z) = 0.18129 0.12584
#
# Static dielectric constant tensor:
#      x y z
#    x 1.908440 0.041820 -0.017750 
#    y 0.041820 1.857630 -0.016240 
#    z -0.017750 -0.016240 1.789620 
# 
# From -- ./inp_files/420078.got.cif
#   From: 2010.05.17/outbox.ucp.g08.bks.cvg/sg2_211_cif.got.tgz:420078.got - 2010.06.11 11:32:03.
