data_PCOD9073682
_publ_section_title
;
Structure prediction by ZEFSAII (Michael W. Deem and Ramdas Pophale) SiO2 
 PCOD9073682
Probable space group: P -1
;
_chemical_formula_sum "Si O2"
_cell_formula_units_Z 16
_cell_length_a 12.000000
_cell_length_b 12.000000
_cell_length_c 12.000000
_cell_angle_alpha 140.000000
_cell_angle_beta 70.000000
_cell_angle_gamma 80.000000
_cell_volume 722.981415
_symmetry_space_group_name_H-M "P -1"
_symmetry_group_IT_number 2
_symmetry_cell_setting 'triclinic'
loop_
_space_group_symop_operation_xyz
x,y,z
-x,-y,-z
loop_
_atom_site_type_symbol
_atom_site_label
_atom_site_fract_x
_atom_site_fract_y
_atom_site_fract_z
Si Si1 0.655123 0.487954 0.999975
Si Si2 0.857561 0.978875 0.662025
Si Si3 0.788092 0.297598 0.573751
Si Si4 0.135785 0.574443 0.574315
Si Si5 0.777236 0.910631 0.866547
Si Si6 0.367163 0.891552 0.576945
Si Si7 0.912688 0.520089 0.934257
Si Si8 0.450963 0.354795 0.440776
O O1 0.654949 0.479973 0.858844
O O2 0.729507 0.226488 0.819992
O O3 0.484450 0.742054 0.311417
O O4 0.800257 0.473228 0.969386
O O5 0.768434 0.033994 0.852569
O O6 0.029573 0.902726 0.578871
O O7 0.938531 0.718330 0.379248
O O8 0.800227 0.424518 0.567971
O O9 0.743996 0.165803 0.428205
O O10 0.162837 0.340739 0.386033
O O11 0.258332 0.521807 0.589336
O O12 0.928890 0.822287 0.829266
O O13 0.592378 0.094658 0.126055
O O14 0.499352 0.741916 0.521935
O O15 0.228606 0.195384 0.850989
O O16 0.000000 0.500000 0.000000
O O17 0.500000 0.500000 0.500000
#
# Coordination Sequence:
#
# PCOD9073682 Si02
#       8
#     2   2   2   2   2   2   2   2
#     4  11  23  43  68  97 132 177 227 276 344 416
#     4  10  22  43  70  94 129 183 232 274 338 419
#     4  10  21  42  67  91 133 177 226 270 341 419
#     4  10  23  45  69 100 131 186 226 287 334 415
#     4  10  24  44  71  97 133 182 242 267 343 417
#     4  12  25  41  66 103 138 172 223 291 350 399
#     4  11  24  43  66 100 138 173 224 287 347 401
#     4  12  25  44  64 103 144 174 227 290 350 402
#
# _framework density 22.130583000000001
#
# number of rings (size 3 to 8) (size 9 to 14) (size 15 to 20)
#    0.000    1.250    1.250    4.875    7.000    1.500 
#    2.250    0.000    0.000    0.000    0.000    0.000 
#    0.000    0.000    0.000    0.000    0.000    0.000 
#
# Total GULP energy -89410.477327 kJ/mol
# GULP energy per Si atom -5588.154833 kJ/mol
# Density = 2.208021 g / cm^3
# Si number density = 22.130583 Si / 1000 Ang^3
#
#
#
# Elastic Constant Matrix: (Units=GPa)
#
#
# Indices 1 2 3 4 5 6 
#
# 1 113.3153 17.8842 -9.5700 6.3178 4.6721 -23.4707
# 2 17.8842 96.3261 12.6602 13.0350 0.5500 -9.4029
# 3 -9.5700 12.6602 67.2287 4.9288 4.1290 -0.2972
# 4 6.3178 13.0350 4.9288 35.3453 1.1640 -2.8756
# 5 4.6721 0.5500 4.1290 1.1640 21.9918 1.3809
# 6 -23.4707 -9.4029 -0.2972 -2.8756 1.3809 36.1719
#
#
#
# Elastic Compliance Matrix: (Units=1/GPa)
#
#
# Indices 1 2 3 4 5 6 
#
# 1 0.010800 -0.001473 0.002106 -0.001039 -0.003017 0.006675
# 2 -0.001473 0.011590 -0.002153 -0.003586 0.000508 0.001735
# 3 0.002106 -0.002153 0.015908 -0.001614 -0.003354 0.000937
# 4 -0.001039 -0.003586 -0.001614 0.030126 -0.001032 0.000815
# 5 -0.003017 0.000508 -0.003354 -0.001032 0.047018 -0.003730
# 6 0.006675 0.001735 0.000937 0.000815 -0.003730 0.032643
#
#
# Mechanical properties :
#
#
# Convention : Reuss Voigt Hill
#
# Bulk Modulus (GPa) = 28.36200 35.42432 31.89316
# Shear Modulus (GPa) = 30.69801 35.76149 33.22975
#
# Velocity S-wave (km/s) = 3.72846 4.02423 3.87916
# Velocity P-wave (km/s) = 5.60168 6.13467 5.87422
#
# Compressibility (1/GPa) = 0.03525845
#
# Stress axis : x y z
#
# Youngs Moduli (GPa) = 92.59228 86.28494 62.86068
#
# Poissons Ratio (x) = 0.12706 -0.13236
# Poissons Ratio (y) = 0.13635 0.13532
# Poissons Ratio (z) = -0.19497 0.18575
#
# Static dielectric constant tensor:
#      x y z
#    x 1.844460 0.011990 0.003010 
#    y 0.011990 1.829940 -0.026390 
#    z 0.003010 -0.026390 1.828540 
# 
# From -- ./inp_files/429052.got.cif
#   From: 2010.05.17/outbox.ucp.g08.bks.cvg/sg2_215_cif.got.tgz:429052.got - 2010.06.11 11:32:03.
