data_PCOD9073932
_publ_section_title
;
Structure prediction by ZEFSAII (Michael W. Deem and Ramdas Pophale) SiO2 
 PCOD9073932
Probable space group: P -1
;
_chemical_formula_sum "Si O2"
_cell_formula_units_Z 14
_cell_length_a 8.507662
_cell_length_b 12.391660
_cell_length_c 17.004972
_cell_angle_alpha 36.759423
_cell_angle_beta 41.547935
_cell_angle_gamma 34.026153
_cell_volume 580.960555
_symmetry_space_group_name_H-M "P -1"
_symmetry_group_IT_number 2
_symmetry_cell_setting 'triclinic'
loop_
_space_group_symop_operation_xyz
x,y,z
-x,-y,-z
loop_
_atom_site_type_symbol
_atom_site_label
_atom_site_fract_x
_atom_site_fract_y
_atom_site_fract_z
Si Si1 0.699816 0.237009 0.903381
Si Si2 0.594521 0.438955 0.323527
Si Si3 0.828276 0.498955 0.826334
Si Si4 0.860241 0.610622 0.905082
Si Si5 0.307159 0.001049 0.763238
Si Si6 0.279766 0.400167 0.600054
Si Si7 0.704628 0.777825 0.506345
O O1 0.559854 0.354519 0.802128
O O2 0.730993 0.394436 0.859707
O O3 0.028121 0.027098 0.890219
O O4 0.473904 0.207933 0.051130
O O5 0.484160 0.456303 0.445659
O O6 0.498339 0.289754 0.410997
O O7 0.936020 0.327761 0.246733
O O8 0.865273 0.442743 0.938399
O O9 0.137936 0.439570 0.716367
O O10 0.573527 0.760546 0.777294
O O11 0.000000 0.500000 0.000000
O O12 0.400400 0.146435 0.686217
O O13 0.168874 0.152081 0.649353
O O14 0.974682 0.572392 0.568775
O O15 0.500000 0.000000 0.500000
#
# Coordination Sequence:
#
# PCOD9073932 Si02
#       7
#     2   2   2   2   2   2   2
#     4  10  19  38  62  83 112 156 199 233 273 340
#     4  10  18  36  59  86 120 154 180 232 298 339
#     4  11  21  36  62  90 110 149 202 239 278 341
#     4  10  24  40  59  78 119 162 190 237 295 333
#     4  10  18  31  60  91 114 141 192 243 280 330
#     4  10  19  33  61  92 116 145 187 235 293 341
#     4  11  16  31  61  93 115 147 188 233 285 348
#
# _framework density 24.098020999999999
#
# number of rings (size 3 to 8) (size 9 to 14) (size 15 to 20)
#    0.000    1.714    5.714    1.286    0.000    1.143 
#    0.000    2.857    9.429   10.286    0.000    0.000 
#    0.000    0.000    0.000    0.000    0.000    0.000 
#
# Total GULP energy -77953.943030 kJ/mol
# GULP energy per Si atom -5568.138788 kJ/mol
# Density = 2.404317 g / cm^3
# Si number density = 24.098021 Si / 1000 Ang^3
#
#
#
# Elastic Constant Matrix: (Units=GPa)
#
#
# Indices 1 2 3 4 5 6 
#
# 1 -6.1773 -30.3753 -1.8952 -3.0608 8.6150 -22.1349
# 2 -30.3753 94.6955 26.5712 5.4327 -6.9396 -19.0623
# 3 -1.8952 26.5712 145.3397 44.7508 -3.6577 -18.2127
# 4 -3.0608 5.4327 44.7508 51.8107 -10.0930 -1.8106
# 5 8.6150 -6.9396 -3.6577 -10.0930 54.2179 24.3067
# 6 -22.1349 -19.0623 -18.2127 -1.8106 24.3067 25.0259
#
#
#
# Elastic Compliance Matrix: (Units=1/GPa)
#
#
# Indices 1 2 3 4 5 6 
#
# 1 -0.008513 -0.006710 -0.003681 0.005109 0.013991 -0.028539
# 2 -0.006710 0.008089 -0.002985 0.002156 0.005498 -0.007131
# 3 -0.003681 -0.002985 0.010837 -0.009665 -0.002849 0.004424
# 4 0.005109 0.002156 -0.009665 0.028802 0.006432 -0.005036
# 5 0.013991 0.005498 -0.002849 0.006432 0.019883 -0.004357
# 6 -0.028539 -0.007131 0.004424 -0.005036 -0.004357 0.016372
#
#
# Mechanical properties :
#
#
# Convention : Reuss Voigt Hill
#
# Bulk Modulus (GPa) = -61.19564 24.71770 -18.23897
# Shear Modulus (GPa) = 51.66540 42.18138 46.92339
#
# Velocity S-wave (km/s) = 4.63532 4.18833 4.41748
# Velocity P-wave (km/s) = 1.78849 5.80249 4.29346
#
# Compressibility (1/GPa) = -0.01634103
#
# Stress axis : x y z
#
# Youngs Moduli (GPa) = -117.47004 123.62132 92.27841
#
# Poissons Ratio (x) = 0.82955 0.33971
# Poissons Ratio (y) = -0.78827 0.27548
# Poissons Ratio (z) = -0.43245 0.36905
#
# Static dielectric constant tensor:
#      x y z
#    x 2.059370 0.016490 0.051440 
#    y 0.016490 1.900970 0.085040 
#    z 0.051440 0.085040 2.047650 
# 
# From -- ./inp_files/389592.got.cif
#   From: 2010.05.17/outbox.cif.g08.bks.cpg/sg2_195_cif.got.tgz:389592.got - 2010.06.03 11:33:40.
