data_PCOD9073706
_publ_section_title
;
Structure prediction by ZEFSAII (Michael W. Deem and Ramdas Pophale) SiO2 
 PCOD9073706
Probable space group: P -1
;
_chemical_formula_sum "Si O2"
_cell_formula_units_Z 16
_cell_length_a 10.558884
_cell_length_b 7.888731
_cell_length_c 18.434409
_cell_angle_alpha 91.728789
_cell_angle_beta 57.147128
_cell_angle_gamma 45.912702
_cell_volume 683.183965
_symmetry_space_group_name_H-M "P -1"
_symmetry_group_IT_number 2
_symmetry_cell_setting 'triclinic'
loop_
_space_group_symop_operation_xyz
x,y,z
-x,-y,-z
loop_
_atom_site_type_symbol
_atom_site_label
_atom_site_fract_x
_atom_site_fract_y
_atom_site_fract_z
Si Si1 0.598335 0.808959 0.154124
Si Si2 0.362126 0.905094 0.920866
Si Si3 0.329645 0.620762 0.838290
Si Si4 0.983860 0.113184 0.824807
Si Si5 0.592805 0.175595 0.929994
Si Si6 0.004981 0.037783 0.414067
Si Si7 0.954469 0.769050 0.332010
Si Si8 0.008591 0.417819 0.415386
O O1 0.765590 0.481170 0.120657
O O2 0.441110 0.916192 0.127787
O O3 0.750170 0.841565 0.093853
O O4 0.346241 0.080646 0.291883
O O5 0.273688 0.800179 0.924926
O O6 0.702361 0.574256 0.792234
O O7 0.320008 0.978595 0.020227
O O8 0.667063 0.279255 0.717779
O O9 0.203258 0.827144 0.809321
O O10 0.814942 0.114082 0.841197
O O11 0.132950 0.095729 0.720699
O O12 0.723875 0.452416 0.951204
O O13 0.871587 0.009775 0.410314
O O14 0.892288 0.336859 0.442752
O O15 0.000000 0.000000 0.500000
O O16 0.880900 0.669798 0.398576
O O17 0.000000 0.500000 0.500000
#
# Coordination Sequence:
#
# PCOD9073706 Si02
#       8
#     2   2   2   2   2   2   2   2
#     4  10  20  35  56  85 112 143 191 231 277 332
#     4   9  19  35  56  83 112 146 185 230 275 327
#     4  10  21  36  54  83 119 146 180 231 281 329
#     4  10  20  36  57  80 117 154 180 227 280 328
#     4  10  19  35  59  81 108 151 195 224 271 336
#     4  10  18  33  59  83 104 141 189 227 273 329
#     4   9  18  34  54  80 110 142 183 225 273 330
#     4  10  18  31  56  84 103 137 183 232 273 321
#
# _framework density 23.419754000000001
#
# number of rings (size 3 to 8) (size 9 to 14) (size 15 to 20)
#    0.000    2.250    1.250    4.125    0.000    2.000 
#    0.000    8.125    0.000    0.750    0.000    0.000 
#    0.000    0.000    0.000    0.000    0.000    0.000 
#
# Total GULP energy -89393.282534 kJ/mol
# GULP energy per Si atom -5587.080158 kJ/mol
# Density = 2.336645 g / cm^3
# Si number density = 23.419754 Si / 1000 Ang^3
#
#
#
# Elastic Constant Matrix: (Units=GPa)
#
#
# Indices 1 2 3 4 5 6 
#
# 1 48.4817 33.9219 26.0099 -2.6990 11.0085 24.2416
# 2 33.9219 155.9523 36.6195 -40.9544 10.6435 39.3239
# 3 26.0099 36.6195 104.2591 -20.4900 23.3836 18.9388
# 4 -2.6990 -40.9544 -20.4900 43.5934 6.7924 -5.1315
# 5 11.0085 10.6435 23.3836 6.7924 28.5055 -5.7370
# 6 24.2416 39.3239 18.9388 -5.1315 -5.7370 42.3313
#
#
#
# Elastic Compliance Matrix: (Units=1/GPa)
#
#
# Indices 1 2 3 4 5 6 
#
# 1 0.037002 -0.000245 -0.000156 0.002258 -0.019284 -0.023233
# 2 -0.000245 0.015084 0.004886 0.017173 -0.016913 -0.016269
# 3 -0.000156 0.004886 0.018891 0.015494 -0.023821 -0.014252
# 4 0.002258 0.017173 0.015494 0.049450 -0.036431 -0.023121
# 5 -0.019284 -0.016913 -0.023821 -0.036431 0.086053 0.044658
# 6 -0.023233 -0.016269 -0.014252 -0.023121 0.044658 0.061667
#
#
# Mechanical properties :
#
#
# Convention : Reuss Voigt Hill
#
# Bulk Modulus (GPa) = 12.50801 55.75507 34.13154
# Shear Modulus (GPa) = 17.49321 37.02881 27.26101
#
# Velocity S-wave (km/s) = 2.73599 3.98061 3.41547
# Velocity P-wave (km/s) = 3.91577 6.70713 5.49176
#
# Compressibility (1/GPa) = 0.07994874
#
# Stress axis : x y z
#
# Youngs Moduli (GPa) = 27.02522 66.29358 52.93624
#
# Poissons Ratio (x) = 0.01622 0.00826
# Poissons Ratio (y) = 0.00661 -0.25867
# Poissons Ratio (z) = 0.00422 -0.32394
#
# Static dielectric constant tensor:
#      x y z
#    x 1.949280 0.014400 -0.046170 
#    y 0.014400 1.923490 0.001450 
#    z -0.046170 0.001450 1.879520 
# 
# From -- ./inp_files/515647.got.cif
#   From: 2010.05.17/outbox.cif.g08.bks.cpg/sg2_258_cif.got.tgz:515647.got - 2010.06.03 11:33:40.
