data_PCOD9073736
_publ_section_title
;
Structure prediction by ZEFSAII (Michael W. Deem and Ramdas Pophale) SiO2 
 PCOD9073736
Probable space group: P -1
;
_chemical_formula_sum "Si O2"
_cell_formula_units_Z 14
_cell_length_a 12.000000
_cell_length_b 27.000000
_cell_length_c 9.000000
_cell_angle_alpha 150.000000
_cell_angle_beta 150.000000
_cell_angle_gamma 30.000000
_cell_volume 645.735053
_symmetry_space_group_name_H-M "P -1"
_symmetry_group_IT_number 2
_symmetry_cell_setting 'triclinic'
loop_
_space_group_symop_operation_xyz
x,y,z
-x,-y,-z
loop_
_atom_site_type_symbol
_atom_site_label
_atom_site_fract_x
_atom_site_fract_y
_atom_site_fract_z
Si Si1 0.330838 0.084017 0.149569
Si Si2 0.143799 0.975556 0.905283
Si Si3 0.969034 0.409060 0.124415
Si Si4 0.372452 0.833773 0.075941
Si Si5 0.774324 0.578780 0.831625
Si Si6 0.444947 0.560587 0.934785
Si Si7 0.066528 0.772736 0.167860
O O1 0.478532 0.131143 0.543099
O O2 0.120252 0.186611 0.081011
O O3 0.500000 0.000000 0.000000
O O4 0.235102 0.016777 0.973663
O O5 0.049203 0.885134 0.511714
O O6 0.358917 0.897797 0.070093
O O7 0.923786 0.091387 0.022882
O O8 0.145195 0.370517 0.085406
O O9 0.000000 0.500000 0.500000
O O10 0.698427 0.493468 0.962931
O O11 0.977791 0.306824 0.969006
O O12 0.517659 0.695664 0.884989
O O13 0.734138 0.478729 0.454222
O O14 0.000000 0.500000 0.000000
O O15 0.500000 0.500000 0.000000
O O16 0.334983 0.689648 0.185559
#
# Coordination Sequence:
#
# PCOD9073736 Si02
#       7
#     2   2   2   2   2   2   2
#     4  12  26  44  70 107 137 182 241 290 348 413
#     4  11  26  48  69 104 144 188 236 287 355 421
#     4  11  24  43  73 102 139 188 239 288 350 426
#     4  11  26  45  71 101 146 187 233 285 359 421
#     4  12  26  45  71 108 142 183 237 296 360 415
#     4  10  21  43  67 102 132 179 233 278 351 418
#     4  11  23  43  73 103 136 183 234 288 359 409
#
# _framework density 21.680719
#
# number of rings (size 3 to 8) (size 9 to 14) (size 15 to 20)
#    0.000    0.857    4.286    3.429    2.000    5.143 
#    0.000    0.000    0.000    0.000    0.000    0.000 
#    0.000    0.000    0.000    0.000    0.000    0.000 
#
# Total GULP energy -77958.113364 kJ/mol
# GULP energy per Si atom -5568.436669 kJ/mol
# Density = 2.163137 g / cm^3
# Si number density = 21.680719 Si / 1000 Ang^3
#
#
#
# Elastic Constant Matrix: (Units=GPa)
#
#
# Indices 1 2 3 4 5 6 
#
# 1 100.4552 27.2802 8.9285 7.6013 -4.4152 3.8594
# 2 27.2802 136.7148 -3.2223 8.4281 -21.5349 1.1270
# 3 8.9285 -3.2223 51.7949 -4.9539 -30.7057 5.4692
# 4 7.6013 8.4281 -4.9539 47.4022 11.5140 -13.4061
# 5 -4.4152 -21.5349 -30.7057 11.5140 25.0665 -0.1158
# 6 3.8594 1.1270 5.4692 -13.4061 -0.1158 36.3592
#
#
#
# Elastic Compliance Matrix: (Units=1/GPa)
#
#
# Indices 1 2 3 4 5 6 
#
# 1 0.008736 0.009697 0.034266 -0.017693 0.059914 -0.012715
# 2 0.009697 -0.055910 -0.195551 0.083588 -0.323987 0.059907
# 3 0.034266 -0.195551 -0.584798 0.262656 -0.998121 0.184057
# 4 -0.017693 0.083588 0.262656 -0.088280 0.430661 -0.071401
# 5 0.059914 -0.323987 -0.998121 0.430661 -1.646959 0.307368
# 6 -0.012715 0.059907 0.184057 -0.071401 0.307368 -0.026038
#
#
# Mechanical properties :
#
#
# Convention : Reuss Voigt Hill
#
# Bulk Modulus (GPa) = -1.06935 39.43752 19.18409
# Shear Modulus (GPa) = -2.08178 38.83084 18.37453
#
# Velocity S-wave (km/s) = -0.98096 4.23665 2.91435
# Velocity P-wave (km/s) = 1.33317 6.49322 4.49358
#
# Compressibility (1/GPa) = -0.93514631
#
# Stress axis : x y z
#
# Youngs Moduli (GPa) = 114.46574 -17.88591 -1.70999
#
# Poissons Ratio (x) = 0.17345 0.05860
# Poissons Ratio (y) = -1.11002 -0.33439
# Poissons Ratio (z) = -3.92233 -3.49761
#
# Static dielectric constant tensor:
#      x y z
#    x 1.898000 -0.118320 0.157730 
#    y -0.118320 1.868020 -0.133710 
#    z 0.157730 -0.133710 2.050590 
# 
# From -- ./inp_files/285898.got.cif
#   From: 2010.05.17/outbox.ucp.g08.bks.cvg/sg2_143_cif.got.tgz:285898.got - 2010.06.11 11:32:03.
