data_PCOD9073151
_publ_section_title
;
Structure prediction by ZEFSAII (Michael W. Deem and Ramdas Pophale) SiO2 
 PCOD9073151
Probable space group: P -1
;
_chemical_formula_sum "Si O2"
_cell_formula_units_Z 16
_cell_length_a 9.000000
_cell_length_b 12.000000
_cell_length_c 27.000000
_cell_angle_alpha 30.000000
_cell_angle_beta 40.000000
_cell_angle_gamma 30.000000
_cell_volume 727.497153
_symmetry_space_group_name_H-M "P -1"
_symmetry_group_IT_number 2
_symmetry_cell_setting 'triclinic'
loop_
_space_group_symop_operation_xyz
x,y,z
-x,-y,-z
loop_
_atom_site_type_symbol
_atom_site_label
_atom_site_fract_x
_atom_site_fract_y
_atom_site_fract_z
Si Si1 0.370055 0.041911 0.336322
Si Si2 0.205681 0.337648 0.959005
Si Si3 0.698217 0.813914 0.441062
Si Si4 0.147604 0.725884 0.002229
Si Si5 0.786969 0.277724 0.260750
Si Si6 0.540492 0.168707 0.711675
Si Si7 0.289426 0.715181 0.611959
Si Si8 0.036526 0.688402 0.158271
O O1 0.273450 0.360355 0.241198
O O2 0.050267 0.106519 0.388489
O O3 0.591965 0.852066 0.396734
O O4 0.516574 0.889098 0.305877
O O5 0.299624 0.517017 0.842242
O O6 0.965536 0.376217 0.969320
O O7 0.000000 0.500000 0.000000
O O8 0.500000 0.000000 0.000000
O O9 0.414075 0.887660 0.514547
O O10 0.000000 0.500000 0.500000
O O11 0.734364 0.051963 0.350285
O O12 0.070822 0.708649 0.084064
O O13 0.500000 0.500000 0.000000
O O14 0.991243 0.059320 0.904386
O O15 0.660592 0.408978 0.297400
O O16 0.138055 0.093121 0.251550
O O17 0.493428 0.459586 0.618963
O O18 0.285477 0.223429 0.788873
#
# Coordination Sequence:
#
# PCOD9073151 Si02
#       8
#     2   2   2   2   2   2   2   2
#     4  10  23  41  69  99 139 179 240 289 368 426
#     4  12  31  48  75 113 157 199 249 308 391 455
#     4  12  25  45  69 104 143 185 238 302 372 444
#     4  11  24  44  75  99 143 186 257 303 370 445
#     4  11  25  46  73  96 148 190 242 301 372 443
#     4  10  20  43  70  99 132 185 238 293 359 436
#     4  10  22  46  69  98 136 189 240 288 364 436
#     4  10  22  40  74 101 134 185 248 303 364 431
#
# _framework density 21.993213000000001
#
# number of rings (size 3 to 8) (size 9 to 14) (size 15 to 20)
#    0.000    1.250    1.250    4.500    8.750    1.500 
#    9.000    0.000    0.000    0.000    0.000    0.000 
#    0.000    0.000    0.000    0.000    0.000    0.000 
#
# Total GULP energy -89184.535417 kJ/mol
# GULP energy per Si atom -5574.033464 kJ/mol
# Density = 2.194316 g / cm^3
# Si number density = 21.993213 Si / 1000 Ang^3
#
#
#
# Elastic Constant Matrix: (Units=GPa)
#
#
# Indices 1 2 3 4 5 6 
#
# 1 98.0847 55.8651 60.1443 1.7688 -12.8501 -10.2107
# 2 55.8651 106.2699 58.6916 -4.8378 10.4382 21.2923
# 3 60.1443 58.6916 144.6195 -15.5800 -8.9599 9.2542
# 4 1.7688 -4.8378 -15.5800 19.3170 3.9417 4.7601
# 5 -12.8501 10.4382 -8.9599 3.9417 21.4251 -13.6328
# 6 -10.2107 21.2923 9.2542 4.7601 -13.6328 22.8555
#
#
#
# Elastic Compliance Matrix: (Units=1/GPa)
#
#
# Indices 1 2 3 4 5 6 
#
# 1 -0.000750 0.010345 -0.002382 0.012826 -0.026234 -0.027327
# 2 0.010345 -0.001069 -0.005895 -0.017196 0.023848 0.025811
# 3 -0.002382 -0.005895 0.011148 0.005627 0.006882 0.002847
# 4 0.012826 -0.017196 0.005627 0.037154 0.030710 0.030052
# 5 -0.026234 0.023848 0.006882 0.030710 -0.017547 -0.053585
# 6 -0.027327 0.025811 0.002847 0.030052 -0.053585 -0.031875
#
#
# Mechanical properties :
#
#
# Convention : Reuss Voigt Hill
#
# Bulk Modulus (GPa) = 74.26073 77.59734 75.92903
# Shear Modulus (GPa) = -1932.21652 24.33774 -953.93939
#
# Velocity S-wave (km/s) = -29.67252 3.33017 -20.84908
# Velocity P-wave (km/s) = 33.76546 7.08136 23.34481
#
# Compressibility (1/GPa) = 0.01346607
#
# Stress axis : x y z
#
# Youngs Moduli (GPa) = -1334.16640 -935.03292 89.70161
#
# Poissons Ratio (x) = 9.67324 0.21364
# Poissons Ratio (y) = 13.80241 0.52880
# Poissons Ratio (z) = -3.17761 -5.51213
#
# Static dielectric constant tensor:
#      x y z
#    x 1.825290 0.030360 -0.110630 
#    y 0.030360 1.815240 -0.012300 
#    z -0.110630 -0.012300 1.976780 
# 
# From -- ./inp_files/106772.got.cif
#   From: 2010.05.17/outbox.ucp.g08.bks.cvg/sg2_54_cif.got.tgz:106772.got - 2010.06.11 11:32:03.
