data_PCOD9073168
_publ_section_title
;
Structure prediction by ZEFSAII (Michael W. Deem and Ramdas Pophale) SiO2 
 PCOD9073168
Probable space group: P -1
;
_chemical_formula_sum "Si O2"
_cell_formula_units_Z 16
_cell_length_a 10.306452
_cell_length_b 11.042393
_cell_length_c 15.258344
_cell_angle_alpha 134.559123
_cell_angle_beta 85.764671
_cell_angle_gamma 65.274742
_cell_volume 925.329400
_symmetry_space_group_name_H-M "P -1"
_symmetry_group_IT_number 2
_symmetry_cell_setting 'triclinic'
loop_
_space_group_symop_operation_xyz
x,y,z
-x,-y,-z
loop_
_atom_site_type_symbol
_atom_site_label
_atom_site_fract_x
_atom_site_fract_y
_atom_site_fract_z
Si Si1 0.375939 0.990327 0.610388
Si Si2 0.923372 0.600390 0.815594
Si Si3 0.958579 0.876696 0.378496
Si Si4 0.330338 0.160134 0.886237
Si Si5 0.744541 0.379567 0.892952
Si Si6 0.590791 0.381015 0.077665
Si Si7 0.309312 0.381857 0.697889
Si Si8 0.625341 0.958664 0.896568
O O1 0.323297 0.051349 0.745331
O O2 0.354283 0.195734 0.672221
O O3 0.241817 0.984989 0.562836
O O4 0.571026 0.762900 0.465321
O O5 0.966690 0.363570 0.706365
O O6 0.811509 0.728228 0.798806
O O7 0.104666 0.542409 0.774145
O O8 0.807378 0.754988 0.985162
O O9 0.064151 0.809941 0.249335
O O10 0.000000 0.000000 0.500000
O O11 0.525104 0.988543 0.829028
O O12 0.291887 0.388181 0.975672
O O13 0.607691 0.438149 0.855057
O O14 0.703227 0.319077 0.953428
O O15 0.636556 0.484930 0.197608
O O16 0.624720 0.163023 0.999549
O O17 0.500000 0.000000 0.000000
#
# Coordination Sequence:
#
# PCOD9073168 Si02
#       8
#     2   2   2   2   2   2   2   2
#     4  10  20  32  52  81 109 139 169 218 275 301
#     4   9  20  35  56  78 104 143 177 211 261 315
#     4  10  20  34  55  78 107 139 173 218 264 318
#     4   9  17  34  57  77 105 137 179 219 252 314
#     4   9  18  30  52  83 103 132 179 217 266 299
#     4  10  18  31  53  79 107 136 170 227 256 307
#     4  10  20  32  51  80 113 134 170 219 269 313
#     4   9  19  36  55  77 101 142 183 211 258 312
#
# _framework density 17.291139999999999
#
# number of rings (size 3 to 8) (size 9 to 14) (size 15 to 20)
#    0.000    2.500    1.250    1.500    1.750    2.000 
#    0.000    0.625    0.000    3.750    0.000    0.000 
#    0.000    0.000    0.000    0.000    0.000    0.000 
#
# Total GULP energy -89168.092655 kJ/mol
# GULP energy per Si atom -5573.005791 kJ/mol
# Density = 1.725178 g / cm^3
# Si number density = 17.291140 Si / 1000 Ang^3
#
#
#
# Elastic Constant Matrix: (Units=GPa)
#
#
# Indices 1 2 3 4 5 6 
#
# 1 91.4287 29.0093 44.3409 4.4333 -1.8170 -8.0294
# 2 29.0093 55.9702 32.8952 1.5817 -2.2435 -1.8198
# 3 44.3409 32.8952 70.9488 -8.9685 0.5800 -19.5276
# 4 4.4333 1.5817 -8.9685 13.1983 -6.5358 -1.9319
# 5 -1.8170 -2.2435 0.5800 -6.5358 31.1770 -2.5556
# 6 -8.0294 -1.8198 -19.5276 -1.9319 -2.5556 26.9807
#
#
#
# Elastic Compliance Matrix: (Units=1/GPa)
#
#
# Indices 1 2 3 4 5 6 
#
# 1 0.019484 0.000297 -0.017388 -0.021516 -0.003740 -0.008661
# 2 0.000297 0.029992 -0.020892 -0.021647 -0.003192 -0.014862
# 3 -0.017388 -0.020892 0.050982 0.053384 0.010607 0.035142
# 4 -0.021516 -0.021647 0.053384 0.143023 0.029771 0.043835
# 5 -0.003740 -0.003192 0.010607 0.029771 0.038666 0.012143
# 6 -0.008661 -0.014862 0.035142 0.043835 0.012143 0.063207
#
#
# Mechanical properties :
#
#
# Convention : Reuss Voigt Hill
#
# Bulk Modulus (GPa) = 40.82876 47.87096 44.34986
# Shear Modulus (GPa) = 11.64184 21.74470 16.69327
#
# Velocity S-wave (km/s) = 2.59759 3.55006 3.11050
# Velocity P-wave (km/s) = 5.71493 6.67452 6.21328
#
# Compressibility (1/GPa) = 0.02449254
#
# Stress axis : x y z
#
# Youngs Moduli (GPa) = 51.32355 33.34204 19.61474
#
# Poissons Ratio (x) = -0.00991 0.34106
# Poissons Ratio (y) = -0.01525 0.40980
# Poissons Ratio (z) = 0.89240 0.69659
#
# Static dielectric constant tensor:
#      x y z
#    x 1.600720 -0.019410 -0.014560 
#    y -0.019410 1.586600 -0.002770 
#    z -0.014560 -0.002770 1.576810 
# 
# From -- ./inp_files/263206.got.cif
#   From: 2010.05.17/outbox.cif.g08.bks.cpg/sg2_132_cif.got.tgz:263206.got - 2010.06.03 11:33:40.
