data_PCOD9073100
_publ_section_title
;
Structure prediction by ZEFSAII (Michael W. Deem and Ramdas Pophale) SiO2 
 PCOD9073100
Probable space group: P -1
;
_chemical_formula_sum "Si O2"
_cell_formula_units_Z 16
_cell_length_a 9.000000
_cell_length_b 18.000000
_cell_length_c 12.000000
_cell_angle_alpha 130.000000
_cell_angle_beta 80.000000
_cell_angle_gamma 140.000000
_cell_volume 729.599496
_symmetry_space_group_name_H-M "P -1"
_symmetry_group_IT_number 2
_symmetry_cell_setting 'triclinic'
loop_
_space_group_symop_operation_xyz
x,y,z
-x,-y,-z
loop_
_atom_site_type_symbol
_atom_site_label
_atom_site_fract_x
_atom_site_fract_y
_atom_site_fract_z
Si Si1 0.101464 0.912865 0.110340
Si Si2 0.619895 0.333468 0.681688
Si Si3 0.112015 0.127410 0.386775
Si Si4 0.200820 0.384886 0.964665
Si Si5 0.218994 0.628742 0.760959
Si Si6 0.127611 0.936462 0.866686
Si Si7 0.803682 0.253493 0.327934
Si Si8 0.272196 0.961942 0.478298
O O1 0.933559 0.728714 0.010134
O O2 0.995683 0.951571 0.223663
O O3 0.469029 0.106728 0.266903
O O4 0.041060 0.891632 0.965719
O O5 0.423447 0.285523 0.569340
O O6 0.944973 0.480133 0.738467
O O7 0.425650 0.136067 0.560563
O O8 0.710798 0.454859 0.886077
O O9 0.111482 0.161467 0.290092
O O10 0.894160 0.080752 0.435464
O O11 0.969162 0.222759 0.746760
O O12 0.500000 0.500000 0.000000
O O13 0.194202 0.710976 0.766137
O O14 0.102379 0.472267 0.551393
O O15 0.560185 0.826010 0.953192
O O16 0.192980 0.859054 0.762474
O O17 0.500000 0.000000 0.500000
#
# Coordination Sequence:
#
# PCOD9073100 Si02
#       8
#     2   2   2   2   2   2   2   2
#     4  11  22  46  73  99 149 190 224 288 352 413
#     4  12  24  47  73  99 138 187 230 287 354 417
#     4  12  25  45  71  99 145 189 225 287 358 409
#     4  12  24  45  77 103 134 184 240 283 351 421
#     4  10  21  39  71  97 131 184 239 276 335 413
#     4  11  25  43  68 108 144 182 234 286 344 411
#     4  10  20  41  69  98 137 187 235 277 341 409
#     4  12  29  50  72 102 141 181 237 300 350 406
#
# _framework density 21.929839999999999
#
# number of rings (size 3 to 8) (size 9 to 14) (size 15 to 20)
#    0.000    0.750    3.750    4.500    5.250    0.500 
#    4.500    1.250    0.000    0.000    0.000    0.000 
#    0.000    0.000    0.000    0.000    0.000    0.000 
#
# Total GULP energy -89333.848600 kJ/mol
# GULP energy per Si atom -5583.365537 kJ/mol
# Density = 2.187993 g / cm^3
# Si number density = 21.929840 Si / 1000 Ang^3
#
#
#
# Elastic Constant Matrix: (Units=GPa)
#
#
# Indices 1 2 3 4 5 6 
#
# 1 85.6764 39.1799 59.9462 5.6706 -26.2283 -9.4181
# 2 39.1799 -37.9962 29.3504 -40.4942 80.9979 33.7523
# 3 59.9462 29.3504 133.1980 7.6234 0.8471 -5.8881
# 4 5.6706 -40.4942 7.6234 16.8304 31.1151 1.6802
# 5 -26.2283 80.9979 0.8471 31.1151 -14.0544 -18.4579
# 6 -9.4181 33.7523 -5.8881 1.6802 -18.4579 15.3220
#
#
#
# Elastic Compliance Matrix: (Units=1/GPa)
#
#
# Indices 1 2 3 4 5 6 
#
# 1 0.015413 0.002752 -0.007886 0.005577 -0.000281 -0.000570
# 2 0.002752 0.005550 -0.002088 -0.006181 0.010470 0.001955
# 3 -0.007886 -0.002088 0.011709 -0.002304 -0.002954 0.000946
# 4 0.005577 -0.006181 -0.002304 0.033542 0.004531 0.017939
# 5 -0.000281 0.010470 -0.002954 0.004531 0.012481 -0.009833
# 6 -0.000570 0.001955 0.000946 0.017939 -0.009833 0.047159
#
#
# Mechanical properties :
#
#
# Convention : Reuss Voigt Hill
#
# Bulk Modulus (GPa) = 54.85822 48.64792 51.75307
# Shear Modulus (GPa) = 34.15939 7.11304 20.63622
#
# Velocity S-wave (km/s) = 3.95101 1.80294 3.07092
# Velocity P-wave (km/s) = 6.77375 5.15419 6.01869
#
# Compressibility (1/GPa) = 0.01822881
#
# Stress axis : x y z
#
# Youngs Moduli (GPa) = 64.88085 180.19506 85.40336
#
# Poissons Ratio (x) = -0.49594 0.67346
# Poissons Ratio (y) = -0.17857 0.17832
# Poissons Ratio (z) = 0.51163 0.37623
#
# Static dielectric constant tensor:
#      x y z
#    x 1.653270 0.041490 0.138760 
#    y 0.041490 1.776660 -0.086420 
#    z 0.138760 -0.086420 1.600340 
# 
# From -- ./inp_files/225886.got.cif
#   From: 2010.05.17/outbox.ucp.g08.bks.cvg/sg2_113_cif.got.tgz:225886.got - 2010.06.11 11:32:03.
