data_PCOD9073733
_publ_section_title
;
Structure prediction by ZEFSAII (Michael W. Deem and Ramdas Pophale) SiO2 
 PCOD9073733
Probable space group: P -1
;
_chemical_formula_sum "Si O2"
_cell_formula_units_Z 16
_cell_length_a 19.207051
_cell_length_b 15.807928
_cell_length_c 10.256208
_cell_angle_alpha 46.813908
_cell_angle_beta 48.007012
_cell_angle_gamma 20.065407
_cell_volume 774.720159
_symmetry_space_group_name_H-M "P -1"
_symmetry_group_IT_number 2
_symmetry_cell_setting 'triclinic'
loop_
_space_group_symop_operation_xyz
x,y,z
-x,-y,-z
loop_
_atom_site_type_symbol
_atom_site_label
_atom_site_fract_x
_atom_site_fract_y
_atom_site_fract_z
Si Si1 0.656636 0.922320 0.439866
Si Si2 0.573820 0.685352 0.483526
Si Si3 0.067125 0.535117 0.228833
Si Si4 0.680911 0.337926 0.038621
Si Si5 0.400794 0.652790 0.597602
Si Si6 0.309559 0.141290 0.148207
Si Si7 0.039485 0.759913 0.222154
Si Si8 0.040782 0.227150 0.413703
O O1 0.801616 0.698035 0.599744
O O2 0.825105 0.778541 0.277198
O O3 0.500000 0.000000 0.500000
O O4 0.525463 0.171543 0.402965
O O5 0.534031 0.602110 0.562946
O O6 0.810720 0.456618 0.416100
O O7 0.435778 0.920760 0.320900
O O8 0.164641 0.402266 0.108795
O O9 0.098416 0.623408 0.165363
O O10 0.632991 0.403392 0.184723
O O11 0.500000 0.500000 0.000000
O O12 0.789709 0.334448 0.855353
O O13 0.842619 0.054832 0.131157
O O14 0.500000 0.500000 0.500000
O O15 0.190138 0.951339 0.509534
O O16 0.148422 0.219307 0.219532
O O17 0.500000 0.000000 0.000000
O O18 0.988684 0.728086 0.438174
#
# Coordination Sequence:
#
# PCOD9073733 Si02
#       8
#     2   2   2   2   2   2   2   2
#     4  10  18  31  56  86 109 136 181 235 292 350
#     4  10  20  36  60  83 113 156 194 239 300 356
#     4  10  19  32  51  79 110 139 180 230 283 348
#     4  10  21  38  58  83 116 150 194 250 302 348
#     4  10  22  39  60  86 119 161 204 244 295 358
#     4  10  22  37  53  78 116 156 193 238 293 355
#     4  10  20  34  57  84 111 146 187 244 305 344
#     4  10  20  38  59  82 115 152 195 246 297 353
#
# _framework density 20.652619000000001
#
# number of rings (size 3 to 8) (size 9 to 14) (size 15 to 20)
#    0.000    2.000    0.000    6.000    0.000    4.000 
#    0.000    1.250    0.000    0.000    0.000    0.000 
#    0.000    0.000    0.000    0.000    0.000    0.000 
#
# Total GULP energy -89127.061229 kJ/mol
# GULP energy per Si atom -5570.441327 kJ/mol
# Density = 2.060561 g / cm^3
# Si number density = 20.652619 Si / 1000 Ang^3
#
#
#
# Elastic Constant Matrix: (Units=GPa)
#
#
# Indices 1 2 3 4 5 6 
#
# 1 98.8626 68.2257 17.1202 13.6629 -22.0304 -3.7368
# 2 68.2257 130.9406 6.5453 26.5587 -10.8303 -11.5888
# 3 17.1202 6.5453 47.9381 19.9720 -17.0579 3.1134
# 4 13.6629 26.5587 19.9720 34.3943 -8.3798 -1.6504
# 5 -22.0304 -10.8303 -17.0579 -8.3798 25.3637 11.6186
# 6 -3.7368 -11.5888 3.1134 -1.6504 11.6186 44.8489
#
#
#
# Elastic Compliance Matrix: (Units=1/GPa)
#
#
# Indices 1 2 3 4 5 6 
#
# 1 0.020474 -0.010681 -0.001980 0.004858 0.015696 -0.004804
# 2 -0.010681 0.015105 0.004186 -0.010974 -0.005333 0.003700
# 3 -0.001980 0.004186 0.037651 -0.019133 0.022883 -0.008329
# 4 0.004858 -0.010974 -0.019133 0.047283 0.002265 0.000051
# 5 0.015696 -0.005333 0.022883 0.002265 0.076751 -0.021458
# 6 -0.004804 0.003700 -0.008329 0.000051 -0.021458 0.028992
#
#
# Mechanical properties :
#
#
# Convention : Reuss Voigt Hill
#
# Bulk Modulus (GPa) = 17.76860 51.28040 34.52450
# Shear Modulus (GPa) = 19.08651 33.31138 26.19894
#
# Velocity S-wave (km/s) = 3.04331 4.02050 3.56554
# Velocity P-wave (km/s) = 4.57944 6.81443 5.80550
#
# Compressibility (1/GPa) = 0.05627907
#
# Stress axis : x y z
#
# Youngs Moduli (GPa) = 48.84292 66.20200 26.56004
#
# Poissons Ratio (x) = 0.70711 0.05259
# Poissons Ratio (y) = 0.52169 -0.11118
# Poissons Ratio (z) = 0.09672 -0.27712
#
# Static dielectric constant tensor:
#      x y z
#    x 1.871570 -0.024770 -0.043760 
#    y -0.024770 1.747430 0.065730 
#    z -0.043760 0.065730 1.862610 
# 
# From -- ./inp_files/465809.got.cif
#   From: 2010.05.17/outbox.cif.g08.bks.cpg/sg2_233_cif.got.tgz:465809.got - 2010.06.03 11:33:40.
