data_PCOD9073818
_publ_section_title
;
Structure prediction by ZEFSAII (Michael W. Deem and Ramdas Pophale) SiO2 
 PCOD9073818
Probable space group: P -1
;
_chemical_formula_sum "Si O2"
_cell_formula_units_Z 16
_cell_length_a 16.710307
_cell_length_b 17.221702
_cell_length_c 12.100541
_cell_angle_alpha 157.139724
_cell_angle_beta 153.642475
_cell_angle_gamma 27.227182
_cell_volume 558.373137
_symmetry_space_group_name_H-M "P -1"
_symmetry_group_IT_number 2
_symmetry_cell_setting 'triclinic'
loop_
_space_group_symop_operation_xyz
x,y,z
-x,-y,-z
loop_
_atom_site_type_symbol
_atom_site_label
_atom_site_fract_x
_atom_site_fract_y
_atom_site_fract_z
Si Si1 0.736055 0.721653 0.909837
Si Si2 0.049498 0.345505 0.702135
Si Si3 0.472660 0.590905 0.707042
Si Si4 0.229780 0.949339 0.199292
Si Si5 0.205318 0.635347 0.034327
Si Si6 0.470393 0.901204 0.633664
Si Si7 0.167617 0.981191 0.926472
Si Si8 0.777183 0.489868 0.356982
O O1 0.640509 0.542515 0.548372
O O2 0.606174 0.914872 0.924360
O O3 0.949617 0.589638 0.951308
O O4 0.758323 0.754491 0.111868
O O5 0.943971 0.179928 0.390953
O O6 0.976600 0.402436 0.560092
O O7 0.500000 0.500000 0.500000
O O8 0.673816 0.525937 0.934269
O O9 0.341072 0.841370 0.879330
O O10 0.326050 0.031327 0.525400
O O11 0.252920 0.025068 0.205427
O O12 0.317340 0.688696 0.965441
O O13 0.000000 0.000000 0.000000
O O14 0.328098 0.786585 0.357634
O O15 0.191798 0.529365 0.761060
O O16 0.996358 0.801639 0.030846
O O17 0.639674 0.717857 0.531372
#
# Coordination Sequence:
#
# PCOD9073818 Si02
#       8
#     2   2   2   2   2   2   2   2
#     4   8  15  30  45  64  95 124 150 188 219 277
#     4   8  15  26  46  71  95 121 145 173 237 287
#     4  10  21  34  48  65  88 123 164 198 227 259
#     4  10  14  22  39  64  95 115 135 176 224 275
#     4  10  17  29  45  67  94 116 154 193 228 270
#     4   9  15  24  40  63  93 123 143 176 227 277
#     4  10  18  29  48  71  96 121 147 188 232 280
#     4   9  15  24  42  66  93 119 143 181 228 283
#
# _framework density 28.654674
#
# number of rings (size 3 to 8) (size 9 to 14) (size 15 to 20)
#    0.000    2.750    2.500    4.500    0.000    0.500 
#    0.000    2.500    0.000    0.750    0.000    0.875 
#    0.000    0.000    0.000    0.000    0.000    0.125 
#
# Total GULP energy -89481.345576 kJ/mol
# GULP energy per Si atom -5592.584099 kJ/mol
# Density = 2.858946 g / cm^3
# Si number density = 28.654674 Si / 1000 Ang^3
#
#
#
# Elastic Constant Matrix: (Units=GPa)
#
#
# Indices 1 2 3 4 5 6 
#
# 1 66.7803 53.7677 41.1221 -10.3288 -17.1223 16.7326
# 2 53.7677 184.7358 74.4561 -41.6041 -46.8416 30.8432
# 3 41.1221 74.4561 187.9293 -40.0325 -59.8878 16.1674
# 4 -10.3288 -41.6041 -40.0325 65.3960 6.2498 -3.4996
# 5 -17.1223 -46.8416 -59.8878 6.2498 72.5236 -0.4817
# 6 16.7326 30.8432 16.1674 -3.4996 -0.4817 44.8095
#
#
#
# Elastic Compliance Matrix: (Units=1/GPa)
#
#
# Indices 1 2 3 4 5 6 
#
# 1 0.021240 -0.004889 -0.002881 -0.001677 -0.000402 -0.003662
# 2 -0.004889 0.009890 0.000155 0.004899 0.004909 -0.004603
# 3 -0.002881 0.000155 0.009086 0.004482 0.006525 -0.001889
# 4 -0.001677 0.004899 0.004482 0.020292 0.004703 -0.002728
# 5 -0.000402 0.004909 0.006525 0.004703 0.021814 -0.004981
# 6 -0.003662 -0.004603 -0.001889 -0.002728 -0.004981 0.027267
#
#
# Mechanical properties :
#
#
# Convention : Reuss Voigt Hill
#
# Bulk Modulus (GPa) = 40.01967 86.45968 63.23967
# Shear Modulus (GPa) = 37.55239 54.55244 46.05241
#
# Velocity S-wave (km/s) = 3.62403 4.36798 4.01328
# Velocity P-wave (km/s) = 5.61320 7.46173 6.60248
#
# Compressibility (1/GPa) = 0.02498771
#
# Stress axis : x y z
#
# Youngs Moduli (GPa) = 47.08103 101.11242 110.05434
#
# Poissons Ratio (x) = 0.49433 0.31706
# Poissons Ratio (y) = 0.23017 -0.01711
# Poissons Ratio (z) = 0.13564 -0.01572
#
# Static dielectric constant tensor:
#      x y z
#    x 2.375760 -0.023490 0.054480 
#    y -0.023490 2.365240 0.042580 
#    z 0.054480 0.042580 2.233510 
# 
# From -- ./inp_files/347037.got.cif
#   From: 2010.05.17/outbox.cif.g08.bks.cpg/sg2_174_cif.got.tgz:347037.got - 2010.06.03 11:33:40.
