data_PCOD9073579
_publ_section_title
;
Structure prediction by ZEFSAII (Michael W. Deem and Ramdas Pophale) SiO2 
 PCOD9073579
Probable space group: P -1
;
_chemical_formula_sum "Si O2"
_cell_formula_units_Z 16
_cell_length_a 6.000000
_cell_length_b 21.000000
_cell_length_c 24.000000
_cell_angle_alpha 160.000000
_cell_angle_beta 120.000000
_cell_angle_gamma 50.000000
_cell_volume 727.173860
_symmetry_space_group_name_H-M "P -1"
_symmetry_group_IT_number 2
_symmetry_cell_setting 'triclinic'
loop_
_space_group_symop_operation_xyz
x,y,z
-x,-y,-z
loop_
_atom_site_type_symbol
_atom_site_label
_atom_site_fract_x
_atom_site_fract_y
_atom_site_fract_z
Si Si1 0.600232 0.305016 0.397683
Si Si2 0.471587 0.217141 0.861187
Si Si3 0.958261 0.678608 0.821890
Si Si4 0.701993 0.915824 0.868304
Si Si5 0.758805 0.107111 0.918987
Si Si6 0.123175 0.134912 0.555818
Si Si7 0.902765 0.291145 0.778617
Si Si8 0.959435 0.257311 0.507445
O O1 0.500000 0.500000 0.500000
O O2 0.357109 0.243460 0.306154
O O3 0.652318 0.335258 0.494095
O O4 0.930451 0.088471 0.236483
O O5 0.491894 0.168485 0.890559
O O6 0.170581 0.258860 0.826577
O O7 0.773487 0.002844 0.691708
O O8 0.423428 0.459260 0.046892
O O9 0.922088 0.763827 0.823261
O O10 0.033204 0.430686 0.634585
O O11 0.214688 0.685315 0.894669
O O12 0.616932 0.868466 0.964606
O O13 0.785821 0.017005 0.911156
O O14 0.977409 0.256276 0.576741
O O15 0.976989 0.286505 0.718234
O O16 0.500000 0.000000 0.500000
O O17 0.086501 0.929573 0.388322
#
# Coordination Sequence:
#
# PCOD9073579 Si02
#       8
#     2   2   2   2   2   2   2   2
#     4  10  21  42  60  90 132 162 207 265 307 376
#     4  10  23  44  62  93 130 161 209 265 313 376
#     4  10  22  40  62  90 131 159 214 264 299 379
#     4  10  21  41  62  89 126 175 207 253 320 364
#     4  10  23  38  63  91 123 168 216 252 313 376
#     4  11  24  43  69  94 124 166 212 259 322 376
#     4  10  24  46  64  91 131 162 208 266 314 382
#     4  11  23  42  66  96 125 169 211 261 319 370
#
# _framework density 22.002991000000002
#
# number of rings (size 3 to 8) (size 9 to 14) (size 15 to 20)
#    0.000    1.750    2.500    0.375    5.250    1.000 
#    0.000    0.000    0.000    0.000    0.000    0.000 
#    0.000    0.000    0.000    0.000    0.000    0.000 
#
# Total GULP energy -89171.542715 kJ/mol
# GULP energy per Si atom -5573.221420 kJ/mol
# Density = 2.195291 g / cm^3
# Si number density = 22.002991 Si / 1000 Ang^3
#
#
#
# Elastic Constant Matrix: (Units=GPa)
#
#
# Indices 1 2 3 4 5 6 
#
# 1 28.1236 33.0550 7.1248 -17.3658 4.6870 12.9103
# 2 33.0550 205.2995 36.5620 -32.5836 6.5799 26.4836
# 3 7.1248 36.5620 86.4958 -3.1939 9.8235 -8.1091
# 4 -17.3658 -32.5836 -3.1939 37.6322 0.2187 0.3743
# 5 4.6870 6.5799 9.8235 0.2187 21.8870 -4.9921
# 6 12.9103 26.4836 -8.1091 0.3743 -4.9921 34.7118
#
#
#
# Elastic Compliance Matrix: (Units=1/GPa)
#
#
# Indices 1 2 3 4 5 6 
#
# 1 0.079309 -0.001133 -0.005351 0.035625 -0.022230 -0.033464
# 2 -0.001133 0.007408 -0.003188 0.005695 -0.002055 -0.006332
# 3 -0.005351 -0.003188 0.014181 -0.004085 -0.002528 0.007416
# 4 0.035625 0.005695 -0.004085 0.047879 -0.012753 -0.020900
# 5 -0.022230 -0.002055 -0.002528 -0.012753 0.056317 0.017482
# 6 -0.033464 -0.006332 0.007416 -0.020900 0.017482 0.050558
#
#
# Mechanical properties :
#
#
# Convention : Reuss Voigt Hill
#
# Bulk Modulus (GPa) = 12.26176 52.60028 32.43102
# Shear Modulus (GPa) = 16.54638 35.05801 25.80220
#
# Velocity S-wave (km/s) = 2.74525 3.99598 3.42814
# Velocity P-wave (km/s) = 3.95391 6.72669 5.51733
#
# Compressibility (1/GPa) = 0.08155435
#
# Stress axis : x y z
#
# Youngs Moduli (GPa) = 12.60885 134.99448 70.51632
#
# Poissons Ratio (x) = 0.15295 0.37733
# Poissons Ratio (y) = 0.01429 0.22480
# Poissons Ratio (z) = 0.06747 0.43035
#
# Static dielectric constant tensor:
#      x y z
#    x 1.927500 0.006260 0.076960 
#    y 0.006260 1.830680 0.016650 
#    z 0.076960 0.016650 1.884820 
# 
# From -- ./inp_files/48735.got.cif
#   From: 2010.05.17/outbox.ucp.g08.bks.cvg/sg2_25_cif.got.tgz:48735.got - 2010.06.11 11:32:03.
