data_PCOD9073791
_publ_section_title
;
Structure prediction by ZEFSAII (Michael W. Deem and Ramdas Pophale) SiO2 
 PCOD9073791
Probable space group: P -1
;
_chemical_formula_sum "Si O2"
_cell_formula_units_Z 14
_cell_length_a 17.895779
_cell_length_b 12.546884
_cell_length_c 11.668662
_cell_angle_alpha 37.692960
_cell_angle_beta 151.258910
_cell_angle_gamma 143.421943
_cell_volume 715.171347
_symmetry_space_group_name_H-M "P -1"
_symmetry_group_IT_number 2
_symmetry_cell_setting 'triclinic'
loop_
_space_group_symop_operation_xyz
x,y,z
-x,-y,-z
loop_
_atom_site_type_symbol
_atom_site_label
_atom_site_fract_x
_atom_site_fract_y
_atom_site_fract_z
Si Si1 0.518050 0.462132 0.224646
Si Si2 0.102015 0.350992 0.202245
Si Si3 0.570308 0.668228 0.362493
Si Si4 0.296346 0.206834 0.981024
Si Si5 0.314147 0.777915 0.044782
Si Si6 0.708366 0.180800 0.763463
Si Si7 0.005608 0.161440 0.460262
O O1 0.526179 0.563725 0.270104
O O2 0.582960 0.637354 0.076083
O O3 0.628988 0.329012 0.486137
O O4 0.337651 0.315338 0.064919
O O5 0.228635 0.247052 0.428523
O O6 0.205365 0.559843 0.118556
O O7 0.088471 0.337880 0.333943
O O8 0.912371 0.268268 0.972631
O O9 0.500000 0.500000 0.500000
O O10 0.465631 0.792979 0.152366
O O11 0.117278 0.165049 0.716441
O O12 0.330861 0.014450 0.190032
O O13 0.359772 0.869574 0.154267
O O14 0.177038 0.847298 0.748041
O O15 0.000000 0.000000 0.500000
#
# Coordination Sequence:
#
# PCOD9073791 Si02
#       7
#     2   2   2   2   2   2   2
#     4  11  22  37  56  84 119 149 182 234 281 333
#     4  10  18  31  57  81 107 139 188 235 273 316
#     4  10  19  34  57  82 113 152 182 227 285 333
#     4  11  22  35  58  87 114 145 188 235 280 328
#     4  10  19  32  57  83 108 145 185 232 282 328
#     4  11  19  36  60  87 107 146 193 237 274 322
#     4  11  18  33  54  82 109 134 188 238 269 321
#
# _framework density 19.575728000000002
#
# number of rings (size 3 to 8) (size 9 to 14) (size 15 to 20)
#    0.000    1.429    7.143    3.000    0.000    0.000 
#    0.000    3.571    0.000    3.429    0.000    0.000 
#    0.000    0.000    0.000    0.000    0.000    0.000 
#
# Total GULP energy -77968.403170 kJ/mol
# GULP energy per Si atom -5569.171655 kJ/mol
# Density = 1.953117 g / cm^3
# Si number density = 19.575728 Si / 1000 Ang^3
#
#
#
# Elastic Constant Matrix: (Units=GPa)
#
#
# Indices 1 2 3 4 5 6 
#
# 1 63.7753 8.0379 17.2152 2.5201 29.2250 0.0886
# 2 8.0379 73.9821 27.7326 -9.3026 5.1524 -10.6287
# 3 17.2152 27.7326 93.1983 -0.2967 32.6714 5.9766
# 4 2.5201 -9.3026 -0.2967 36.1032 0.0372 -3.7299
# 5 29.2250 5.1524 32.6714 0.0372 43.6855 -1.2211
# 6 0.0886 -10.6287 5.9766 -3.7299 -1.2211 16.2041
#
#
#
# Elastic Compliance Matrix: (Units=1/GPa)
#
#
# Indices 1 2 3 4 5 6 
#
# 1 0.023705 -0.003936 0.003568 -0.003256 -0.018232 -0.006151
# 2 -0.003936 0.020616 -0.009322 0.007495 0.007706 0.019288
# 3 0.003568 -0.009322 0.019556 -0.004077 -0.016343 -0.015517
# 4 -0.003256 0.007495 -0.004077 0.031264 0.004708 0.013989
# 5 -0.018232 0.007706 -0.016343 0.004708 0.046839 0.015796
# 6 -0.006151 0.019288 -0.015517 0.013989 0.015796 0.084531
#
#
# Mechanical properties :
#
#
# Convention : Reuss Voigt Hill
#
# Bulk Modulus (GPa) = 22.47408 37.43634 29.95521
# Shear Modulus (GPa) = 19.17745 31.06322 25.12033
#
# Velocity S-wave (km/s) = 3.13334 3.98782 3.58612
# Velocity P-wave (km/s) = 4.95943 6.35366 5.69934
#
# Compressibility (1/GPa) = 0.04449571
#
# Stress axis : x y z
#
# Youngs Moduli (GPa) = 42.18542 48.50695 51.13540
#
# Poissons Ratio (x) = 0.19094 -0.18245
# Poissons Ratio (y) = 0.16606 0.47668
# Poissons Ratio (z) = -0.15052 0.45218
#
# Static dielectric constant tensor:
#      x y z
#    x 1.699690 -0.022660 0.013220 
#    y -0.022660 1.830140 -0.029260 
#    z 0.013220 -0.029260 1.795210 
# 
# From -- ./inp_files/247883.got.cif
#   From: 2010.05.17/outbox.cif.g08.bks.cpg/sg2_124_cif.got.tgz:247883.got - 2010.06.03 11:33:40.
