data_PCOD9073340
_publ_section_title
;
Structure prediction by ZEFSAII (Michael W. Deem and Ramdas Pophale) SiO2 
 PCOD9073340
Probable space group: P -1
;
_chemical_formula_sum "Si O2"
_cell_formula_units_Z 16
_cell_length_a 27.000000
_cell_length_b 27.000000
_cell_length_c 9.000000
_cell_angle_alpha 140.000000
_cell_angle_beta 140.000000
_cell_angle_gamma 10.000000
_cell_volume 728.340053
_symmetry_space_group_name_H-M "P -1"
_symmetry_group_IT_number 2
_symmetry_cell_setting 'triclinic'
loop_
_space_group_symop_operation_xyz
x,y,z
-x,-y,-z
loop_
_atom_site_type_symbol
_atom_site_label
_atom_site_fract_x
_atom_site_fract_y
_atom_site_fract_z
Si Si1 0.627982 0.720953 0.116481
Si Si2 0.418316 0.402628 0.390275
Si Si3 0.570576 0.884493 0.750354
Si Si4 0.575409 0.517973 0.709092
Si Si5 0.858064 0.755098 0.977783
Si Si6 0.893214 0.923036 0.925994
Si Si7 0.982017 0.377978 0.435062
Si Si8 0.896792 0.884260 0.499294
O O1 0.787977 0.586429 0.325759
O O2 0.812074 0.573980 0.062841
O O3 0.308932 0.057135 0.124646
O O4 0.636685 0.621151 0.887028
O O5 0.377063 0.508643 0.417997
O O6 0.218378 0.589095 0.504416
O O7 0.726538 0.095758 0.467846
O O8 0.737174 0.789595 0.824172
O O9 0.773508 0.614539 0.626949
O O10 0.280800 0.133617 0.580823
O O11 0.500000 0.000000 0.000000
O O12 0.500000 0.500000 0.500000
O O13 0.841198 0.280301 0.880936
O O14 0.353365 0.796033 0.902119
O O15 0.829081 0.857629 0.256331
O O16 0.844188 0.963150 0.727417
O O17 0.955751 0.773328 0.769249
#
# Coordination Sequence:
#
# PCOD9073340 Si02
#       8
#     2   2   2   2   2   2   2   2
#     4  10  21  38  63  91 119 171 219 267 322 383
#     4  10  21  42  67  97 135 173 220 262 338 403
#     4  12  26  41  58  89 132 176 216 277 339 374
#     4  12  26  46  73 103 137 173 213 278 343 402
#     4  10  22  39  60  89 132 167 219 269 326 377
#     4  12  25  45  71 103 134 171 237 271 324 412
#     4  12  25  40  67  90 127 172 225 273 324 386
#     4  10  22  41  69  97 131 184 221 271 319 394
#
# _framework density 21.967760999999999
#
# number of rings (size 3 to 8) (size 9 to 14) (size 15 to 20)
#    0.000    1.000    1.250    5.250    3.500    6.000 
#    0.000    3.750    0.000    0.000    0.000    0.000 
#    0.000    0.000    0.000    0.000    0.000    0.000 
#
# Total GULP energy -89350.795477 kJ/mol
# GULP energy per Si atom -5584.424717 kJ/mol
# Density = 2.191776 g / cm^3
# Si number density = 21.967761 Si / 1000 Ang^3
#
#
#
# Elastic Constant Matrix: (Units=GPa)
#
#
# Indices 1 2 3 4 5 6 
#
# 1 80.2544 -5.6299 40.3784 -6.3293 8.6241 4.5516
# 2 -5.6299 72.8110 18.6793 -2.2093 -6.0593 -11.0001
# 3 40.3784 18.6793 115.6076 -9.1563 -7.5593 -5.0255
# 4 -6.3293 -2.2093 -9.1563 41.2830 -2.0559 -4.1938
# 5 8.6241 -6.0593 -7.5593 -2.0559 31.7987 -2.4256
# 6 4.5516 -11.0001 -5.0255 -4.1938 -2.4256 21.5517
#
#
#
# Elastic Compliance Matrix: (Units=1/GPa)
#
#
# Indices 1 2 3 4 5 6 
#
# 1 0.016995 0.001820 -0.006819 0.000385 -0.006231 -0.004877
# 2 0.001820 0.015973 -0.002591 0.001476 0.002620 0.007746
# 3 -0.006819 -0.002591 0.012092 0.002124 0.004663 0.003875
# 4 0.000385 0.001476 0.002124 0.025631 0.002833 0.006474
# 5 -0.006231 0.002620 0.004663 0.002833 0.035561 0.008294
# 6 -0.004877 0.007746 0.003875 0.006474 0.008294 0.054481
#
#
# Mechanical properties :
#
#
# Convention : Reuss Voigt Hill
#
# Bulk Modulus (GPa) = 33.46829 41.72540 37.59685
# Shear Modulus (GPa) = 26.90002 33.27636 30.08819
#
# Velocity S-wave (km/s) = 3.50311 3.89624 3.70490
# Velocity P-wave (km/s) = 5.62412 6.26706 5.95427
#
# Compressibility (1/GPa) = 0.02987903
#
# Stress axis : x y z
#
# Youngs Moduli (GPa) = 58.83966 62.60623 82.70019
#
# Poissons Ratio (x) = -0.11393 0.56393
# Poissons Ratio (y) = -0.10708 0.21431
# Poissons Ratio (z) = 0.40122 0.16224
#
# Static dielectric constant tensor:
#      x y z
#    x 1.859170 -0.052620 -0.046300 
#    y -0.052620 1.898070 0.050450 
#    z -0.046300 0.050450 1.773900 
# 
# From -- ./inp_files/358025.got.cif
#   From: 2010.05.17/outbox.ucp.g08.bks.cvg/sg2_180_cif.got.tgz:358025.got - 2010.06.11 11:32:03.
