data_PCOD9073628
_publ_section_title
;
Structure prediction by ZEFSAII (Michael W. Deem and Ramdas Pophale) SiO2 
 PCOD9073628
Probable space group: P -1
;
_chemical_formula_sum "Si O2"
_cell_formula_units_Z 16
_cell_length_a 13.635158
_cell_length_b 11.052229
_cell_length_c 20.126265
_cell_angle_alpha 42.301506
_cell_angle_beta 149.097860
_cell_angle_gamma 146.027779
_cell_volume 866.250867
_symmetry_space_group_name_H-M "P -1"
_symmetry_group_IT_number 2
_symmetry_cell_setting 'triclinic'
loop_
_space_group_symop_operation_xyz
x,y,z
-x,-y,-z
loop_
_atom_site_type_symbol
_atom_site_label
_atom_site_fract_x
_atom_site_fract_y
_atom_site_fract_z
Si Si1 0.412618 0.157068 0.255293
Si Si2 0.466819 0.698948 0.139712
Si Si3 0.519847 0.305512 0.114081
Si Si4 0.498853 0.860993 0.493654
Si Si5 0.615249 0.957483 0.990820
Si Si6 0.158934 0.365674 0.643049
Si Si7 0.840706 0.805129 0.793040
Si Si8 0.002921 0.471453 0.627357
O O1 0.377334 0.195706 0.143538
O O2 0.618961 0.389345 0.311307
O O3 0.201027 0.091332 0.207889
O O4 0.496511 0.995834 0.375756
O O5 0.722132 0.746244 0.271889
O O6 0.279555 0.450028 0.153751
O O7 0.465309 0.760642 0.036385
O O8 0.439758 0.864010 0.099529
O O9 0.783531 0.410240 0.247576
O O10 0.500000 0.500000 0.000000
O O11 0.443596 0.138451 0.077921
O O12 0.693554 0.818289 0.641847
O O13 0.243519 0.643044 0.435166
O O14 0.500000 0.000000 0.500000
O O15 0.889839 0.074632 0.114214
O O16 0.029904 0.306705 0.662972
O O17 0.001705 0.374427 0.493070
#
# Coordination Sequence:
#
# PCOD9073628 Si02
#       8
#     2   2   2   2   2   2   2   2
#     4   9  19  33  53  88 113 139 187 231 291 345
#     4  10  21  41  60  87 107 151 209 239 273 339
#     4  11  24  37  53  83 123 155 180 229 299 355
#     4  10  18  31  55  91 110 137 192 236 293 328
#     4  11  24  38  60  83 117 159 193 231 289 345
#     4   9  17  32  59  80 108 142 190 246 277 317
#     4  10  20  37  63  87 114 145 192 254 281 326
#     4  10  18  32  56  83 113 145 176 239 289 333
#
# _framework density 18.470400000000001
#
# number of rings (size 3 to 8) (size 9 to 14) (size 15 to 20)
#    0.000    2.000    3.750    2.625    7.000    0.500 
#    2.250    0.625    0.000    0.750    0.000    0.000 
#    0.000    0.000    0.000    0.000    0.000    0.000 
#
# Total GULP energy -89162.270647 kJ/mol
# GULP energy per Si atom -5572.641915 kJ/mol
# Density = 1.842836 g / cm^3
# Si number density = 18.470400 Si / 1000 Ang^3
#
#
#
# Elastic Constant Matrix: (Units=GPa)
#
#
# Indices 1 2 3 4 5 6 
#
# 1 86.1789 33.7726 54.5015 -8.9408 8.8427 -3.5063
# 2 33.7726 62.7793 39.6415 -9.2153 2.6810 7.6432
# 3 54.5015 39.6415 114.8736 -10.1398 10.1482 -14.3545
# 4 -8.9408 -9.2153 -10.1398 31.4381 8.9513 0.6996
# 5 8.8427 2.6810 10.1482 8.9513 35.7701 -3.6951
# 6 -3.5063 7.6432 -14.3545 0.6996 -3.6951 21.3988
#
#
#
# Elastic Compliance Matrix: (Units=1/GPa)
#
#
# Indices 1 2 3 4 5 6 
#
# 1 0.018261 -0.005352 -0.006339 0.002407 -0.002910 0.000071
# 2 -0.005352 0.026646 -0.008206 0.004317 -0.001103 -0.016231
# 3 -0.006339 -0.008206 0.016350 0.001201 -0.001459 0.012569
# 4 0.002407 0.004317 0.001201 0.037344 -0.010961 -0.003456
# 5 -0.002910 -0.001103 -0.001459 -0.010961 0.032421 0.004895
# 6 0.000071 -0.016231 0.012569 -0.003456 0.004895 0.061930
#
#
# Mechanical properties :
#
#
# Convention : Reuss Voigt Hill
#
# Bulk Modulus (GPa) = 46.58916 57.74031 52.16474
# Shear Modulus (GPa) = 20.84208 26.78249 23.81228
#
# Velocity S-wave (km/s) = 3.36282 3.81205 3.59446
# Velocity P-wave (km/s) = 6.35268 7.12071 6.74763
#
# Compressibility (1/GPa) = 0.02146422
#
# Stress axis : x y z
#
# Youngs Moduli (GPa) = 54.76121 37.52857 61.16357
#
# Poissons Ratio (x) = 0.20086 0.38769
# Poissons Ratio (y) = 0.29310 0.50188
# Poissons Ratio (z) = 0.34711 0.30794
#
# Static dielectric constant tensor:
#      x y z
#    x 1.656780 0.069340 0.012420 
#    y 0.069340 1.710320 -0.045990 
#    z 0.012420 -0.045990 1.674670 
# 
# From -- ./inp_files/597821.got.cif
#   From: 2010.05.17/outbox.cif.g08.bks.cpg/sg2_299_cif.got.tgz:597821.got - 2010.06.03 11:33:40.
