data_PCOD9073649
_publ_section_title
;
Structure prediction by ZEFSAII (Michael W. Deem and Ramdas Pophale) SiO2 
 PCOD9073649
Probable space group: P -1
;
_chemical_formula_sum "Si O2"
_cell_formula_units_Z 16
_cell_length_a 15.000000
_cell_length_b 15.000000
_cell_length_c 12.000000
_cell_angle_alpha 30.000000
_cell_angle_beta 40.000000
_cell_angle_gamma 60.000000
_cell_volume 747.221570
_symmetry_space_group_name_H-M "P -1"
_symmetry_group_IT_number 2
_symmetry_cell_setting 'triclinic'
loop_
_space_group_symop_operation_xyz
x,y,z
-x,-y,-z
loop_
_atom_site_type_symbol
_atom_site_label
_atom_site_fract_x
_atom_site_fract_y
_atom_site_fract_z
Si Si1 0.807577 0.063090 0.553416
Si Si2 0.048898 0.956276 0.340715
Si Si3 0.233492 0.772593 0.931967
Si Si4 0.664908 0.576052 0.832388
Si Si5 0.408684 0.183024 0.174169
Si Si6 0.766250 0.365568 0.670665
Si Si7 0.946619 0.514280 0.910492
Si Si8 0.905392 0.787573 0.191392
O O1 0.813817 0.024565 0.722861
O O2 0.680512 0.888148 0.782209
O O3 0.811298 0.274169 0.285431
O O4 0.976150 0.086896 0.324204
O O5 0.921677 0.709827 0.725495
O O6 0.077770 0.033409 0.101374
O O7 0.350663 0.989081 0.525209
O O8 0.278305 0.598540 0.032608
O O9 0.240314 0.756585 0.077343
O O10 0.059980 0.755666 0.092282
O O11 0.630076 0.658678 0.891902
O O12 0.816052 0.768284 0.414552
O O13 0.500000 0.500000 0.000000
O O14 0.594404 0.258519 0.892855
O O15 0.785986 0.578802 0.465867
O O16 0.912449 0.417157 0.391197
O O17 0.000000 0.500000 0.000000
#
# Coordination Sequence:
#
# PCOD9073649 Si02
#       8
#     2   2   2   2   2   2   2   2
#     4  10  22  42  66  95 129 168 225 277 330 389
#     4  10  21  41  71  91 123 175 224 279 323 388
#     4  11  24  42  64  99 137 178 225 275 323 403
#     4  11  24  41  67  97 138 180 222 263 338 403
#     4  12  24  42  66  98 137 179 214 276 342 398
#     4  11  22  40  66  94 139 172 214 280 341 386
#     4  10  22  42  70  94 126 175 227 277 328 395
#     4  11  22  43  69  96 134 176 230 275 323 400
#
# _framework density 21.412658
#
# number of rings (size 3 to 8) (size 9 to 14) (size 15 to 20)
#    0.000    1.250    5.000    1.875    1.750    3.500 
#    0.000    3.125    0.000    0.000    0.000    0.000 
#    0.000    0.000    0.000    0.000    0.000    0.000 
#
# Total GULP energy -89219.547140 kJ/mol
# GULP energy per Si atom -5576.221696 kJ/mol
# Density = 2.136392 g / cm^3
# Si number density = 21.412658 Si / 1000 Ang^3
#
#
#
# Elastic Constant Matrix: (Units=GPa)
#
#
# Indices 1 2 3 4 5 6 
#
# 1 141.8916 21.1554 31.2413 -6.0851 -2.5648 -1.5557
# 2 21.1554 79.7791 -0.3052 -10.6837 0.9613 1.1421
# 3 31.2413 -0.3052 31.3918 -2.6524 -2.9047 -19.6595
# 4 -6.0851 -10.6837 -2.6524 34.4498 -1.6212 6.0200
# 5 -2.5648 0.9613 -2.9047 -1.6212 35.5915 -8.8429
# 6 -1.5557 1.1421 -19.6595 6.0200 -8.8429 32.0655
#
#
#
# Elastic Compliance Matrix: (Units=1/GPa)
#
#
# Indices 1 2 3 4 5 6 
#
# 1 0.011742 -0.002718 -0.020104 0.001784 -0.003886 -0.013066
# 2 -0.002718 0.013777 0.003845 0.003914 0.000185 0.001051
# 3 -0.020104 0.003845 0.092561 -0.005148 0.021289 0.062474
# 4 0.001784 0.003914 -0.005148 0.031764 -0.001320 -0.009536
# 5 -0.003886 0.000185 0.021289 -0.001320 0.035154 0.022800
# 6 -0.013066 0.001051 0.062474 -0.009536 0.022800 0.076896
#
#
# Mechanical properties :
#
#
# Convention : Reuss Voigt Hill
#
# Bulk Modulus (GPa) = 12.48037 39.69396 26.08717
# Shear Modulus (GPa) = 15.31128 33.81943 24.56536
#
# Velocity S-wave (km/s) = 2.67696 3.97849 3.39076
# Velocity P-wave (km/s) = 3.92377 6.29940 5.24778
#
# Compressibility (1/GPa) = 0.08012582
#
# Stress axis : x y z
#
# Youngs Moduli (GPa) = 85.16213 72.58554 10.80372
#
# Poissons Ratio (x) = 0.19728 0.21720
# Poissons Ratio (y) = 0.23146 -0.04154
# Poissons Ratio (z) = 1.71210 -0.27909
#
# Static dielectric constant tensor:
#      x y z
#    x 1.812220 0.036330 -0.033950 
#    y 0.036330 1.826760 -0.033980 
#    z -0.033950 -0.033980 1.836330 
# 
# From -- ./inp_files/455364.got.cif
#   From: 2010.05.17/outbox.ucp.g08.bks.cvg/sg2_228_cif.got.tgz:455364.got - 2010.06.11 11:32:03.
