data_PCOD9073111
_publ_section_title
;
Structure prediction by ZEFSAII (Michael W. Deem and Ramdas Pophale) SiO2 
 PCOD9073111
Probable space group: P -1
;
_chemical_formula_sum "Si O2"
_cell_formula_units_Z 11
_cell_length_a 12.000000
_cell_length_b 9.000000
_cell_length_c 9.000000
_cell_angle_alpha 110.000000
_cell_angle_beta 120.000000
_cell_angle_gamma 120.000000
_cell_volume 447.555233
_symmetry_space_group_name_H-M "P -1"
_symmetry_group_IT_number 2
_symmetry_cell_setting 'triclinic'
loop_
_space_group_symop_operation_xyz
x,y,z
-x,-y,-z
loop_
_atom_site_type_symbol
_atom_site_label
_atom_site_fract_x
_atom_site_fract_y
_atom_site_fract_z
Si Si1 0.000000 0.000000 0.000000
Si Si2 0.524179 0.693231 0.920097
Si Si3 0.557262 0.706663 0.424078
Si Si4 0.267690 0.528673 0.428077
Si Si5 0.141017 0.726319 0.299823
Si Si6 0.024805 0.210813 0.561149
O O1 0.224057 0.138949 0.285855
O O2 0.044513 0.200834 0.204387
O O3 0.505846 0.484143 0.810516
O O4 0.485919 0.721737 0.739525
O O5 0.278686 0.494778 0.760094
O O6 0.770792 0.992156 0.247852
O O7 0.333113 0.508538 0.307815
O O8 0.639903 0.957390 0.503460
O O9 0.215286 0.657827 0.429513
O O10 0.984362 0.695874 0.264242
O O11 0.000000 0.500000 0.000000
O O12 0.000000 0.000000 0.500000
#
# Coordination Sequence:
#
# PCOD9073111 Si02
#       6
#     1   2   2   2   2   2
#     4  10  20  42  64 106 140 190 238 294 362 432
#     4  11  27  47  79 104 151 200 251 302 367 455
#     4  11  24  42  76 107 149 193 249 305 368 444
#     4  11  26  42  73 111 145 197 247 306 374 436
#     4  12  27  47  75 109 150 192 250 314 373 442
#     4  12  28  50  77 109 149 200 249 305 379 441
#
# _framework density 24.577971999999999
#
# number of rings (size 3 to 8) (size 9 to 14) (size 15 to 20)
#    0.000    0.727    3.636    3.273   12.727    2.909 
#    0.000    0.000    0.000    0.000    0.000    0.000 
#    0.000    0.000    0.000    0.000    0.000    0.000 
#
# Total GULP energy -61264.064614 kJ/mol
# GULP energy per Si atom -5569.460419 kJ/mol
# Density = 2.452203 g / cm^3
# Si number density = 24.577972 Si / 1000 Ang^3
#
#
#
# Elastic Constant Matrix: (Units=GPa)
#
#
# Indices 1 2 3 4 5 6 
#
# 1 119.7811 19.1131 45.9498 9.6552 -24.3886 2.9429
# 2 19.1131 38.0811 -16.6454 -4.9584 -4.1421 -29.8778
# 3 45.9498 -16.6454 125.5998 -28.5162 6.8896 4.4887
# 4 9.6552 -4.9584 -28.5162 14.0703 -3.5080 5.3118
# 5 -24.3886 -4.1421 6.8896 -3.5080 38.5581 6.1149
# 6 2.9429 -29.8778 4.4887 5.3118 6.1149 53.5679
#
#
#
# Elastic Compliance Matrix: (Units=1/GPa)
#
#
# Indices 1 2 3 4 5 6 
#
# 1 -0.014610 0.037489 0.025859 0.069203 -0.005652 0.013328
# 2 0.037489 -0.032315 -0.047637 -0.127054 0.018074 -0.005556
# 3 0.025859 -0.047637 -0.024446 -0.073496 0.012097 -0.020035
# 4 0.069203 -0.127054 -0.073496 -0.137694 0.040154 -0.059439
# 5 -0.005652 0.018074 0.012097 0.040154 0.025398 0.002497
# 6 0.013328 -0.005556 -0.020035 -0.059439 0.002497 0.022125
#
#
# Mechanical properties :
#
#
# Convention : Reuss Voigt Hill
#
# Bulk Modulus (GPa) = -25.03192 42.25523 8.61165
# Shear Modulus (GPa) = -24.23900 36.90889 6.33494
#
# Velocity S-wave (km/s) = -3.14380 3.87939 1.60720
# Velocity P-wave (km/s) = 4.83578 6.10703 2.63733
#
# Compressibility (1/GPa) = -0.03994899
#
# Stress axis : x y z
#
# Youngs Moduli (GPa) = -68.44804 -30.94578 -40.90693
#
# Poissons Ratio (x) = 1.16012 1.05780
# Poissons Ratio (y) = 2.56602 -1.94868
# Poissons Ratio (z) = 1.76998 -1.47416
#
# Static dielectric constant tensor:
#      x y z
#    x 2.006930 0.146200 0.033090 
#    y 0.146200 2.370620 0.073350 
#    z 0.033090 0.073350 2.028810 
# 
# From -- ./inp_files/17508.got.cif
#   From: 2010.05.17/outbox.ucp.g08.bks.cvg/sg2_9_cif.got.tgz:17508.got - 2010.06.11 11:32:03.
