data_PCOD9073933
_publ_section_title
;
Structure prediction by ZEFSAII (Michael W. Deem and Ramdas Pophale) SiO2 
 PCOD9073933
Probable space group: P -1
;
_chemical_formula_sum "Si O2"
_cell_formula_units_Z 16
_cell_length_a 15.000000
_cell_length_b 9.000000
_cell_length_c 9.000000
_cell_angle_alpha 80.000000
_cell_angle_beta 110.000000
_cell_angle_gamma 50.000000
_cell_volume 732.374747
_symmetry_space_group_name_H-M "P -1"
_symmetry_group_IT_number 2
_symmetry_cell_setting 'triclinic'
loop_
_space_group_symop_operation_xyz
x,y,z
-x,-y,-z
loop_
_atom_site_type_symbol
_atom_site_label
_atom_site_fract_x
_atom_site_fract_y
_atom_site_fract_z
Si Si1 0.541281 0.531748 0.365978
Si Si2 0.953063 0.846769 0.339227
Si Si3 0.999734 0.911019 0.857156
Si Si4 0.701062 0.982042 0.019583
Si Si5 0.724621 0.566762 0.360230
Si Si6 0.730533 0.596770 0.012947
Si Si7 0.771628 0.038503 0.504100
Si Si8 0.588134 0.036841 0.269791
O O1 0.500000 0.500000 0.500000
O O2 0.403104 0.786803 0.178093
O O3 0.672356 0.495035 0.447738
O O4 0.620051 0.312006 0.346833
O O5 0.111643 0.581564 0.487024
O O6 0.976404 0.987556 0.270232
O O7 0.878111 0.934621 0.443066
O O8 0.852527 0.880886 0.159433
O O9 0.133949 0.633182 0.960136
O O10 0.855281 0.992948 0.707317
O O11 0.000000 0.000000 0.000000
O O12 0.624906 0.062677 0.124669
O O13 0.730312 0.778504 0.008652
O O14 0.724656 0.534483 0.188749
O O15 0.611210 0.834041 0.283390
O O16 0.578836 0.736508 0.824273
O O17 0.708359 0.946222 0.472316
#
# Coordination Sequence:
#
# PCOD9073933 Si02
#       8
#     2   2   2   2   2   2   2   2
#     4  12  25  42  66  95 147 183 228 282 336 417
#     4  11  24  41  73 102 138 182 230 287 338 416
#     4  12  27  43  64  99 143 186 229 279 347 408
#     4  10  23  40  68 109 133 176 231 283 349 400
#     4  11  20  44  71 104 138 177 231 284 348 401
#     4  11  21  43  72 100 143 175 228 291 339 414
#     4  11  25  43  67 103 134 185 231 283 344 405
#     4  10  22  39  73 106 134 173 232 293 339 404
#
# _framework density 21.846738999999999
#
# number of rings (size 3 to 8) (size 9 to 14) (size 15 to 20)
#    0.000    1.000    5.000    1.875    5.250    2.500 
#    0.000    2.500    0.000    0.000    0.000    0.000 
#    0.000    0.000    0.000    0.000    0.000    0.000 
#
# Total GULP energy -89363.109011 kJ/mol
# GULP energy per Si atom -5585.194313 kJ/mol
# Density = 2.179701 g / cm^3
# Si number density = 21.846739 Si / 1000 Ang^3
#
#
#
# Elastic Constant Matrix: (Units=GPa)
#
#
# Indices 1 2 3 4 5 6 
#
# 1 77.6265 26.4326 34.0742 4.6078 17.6888 -4.0334
# 2 26.4326 112.8658 50.6844 -7.4701 18.3362 -11.1892
# 3 34.0742 50.6844 92.5538 -0.2412 28.9769 -6.4795
# 4 4.6078 -7.4701 -0.2412 35.4792 7.0529 14.0583
# 5 17.6888 18.3362 28.9769 7.0529 41.6903 -3.8534
# 6 -4.0334 -11.1892 -6.4795 14.0583 -3.8534 21.5856
#
#
#
# Elastic Compliance Matrix: (Units=1/GPa)
#
#
# Indices 1 2 3 4 5 6 
#
# 1 0.016082 -0.001423 -0.004168 -0.002858 -0.002594 0.002414
# 2 -0.001423 0.012330 -0.005749 0.001639 -0.000806 0.003189
# 3 -0.004168 -0.005749 0.018138 0.001503 -0.008642 -0.000836
# 4 -0.002858 0.001639 0.001503 0.042323 -0.010361 -0.028647
# 5 -0.002594 -0.000806 -0.008642 -0.010361 0.034063 0.009332
# 6 0.002414 0.003189 -0.000836 -0.028647 0.009332 0.068504
#
#
# Mechanical properties :
#
#
# Convention : Reuss Voigt Hill
#
# Bulk Modulus (GPa) = 41.88997 56.15872 49.02434
# Shear Modulus (GPa) = 22.51478 31.20801 26.86140
#
# Velocity S-wave (km/s) = 3.21374 3.78365 3.51028
# Velocity P-wave (km/s) = 5.74343 6.69698 6.23845
#
# Compressibility (1/GPa) = 0.02387206
#
# Stress axis : x y z
#
# Youngs Moduli (GPa) = 62.17961 81.10016 55.13329
#
# Poissons Ratio (x) = 0.11542 0.22978
# Poissons Ratio (y) = 0.08849 0.31693
# Poissons Ratio (z) = 0.25914 0.46620
#
# Static dielectric constant tensor:
#      x y z
#    x 1.834240 0.044400 0.021390 
#    y 0.044400 1.797080 -0.021600 
#    z 0.021390 -0.021600 1.814690 
# 
# From -- ./inp_files/206406.got.cif
#   From: 2010.05.17/outbox.ucp.g08.bks.cvg/sg2_104_cif.got.tgz:206406.got - 2010.06.11 11:32:03.
