data_PCOD9073872
_publ_section_title
;
Structure prediction by ZEFSAII (Michael W. Deem and Ramdas Pophale) SiO2 
 PCOD9073872
Probable space group: P -1
;
_chemical_formula_sum "Si O2"
_cell_formula_units_Z 16
_cell_length_a 21.000000
_cell_length_b 9.000000
_cell_length_c 12.000000
_cell_angle_alpha 140.000000
_cell_angle_beta 40.000000
_cell_angle_gamma 110.000000
_cell_volume 754.890988
_symmetry_space_group_name_H-M "P -1"
_symmetry_group_IT_number 2
_symmetry_cell_setting 'triclinic'
loop_
_space_group_symop_operation_xyz
x,y,z
-x,-y,-z
loop_
_atom_site_type_symbol
_atom_site_label
_atom_site_fract_x
_atom_site_fract_y
_atom_site_fract_z
Si Si1 0.219591 0.423877 0.443808
Si Si2 0.980905 0.157649 0.732483
Si Si3 0.960085 0.788816 0.932062
Si Si4 0.623292 0.703350 0.299103
Si Si5 0.257465 0.945150 0.261135
Si Si6 0.666977 0.868076 0.097757
Si Si7 0.763669 0.818953 0.352181
Si Si8 0.841994 0.037377 0.021930
O O1 0.215919 0.667674 0.658774
O O2 0.081364 0.512513 0.662516
O O3 0.283872 0.128396 0.253651
O O4 0.275287 0.364966 0.212320
O O5 0.869374 0.495453 0.067893
O O6 0.933531 0.032949 0.811304
O O7 0.000000 0.000000 0.500000
O O8 0.111189 0.090455 0.552058
O O9 0.841063 0.899057 0.225833
O O10 0.923720 0.776826 0.849205
O O11 0.000000 0.000000 0.000000
O O12 0.672343 0.734776 0.133367
O O13 0.672552 0.804250 0.386902
O O14 0.476346 0.895684 0.600653
O O15 0.679043 0.372679 0.050374
O O16 0.301194 0.962472 0.334257
O O17 0.741777 0.006180 0.085198
#
# Coordination Sequence:
#
# PCOD9073872 Si02
#       8
#     2   2   2   2   2   2   2   2
#     4  11  24  42  69 101 133 174 213 274 334 396
#     4  12  23  40  68 104 140 172 210 266 338 404
#     4  10  22  38  66 102 133 166 212 264 329 400
#     4  11  28  47  66  96 125 181 232 275 329 389
#     4  12  24  42  69  99 139 176 211 270 336 404
#     4  11  27  48  67  91 132 172 235 284 321 385
#     4  12  23  44  66 100 139 175 216 265 337 403
#     4  11  24  43  66 102 135 171 218 272 333 396
#
# _framework density 21.195112999999999
#
# number of rings (size 3 to 8) (size 9 to 14) (size 15 to 20)
#    0.000    0.750    5.000    2.625    5.250    2.000 
#    0.000    3.750    0.000    0.000    0.000    0.000 
#    0.000    0.000    0.000    0.000    0.000    0.000 
#
# Total GULP energy -89456.165395 kJ/mol
# GULP energy per Si atom -5591.010337 kJ/mol
# Density = 2.114687 g / cm^3
# Si number density = 21.195113 Si / 1000 Ang^3
#
#
#
# Elastic Constant Matrix: (Units=GPa)
#
#
# Indices 1 2 3 4 5 6 
#
# 1 97.7887 2.2902 23.0289 0.8741 30.1476 0.1221
# 2 2.2902 36.5763 -5.0418 13.6727 16.8884 -7.6480
# 3 23.0289 -5.0418 31.6129 0.7382 20.0060 6.8093
# 4 0.8741 13.6727 0.7382 18.1996 -9.8750 8.0810
# 5 30.1476 16.8884 20.0060 -9.8750 32.8400 3.4298
# 6 0.1221 -7.6480 6.8093 8.0810 3.4298 24.9481
#
#
#
# Elastic Compliance Matrix: (Units=1/GPa)
#
#
# Indices 1 2 3 4 5 6 
#
# 1 0.012015 -0.008342 -0.012071 0.009535 0.003787 -0.002931
# 2 -0.008342 -0.014436 -0.019871 0.043259 0.042155 -0.018768
# 3 -0.012071 -0.019871 0.033622 0.034348 0.014098 -0.028273
# 4 0.009535 0.043259 0.034348 -0.020197 -0.059942 0.018622
# 5 0.003787 0.042155 0.014098 -0.059942 -0.024645 0.031861
# 6 -0.002931 -0.018768 -0.028273 0.018622 0.031861 0.031649
#
#
# Mechanical properties :
#
#
# Convention : Reuss Voigt Hill
#
# Bulk Modulus (GPa) = -20.25743 22.94805 1.34531
# Shear Modulus (GPa) = 60.88660 24.91091 42.89875
#
# Velocity S-wave (km/s) = 5.36555 3.43200 4.50376
# Velocity P-wave (km/s) = 5.36722 5.15320 5.26130
#
# Compressibility (1/GPa) = -0.04936461
#
# Stress axis : x y z
#
# Youngs Moduli (GPa) = 83.22835 -69.27157 29.74201
#
# Poissons Ratio (x) = -0.57785 0.35901
# Poissons Ratio (y) = 0.69427 0.59099
# Poissons Ratio (z) = 1.00463 -1.37647
#
# Static dielectric constant tensor:
#      x y z
#    x 1.772630 -0.064130 -0.007560 
#    y -0.064130 1.800520 0.025270 
#    z -0.007560 0.025270 1.766440 
# 
# From -- ./inp_files/259240.got.cif
#   From: 2010.05.17/outbox.ucp.g08.bks.cvg/sg2_130_cif.got.tgz:259240.got - 2010.06.11 11:32:03.
