data_PCOD9073506
_publ_section_title
;
Structure prediction by ZEFSAII (Michael W. Deem and Ramdas Pophale) SiO2 
 PCOD9073506
Probable space group: P -1
;
_chemical_formula_sum "Si O2"
_cell_formula_units_Z 16
_cell_length_a 15.000000
_cell_length_b 9.000000
_cell_length_c 9.000000
_cell_angle_alpha 50.000000
_cell_angle_beta 80.000000
_cell_angle_gamma 110.000000
_cell_volume 732.374747
_symmetry_space_group_name_H-M "P -1"
_symmetry_group_IT_number 2
_symmetry_cell_setting 'triclinic'
loop_
_space_group_symop_operation_xyz
x,y,z
-x,-y,-z
loop_
_atom_site_type_symbol
_atom_site_label
_atom_site_fract_x
_atom_site_fract_y
_atom_site_fract_z
Si Si1 0.020650 0.223579 0.017492
Si Si2 0.899593 0.066842 0.831140
Si Si3 0.567192 0.853269 0.932650
Si Si4 0.279920 0.723031 0.620452
Si Si5 0.207854 0.941332 0.734942
Si Si6 0.240818 0.795093 0.140822
Si Si7 0.686632 0.616570 0.023798
Si Si8 0.298026 0.454193 0.271598
O O1 0.147962 0.475135 0.796016
O O2 0.955566 0.134034 0.935011
O O3 0.028764 0.013297 0.214509
O O4 0.928037 0.215192 0.148635
O O5 0.861922 0.242621 0.706928
O O6 0.775747 0.818136 0.987814
O O7 0.639814 0.092148 0.652105
O O8 0.634213 0.983110 0.982073
O O9 0.594684 0.666049 0.001676
O O10 0.431463 0.686793 0.082998
O O11 0.345696 0.631732 0.739932
O O12 0.262614 0.880157 0.633283
O O13 0.266483 0.226972 0.524352
O O14 0.227869 0.864454 0.935683
O O15 0.232223 0.554422 0.289171
O O16 0.734198 0.636226 0.832195
#
# Coordination Sequence:
#
# PCOD9073506 Si02
#       8
#     2   2   2   2   2   2   2   2
#     4   9  19  39  67  92 125 168 210 254 319 375
#     4   8  18  39  63  90 125 159 206 258 306 373
#     4  11  25  42  65  96 125 168 216 260 311 381
#     4  11  22  41  68  92 130 169 208 261 316 371
#     4  11  23  41  65  94 132 167 205 266 316 369
#     4  10  23  43  64  95 131 162 215 259 317 379
#     4  10  21  40  64  93 127 163 211 259 309 376
#     4  12  24  41  66  94 131 165 213 262 316 373
#
# _framework density 21.846738999999999
#
# number of rings (size 3 to 8) (size 9 to 14) (size 15 to 20)
#    0.000    1.750    2.500    1.125    0.000    8.000 
#    0.000   16.250    0.000    0.000    0.000    0.000 
#    0.000    0.000    0.000    0.000    0.000    0.000 
#
# Total GULP energy -89068.570952 kJ/mol
# GULP energy per Si atom -5566.785684 kJ/mol
# Density = 2.179701 g / cm^3
# Si number density = 21.846739 Si / 1000 Ang^3
#
#
#
# Elastic Constant Matrix: (Units=GPa)
#
#
# Indices 1 2 3 4 5 6 
#
# 1 59.9700 24.6428 67.9239 -21.7955 32.5755 -25.1639
# 2 24.6428 59.9488 -19.2632 -20.4003 6.0669 -13.5438
# 3 67.9239 -19.2632 -237.2908 20.2789 -86.8232 18.4358
# 4 -21.7955 -20.4003 20.2789 13.3456 9.6383 2.8957
# 5 32.5755 6.0669 -86.8232 9.6383 1.9587 -8.6569
# 6 -25.1639 -13.5438 18.4358 2.8957 -8.6569 39.4677
#
#
#
# Elastic Compliance Matrix: (Units=1/GPa)
#
#
# Indices 1 2 3 4 5 6 
#
# 1 0.019255 0.008509 0.010575 0.031978 -0.006900 0.006397
# 2 0.008509 0.050811 0.015332 0.085969 -0.025641 0.003768
# 3 0.010575 0.015332 0.009309 0.042667 -0.022196 -0.000343
# 4 0.031978 0.085969 0.042667 0.233993 -0.055901 0.000531
# 5 -0.006900 -0.025641 -0.022196 -0.055901 0.050519 0.012352
# 6 0.006397 0.003768 -0.000343 0.000531 0.012352 0.033540
#
#
# Mechanical properties :
#
#
# Convention : Reuss Voigt Hill
#
# Bulk Modulus (GPa) = 6.74729 3.24834 4.99781
# Shear Modulus (GPa) = 13.22763 -1.75728 5.73518
#
# Velocity S-wave (km/s) = 2.46331 -0.89784 1.62200
# Velocity P-wave (km/s) = 3.34450 0.64443 2.40842
#
# Compressibility (1/GPa) = 0.14820773
#
# Stress axis : x y z
#
# Youngs Moduli (GPa) = 51.93474 19.68079 107.42094
#
# Poissons Ratio (x) = -0.16746 -1.13601
# Poissons Ratio (y) = -0.44190 -1.64701
# Poissons Ratio (z) = -0.54923 -0.30175
#
# Static dielectric constant tensor:
#      x y z
#    x 1.866790 -0.048930 0.019440 
#    y -0.048930 1.830760 0.006960 
#    z 0.019440 0.006960 1.756860 
# 
# From -- ./inp_files/278587.got.cif
#   From: 2010.05.17/outbox.ucp.g08.bks.cvg/sg2_140_cif.got.tgz:278587.got - 2010.06.11 11:32:03.
