data_PCOD9073371
_publ_section_title
;
Structure prediction by ZEFSAII (Michael W. Deem and Ramdas Pophale) SiO2 
 PCOD9073371
Probable space group: P -1
;
_chemical_formula_sum "Si O2"
_cell_formula_units_Z 12
_cell_length_a 14.389790
_cell_length_b 6.853106
_cell_length_c 10.830517
_cell_angle_alpha 93.535684
_cell_angle_beta 134.975637
_cell_angle_gamma 56.321330
_cell_volume 520.454774
_symmetry_space_group_name_H-M "P -1"
_symmetry_group_IT_number 2
_symmetry_cell_setting 'triclinic'
loop_
_space_group_symop_operation_xyz
x,y,z
-x,-y,-z
loop_
_atom_site_type_symbol
_atom_site_label
_atom_site_fract_x
_atom_site_fract_y
_atom_site_fract_z
Si Si1 0.310045 0.644419 0.697951
Si Si2 0.749734 0.575684 0.166625
Si Si3 0.370028 0.739746 0.204799
Si Si4 0.646761 0.945419 0.297795
Si Si5 0.352989 0.879008 0.449952
Si Si6 0.991689 0.965316 0.755136
O O1 0.308317 0.569126 0.831189
O O2 0.486093 0.367176 0.775263
O O3 0.319543 0.866845 0.703883
O O4 0.115755 0.807343 0.447852
O O5 0.773595 0.678603 0.315931
O O6 0.919470 0.331332 0.228397
O O7 0.573966 0.853087 0.936914
O O8 0.369296 0.896704 0.320978
O O9 0.464571 0.441014 0.342248
O O10 0.161429 0.908159 0.968983
O O11 0.674010 0.917526 0.469483
O O12 0.173753 0.924624 0.302815
#
# Coordination Sequence:
#
# PCOD9073371 Si02
#       6
#     2   2   2   2   2   2
#     4  10  21  34  55  81 105 141 168 216 266 305
#     4  11  19  35  54  81 109 133 179 211 261 318
#     4   9  17  33  53  76 107 135 178 213 254 314
#     4   9  20  34  55  77 105 144 170 213 263 304
#     4   9  18  32  52  79 103 139 176 213 258 305
#     4  10  18  31  54  82 103 139 171 217 263 304
#
# _framework density 23.056760000000001
#
# number of rings (size 3 to 8) (size 9 to 14) (size 15 to 20)
#    0.000    2.667    3.333    1.500    0.000    2.667 
#    0.000    0.833    0.000    1.000    0.000    0.000 
#    0.000    0.000    0.000    0.000    0.000    0.000 
#
# Total GULP energy -66983.544190 kJ/mol
# GULP energy per Si atom -5581.962016 kJ/mol
# Density = 2.300428 g / cm^3
# Si number density = 23.056760 Si / 1000 Ang^3
#
#
#
# Elastic Constant Matrix: (Units=GPa)
#
#
# Indices 1 2 3 4 5 6 
#
# 1 29.9314 15.8054 8.5178 -10.6771 -3.0622 -8.8810
# 2 15.8054 100.7973 20.0394 24.8736 -1.7068 -11.8637
# 3 8.5178 20.0394 142.3741 0.2924 7.8928 -12.1384
# 4 -10.6771 24.8736 0.2924 34.2212 -8.5444 -3.8905
# 5 -3.0622 -1.7068 7.8928 -8.5444 15.7032 -2.5122
# 6 -8.8810 -11.8637 -12.1384 -3.8905 -2.5122 27.7918
#
#
#
# Elastic Compliance Matrix: (Units=1/GPa)
#
#
# Indices 1 2 3 4 5 6 
#
# 1 0.077651 -0.021296 -0.002136 0.054749 0.047977 0.026791
# 2 -0.021296 0.018765 -0.000784 -0.024676 -0.015789 -0.004019
# 3 -0.002136 -0.000784 0.007674 -0.001136 -0.004697 0.001751
# 4 0.054749 -0.024676 -0.001136 0.080891 0.056238 0.022873
# 5 0.047977 -0.015789 -0.004697 0.056238 0.108151 0.024189
# 6 0.026791 -0.004019 0.001751 0.022873 0.024189 0.048981
#
#
# Mechanical properties :
#
#
# Convention : Reuss Voigt Hill
#
# Bulk Modulus (GPa) = 17.96702 40.20312 29.08507
# Shear Modulus (GPa) = 12.22205 30.79259 21.50732
#
# Velocity S-wave (km/s) = 2.30486 3.65843 3.05749
# Velocity P-wave (km/s) = 3.85909 5.94306 5.01061
#
# Compressibility (1/GPa) = 0.05565753
#
# Stress axis : x y z
#
# Youngs Moduli (GPa) = 12.87818 53.29088 130.31259
#
# Poissons Ratio (x) = 1.13488 0.27838
# Poissons Ratio (y) = 0.27425 0.10214
# Poissons Ratio (z) = 0.02751 0.04177
#
# Static dielectric constant tensor:
#      x y z
#    x 1.860520 0.007880 0.030460 
#    y 0.007880 1.925380 0.052810 
#    z 0.030460 0.052810 1.904930 
# 
# From -- ./inp_files/249666.got.cif
#   From: 2010.05.17/outbox.cif.g08.bks.cpg/sg2_125_cif.got.tgz:249666.got - 2010.06.03 11:33:40.
