data_PCOD9073349
_publ_section_title
;
Structure prediction by ZEFSAII (Michael W. Deem and Ramdas Pophale) SiO2 
 PCOD9073349
Probable space group: P -1
;
_chemical_formula_sum "Si O2"
_cell_formula_units_Z 16
_cell_length_a 9.000000
_cell_length_b 27.000000
_cell_length_c 27.000000
_cell_angle_alpha 170.000000
_cell_angle_beta 40.000000
_cell_angle_gamma 140.000000
_cell_volume 728.340053
_symmetry_space_group_name_H-M "P -1"
_symmetry_group_IT_number 2
_symmetry_cell_setting 'triclinic'
loop_
_space_group_symop_operation_xyz
x,y,z
-x,-y,-z
loop_
_atom_site_type_symbol
_atom_site_label
_atom_site_fract_x
_atom_site_fract_y
_atom_site_fract_z
Si Si1 0.372999 0.614058 0.894662
Si Si2 0.508236 0.198750 0.262656
Si Si3 0.209458 0.219865 0.266622
Si Si4 0.164079 0.389025 0.621522
Si Si5 0.392646 0.885201 0.361932
Si Si6 0.169297 0.128102 0.833395
Si Si7 0.937113 0.630090 0.090963
Si Si8 0.300087 0.869910 0.652382
O O1 0.262392 0.501274 0.759820
O O2 0.175316 0.691211 0.059616
O O3 0.534855 0.381437 0.645646
O O4 0.548063 0.898272 0.124729
O O5 0.311310 0.106471 0.180692
O O6 0.674125 0.461319 0.456729
O O7 0.371135 0.305795 0.450399
O O8 0.682381 0.951980 0.975322
O O9 0.936770 0.217340 0.342964
O O10 0.988518 0.102398 0.386417
O O11 0.996939 0.617351 0.867055
O O12 0.500000 0.000000 0.500000
O O13 0.593273 0.814952 0.202785
O O14 0.220777 0.596687 0.125942
O O15 0.223141 0.111806 0.607406
O O16 0.233449 0.002437 0.746817
O O17 0.000000 0.500000 0.000000
#
# Coordination Sequence:
#
# PCOD9073349 Si02
#       8
#     2   2   2   2   2   2   2   2
#     4  12  26  43  64  93 137 169 207 261 326 382
#     4  10  21  38  64  94 123 162 208 261 314 370
#     4  10  21  38  64  94 123 160 212 263 305 368
#     4  12  24  43  64  97 130 171 207 262 327 377
#     4  12  24  42  66  96 127 164 215 272 317 368
#     4  12  24  41  68  96 125 164 223 266 309 374
#     4  12  24  44  66  92 128 176 214 255 320 385
#     4  12  24  43  64  97 126 169 213 266 309 373
#
# _framework density 21.967760999999999
#
# number of rings (size 3 to 8) (size 9 to 14) (size 15 to 20)
#    0.000    0.500    1.250    8.250    3.500    0.000 
#    0.000    3.750    0.000    0.000    0.000    0.000 
#    0.000    0.000    0.000    0.000    0.000    0.000 
#
# Total GULP energy -89495.462981 kJ/mol
# GULP energy per Si atom -5593.466436 kJ/mol
# Density = 2.191776 g / cm^3
# Si number density = 21.967761 Si / 1000 Ang^3
#
#
#
# Elastic Constant Matrix: (Units=GPa)
#
#
# Indices 1 2 3 4 5 6 
#
# 1 65.0713 37.0538 6.6126 -17.4104 -4.6722 12.2544
# 2 37.0538 125.5135 13.1823 -20.8437 -1.5101 27.7208
# 3 6.6126 13.1823 87.0789 -13.2216 -7.5454 15.4881
# 4 -17.4104 -20.8437 -13.2216 34.9799 6.0400 8.9978
# 5 -4.6722 -1.5101 -7.5454 6.0400 39.9776 -1.4804
# 6 12.2544 27.7208 15.4881 8.9978 -1.4804 37.2704
#
#
#
# Elastic Compliance Matrix: (Units=1/GPa)
#
#
# Indices 1 2 3 4 5 6 
#
# 1 0.021668 -0.002559 0.002302 0.012365 0.000664 -0.009136
# 2 -0.002559 0.012945 0.001868 0.010534 -0.001500 -0.012165
# 3 0.002302 0.001868 0.014586 0.010315 0.001140 -0.010653
# 4 0.012365 0.010534 0.010315 0.053377 -0.005359 -0.029286
# 5 0.000664 -0.001500 0.001140 -0.005359 0.026162 0.002757
# 6 -0.009136 -0.012165 -0.010653 -0.029286 0.002757 0.050490
#
#
# Mechanical properties :
#
#
# Convention : Reuss Voigt Hill
#
# Bulk Modulus (GPa) = 19.07669 43.48457 31.28063
# Shear Modulus (GPa) = 25.84265 37.16658 31.50461
#
# Velocity S-wave (km/s) = 3.43357 4.11770 3.79110
# Velocity P-wave (km/s) = 4.94187 6.51498 5.78217
#
# Compressibility (1/GPa) = 0.05241999
#
# Stress axis : x y z
#
# Youngs Moduli (GPa) = 46.15145 77.25134 68.55925
#
# Poissons Ratio (x) = 0.19770 -0.15782
# Poissons Ratio (y) = 0.11811 -0.12807
# Poissons Ratio (z) = -0.10624 -0.14430
#
# Static dielectric constant tensor:
#      x y z
#    x 1.791580 -0.000350 -0.036410 
#    y -0.000350 1.773730 0.014160 
#    z -0.036410 0.014160 1.914300 
# 
# From -- ./inp_files/226219.got.cif
#   From: 2010.05.17/outbox.ucp.g08.bks.cvg/sg2_114_cif.got.tgz:226219.got - 2010.06.11 11:32:03.
