data_PCOD9073524
_publ_section_title
;
Structure prediction by ZEFSAII (Michael W. Deem and Ramdas Pophale) SiO2 
 PCOD9073524
Probable space group: P -1
;
_chemical_formula_sum "Si O2"
_cell_formula_units_Z 16
_cell_length_a 18.141437
_cell_length_b 12.888716
_cell_length_c 15.169888
_cell_angle_alpha 154.028083
_cell_angle_beta 24.345690
_cell_angle_gamma 149.867651
_cell_volume 619.401113
_symmetry_space_group_name_H-M "P -1"
_symmetry_group_IT_number 2
_symmetry_cell_setting 'triclinic'
loop_
_space_group_symop_operation_xyz
x,y,z
-x,-y,-z
loop_
_atom_site_type_symbol
_atom_site_label
_atom_site_fract_x
_atom_site_fract_y
_atom_site_fract_z
Si Si1 0.370735 0.672604 0.436224
Si Si2 0.218745 0.098588 0.410692
Si Si3 0.576221 0.107300 0.111904
Si Si4 0.742765 0.535906 0.120587
Si Si5 0.079798 0.407881 0.685652
Si Si6 0.855355 0.198447 0.380017
Si Si7 0.468756 0.051715 0.366929
Si Si8 0.767878 0.633547 0.977116
O O1 0.245710 0.484486 0.496067
O O2 0.241064 0.703108 0.521356
O O3 0.437461 0.910060 0.609508
O O4 0.559238 0.607154 0.152303
O O5 0.357610 0.089505 0.330485
O O6 0.146599 0.337827 0.654686
O O7 0.054758 0.852980 0.397614
O O8 0.352097 0.086820 0.172566
O O9 0.663288 0.349823 0.144907
O O10 0.610960 0.059577 0.139041
O O11 0.606371 0.709594 0.390325
O O12 0.758652 0.463481 0.944214
O O13 0.959417 0.607679 0.966431
O O14 0.713819 0.172933 0.597266
O O15 0.834398 0.909127 0.160150
O O16 0.071035 0.338344 0.249420
#
# Coordination Sequence:
#
# PCOD9073524 Si02
#       8
#     2   2   2   2   2   2   2   2
#     4  10  18  31  55  82 107 139 169 219 270 318
#     4   9  20  35  55  71  98 148 189 217 249 306
#     4  10  19  36  54  75 104 144 180 215 263 314
#     4   9  17  30  52  81 108 134 162 217 272 319
#     4  10  18  33  54  78 103 135 188 217 255 313
#     4   9  17  31  50  77 112 140 171 206 259 334
#     4  10  20  32  52  82 115 134 165 217 276 323
#     4   9  16  28  50  76 109 138 170 201 256 331
#
# _framework density 25.831403000000002
#
# number of rings (size 3 to 8) (size 9 to 14) (size 15 to 20)
#    0.000    2.750    1.250    3.375    0.000    0.000 
#    0.000    6.875    0.000    1.500    0.000    0.000 
#    0.000    0.000    0.000    0.000    0.000    0.000 
#
# Total GULP energy -89222.222817 kJ/mol
# GULP energy per Si atom -5576.388926 kJ/mol
# Density = 2.577261 g / cm^3
# Si number density = 25.831403 Si / 1000 Ang^3
#
#
#
# Elastic Constant Matrix: (Units=GPa)
#
#
# Indices 1 2 3 4 5 6 
#
# 1 66.2873 21.3293 27.2976 -12.1905 -8.8390 -11.3160
# 2 21.3293 117.7555 10.9234 -39.4128 -13.0450 -7.9741
# 3 27.2976 10.9234 60.9564 -22.6960 -2.5887 4.7209
# 4 -12.1905 -39.4128 -22.6960 47.2354 -7.4387 -10.6902
# 5 -8.8390 -13.0450 -2.5887 -7.4387 46.9439 -8.6522
# 6 -11.3160 -7.9741 4.7209 -10.6902 -8.6522 28.6993
#
#
#
# Elastic Compliance Matrix: (Units=1/GPa)
#
#
# Indices 1 2 3 4 5 6 
#
# 1 0.023881 0.001455 -0.008759 0.008439 0.008905 0.017089
# 2 0.001455 0.018306 0.003998 0.023515 0.012541 0.017542
# 3 -0.008759 0.003998 0.024712 0.013250 0.002809 -0.000626
# 4 0.008439 0.023515 0.013250 0.062140 0.025817 0.038611
# 5 0.008905 0.012541 0.002809 0.025817 0.035668 0.026903
# 6 0.017089 0.017542 -0.000626 0.038611 0.026903 0.069052
#
#
# Mechanical properties :
#
#
# Convention : Reuss Voigt Hill
#
# Bulk Modulus (GPa) = 16.58734 40.45552 28.52143
# Shear Modulus (GPa) = 19.19631 36.93899 28.06765
#
# Velocity S-wave (km/s) = 2.72901 3.78564 3.29989
# Velocity P-wave (km/s) = 4.04541 5.89945 5.05810
#
# Compressibility (1/GPa) = 0.06028695
#
# Stress axis : x y z
#
# Youngs Moduli (GPa) = 41.87397 54.62819 40.46599
#
# Poissons Ratio (x) = -0.07949 0.35442
# Poissons Ratio (y) = -0.06093 -0.16176
# Poissons Ratio (z) = 0.36676 -0.21838
#
# Static dielectric constant tensor:
#      x y z
#    x 2.078630 0.064630 0.043700 
#    y 0.064630 2.110670 0.041140 
#    z 0.043700 0.041140 2.121600 
# 
# From -- ./inp_files/426176.got.cif
#   From: 2010.05.17/outbox.cif.g08.bks.cpg/sg2_214_cif.got.tgz:426176.got - 2010.06.03 11:33:40.
