data_PCOD9073480
_publ_section_title
;
Structure prediction by ZEFSAII (Michael W. Deem and Ramdas Pophale) SiO2 
 PCOD9073480
Probable space group: P -1
;
_chemical_formula_sum "Si O2"
_cell_formula_units_Z 14
_cell_length_a 10.673806
_cell_length_b 19.668611
_cell_length_c 11.457181
_cell_angle_alpha 142.386518
_cell_angle_beta 72.490510
_cell_angle_gamma 136.631945
_cell_volume 760.727982
_symmetry_space_group_name_H-M "P -1"
_symmetry_group_IT_number 2
_symmetry_cell_setting 'triclinic'
loop_
_space_group_symop_operation_xyz
x,y,z
-x,-y,-z
loop_
_atom_site_type_symbol
_atom_site_label
_atom_site_fract_x
_atom_site_fract_y
_atom_site_fract_z
Si Si1 0.402281 0.304635 0.242318
Si Si2 0.683683 0.114566 0.468125
Si Si3 0.829605 0.593133 0.350780
Si Si4 0.817112 0.179364 0.777665
Si Si5 0.295522 0.605825 0.131490
Si Si6 0.197952 0.074144 0.471312
Si Si7 0.125787 0.107802 0.277871
O O1 0.500000 0.500000 0.500000
O O2 0.632538 0.417854 0.264161
O O3 0.305785 0.190893 0.239108
O O4 0.154411 0.120502 0.985369
O O5 0.752113 0.103078 0.555506
O O6 0.692019 0.252114 0.681786
O O7 0.886444 0.233192 0.477380
O O8 0.402921 0.899806 0.225364
O O9 0.833630 0.729653 0.515952
O O10 0.755637 0.479069 0.097099
O O11 0.842885 0.086686 0.719121
O O12 0.070975 0.419419 0.023681
O O13 0.536361 0.721635 0.271227
O O14 0.185301 0.103364 0.381669
O O15 0.000000 0.000000 0.500000
#
# Coordination Sequence:
#
# PCOD9073480 Si02
#       7
#     2   2   2   2   2   2   2
#     4   9  20  37  54  73  97 134 177 217 256 294
#     4   9  18  32  49  76 106 135 174 210 246 297
#     4  10  18  31  55  78 101 135 174 212 250 297
#     4   9  18  30  45  68 103 137 164 201 246 292
#     4  10  20  32  50  79 109 139 168 202 254 306
#     4  11  21  31  48  77 110 138 164 201 256 315
#     4  10  21  35  51  77 107 132 170 214 254 304
#
# _framework density 18.403423
#
# number of rings (size 3 to 8) (size 9 to 14) (size 15 to 20)
#    0.000    2.286    0.000    4.286    0.000    9.143 
#    0.000    0.000    0.000    3.429    0.000   49.000 
#    0.000    0.000    0.000    0.000    0.000    0.000 
#
# Total GULP energy -78003.366327 kJ/mol
# GULP energy per Si atom -5571.669023 kJ/mol
# Density = 1.836154 g / cm^3
# Si number density = 18.403423 Si / 1000 Ang^3
#
#
#
# Elastic Constant Matrix: (Units=GPa)
#
#
# Indices 1 2 3 4 5 6 
#
# 1 78.2976 57.3213 16.8215 6.0561 10.6542 5.3803
# 2 57.3213 157.1302 30.7281 27.8787 23.5587 23.0968
# 3 16.8215 30.7281 49.6026 18.7662 3.9102 6.6491
# 4 6.0561 27.8787 18.7662 34.7593 6.7012 9.8269
# 5 10.6542 23.5587 3.9102 6.7012 23.2647 8.7205
# 6 5.3803 23.0968 6.6491 9.8269 8.7205 29.0178
#
#
#
# Elastic Compliance Matrix: (Units=1/GPa)
#
#
# Indices 1 2 3 4 5 6 
#
# 1 0.018314 -0.006519 -0.003751 0.004040 -0.003156 0.002233
# 2 -0.006519 0.011390 -0.002103 -0.004656 -0.005274 -0.004213
# 3 -0.003751 -0.002103 0.027451 -0.012951 0.003144 -0.000480
# 4 0.004040 -0.004656 -0.012951 0.041568 -0.004368 -0.006840
# 5 -0.003156 -0.005274 0.003144 -0.004368 0.054569 -0.010857
# 6 0.002233 -0.004213 -0.000480 -0.006840 -0.010857 0.043090
#
#
# Mechanical properties :
#
#
# Convention : Reuss Voigt Hill
#
# Bulk Modulus (GPa) = 30.85644 54.97468 42.91556
# Shear Modulus (GPa) = 21.55809 29.41901 25.48855
#
# Velocity S-wave (km/s) = 3.42631 4.00254 3.72558
# Velocity P-wave (km/s) = 5.69701 7.16221 6.47121
#
# Compressibility (1/GPa) = 0.03240815
#
# Stress axis : x y z
#
# Youngs Moduli (GPa) = 54.60330 87.79759 36.42819
#
# Poissons Ratio (x) = 0.57238 0.13665
# Poissons Ratio (y) = 0.35598 0.07660
# Poissons Ratio (z) = 0.20483 0.18463
#
# Static dielectric constant tensor:
#      x y z
#    x 1.636770 0.041630 -0.002220 
#    y 0.041630 1.674680 0.036160 
#    z -0.002220 0.036160 1.685830 
# 
# From -- ./inp_files/278378.got.cif
#   From: 2010.05.17/outbox.cif.g08.bks.cpg/sg2_140_cif.got.tgz:278378.got - 2010.06.03 11:33:40.
