data_PCOD9073276
_publ_section_title
;
Structure prediction by ZEFSAII (Michael W. Deem and Ramdas Pophale) SiO2 
 PCOD9073276
Probable space group: P -1
;
_chemical_formula_sum "Si O2"
_cell_formula_units_Z 14
_cell_length_a 12.000000
_cell_length_b 9.000000
_cell_length_c 9.000000
_cell_angle_alpha 50.000000
_cell_angle_beta 120.000000
_cell_angle_gamma 120.000000
_cell_volume 621.029576
_symmetry_space_group_name_H-M "P -1"
_symmetry_group_IT_number 2
_symmetry_cell_setting 'triclinic'
loop_
_space_group_symop_operation_xyz
x,y,z
-x,-y,-z
loop_
_atom_site_type_symbol
_atom_site_label
_atom_site_fract_x
_atom_site_fract_y
_atom_site_fract_z
Si Si1 0.088727 0.282678 0.000811
Si Si2 0.682136 0.612737 0.669903
Si Si3 0.661693 0.300402 0.431520
Si Si4 0.104315 0.462311 0.375297
Si Si5 0.435381 0.301517 0.856867
Si Si6 0.560163 0.985016 0.322700
Si Si7 0.875578 0.881803 0.198214
O O1 0.224374 0.333988 0.154895
O O2 0.121184 0.204445 0.911444
O O3 0.970132 0.107749 0.109903
O O4 0.018826 0.463598 0.815291
O O5 0.780551 0.548287 0.659958
O O6 0.550241 0.427943 0.736785
O O7 0.638649 0.812038 0.456273
O O8 0.809466 0.385570 0.541357
O O9 0.600771 0.492681 0.232087
O O10 0.567277 0.153313 0.583371
O O11 0.654192 0.153865 0.382295
O O12 0.060484 0.247426 0.563813
O O13 0.280404 0.163923 0.826923
O O14 0.504673 0.133853 0.080355
#
# Coordination Sequence:
#
# PCOD9073276 Si02
#       7
#     2   2   2   2   2   2   2
#     4  11  25  44  67  98 133 176 225 274 319 398
#     4  11  27  41  67 103 137 170 221 268 340 396
#     4   9  21  36  64  94 128 170 222 263 320 391
#     4  11  24  46  66  96 137 177 216 278 328 393
#     4  10  22  41  68 101 132 169 219 273 335 386
#     4  10  21  37  64  96 134 170 211 273 324 388
#     4  10  25  42  72  98 129 172 232 268 329 388
#
# _framework density 22.543209999999998
#
# number of rings (size 3 to 8) (size 9 to 14) (size 15 to 20)
#    0.000    1.714    0.000    2.143   14.000    8.000 
#    0.000    4.286    0.000    0.000    0.000    0.000 
#    0.000    0.000    0.000    0.000    0.000    0.000 
#
# Total GULP energy -78153.825231 kJ/mol
# GULP energy per Si atom -5582.416088 kJ/mol
# Density = 2.249190 g / cm^3
# Si number density = 22.543210 Si / 1000 Ang^3
#
#
#
# Elastic Constant Matrix: (Units=GPa)
#
#
# Indices 1 2 3 4 5 6 
#
# 1 89.5813 16.4752 47.4964 4.2010 7.1747 8.6231
# 2 16.4752 54.3698 54.3960 -4.2075 7.4800 7.3517
# 3 47.4964 54.3960 171.6441 -35.2565 19.6885 4.9906
# 4 4.2010 -4.2075 -35.2565 32.5321 3.1593 -2.4499
# 5 7.1747 7.4800 19.6885 3.1593 42.8643 -9.0136
# 6 8.6231 7.3517 4.9906 -2.4499 -9.0136 22.5684
#
#
#
# Elastic Compliance Matrix: (Units=1/GPa)
#
#
# Indices 1 2 3 4 5 6 
#
# 1 0.015347 0.002153 -0.006580 -0.009256 -0.000574 -0.006344
# 2 0.002153 0.030224 -0.011676 -0.009602 -0.001619 -0.009775
# 3 -0.006580 -0.011676 0.015129 0.016388 -0.004388 0.002999
# 4 -0.009256 -0.009602 0.016388 0.049539 -0.006750 0.005722
# 5 -0.000574 -0.001619 -0.004388 -0.006750 0.028851 0.012507
# 6 -0.006344 -0.009775 0.002999 0.005722 0.012507 0.054871
#
#
# Mechanical properties :
#
#
# Convention : Reuss Voigt Hill
#
# Bulk Modulus (GPa) = 35.09611 61.37006 48.23308
# Shear Modulus (GPa) = 21.21655 32.74146 26.97901
#
# Velocity S-wave (km/s) = 3.07115 3.81515 3.46319
# Velocity P-wave (km/s) = 5.30830 6.83298 6.11832
#
# Compressibility (1/GPa) = 0.02849318
#
# Stress axis : x y z
#
# Youngs Moduli (GPa) = 65.16129 33.08679 66.09610
#
# Poissons Ratio (x) = -0.07125 0.43492
# Poissons Ratio (y) = -0.14032 0.77177
# Poissons Ratio (z) = 0.42876 0.38634
#
# Static dielectric constant tensor:
#      x y z
#    x 1.836550 -0.062500 -0.038060 
#    y -0.062500 1.858640 0.047090 
#    z -0.038060 0.047090 1.874470 
# 
# From -- ./inp_files/242298.got.cif
#   From: 2010.05.17/outbox.ucp.g08.bks.cvg/sg2_122_cif.got.tgz:242298.got - 2010.06.11 11:32:03.
