data_PCOD9073645
_publ_section_title
;
Structure prediction by ZEFSAII (Michael W. Deem and Ramdas Pophale) SiO2 
 PCOD9073645
Probable space group: P -1
;
_chemical_formula_sum "Si O2"
_cell_formula_units_Z 16
_cell_length_a 15.000000
_cell_length_b 15.000000
_cell_length_c 9.000000
_cell_angle_alpha 70.000000
_cell_angle_beta 90.000000
_cell_angle_gamma 30.000000
_cell_volume 738.562284
_symmetry_space_group_name_H-M "P -1"
_symmetry_group_IT_number 2
_symmetry_cell_setting 'triclinic'
loop_
_space_group_symop_operation_xyz
x,y,z
-x,-y,-z
loop_
_atom_site_type_symbol
_atom_site_label
_atom_site_fract_x
_atom_site_fract_y
_atom_site_fract_z
Si Si1 0.474317 0.124383 0.040688
Si Si2 0.796147 0.944359 0.776978
Si Si3 0.021655 0.831224 0.317899
Si Si4 0.165806 0.608185 0.752025
Si Si5 0.715215 0.238683 0.725108
Si Si6 0.401465 0.178421 0.668270
Si Si7 0.004932 0.326236 0.781066
Si Si8 0.455269 0.635900 0.013513
O O1 0.471123 0.048572 0.214613
O O2 0.739375 0.895498 0.147027
O O3 0.325022 0.363383 0.929718
O O4 0.364294 0.204663 0.832601
O O5 0.913229 0.834390 0.680157
O O6 0.763123 0.085881 0.749127
O O7 0.566460 0.106886 0.686297
O O8 0.965055 0.721473 0.016563
O O9 0.159552 0.652642 0.558869
O O10 0.095044 0.865238 0.247065
O O11 0.053168 0.721221 0.254833
O O12 0.752071 0.099891 0.205556
O O13 0.295694 0.561838 0.867405
O O14 0.500000 0.500000 0.500000
O O15 0.640350 0.294218 0.862583
O O16 0.177923 0.419925 0.431863
O O17 0.500000 0.500000 0.000000
#
# Coordination Sequence:
#
# PCOD9073645 Si02
#       8
#     2   2   2   2   2   2   2   2
#     4  10  21  41  69  97 128 161 220 270 316 383
#     4  11  26  42  63  95 136 166 217 264 317 385
#     4  12  24  41  68  88 132 177 210 261 323 377
#     4  12  25  44  61  99 135 167 214 270 316 381
#     4  12  24  43  64  92 130 173 215 262 315 382
#     4  10  21  42  69  96 124 173 211 265 329 379
#     4  11  21  42  67  96 122 172 217 263 320 385
#     4  12  26  42  63  95 129 169 223 265 313 379
#
# _framework density 21.663710999999999
#
# number of rings (size 3 to 8) (size 9 to 14) (size 15 to 20)
#    0.000    0.750    5.000    3.000    3.500    2.500 
#    0.000    0.625    0.000    0.000    0.000    0.000 
#    0.000    0.000    0.000    0.000    0.000    0.000 
#
# Total GULP energy -89222.855595 kJ/mol
# GULP energy per Si atom -5576.428475 kJ/mol
# Density = 2.161440 g / cm^3
# Si number density = 21.663711 Si / 1000 Ang^3
#
#
#
# Elastic Constant Matrix: (Units=GPa)
#
#
# Indices 1 2 3 4 5 6 
#
# 1 99.0797 16.7905 21.1195 6.8533 -20.1573 -8.7322
# 2 16.7905 32.2637 19.6974 -2.2419 -9.8618 -11.0821
# 3 21.1195 19.6974 122.1324 -28.4940 -20.2072 6.3833
# 4 6.8533 -2.2419 -28.4940 7.4022 0.0048 0.9614
# 5 -20.1573 -9.8618 -20.2072 0.0048 38.3733 -2.5915
# 6 -8.7322 -11.0821 6.3833 0.9614 -2.5915 21.4615
#
#
#
# Elastic Compliance Matrix: (Units=1/GPa)
#
#
# Indices 1 2 3 4 5 6 
#
# 1 0.003474 -0.010296 0.019656 0.070864 0.008719 -0.011871
# 2 -0.010296 0.042087 0.011139 0.063481 0.012133 0.012851
# 3 0.019656 0.011139 -0.038356 -0.166629 -0.004826 0.032039
# 4 0.070864 0.063481 -0.166629 -0.570054 -0.025108 0.133678
# 5 0.008719 0.012133 -0.004826 -0.025108 0.032319 0.016275
# 6 -0.011871 0.012851 0.032039 0.133678 0.016275 0.034848
#
#
# Mechanical properties :
#
#
# Convention : Reuss Voigt Hill
#
# Bulk Modulus (GPa) = 20.74634 40.96561 30.85597
# Shear Modulus (GPa) = -9.60409 26.50529 8.45060
#
# Velocity S-wave (km/s) = -2.10782 3.50163 1.97719
# Velocity P-wave (km/s) = 1.91663 5.94133 4.41435
#
# Compressibility (1/GPa) = 0.04820127
#
# Stress axis : x y z
#
# Youngs Moduli (GPa) = 287.86304 23.76058 -26.07166
#
# Poissons Ratio (x) = 0.24465 0.51246
# Poissons Ratio (y) = 2.96396 0.29041
# Poissons Ratio (z) = -5.65818 -0.26467
#
# Static dielectric constant tensor:
#      x y z
#    x 1.955130 0.054900 0.053760 
#    y 0.054900 1.836290 -0.022910 
#    z 0.053760 -0.022910 1.878100 
# 
# From -- ./inp_files/314914.got.cif
#   From: 2010.05.17/outbox.ucp.g08.bks.cvg/sg2_158_cif.got.tgz:314914.got - 2010.06.11 11:32:03.
