data_PCOD9073804
_publ_section_title
;
Structure prediction by ZEFSAII (Michael W. Deem and Ramdas Pophale) SiO2 
 PCOD9073804
Probable space group: P -1
;
_chemical_formula_sum "Si O2"
_cell_formula_units_Z 14
_cell_length_a 6.000000
_cell_length_b 12.000000
_cell_length_c 24.000000
_cell_angle_alpha 20.000000
_cell_angle_beta 100.000000
_cell_angle_gamma 100.000000
_cell_volume 581.750643
_symmetry_space_group_name_H-M "P -1"
_symmetry_group_IT_number 2
_symmetry_cell_setting 'triclinic'
loop_
_space_group_symop_operation_xyz
x,y,z
-x,-y,-z
loop_
_atom_site_type_symbol
_atom_site_label
_atom_site_fract_x
_atom_site_fract_y
_atom_site_fract_z
Si Si1 0.027618 0.718650 0.535115
Si Si2 0.025610 0.672137 0.979971
Si Si3 0.160679 0.826487 0.133620
Si Si4 0.721018 0.082651 0.270599
Si Si5 0.640003 0.739426 0.661315
Si Si6 0.871189 0.704980 0.352906
Si Si7 0.507398 0.604460 0.074487
O O1 0.200328 0.558735 0.572921
O O2 0.974420 0.433958 0.710770
O O3 0.135561 0.047737 0.411563
O O4 0.803820 0.819892 0.442631
O O5 0.266415 0.754028 0.980434
O O6 0.907865 0.381774 0.145988
O O7 0.000000 0.500000 0.000000
O O8 0.954414 0.036764 0.790614
O O9 0.317697 0.584800 0.219610
O O10 0.305421 0.104642 0.043674
O O11 0.000000 0.000000 0.000000
O O12 0.513637 0.314314 0.164409
O O13 0.711908 0.918742 0.285870
O O14 0.505249 0.608120 0.770597
O O15 0.500000 0.000000 0.500000
O O16 0.000000 0.500000 0.500000
#
# Coordination Sequence:
#
# PCOD9073804 Si02
#       7
#     2   2   2   2   2   2   2
#     4  11  22  44  72  97 144 186 225 298 361 414
#     4  10  22  42  71  98 144 181 236 283 356 424
#     4  12  27  45  71 105 142 191 247 297 359 420
#     4  10  21  45  69 105 139 183 229 285 361 432
#     4  12  26  44  69 104 142 183 248 302 350 423
#     4   9  21  38  68 100 136 181 224 281 351 427
#     4  12  25  43  75 104 142 186 236 294 359 420
#
# _framework density 24.065294000000002
#
# number of rings (size 3 to 8) (size 9 to 14) (size 15 to 20)
#    0.000    1.143    1.429    4.286    4.000    2.286 
#    0.000    0.714    0.000    0.000    0.000    0.000 
#    0.000    0.000    0.000    0.000    0.000    0.000 
#
# Total GULP energy -78044.461982 kJ/mol
# GULP energy per Si atom -5574.604427 kJ/mol
# Density = 2.401052 g / cm^3
# Si number density = 24.065294 Si / 1000 Ang^3
#
#
#
# Elastic Constant Matrix: (Units=GPa)
#
#
# Indices 1 2 3 4 5 6 
#
# 1 7.6318 -11.1917 8.2264 -1.2672 -2.8484 -2.9073
# 2 -11.1917 55.7163 9.5473 -23.9916 -1.8506 -17.1319
# 3 8.2264 9.5473 164.9498 15.5928 -3.8272 -5.6079
# 4 -1.2672 -23.9916 15.5928 54.9275 -10.2875 14.0175
# 5 -2.8484 -1.8506 -3.8272 -10.2875 30.2240 -8.3015
# 6 -2.9073 -17.1319 -5.6079 14.0175 -8.3015 38.1087
#
#
#
# Elastic Compliance Matrix: (Units=1/GPa)
#
#
# Indices 1 2 3 4 5 6 
#
# 1 0.757808 0.281319 -0.058714 0.149366 0.175713 0.158976
# 2 0.281319 0.130545 -0.023877 0.066571 0.072821 0.068011
# 3 -0.058714 -0.023877 0.011059 -0.014626 -0.013643 -0.011178
# 4 0.149366 0.066571 -0.014626 0.055782 0.042982 0.028015
# 5 0.175713 0.072821 -0.013643 0.042982 0.079546 0.045652
# 6 0.158976 0.068011 -0.011178 0.028015 0.045652 0.066939
#
#
# Mechanical properties :
#
#
# Convention : Reuss Voigt Hill
#
# Bulk Modulus (GPa) = 0.77109 26.82907 13.80008
# Shear Modulus (GPa) = 4.39943 39.43311 21.91627
#
# Velocity S-wave (km/s) = 1.35355 4.05234 3.02105
# Velocity P-wave (km/s) = 1.66250 5.75047 4.23272
#
# Compressibility (1/GPa) = 1.29686586
#
# Stress axis : x y z
#
# Youngs Moduli (GPa) = 1.31960 7.66019 90.42697
#
# Poissons Ratio (x) = -2.15495 5.30935
# Poissons Ratio (y) = -0.37123 2.15913
# Poissons Ratio (z) = 0.07748 0.18290
#
# Static dielectric constant tensor:
#      x y z
#    x 2.363000 -0.180040 -0.101640 
#    y -0.180040 1.982210 0.009930 
#    z -0.101640 0.009930 1.965840 
# 
# From -- ./inp_files/604273.got.cif
#   From: 2010.05.17/outbox.ucp.g08.bks.cvg/sg2_303_cif.got.tgz:604273.got - 2010.06.11 11:32:03.
