data_PCOD9073337
_publ_section_title
;
Structure prediction by ZEFSAII (Michael W. Deem and Ramdas Pophale) SiO2 
 PCOD9073337
Probable space group: P -1
;
_chemical_formula_sum "Si O2"
_cell_formula_units_Z 12
_cell_length_a 10.714070
_cell_length_b 12.899073
_cell_length_c 15.699625
_cell_angle_alpha 132.032230
_cell_angle_beta 23.060020
_cell_angle_gamma 120.294449
_cell_volume 582.962094
_symmetry_space_group_name_H-M "P -1"
_symmetry_group_IT_number 2
_symmetry_cell_setting 'triclinic'
loop_
_space_group_symop_operation_xyz
x,y,z
-x,-y,-z
loop_
_atom_site_type_symbol
_atom_site_label
_atom_site_fract_x
_atom_site_fract_y
_atom_site_fract_z
Si Si1 0.163250 0.996516 0.257621
Si Si2 0.059567 0.701313 0.375408
Si Si3 0.421175 0.861742 0.438283
Si Si4 0.183738 0.397086 0.067914
Si Si5 0.161951 0.645490 0.575164
Si Si6 0.410140 0.332850 0.190742
O O1 0.258174 0.819547 0.113736
O O2 0.085120 0.118646 0.450195
O O3 0.847515 0.067906 0.430824
O O4 0.500000 0.000000 0.000000
O O5 0.064432 0.578671 0.234391
O O6 0.821569 0.681581 0.591368
O O7 0.444915 0.651247 0.143847
O O8 0.247493 0.788346 0.575677
O O9 0.500000 0.000000 0.500000
O O10 0.739949 0.717870 0.121565
O O11 0.922074 0.367510 0.281437
O O12 0.448237 0.489744 0.273220
O O13 0.825233 0.654854 0.737434
#
# Coordination Sequence:
#
# PCOD9073337 Si02
#       6
#     2   2   2   2   2   2
#     4   9  15  32  55  77 103 134 166 215 259 289
#     4   8  14  27  49  75 104 126 160 214 254 285
#     4  11  22  36  53  74 105 142 172 205 258 310
#     4   9  17  30  50  77 104 131 172 212 248 304
#     4  10  18  31  54  79  99 138 172 206 256 307
#     4   9  16  29  55  80 105 129 167 216 262 293
#
# _framework density 20.584529
#
# number of rings (size 3 to 8) (size 9 to 14) (size 15 to 20)
#    0.000    2.667    5.000    0.000    2.333    0.667 
#    0.000    4.167    0.000    9.000    0.000    0.000 
#    0.000    0.000    0.000    0.000    0.000    0.000 
#
# Total GULP energy -66842.006079 kJ/mol
# GULP energy per Si atom -5570.167173 kJ/mol
# Density = 2.053768 g / cm^3
# Si number density = 20.584529 Si / 1000 Ang^3
#
#
#
# Elastic Constant Matrix: (Units=GPa)
#
#
# Indices 1 2 3 4 5 6 
#
# 1 21.7153 26.1543 21.1540 4.7224 17.8449 8.2387
# 2 26.1543 153.9274 50.9544 40.8188 12.1300 16.2880
# 3 21.1540 50.9544 94.3601 38.9021 20.0171 4.2748
# 4 4.7224 40.8188 38.9021 41.2545 -3.2346 4.4858
# 5 17.8449 12.1300 20.0171 -3.2346 22.9598 10.3165
# 6 8.2387 16.2880 4.2748 4.4858 10.3165 25.9897
#
#
#
# Elastic Compliance Matrix: (Units=1/GPa)
#
#
# Indices 1 2 3 4 5 6 
#
# 1 0.181765 -0.016589 0.013889 -0.031839 -0.157400 0.018467
# 2 -0.016589 0.011306 -0.001040 -0.007228 0.008510 -0.003786
# 3 0.013889 -0.001040 0.036084 -0.041164 -0.056404 0.019808
# 4 -0.031839 -0.007228 -0.041164 0.083928 0.089056 -0.028443
# 5 -0.157400 0.008510 -0.056404 0.089056 0.250511 -0.060970
# 6 0.018467 -0.003786 0.019808 -0.028443 -0.060970 0.060848
#
#
# Mechanical properties :
#
#
# Convention : Reuss Voigt Hill
#
# Bulk Modulus (GPa) = 4.51110 51.83644 28.17377
# Shear Modulus (GPa) = 7.08401 29.49015 18.28708
#
# Velocity S-wave (km/s) = 1.85712 3.78912 2.98382
# Velocity P-wave (km/s) = 2.60668 6.66185 5.05841
#
# Compressibility (1/GPa) = 0.22167528
#
# Stress axis : x y z
#
# Youngs Moduli (GPa) = 5.50161 88.44479 27.71289
#
# Poissons Ratio (x) = 1.46724 -0.38491
# Poissons Ratio (y) = 0.09127 0.02883
# Poissons Ratio (z) = -0.07641 0.09200
#
# Static dielectric constant tensor:
#      x y z
#    x 1.751310 -0.041410 0.024630 
#    y -0.041410 1.815220 0.049370 
#    z 0.024630 0.049370 1.787140 
# 
# From -- ./inp_files/163915.got.cif
#   From: 2010.05.17/outbox.cif.g08.bks.cpg/sg2_82_cif.got.tgz:163915.got - 2010.06.03 11:33:40.
