data_PCOD9073447
_publ_section_title
;
Structure prediction by ZEFSAII (Michael W. Deem and Ramdas Pophale) SiO2 
 PCOD9073447
Probable space group: P -1
;
_chemical_formula_sum "Si O2"
_cell_formula_units_Z 16
_cell_length_a 9.000000
_cell_length_b 15.000000
_cell_length_c 15.000000
_cell_angle_alpha 150.000000
_cell_angle_beta 80.000000
_cell_angle_gamma 80.000000
_cell_volume 750.794245
_symmetry_space_group_name_H-M "P -1"
_symmetry_group_IT_number 2
_symmetry_cell_setting 'triclinic'
loop_
_space_group_symop_operation_xyz
x,y,z
-x,-y,-z
loop_
_atom_site_type_symbol
_atom_site_label
_atom_site_fract_x
_atom_site_fract_y
_atom_site_fract_z
Si Si1 0.216827 0.070983 0.909921
Si Si2 0.199202 0.024527 0.379590
Si Si3 0.400375 0.006074 0.161868
Si Si4 0.837874 0.550877 0.179917
Si Si5 0.785492 0.503887 0.339211
Si Si6 0.863592 0.995374 0.330525
Si Si7 0.480430 0.800856 0.318289
Si Si8 0.355460 0.748128 0.786289
O O1 0.201692 0.951214 0.721571
O O2 0.391315 0.081486 0.897897
O O3 0.241444 0.939061 0.884074
O O4 0.020812 0.342112 0.171216
O O5 0.283393 0.009106 0.259507
O O6 0.127434 0.263776 0.645865
O O7 0.383567 0.824811 0.253584
O O8 0.026093 0.013747 0.366067
O O9 0.297454 0.283363 0.399182
O O10 0.414935 0.858349 0.948111
O O11 0.720538 0.589363 0.317679
O O12 0.704250 0.584030 0.139848
O O13 0.037569 0.279164 0.914532
O O14 0.755726 0.319354 0.204664
O O15 0.674786 0.148642 0.547899
O O16 0.500000 0.000000 0.500000
O O17 0.500000 0.500000 0.500000
#
# Coordination Sequence:
#
# PCOD9073447 Si02
#       8
#     2   2   2   2   2   2   2   2
#     4  11  23  42  66  93 124 173 206 259 321 369
#     4  10  22  41  65  93 126 166 208 257 307 369
#     4  11  23  46  63  89 134 160 210 267 309 377
#     4   9  21  41  63  91 127 169 204 255 309 365
#     4  10  22  42  64  93 129 166 211 257 316 370
#     4  11  22  42  63  92 132 160 209 259 305 367
#     4  10  21  39  66  94 127 167 207 254 308 368
#     4  12  25  43  66  94 125 166 211 263 317 377
#
# _framework density 21.310765
#
# number of rings (size 3 to 8) (size 9 to 14) (size 15 to 20)
#    0.000    1.500    1.250    4.875    0.000    3.000 
#    9.000    3.750    0.000    0.000    0.000    0.000 
#    0.000    0.000    0.000    0.000    0.000    0.000 
#
# Total GULP energy -89111.601064 kJ/mol
# GULP energy per Si atom -5569.475066 kJ/mol
# Density = 2.126226 g / cm^3
# Si number density = 21.310765 Si / 1000 Ang^3
#
#
#
# Elastic Constant Matrix: (Units=GPa)
#
#
# Indices 1 2 3 4 5 6 
#
# 1 146.6568 26.5766 31.9128 -4.3749 20.3276 -16.7582
# 2 26.5766 79.5186 -4.9580 -5.2895 15.3626 -25.5939
# 3 31.9128 -4.9580 63.4930 -1.1845 19.5322 -11.4360
# 4 -4.3749 -5.2895 -1.1845 24.5037 -8.9305 6.7006
# 5 20.3276 15.3626 19.5322 -8.9305 33.4328 -9.1850
# 6 -16.7582 -25.5939 -11.4360 6.7006 -9.1850 38.9666
#
#
#
# Elastic Compliance Matrix: (Units=1/GPa)
#
#
# Indices 1 2 3 4 5 6 
#
# 1 0.008396 -0.002638 -0.003901 0.000099 -0.001487 0.000366
# 2 -0.002638 0.019511 0.007864 -0.002614 -0.009289 0.012248
# 3 -0.003901 0.007864 0.024159 -0.005346 -0.014569 0.008063
# 4 0.000099 -0.002614 -0.005346 0.047565 0.014789 -0.007936
# 5 -0.001487 -0.009289 -0.014569 0.014789 0.046854 -0.002515
# 6 0.000366 0.012248 0.008063 -0.007936 -0.002515 0.037004
#
#
# Mechanical properties :
#
#
# Convention : Reuss Voigt Hill
#
# Bulk Modulus (GPa) = 18.27586 44.08124 31.17855
# Shear Modulus (GPa) = 25.11594 35.12309 30.11951
#
# Velocity S-wave (km/s) = 3.43674 4.06413 3.76353
# Velocity P-wave (km/s) = 4.93383 6.53856 5.79204
#
# Compressibility (1/GPa) = 0.05471698
#
# Stress axis : x y z
#
# Youngs Moduli (GPa) = 119.09885 51.25421 41.39278
#
# Poissons Ratio (x) = 0.13519 0.16147
# Poissons Ratio (y) = 0.31415 -0.32552
# Poissons Ratio (z) = 0.46459 -0.40308
#
# Static dielectric constant tensor:
#      x y z
#    x 1.812570 0.045560 -0.059710 
#    y 0.045560 1.935380 0.039840 
#    z -0.059710 0.039840 1.806990 
# 
# From -- ./inp_files/505800.got.cif
#   From: 2010.05.17/outbox.ucp.g08.bks.cvg/sg2_253_cif.got.tgz:505800.got - 2010.06.11 11:32:03.
