data_PCOD9073955
_publ_section_title
;
Structure prediction by ZEFSAII (Michael W. Deem and Ramdas Pophale) SiO2 
 PCOD9073955
Probable space group: P -1
;
_chemical_formula_sum "Si O2"
_cell_formula_units_Z 16
_cell_length_a 9.142366
_cell_length_b 10.833969
_cell_length_c 14.602894
_cell_angle_alpha 32.253685
_cell_angle_beta 105.796236
_cell_angle_gamma 95.760011
_cell_volume 718.604950
_symmetry_space_group_name_H-M "P -1"
_symmetry_group_IT_number 2
_symmetry_cell_setting 'triclinic'
loop_
_space_group_symop_operation_xyz
x,y,z
-x,-y,-z
loop_
_atom_site_type_symbol
_atom_site_label
_atom_site_fract_x
_atom_site_fract_y
_atom_site_fract_z
Si Si1 0.964217 0.905511 0.457243
Si Si2 0.532032 0.633642 0.015335
Si Si3 0.993765 0.153650 0.036104
Si Si4 0.356889 0.139901 0.615263
Si Si5 0.170771 0.384539 0.805382
Si Si6 0.156846 0.287404 0.668156
Si Si7 0.870017 0.752487 0.825481
Si Si8 0.315808 0.428910 0.242518
O O1 0.030830 0.625452 0.631278
O O2 0.779593 0.981262 0.365286
O O3 0.054125 0.039526 0.322933
O O4 0.000000 0.000000 0.500000
O O5 0.702747 0.561546 0.136179
O O6 0.420102 0.572496 0.114434
O O7 0.500000 0.500000 0.000000
O O8 0.495045 0.916302 0.809182
O O9 0.133886 0.191103 0.103766
O O10 0.085935 0.172498 0.946344
O O11 0.914973 0.942821 0.184654
O O12 0.846981 0.386289 0.872826
O O13 0.272834 0.272229 0.610216
O O14 0.383808 0.291906 0.434802
O O15 0.240362 0.331530 0.748890
O O16 0.000000 0.500000 0.500000
O O17 0.731637 0.738737 0.740465
O O18 0.000000 0.500000 0.000000
#
# Coordination Sequence:
#
# PCOD9073955 Si02
#       8
#     2   2   2   2   2   2   2   2
#     4  12  19  38  68  98 132 175 232 292 342 404
#     4  12  28  49  67 103 150 185 228 295 363 424
#     4  11  20  42  70 102 138 183 235 296 348 411
#     4  12  23  44  70  99 142 186 233 285 353 415
#     4  12  26  43  68 105 141 184 238 291 350 413
#     4  12  23  44  73 105 140 181 244 295 338 417
#     4  10  18  31  62 100 130 167 227 288 345 403
#     4  11  22  43  72 101 139 190 236 283 360 420
#
# _framework density 22.265364000000002
#
# number of rings (size 3 to 8) (size 9 to 14) (size 15 to 20)
#    0.000    0.500    6.250    3.375    0.000    1.000 
#    4.500    0.625    0.000    0.000    0.000    0.000 
#    0.000    0.000    0.000    0.000    0.000    0.000 
#
# Total GULP energy -89165.052733 kJ/mol
# GULP energy per Si atom -5572.815796 kJ/mol
# Density = 2.221469 g / cm^3
# Si number density = 22.265364 Si / 1000 Ang^3
#
#
#
# Elastic Constant Matrix: (Units=GPa)
#
#
# Indices 1 2 3 4 5 6 
#
# 1 68.5313 5.2931 29.0911 14.7363 -17.3316 -8.5466
# 2 5.2931 101.2294 27.7779 19.3706 -10.4622 -7.2151
# 3 29.0911 27.7779 120.4975 4.8295 -19.2908 -11.8930
# 4 14.7363 19.3706 4.8295 30.7676 -9.3529 -6.4900
# 5 -17.3316 -10.4622 -19.2908 -9.3529 30.2094 6.8831
# 6 -8.5466 -7.2151 -11.8930 -6.4900 6.8831 32.6548
#
#
#
# Elastic Compliance Matrix: (Units=1/GPa)
#
#
# Indices 1 2 3 4 5 6 
#
# 1 0.019597 0.002309 -0.003712 -0.007881 0.006947 0.001257
# 2 0.002309 0.012195 -0.002815 -0.007879 0.001208 0.000453
# 3 -0.003712 -0.002815 0.010594 0.003636 0.004313 0.002079
# 4 -0.007881 -0.007879 0.003636 0.043965 0.007624 0.004652
# 5 0.006947 0.001208 0.004313 0.007624 0.043533 -0.004005
# 6 0.001257 0.000453 0.002079 0.004652 -0.004005 0.033578
#
#
# Mechanical properties :
#
#
# Convention : Reuss Voigt Hill
#
# Bulk Modulus (GPa) = 29.45357 46.06472 37.75914
# Shear Modulus (GPa) = 27.29058 33.93277 30.61168
#
# Velocity S-wave (km/s) = 3.50479 3.90810 3.71193
# Velocity P-wave (km/s) = 5.44383 6.41079 5.94699
#
# Compressibility (1/GPa) = 0.03395174
#
# Stress axis : x y z
#
# Youngs Moduli (GPa) = 51.02770 82.00025 94.39512
#
# Poissons Ratio (x) = -0.18936 0.35036
# Poissons Ratio (y) = -0.11784 0.26571
# Poissons Ratio (z) = 0.18939 0.23082
#
# Static dielectric constant tensor:
#      x y z
#    x 1.772320 0.004300 0.021760 
#    y 0.004300 1.815250 0.008300 
#    z 0.021760 0.008300 1.850400 
# 
# From -- ./inp_files/499734.got.cif
#   From: 2010.05.17/outbox.cif.g08.bks.cpg/sg2_250_cif.got.tgz:499734.got - 2010.06.03 11:33:40.
