data_PCOD9073435
_publ_section_title
;
Structure prediction by ZEFSAII (Michael W. Deem and Ramdas Pophale) SiO2 
 PCOD9073435
Probable space group: P -1
;
_chemical_formula_sum "Si O2"
_cell_formula_units_Z 14
_cell_length_a 9.000000
_cell_length_b 9.000000
_cell_length_c 12.000000
_cell_angle_alpha 60.000000
_cell_angle_beta 110.000000
_cell_angle_gamma 130.000000
_cell_volume 644.526612
_symmetry_space_group_name_H-M "P -1"
_symmetry_group_IT_number 2
_symmetry_cell_setting 'triclinic'
loop_
_space_group_symop_operation_xyz
x,y,z
-x,-y,-z
loop_
_atom_site_type_symbol
_atom_site_label
_atom_site_fract_x
_atom_site_fract_y
_atom_site_fract_z
Si Si1 0.966932 0.360399 0.781698
Si Si2 0.726661 0.107849 0.030535
Si Si3 0.734425 0.183527 0.246895
Si Si4 0.557469 0.726615 0.615248
Si Si5 0.247861 0.282215 0.772351
Si Si6 0.653782 0.089284 0.626223
Si Si7 0.192726 0.162605 0.556618
O O1 0.815228 0.268680 0.678003
O O2 0.099918 0.612384 0.721836
O O3 0.104273 0.286509 0.817389
O O4 0.851067 0.255612 0.904777
O O5 0.777474 0.239069 0.107913
O O6 0.746781 0.914837 0.122617
O O7 0.500000 0.000000 0.000000
O O8 0.522427 0.093191 0.273231
O O9 0.736204 0.981542 0.337230
O O10 0.447466 0.517298 0.739139
O O11 0.417274 0.794195 0.510762
O O12 0.653064 0.682384 0.554852
O O13 0.714209 0.952350 0.629122
O O14 0.185658 0.260440 0.633564
O O15 0.000000 0.000000 0.500000
#
# Coordination Sequence:
#
# PCOD9073435 Si02
#       7
#     2   2   2   2   2   2   2
#     4  12  23  41  71  92 127 170 218 261 327 366
#     4  11  24  45  66  91 130 171 217 269 317 378
#     4  10  22  42  63  95 126 167 216 262 314 384
#     4  10  21  40  61  94 136 163 214 258 315 386
#     4  11  24  40  65  97 128 167 217 267 314 379
#     4  10  21  39  65  97 128 166 207 265 314 381
#     4  10  22  38  60  93 135 167 210 258 317 388
#
# _framework density 21.721367999999998
#
# number of rings (size 3 to 8) (size 9 to 14) (size 15 to 20)
#    0.000    1.429    2.857    2.143    2.000    1.714 
#    0.000    4.286    0.000    0.000    0.000    0.000 
#    0.000    0.000    0.000    0.000    0.000    0.000 
#
# Total GULP energy -78093.061084 kJ/mol
# GULP energy per Si atom -5578.075792 kJ/mol
# Density = 2.167193 g / cm^3
# Si number density = 21.721368 Si / 1000 Ang^3
#
#
#
# Elastic Constant Matrix: (Units=GPa)
#
#
# Indices 1 2 3 4 5 6 
#
# 1 53.8766 -9.7801 3.5051 -1.4745 -40.7543 10.0580
# 2 -9.7801 100.8958 -17.2845 6.6798 -7.6815 6.6702
# 3 3.5051 -17.2845 6.7021 3.2845 -10.2869 2.6050
# 4 -1.4745 6.6798 3.2845 32.9740 -5.5910 -4.8008
# 5 -40.7543 -7.6815 -10.2869 -5.5910 15.9534 3.1522
# 6 10.0580 6.6702 2.6050 -4.8008 3.1522 24.2802
#
#
#
# Elastic Compliance Matrix: (Units=1/GPa)
#
#
# Indices 1 2 3 4 5 6 
#
# 1 0.010939 -0.010036 -0.054514 0.007106 -0.010912 0.006896
# 2 -0.010036 0.010506 0.013272 -0.006257 -0.014305 0.000467
# 3 -0.054514 0.013272 0.128088 -0.027150 -0.061331 0.007788
# 4 0.007106 -0.006257 -0.027150 0.037316 0.009155 0.007878
# 5 -0.010912 -0.014305 -0.061331 0.009155 -0.012056 0.018406
# 6 0.006896 0.000467 0.007788 0.007878 0.018406 0.036533
#
#
# Mechanical properties :
#
#
# Convention : Reuss Voigt Hill
#
# Bulk Modulus (GPa) = 21.28650 12.70616 16.99633
# Shear Modulus (GPa) = 15.17261 26.97711 21.07486
#
# Velocity S-wave (km/s) = 2.64580 3.52797 3.11824
# Velocity P-wave (km/s) = 4.37662 4.73896 4.56139
#
# Compressibility (1/GPa) = 0.04697814
#
# Stress axis : x y z
#
# Youngs Moduli (GPa) = 91.41850 95.18079 7.80711
#
# Poissons Ratio (x) = 0.95520 0.42560
# Poissons Ratio (y) = 0.91744 -0.10362
# Poissons Ratio (z) = 4.98359 -1.26324
#
# Static dielectric constant tensor:
#      x y z
#    x 1.798600 0.048080 -0.025690 
#    y 0.048080 1.786520 0.069820 
#    z -0.025690 0.069820 1.862590 
# 
# From -- ./inp_files/48233.got.cif
#   From: 2010.05.17/outbox.ucp.g08.bks.cvg/sg2_25_cif.got.tgz:48233.got - 2010.06.11 11:32:03.
