data_PCOD9073156
_publ_section_title
;
Structure prediction by ZEFSAII (Michael W. Deem and Ramdas Pophale) SiO2 
 PCOD9073156
Probable space group: P -1
;
_chemical_formula_sum "Si O2"
_cell_formula_units_Z 16
_cell_length_a 9.000000
_cell_length_b 12.000000
_cell_length_c 9.000000
_cell_angle_alpha 60.000000
_cell_angle_beta 90.000000
_cell_angle_gamma 90.000000
_cell_volume 841.776692
_symmetry_space_group_name_H-M "P -1"
_symmetry_group_IT_number 2
_symmetry_cell_setting 'triclinic'
loop_
_space_group_symop_operation_xyz
x,y,z
-x,-y,-z
loop_
_atom_site_type_symbol
_atom_site_label
_atom_site_fract_x
_atom_site_fract_y
_atom_site_fract_z
Si Si1 0.174462 0.062104 0.203431
Si Si2 0.378436 0.898247 0.510737
Si Si3 0.476552 0.297350 0.567400
Si Si4 0.344290 0.058487 0.906324
Si Si5 0.030396 0.505954 0.738088
Si Si6 0.748406 0.463152 0.562732
Si Si7 0.156153 0.897768 0.786857
Si Si8 0.059012 0.313616 0.125550
O O1 0.177841 0.197516 0.202884
O O2 0.001017 0.022540 0.255184
O O3 0.289879 0.958765 0.331958
O O4 0.227619 0.089073 0.017954
O O5 0.460459 0.769003 0.539870
O O6 0.251269 0.892919 0.639777
O O7 0.500000 0.000000 0.500000
O O8 0.390818 0.184681 0.730456
O O9 0.624735 0.350952 0.615941
O O10 0.356043 0.413158 0.480188
O O11 0.263444 0.953849 0.873035
O O12 0.500000 0.000000 0.000000
O O13 0.158057 0.524569 0.600921
O O14 0.882073 0.451844 0.691009
O O15 0.975473 0.630549 0.749361
O O16 0.094775 0.418615 0.930646
O O17 0.088761 0.755262 0.894419
#
# Coordination Sequence:
#
# PCOD9073156 Si02
#       8
#     2   2   2   2   2   2   2   2
#     4  10  23  39  61  95 124 168 207 259 315 377
#     4  12  22  41  61  93 135 166 203 257 320 386
#     4  11  24  40  64  92 132 165 212 250 324 381
#     4  12  22  41  61  93 135 166 203 257 320 386
#     4  10  20  44  64  90 118 164 218 271 303 360
#     4  10  24  42  66  90 119 171 214 265 304 372
#     4  10  23  39  61  95 124 168 207 259 315 377
#     4   9  22  36  66  90 124 151 216 262 318 363
#
# _framework density 19.007415999999999
#
# number of rings (size 3 to 8) (size 9 to 14) (size 15 to 20)
#    0.750    0.750    2.500    2.250    3.500    0.000 
#    4.500    0.000    0.000    4.500    0.000    0.000 
#    0.000    0.000    0.000    0.000    0.000    0.000 
#
# Total GULP energy -89093.798987 kJ/mol
# GULP energy per Si atom -5568.362437 kJ/mol
# Density = 1.896415 g / cm^3
# Si number density = 19.007416 Si / 1000 Ang^3
#
#
#
# Elastic Constant Matrix: (Units=GPa)
#
#
# Indices 1 2 3 4 5 6 
#
# 1 90.4695 21.8538 20.4698 20.4246 -14.5127 -7.0390
# 2 21.8538 101.9967 10.4237 23.9042 -9.0967 -6.6551
# 3 20.4698 10.4237 38.2716 16.6466 -19.0117 -8.8623
# 4 20.4246 23.9042 16.6466 23.1746 -5.1739 -3.6042
# 5 -14.5127 -9.0967 -19.0117 -5.1739 35.3841 7.1124
# 6 -7.0390 -6.6551 -8.8623 -3.6042 7.1124 41.4677
#
#
#
# Elastic Compliance Matrix: (Units=1/GPa)
#
#
# Indices 1 2 3 4 5 6 
#
# 1 0.014409 -0.000021 -0.000892 -0.011116 0.003668 0.000657
# 2 -0.000021 0.013713 0.006166 -0.017456 0.004014 0.001309
# 3 -0.000892 0.006166 0.054967 -0.038900 0.024044 0.005081
# 4 -0.011116 -0.017456 -0.038900 0.095086 -0.015631 -0.002056
# 5 0.003668 0.004014 0.024044 -0.015631 0.041860 -0.002133
# 6 0.000657 0.001309 0.005081 -0.002056 -0.002133 0.025710
#
#
# Mechanical properties :
#
#
# Convention : Reuss Voigt Hill
#
# Bulk Modulus (GPa) = 10.68428 37.35915 24.02171
# Shear Modulus (GPa) = 18.76621 31.87130 25.31876
#
# Velocity S-wave (km/s) = 3.14556 4.09930 3.65368
# Velocity P-wave (km/s) = 4.33890 6.48871 5.51948
#
# Compressibility (1/GPa) = 0.09359545
#
# Stress axis : x y z
#
# Youngs Moduli (GPa) = 69.39886 72.92376 18.19279
#
# Poissons Ratio (x) = 0.00153 0.01623
# Poissons Ratio (y) = 0.00146 -0.11218
# Poissons Ratio (z) = 0.06191 -0.44966
#
# Static dielectric constant tensor:
#      x y z
#    x 1.647230 0.004690 -0.012240 
#    y 0.004690 1.685640 -0.009940 
#    z -0.012240 -0.009940 1.692690 
# 
# From -- ./inp_files/185083.got.cif
#   From: 2010.05.17/outbox.ucp.g08.bks.cvg/sg2_93_cif.got.tgz:185083.got - 2010.06.11 11:32:03.
