data_PCOD9073428
_publ_section_title
;
Structure prediction by ZEFSAII (Michael W. Deem and Ramdas Pophale) SiO2 
 PCOD9073428
Probable space group: P -1
;
_chemical_formula_sum "Si O2"
_cell_formula_units_Z 16
_cell_length_a 14.801303
_cell_length_b 9.004315
_cell_length_c 10.216489
_cell_angle_alpha 101.086016
_cell_angle_beta 112.596763
_cell_angle_gamma 36.047836
_cell_volume 721.965175
_symmetry_space_group_name_H-M "P -1"
_symmetry_group_IT_number 2
_symmetry_cell_setting 'triclinic'
loop_
_space_group_symop_operation_xyz
x,y,z
-x,-y,-z
loop_
_atom_site_type_symbol
_atom_site_label
_atom_site_fract_x
_atom_site_fract_y
_atom_site_fract_z
Si Si1 0.284028 0.767002 0.293103
Si Si2 0.091517 0.803981 0.853359
Si Si3 0.000819 0.235978 0.939298
Si Si4 0.451554 0.310655 0.492399
Si Si5 0.575592 0.531335 0.953020
Si Si6 0.406630 0.158166 0.660052
Si Si7 0.651363 0.908805 0.126957
Si Si8 0.770560 0.780808 0.897706
O O1 0.342276 0.551006 0.376631
O O2 0.401027 0.763135 0.388759
O O3 0.328218 0.662823 0.150377
O O4 0.087581 0.037498 0.264921
O O5 0.085811 0.746947 0.989195
O O6 0.290565 0.540443 0.896982
O O7 0.070091 0.012071 0.854845
O O8 0.141121 0.170727 0.066376
O O9 0.870018 0.514557 0.848316
O O10 0.348359 0.360458 0.561522
O O11 0.537194 0.062848 0.423950
O O12 0.430941 0.821515 0.864913
O O13 0.500000 0.500000 0.000000
O O14 0.297811 0.228127 0.730694
O O15 0.580191 0.009165 0.788636
O O16 0.500000 0.000000 0.000000
O O17 0.784428 0.742715 0.056712
#
# Coordination Sequence:
#
# PCOD9073428 Si02
#       8
#     2   2   2   2   2   2   2   2
#     4  11  21  39  58  87 119 150 209 236 282 349
#     4  11  20  35  58  85 121 147 184 246 293 345
#     4  10  18  31  54  86 118 144 182 225 316 342
#     4  10  22  35  58  82 112 167 203 240 265 339
#     4  12  23  36  60  95 120 148 183 248 315 351
#     4  10  19  36  54  83 114 152 201 236 283 336
#     4  10  21  33  55  86 123 143 186 241 307 347
#     4  10  20  33  55  90 117 147 183 248 297 354
#
# _framework density 22.161733000000002
#
# number of rings (size 3 to 8) (size 9 to 14) (size 15 to 20)
#    0.000    1.500    3.750    3.750    3.500    0.000 
#    0.000    0.000    0.000    3.000   13.000   13.125 
#    0.000    0.000    0.000    0.000    0.000    0.000 
#
# Total GULP energy -89169.051038 kJ/mol
# GULP energy per Si atom -5573.065690 kJ/mol
# Density = 2.211129 g / cm^3
# Si number density = 22.161733 Si / 1000 Ang^3
#
#
#
# Elastic Constant Matrix: (Units=GPa)
#
#
# Indices 1 2 3 4 5 6 
#
# 1 147.4586 30.5190 45.7129 0.1579 -10.2365 20.1489
# 2 30.5190 64.2302 7.7164 -7.8112 -5.1834 8.9690
# 3 45.7129 7.7164 58.7696 -5.5111 -14.0562 -2.4400
# 4 0.1579 -7.8112 -5.5111 23.3659 5.2030 2.3233
# 5 -10.2365 -5.1834 -14.0562 5.2030 38.4863 -12.6169
# 6 20.1489 8.9690 -2.4400 2.3233 -12.6169 26.6553
#
#
#
# Elastic Compliance Matrix: (Units=1/GPa)
#
#
# Indices 1 2 3 4 5 6 
#
# 1 0.011903 -0.003457 -0.010462 -0.001652 -0.004418 -0.010739
# 2 -0.003457 0.018563 0.000569 0.006947 -0.000619 -0.004480
# 3 -0.010462 0.000569 0.029082 0.002635 0.012886 0.016249
# 4 -0.001652 0.006947 0.002635 0.048410 -0.007986 -0.008847
# 5 -0.004418 -0.000619 0.012886 -0.007986 0.038219 0.023514
# 6 -0.010739 -0.004480 0.016249 -0.008847 0.023514 0.060529
#
#
# Mechanical properties :
#
#
# Convention : Reuss Voigt Hill
#
# Bulk Modulus (GPa) = 30.44267 48.70611 39.57439
# Shear Modulus (GPa) = 20.46188 30.13550 25.29869
#
# Velocity S-wave (km/s) = 3.04188 3.69155 3.38235
# Velocity P-wave (km/s) = 5.10919 6.33998 5.75756
#
# Compressibility (1/GPa) = 0.03284863
#
# Stress axis : x y z
#
# Youngs Moduli (GPa) = 84.01500 53.86932 34.38524
#
# Poissons Ratio (x) = 0.18620 0.35973
# Poissons Ratio (y) = 0.29040 -0.01955
# Poissons Ratio (z) = 0.87895 -0.03062
#
# Static dielectric constant tensor:
#      x y z
#    x 1.861330 0.010070 -0.029150 
#    y 0.010070 1.959000 0.015840 
#    z -0.029150 0.015840 1.882990 
# 
# From -- ./inp_files/446085.got.cif
#   From: 2010.05.17/outbox.cif.g08.bks.cpg/sg2_224_cif.got.tgz:446085.got - 2010.06.03 11:33:40.
