data_PCOD9073389
_publ_section_title
;
Structure prediction by ZEFSAII (Michael W. Deem and Ramdas Pophale) SiO2 
 PCOD9073389
Probable space group: P -1
;
_chemical_formula_sum "Si O2"
_cell_formula_units_Z 16
_cell_length_a 6.000000
_cell_length_b 18.000000
_cell_length_c 12.000000
_cell_angle_alpha 50.000000
_cell_angle_beta 90.000000
_cell_angle_gamma 60.000000
_cell_volume 752.153660
_symmetry_space_group_name_H-M "P -1"
_symmetry_group_IT_number 2
_symmetry_cell_setting 'triclinic'
loop_
_space_group_symop_operation_xyz
x,y,z
-x,-y,-z
loop_
_atom_site_type_symbol
_atom_site_label
_atom_site_fract_x
_atom_site_fract_y
_atom_site_fract_z
Si Si1 0.752780 0.777095 0.930572
Si Si2 0.344878 0.333933 0.264262
Si Si3 0.756599 0.849391 0.630830
Si Si4 0.585337 0.181163 0.632874
Si Si5 0.336239 0.587019 0.239610
Si Si6 0.653343 0.600834 0.424352
Si Si7 0.773393 0.921110 0.326624
Si Si8 0.342142 0.417151 0.960269
O O1 0.900245 0.788566 0.810237
O O2 0.470209 0.924447 0.812547
O O3 0.662989 0.691878 0.982799
O O4 0.993562 0.701733 0.100954
O O5 0.385335 0.214453 0.331406
O O6 0.470266 0.283746 0.434609
O O7 0.997407 0.453466 0.159039
O O8 0.454586 0.376648 0.127474
O O9 0.899987 0.846741 0.518724
O O10 0.500000 0.000000 0.500000
O O11 0.449841 0.265698 0.662210
O O12 0.425036 0.119005 0.675804
O O13 0.939808 0.107105 0.703622
O O14 0.473111 0.622994 0.293214
O O15 0.396197 0.467398 0.414824
O O16 0.495449 0.558058 0.149048
O O17 0.000000 0.500000 0.500000
#
# Coordination Sequence:
#
# PCOD9073389 Si02
#       8
#     2   2   2   2   2   2   2   2
#     4  10  21  41  61  96 135 176 222 270 331 401
#     4   9  19  37  62  97 140 172 218 275 337 399
#     4   8  17  36  58  93 137 182 217 259 321 398
#     4  11  24  43  69  99 134 179 224 279 331 400
#     4  11  24  39  72  93 123 176 222 282 337 407
#     4  11  26  46  68  94 127 170 229 286 345 399
#     4  10  24  41  67  99 137 181 225 271 329 399
#     4  10  21  39  62 100 134 172 220 278 339 403
#
# _framework density 21.272248999999999
#
# number of rings (size 3 to 8) (size 9 to 14) (size 15 to 20)
#    0.000    2.000    0.000    2.250   10.500    0.000 
#    0.000    7.500    0.000    0.000    0.000    0.000 
#    0.000    0.000    0.000    0.000    0.000    0.000 
#
# Total GULP energy -89139.229042 kJ/mol
# GULP energy per Si atom -5571.201815 kJ/mol
# Density = 2.122383 g / cm^3
# Si number density = 21.272249 Si / 1000 Ang^3
#
#
#
# Elastic Constant Matrix: (Units=GPa)
#
#
# Indices 1 2 3 4 5 6 
#
# 1 67.5426 24.7284 -11.8644 -1.1801 1.3069 -5.4861
# 2 24.7284 66.5950 -12.1419 2.8051 -1.9719 10.3589
# 3 -11.8644 -12.1419 44.2995 14.3288 3.0167 11.5205
# 4 -1.1801 2.8051 14.3288 14.6542 5.9572 -0.6469
# 5 1.3069 -1.9719 3.0167 5.9572 40.9791 6.8722
# 6 -5.4861 10.3589 11.5205 -0.6469 6.8722 38.3844
#
#
#
# Elastic Compliance Matrix: (Units=1/GPa)
#
#
# Indices 1 2 3 4 5 6 
#
# 1 0.018218 -0.007701 0.000414 0.003723 -0.002369 0.005045
# 2 -0.007701 0.023815 0.014913 -0.022733 0.005851 -0.013435
# 3 0.000414 0.014913 0.049920 -0.056156 0.008793 -0.021469
# 4 0.003723 -0.022733 -0.056156 0.138124 -0.022158 0.029816
# 5 -0.002369 0.005851 0.008793 -0.022158 0.029032 -0.010128
# 6 0.005045 -0.013435 -0.021469 0.029816 -0.010128 0.039158
#
#
# Mechanical properties :
#
#
# Convention : Reuss Voigt Hill
#
# Bulk Modulus (GPa) = 9.32788 19.98681 14.65734
# Shear Modulus (GPa) = 15.68618 30.65121 23.16870
#
# Velocity S-wave (km/s) = 2.71846 3.80004 3.30381
# Velocity P-wave (km/s) = 3.77464 5.35442 4.63237
#
# Compressibility (1/GPa) = 0.10720554
#
# Stress axis : x y z
#
# Youngs Moduli (GPa) = 54.88981 41.98967 20.03198
#
# Poissons Ratio (x) = 0.32337 -0.00829
# Poissons Ratio (y) = 0.42272 -0.29874
# Poissons Ratio (z) = -0.02271 -0.62620
#
# Static dielectric constant tensor:
#      x y z
#    x 1.782750 -0.010960 -0.000690 
#    y -0.010960 1.843780 0.052870 
#    z -0.000690 0.052870 1.750310 
# 
# From -- ./inp_files/113144.got.cif
#   From: 2010.05.17/outbox.ucp.g08.bks.cvg/sg2_57_cif.got.tgz:113144.got - 2010.06.11 11:32:03.
