data_PCOD9073851
_publ_section_title
;
Structure prediction by ZEFSAII (Michael W. Deem and Ramdas Pophale) SiO2 
 PCOD9073851
Probable space group: P -1
;
_chemical_formula_sum "Si O2"
_cell_formula_units_Z 16
_cell_length_a 15.000000
_cell_length_b 15.000000
_cell_length_c 15.000000
_cell_angle_alpha 140.000000
_cell_angle_beta 40.000000
_cell_angle_gamma 160.000000
_cell_volume 725.414092
_symmetry_space_group_name_H-M "P -1"
_symmetry_group_IT_number 2
_symmetry_cell_setting 'triclinic'
loop_
_space_group_symop_operation_xyz
x,y,z
-x,-y,-z
loop_
_atom_site_type_symbol
_atom_site_label
_atom_site_fract_x
_atom_site_fract_y
_atom_site_fract_z
Si Si1 0.812896 0.519677 0.218214
Si Si2 0.544714 0.126042 0.474714
Si Si3 0.573982 0.456373 0.530429
Si Si4 0.744243 0.767825 0.954481
Si Si5 0.020563 0.978030 0.365019
Si Si6 0.172878 0.581308 0.061678
Si Si7 0.696692 0.046001 0.134317
Si Si8 0.927461 0.692079 0.608799
O O1 0.631977 0.437449 0.373140
O O2 0.001291 0.798492 0.244395
O O3 0.989780 0.557952 0.162781
O O4 0.715579 0.370549 0.085020
O O5 0.649144 0.116456 0.305901
O O6 0.248949 0.945733 0.546247
O O7 0.500000 0.000000 0.500000
O O8 0.779263 0.430590 0.559089
O O9 0.258203 0.197356 0.594930
O O10 0.769796 0.556357 0.529898
O O11 0.698837 0.717822 0.643829
O O12 0.831843 0.739359 0.782521
O O13 0.500000 0.500000 0.000000
O O14 0.693192 0.881776 0.044958
O O15 0.000000 0.000000 0.000000
O O16 0.000000 0.000000 0.500000
O O17 0.434508 0.838490 0.115124
O O18 0.968178 0.310239 0.070913
#
# Coordination Sequence:
#
# PCOD9073851 Si02
#       8
#     2   2   2   2   2   2   2   2
#     4  10  23  43  63  95 139 181 235 271 342 393
#     4  12  25  46  74 103 136 180 231 290 357 424
#     4  11  23  40  66  96 133 177 234 285 333 399
#     4  12  27  49  75 105 145 182 225 289 368 432
#     4  10  22  37  63  90 128 178 224 278 334 385
#     4  11  27  41  68  97 139 190 224 284 334 417
#     4  12  26  47  72 103 143 179 235 287 351 417
#     4  12  26  44  74 106 137 180 237 293 343 415
#
# _framework density 22.056367999999999
#
# number of rings (size 3 to 8) (size 9 to 14) (size 15 to 20)
#    0.000    0.750    0.000    7.875    3.500    8.000 
#    0.000    0.000    0.000    0.000    0.000    0.000 
#    0.000    0.000    0.000    0.000    0.000    0.000 
#
# Total GULP energy -89256.946884 kJ/mol
# GULP energy per Si atom -5578.559180 kJ/mol
# Density = 2.200617 g / cm^3
# Si number density = 22.056368 Si / 1000 Ang^3
#
#
#
# Elastic Constant Matrix: (Units=GPa)
#
#
# Indices 1 2 3 4 5 6 
#
# 1 94.1054 6.0770 22.6750 -2.4100 -0.2610 4.5825
# 2 6.0770 89.0352 15.8795 -12.3522 -1.2703 22.9669
# 3 22.6750 15.8795 151.3749 -1.7534 3.0529 3.2739
# 4 -2.4100 -12.3522 -1.7534 33.0321 -3.9860 3.6245
# 5 -0.2610 -1.2703 3.0529 -3.9860 42.4009 10.0377
# 6 4.5825 22.9669 3.2739 3.6245 10.0377 33.8588
#
#
#
# Elastic Compliance Matrix: (Units=1/GPa)
#
#
# Indices 1 2 3 4 5 6 
#
# 1 0.011129 0.000148 -0.001646 0.001060 0.000711 -0.001772
# 2 0.000148 0.015925 -0.001413 0.007822 0.004348 -0.012812
# 3 -0.001646 -0.001413 0.006994 -0.000458 -0.000785 0.000787
# 4 0.001060 0.007822 -0.000458 0.035206 0.006190 -0.011008
# 5 0.000711 0.004348 -0.000785 0.006190 0.027121 -0.011672
# 6 -0.001772 -0.012812 0.000787 -0.011008 -0.011672 0.043028
#
#
# Mechanical properties :
#
#
# Convention : Reuss Voigt Hill
#
# Bulk Modulus (GPa) = 35.42698 47.08652 41.25675
# Shear Modulus (GPa) = 32.33440 41.18397 36.75919
#
# Velocity S-wave (km/s) = 3.83298 4.32582 4.08683
# Velocity P-wave (km/s) = 5.97376 6.80771 6.40432
#
# Compressibility (1/GPa) = 0.02822708
#
# Stress axis : x y z
#
# Youngs Moduli (GPa) = 89.85627 62.79243 142.97056
#
# Poissons Ratio (x) = -0.00931 0.23538
# Poissons Ratio (y) = -0.01332 0.20199
# Poissons Ratio (z) = 0.14793 0.08871
#
# Static dielectric constant tensor:
#      x y z
#    x 1.973770 -0.107990 -0.063700 
#    y -0.107990 1.889880 0.082630 
#    z -0.063700 0.082630 1.874010 
# 
# From -- ./inp_files/534430.got.cif
#   From: 2010.05.17/outbox.ucp.g08.bks.cvg/sg2_268_cif.got.tgz:534430.got - 2010.06.11 11:32:03.
