data_PCOD9073403
_publ_section_title
;
Structure prediction by ZEFSAII (Michael W. Deem and Ramdas Pophale) SiO2 
 PCOD9073403
Probable space group: P -1
;
_chemical_formula_sum "Si O2"
_cell_formula_units_Z 16
_cell_length_a 13.450173
_cell_length_b 7.123534
_cell_length_c 20.961977
_cell_angle_alpha 91.590214
_cell_angle_beta 154.710206
_cell_angle_gamma 73.190244
_cell_volume 673.963128
_symmetry_space_group_name_H-M "P -1"
_symmetry_group_IT_number 2
_symmetry_cell_setting 'triclinic'
loop_
_space_group_symop_operation_xyz
x,y,z
-x,-y,-z
loop_
_atom_site_type_symbol
_atom_site_label
_atom_site_fract_x
_atom_site_fract_y
_atom_site_fract_z
Si Si1 0.003669 0.429671 0.571259
Si Si2 0.001092 0.164257 0.086265
Si Si3 0.162759 0.948316 0.660832
Si Si4 0.629355 0.357717 0.746147
Si Si5 0.808498 0.212663 0.578671
Si Si6 0.162789 0.005250 0.896200
Si Si7 0.222737 0.382822 0.816667
Si Si8 0.185855 0.435457 0.936491
O O1 0.677064 0.517990 0.394291
O O2 0.000000 0.500000 0.500000
O O3 0.222745 0.143391 0.699682
O O4 0.096487 0.531636 0.679668
O O5 0.865377 0.279058 0.938652
O O6 0.038027 0.337253 0.147937
O O7 0.808864 0.134861 0.025057
O O8 0.274022 0.888382 0.230448
O O9 0.956097 0.023554 0.603990
O O10 0.482116 0.694923 0.845990
O O11 0.000000 0.000000 0.500000
O O12 0.521139 0.559938 0.631611
O O13 0.874236 0.099451 0.685922
O O14 0.007490 0.307062 0.697319
O O15 0.138494 0.235099 0.905334
O O16 0.439158 0.836911 0.006234
O O17 0.194650 0.497937 0.868501
#
# Coordination Sequence:
#
# PCOD9073403 Si02
#       8
#     2   2   2   2   2   2   2   2
#     4  10  19  35  61  83 109 151 189 234 296 344
#     4  11  24  37  60  82 115 163 193 231 287 355
#     4  10  18  31  54  84 115 147 179 239 300 330
#     4   9  21  41  54  81 124 150 188 245 292 334
#     4   9  17  35  59  77 116 153 181 244 299 326
#     4  11  19  37  61  86 113 154 194 234 295 347
#     4   9  17  33  57  84 114 146 181 244 296 324
#     4  11  19  37  58  86 117 146 194 240 287 341
#
# _framework density 23.740171
#
# number of rings (size 3 to 8) (size 9 to 14) (size 15 to 20)
#    0.000    2.250    3.750    3.000    0.000    1.000 
#    2.250    8.125    5.500    0.000    0.000    0.000 
#    0.000    0.000    0.000    0.000    0.000    0.000 
#
# Total GULP energy -89205.575803 kJ/mol
# GULP energy per Si atom -5575.348488 kJ/mol
# Density = 2.368614 g / cm^3
# Si number density = 23.740171 Si / 1000 Ang^3
#
#
#
# Elastic Constant Matrix: (Units=GPa)
#
#
# Indices 1 2 3 4 5 6 
#
# 1 33.6819 23.2557 26.1340 5.5428 -11.3805 -3.6362
# 2 23.2557 118.8381 18.9557 -4.3682 -10.8795 -15.8819
# 3 26.1340 18.9557 75.2472 6.3285 -37.5399 -4.0807
# 4 5.5428 -4.3682 6.3285 29.6916 -12.7423 -9.2198
# 5 -11.3805 -10.8795 -37.5399 -12.7423 39.2007 8.4527
# 6 -3.6362 -15.8819 -4.0807 -9.2198 8.4527 31.4783
#
#
#
# Elastic Compliance Matrix: (Units=1/GPa)
#
#
# Indices 1 2 3 4 5 6 
#
# 1 0.047838 -0.007842 -0.018254 -0.010450 -0.008846 -0.001482
# 2 -0.007842 0.010994 0.000902 0.005648 0.002220 0.005816
# 3 -0.018254 0.000902 0.033927 0.008630 0.030898 -0.003024
# 4 -0.010450 0.005648 0.008630 0.046444 0.019495 0.011129
# 5 -0.008846 0.002220 0.030898 0.019495 0.060893 -0.006537
# 6 -0.001482 0.005816 -0.003024 0.011129 -0.006537 0.039154
#
#
# Mechanical properties :
#
#
# Convention : Reuss Voigt Hill
#
# Bulk Modulus (GPa) = 23.60090 40.49532 32.04811
# Shear Modulus (GPa) = 16.46040 30.70226 23.58133
#
# Velocity S-wave (km/s) = 2.63602 3.60010 3.15510
# Velocity P-wave (km/s) = 4.38494 5.86308 5.17704
#
# Compressibility (1/GPa) = 0.04237127
#
# Stress axis : x y z
#
# Youngs Moduli (GPa) = 20.90390 90.96209 29.47547
#
# Poissons Ratio (x) = 0.71332 0.53804
# Poissons Ratio (y) = 0.16393 -0.02659
# Poissons Ratio (z) = 0.38157 -0.08206
#
# Static dielectric constant tensor:
#      x y z
#    x 2.017130 0.050610 -0.079430 
#    y 0.050610 1.961880 0.014410 
#    z -0.079430 0.014410 1.973070 
# 
# From -- ./inp_files/597013.got.cif
#   From: 2010.05.17/outbox.cif.g08.bks.cpg/sg2_299_cif.got.tgz:597013.got - 2010.06.03 11:33:40.
