data_PCOD9073213
_publ_section_title
;
Structure prediction by ZEFSAII (Michael W. Deem and Ramdas Pophale) SiO2 
 PCOD9073213
Probable space group: P -1
;
_chemical_formula_sum "Si O2"
_cell_formula_units_Z 14
_cell_length_a 25.449804
_cell_length_b 11.644704
_cell_length_c 8.643709
_cell_angle_alpha 52.817708
_cell_angle_beta 49.977665
_cell_angle_gamma 19.533176
_cell_volume 655.873060
_symmetry_space_group_name_H-M "P -1"
_symmetry_group_IT_number 2
_symmetry_cell_setting 'triclinic'
loop_
_space_group_symop_operation_xyz
x,y,z
-x,-y,-z
loop_
_atom_site_type_symbol
_atom_site_label
_atom_site_fract_x
_atom_site_fract_y
_atom_site_fract_z
Si Si1 0.468270 0.501766 0.886556
Si Si2 0.989964 0.176709 0.800480
Si Si3 0.752911 0.251873 0.100496
Si Si4 0.501453 0.259490 0.539686
Si Si5 0.235442 0.592402 0.584391
Si Si6 0.682403 0.644359 0.724543
Si Si7 0.331728 0.165935 0.976919
O O1 0.299691 0.746103 0.947694
O O2 0.481539 0.611436 0.657089
O O3 0.500000 0.500000 0.000000
O O4 0.602961 0.118848 0.934062
O O5 0.099324 0.064789 0.804012
O O6 0.082415 0.977612 0.624485
O O7 0.803791 0.578456 0.841518
O O8 0.000000 0.000000 0.000000
O O9 0.597102 0.552148 0.266182
O O10 0.779438 0.361471 0.892553
O O11 0.391063 0.386345 0.518336
O O12 0.662508 0.854152 0.581190
O O13 0.254767 0.529679 0.418715
O O14 0.247059 0.413814 0.792816
O O15 0.495702 0.947493 0.867548
#
# Coordination Sequence:
#
# PCOD9073213 Si02
#       7
#     2   2   2   2   2   2   2
#     4  11  21  35  57  83 110 146 189 232 272 320
#     4   9  19  37  58  80 114 148 178 223 281 333
#     4  10  21  35  54  82 112 146 185 228 273 329
#     4  10  18  31  53  83 112 140 181 231 272 321
#     4   9  17  33  57  83 108 141 183 230 273 321
#     4  10  18  33  60  87 107 139 189 234 269 318
#     4   9  18  34  57  82 108 144 183 224 275 328
#
# _framework density 21.345594999999999
#
# number of rings (size 3 to 8) (size 9 to 14) (size 15 to 20)
#    0.000    2.286    0.000    6.000    0.000    2.286 
#    0.000    6.429    0.000   15.429    0.000    0.000 
#    0.000    0.000    0.000    0.000    0.000    0.000 
#
# Total GULP energy -78004.964124 kJ/mol
# GULP energy per Si atom -5571.783152 kJ/mol
# Density = 2.129701 g / cm^3
# Si number density = 21.345595 Si / 1000 Ang^3
#
#
#
# Elastic Constant Matrix: (Units=GPa)
#
#
# Indices 1 2 3 4 5 6 
#
# 1 106.4965 37.7272 37.5991 -2.1871 10.4916 9.4497
# 2 37.7272 94.4797 34.9509 3.6731 4.7121 13.1665
# 3 37.5991 34.9509 106.1309 -17.3617 2.8739 7.4110
# 4 -2.1871 3.6731 -17.3617 22.8901 12.6018 -12.4485
# 5 10.4916 4.7121 2.8739 12.6018 38.9158 -12.8627
# 6 9.4497 13.1665 7.4110 -12.4485 -12.8627 17.9812
#
#
#
# Elastic Compliance Matrix: (Units=1/GPa)
#
#
# Indices 1 2 3 4 5 6 
#
# 1 0.012657 -0.001876 -0.003693 -0.004067 -0.004934 -0.010101
# 2 -0.001876 0.018652 -0.007004 -0.021313 -0.003202 -0.026831
# 3 -0.003693 -0.007004 0.015529 0.021079 -0.001420 0.014246
# 4 -0.004067 -0.021313 0.021079 0.110291 -0.007024 0.080386
# 5 -0.004934 -0.003202 -0.001420 -0.007024 0.039305 0.028777
# 6 -0.010101 -0.026831 0.014246 0.080386 0.028777 0.150934
#
#
# Mechanical properties :
#
#
# Convention : Reuss Voigt Hill
#
# Bulk Modulus (GPa) = 46.09941 58.62906 52.36423
# Shear Modulus (GPa) = 13.16674 29.07942 21.12308
#
# Velocity S-wave (km/s) = 2.48631 3.69496 3.14916
# Velocity P-wave (km/s) = 5.46680 6.76238 6.14881
#
# Compressibility (1/GPa) = 0.02169225
#
# Stress axis : x y z
#
# Youngs Moduli (GPa) = 79.00617 53.61388 64.39558
#
# Poissons Ratio (x) = 0.10060 0.23779
# Poissons Ratio (y) = 0.14824 0.45103
# Poissons Ratio (z) = 0.29174 0.37551
#
# Static dielectric constant tensor:
#      x y z
#    x 1.916190 -0.053920 0.059960 
#    y -0.053920 1.828320 0.001650 
#    z 0.059960 0.001650 1.805440 
# 
# From -- ./inp_files/154329.got.cif
#   From: 2010.05.17/outbox.cif.g08.bks.cpg/sg2_78_cif.got.tgz:154329.got - 2010.06.03 11:33:40.
