data_PCOD9073726
_publ_section_title
;
Structure prediction by ZEFSAII (Michael W. Deem and Ramdas Pophale) SiO2 
 PCOD9073726
Probable space group: P -1
;
_chemical_formula_sum "Si O2"
_cell_formula_units_Z 15
_cell_length_a 16.600093
_cell_length_b 7.610807
_cell_length_c 8.978901
_cell_angle_alpha 109.098026
_cell_angle_beta 40.091232
_cell_angle_gamma 122.386159
_cell_volume 609.771756
_symmetry_space_group_name_H-M "P -1"
_symmetry_group_IT_number 2
_symmetry_cell_setting 'triclinic'
loop_
_space_group_symop_operation_xyz
x,y,z
-x,-y,-z
loop_
_atom_site_type_symbol
_atom_site_label
_atom_site_fract_x
_atom_site_fract_y
_atom_site_fract_z
Si Si1 0.500000 0.500000 0.000000
Si Si2 0.150120 0.253250 0.800160
Si Si3 0.888899 0.175349 0.316812
Si Si4 0.717403 0.235688 0.810392
Si Si5 0.810744 0.685577 0.724054
Si Si6 0.489387 0.890198 0.222715
Si Si7 0.933885 0.146541 0.802747
Si Si8 0.248577 0.708476 0.714538
O O1 0.321639 0.387477 0.223188
O O2 0.513924 0.688278 0.141436
O O3 0.254156 0.496015 0.690451
O O4 0.037750 0.177916 0.802605
O O5 0.197409 0.071159 0.682356
O O6 0.051777 0.238498 0.075429
O O7 0.842763 0.197426 0.554165
O O8 0.850790 0.316972 0.297174
O O9 0.763096 0.479051 0.835626
O O10 0.609640 0.160391 0.799726
O O11 0.630160 0.094302 0.031663
O O12 0.955672 0.729666 0.448896
O O13 0.846121 0.903663 0.813267
O O14 0.398158 0.886346 0.491753
O O15 0.829147 0.232837 0.030442
#
# Coordination Sequence:
#
# PCOD9073726 Si02
#       8
#     1   2   2   2   2   2   2   2
#     4  10  20  36  58  84 110 148 196 232 278 356
#     4  10  18  31  56  85 114 151 187 239 298 342
#     4   9  18  29  52  84 113 141 196 235 280 353
#     4   9  17  33  51  79 112 146 187 242 279 336
#     4  10  21  37  60  85 113 154 192 241 297 344
#     4   9  19  31  55  80 107 146 199 230 280 344
#     4  10  20  36  60  84 119 149 192 242 296 344
#     4  10  19  36  57  84 118 157 189 242 291 343
#
# _framework density 24.599367999999998
#
# number of rings (size 3 to 8) (size 9 to 14) (size 15 to 20)
#    0.000    2.400    0.000    4.800    3.733    0.000 
#    0.000    2.000   11.733    0.000    0.000    0.000 
#    0.000    0.000    0.000    0.000    0.000    0.000 
#
# Total GULP energy -83540.075396 kJ/mol
# GULP energy per Si atom -5569.338360 kJ/mol
# Density = 2.454338 g / cm^3
# Si number density = 24.599368 Si / 1000 Ang^3
#
#
#
# Elastic Constant Matrix: (Units=GPa)
#
#
# Indices 1 2 3 4 5 6 
#
# 1 51.8571 9.6318 1.6018 -12.0942 -5.9179 22.9576
# 2 9.6318 161.4159 64.2204 -20.8912 2.6721 2.3743
# 3 1.6018 64.2204 141.1638 -22.1766 -10.1038 1.5152
# 4 -12.0942 -20.8912 -22.1766 34.5931 -13.0856 -3.3604
# 5 -5.9179 2.6721 -10.1038 -13.0856 -4.3367 -0.5868
# 6 22.9576 2.3743 1.5152 -3.3604 -0.5868 31.8893
#
#
#
# Elastic Compliance Matrix: (Units=1/GPa)
#
#
# Indices 1 2 3 4 5 6 
#
# 1 0.024615 -0.000486 -0.001694 -0.002306 -0.020520 -0.018225
# 2 -0.000486 0.007771 -0.002868 0.003403 0.001823 0.000299
# 3 -0.001694 -0.002868 0.007318 -0.001795 -0.011182 0.000690
# 4 -0.002306 0.003403 -0.001795 0.015262 -0.036954 0.002420
# 5 -0.020520 0.001823 -0.011182 -0.036954 -0.065272 0.010073
# 6 -0.018225 0.000299 0.000690 0.002420 0.010073 0.044864
#
#
# Mechanical properties :
#
#
# Convention : Reuss Voigt Hill
#
# Bulk Modulus (GPa) = 33.77261 56.14942 44.96102
# Shear Modulus (GPa) = 91.70497 31.02799 61.36648
#
# Velocity S-wave (km/s) = 6.11231 3.55538 5.00005
# Velocity P-wave (km/s) = 7.97325 6.30313 7.18686
#
# Compressibility (1/GPa) = 0.02960979
#
# Stress axis : x y z
#
# Youngs Moduli (GPa) = 40.62558 128.68250 136.64746
#
# Poissons Ratio (x) = 0.06249 0.23144
# Poissons Ratio (y) = 0.01973 0.39189
# Poissons Ratio (z) = 0.06881 0.36905
#
# Static dielectric constant tensor:
#      x y z
#    x 2.037960 -0.016630 0.124180 
#    y -0.016630 1.973180 0.117230 
#    z 0.124180 0.117230 2.857470 
# 
# From -- ./inp_files/473700.got.cif
#   From: 2010.05.17/outbox.cif.g08.bks.cpg/sg2_237_cif.got.tgz:473700.got - 2010.06.03 11:33:40.
