data_PCOD9073161
_publ_section_title
;
Structure prediction by ZEFSAII (Michael W. Deem and Ramdas Pophale) SiO2 
 PCOD9073161
Probable space group: P -1
;
_chemical_formula_sum "Si O2"
_cell_formula_units_Z 16
_cell_length_a 15.000000
_cell_length_b 15.000000
_cell_length_c 12.000000
_cell_angle_alpha 120.000000
_cell_angle_beta 40.000000
_cell_angle_gamma 150.000000
_cell_volume 747.221570
_symmetry_space_group_name_H-M "P -1"
_symmetry_group_IT_number 2
_symmetry_cell_setting 'triclinic'
loop_
_space_group_symop_operation_xyz
x,y,z
-x,-y,-z
loop_
_atom_site_type_symbol
_atom_site_label
_atom_site_fract_x
_atom_site_fract_y
_atom_site_fract_z
Si Si1 0.214763 0.075822 0.953995
Si Si2 0.918874 0.795820 0.262320
Si Si3 0.393534 0.978995 0.975454
Si Si4 0.449185 0.634651 0.700043
Si Si5 0.687191 0.516093 0.838364
Si Si6 0.275099 0.611776 0.068080
Si Si7 0.837896 0.038907 0.293227
Si Si8 0.721733 0.288648 0.245659
O O1 0.989297 0.024380 0.143543
O O2 0.514643 0.324046 0.808415
O O3 0.157214 0.985860 0.069242
O O4 0.170268 0.959741 0.831852
O O5 0.736622 0.775424 0.462120
O O6 0.724331 0.583698 0.259377
O O7 0.100987 0.846997 0.205153
O O8 0.626923 0.215266 0.869849
O O9 0.337970 0.853012 0.859134
O O10 0.500000 0.000000 0.000000
O O11 0.288555 0.617249 0.767876
O O12 0.488827 0.711296 0.829860
O O13 0.721006 0.474418 0.895594
O O14 0.987710 0.760445 0.685824
O O15 0.500000 0.500000 0.000000
O O16 0.989955 0.443241 0.164546
O O17 0.534133 0.849357 0.514960
#
# Coordination Sequence:
#
# PCOD9073161 Si02
#       8
#     2   2   2   2   2   2   2   2
#     4  10  20  44  69  95 133 170 227 287 333 397
#     4  11  22  42  71 101 133 178 229 282 337 415
#     4  12  25  44  68  98 142 185 222 275 351 406
#     4  11  23  42  71 103 137 177 233 278 345 414
#     4  10  23  44  68  98 133 175 232 285 337 400
#     4  12  24  43  72  98 141 188 222 289 345 404
#     4  10  23  41  71  96 130 181 221 278 346 395
#     4  12  25  46  67 102 145 180 228 282 346 419
#
# _framework density 21.412658
#
# number of rings (size 3 to 8) (size 9 to 14) (size 15 to 20)
#    0.000    1.000    5.000    1.875    0.000    2.000 
#    4.500    1.250    0.000    0.000    0.000    0.000 
#    0.000    0.000    0.000    0.000    0.000    0.000 
#
# Total GULP energy -89124.889116 kJ/mol
# GULP energy per Si atom -5570.305570 kJ/mol
# Density = 2.136392 g / cm^3
# Si number density = 21.412658 Si / 1000 Ang^3
#
#
#
# Elastic Constant Matrix: (Units=GPa)
#
#
# Indices 1 2 3 4 5 6 
#
# 1 103.7872 3.2248 21.3770 4.8562 -23.7277 -4.0002
# 2 3.2248 100.3428 34.2825 5.6147 -21.7229 0.4463
# 3 21.3770 34.2825 68.7841 3.0923 -5.8336 6.9460
# 4 4.8562 5.6147 3.0923 26.0518 -6.0539 -2.9096
# 5 -23.7277 -21.7229 -5.8336 -6.0539 13.2139 -5.6288
# 6 -4.0002 0.4463 6.9460 -2.9096 -5.6288 33.3007
#
#
#
# Elastic Compliance Matrix: (Units=1/GPa)
#
#
# Indices 1 2 3 4 5 6 
#
# 1 0.266534 0.252802 -0.155982 0.177190 1.012034 0.247709
# 2 0.252802 0.259772 -0.155969 0.173788 0.995199 0.242821
# 3 -0.155982 -0.155969 0.109771 -0.106823 -0.601074 -0.150476
# 4 0.177190 0.173788 -0.106823 0.164316 0.706548 0.175021
# 5 1.012034 0.995199 -0.601074 0.706548 4.001256 0.971669
# 6 0.247709 0.242821 -0.150476 0.175021 0.971669 0.267450
#
#
# Mechanical properties :
#
#
# Convention : Reuss Voigt Hill
#
# Bulk Modulus (GPa) = 1.93132 43.40918 22.67025
# Shear Modulus (GPa) = 0.93284 28.78194 14.85739
#
# Velocity S-wave (km/s) = 0.66075 3.67025 2.63698
# Velocity P-wave (km/s) = 1.21903 6.18689 4.45891
#
# Compressibility (1/GPa) = 0.51778083
#
# Stress axis : x y z
#
# Youngs Moduli (GPa) = 3.75186 3.84952 9.10986
#
# Poissons Ratio (x) = -0.97317 1.42097
# Poissons Ratio (y) = -0.94848 1.42086
# Poissons Ratio (z) = 0.58522 0.60041
#
# Static dielectric constant tensor:
#      x y z
#    x 1.885890 -0.004200 -0.001900 
#    y -0.004200 1.802930 -0.046000 
#    z -0.001900 -0.046000 1.769590 
# 
# From -- ./inp_files/455798.got.cif
#   From: 2010.05.17/outbox.ucp.g08.bks.cvg/sg2_228_cif.got.tgz:455798.got - 2010.06.11 11:32:03.
