data_PCOD9073846
_publ_section_title
;
Structure prediction by ZEFSAII (Michael W. Deem and Ramdas Pophale) SiO2 
 PCOD9073846
Probable space group: P -1
;
_chemical_formula_sum "Si O2"
_cell_formula_units_Z 16
_cell_length_a 27.000000
_cell_length_b 6.000000
_cell_length_c 6.000000
_cell_angle_alpha 100.000000
_cell_angle_beta 120.000000
_cell_angle_gamma 60.000000
_cell_volume 725.212580
_symmetry_space_group_name_H-M "P -1"
_symmetry_group_IT_number 2
_symmetry_cell_setting 'triclinic'
loop_
_space_group_symop_operation_xyz
x,y,z
-x,-y,-z
loop_
_atom_site_type_symbol
_atom_site_label
_atom_site_fract_x
_atom_site_fract_y
_atom_site_fract_z
Si Si1 0.158237 0.380236 0.428850
Si Si2 0.673401 0.353731 0.647824
Si Si3 0.573777 0.364918 0.055600
Si Si4 0.743288 0.493142 0.468885
Si Si5 0.213138 0.969940 0.850471
Si Si6 0.913872 0.700902 0.111263
Si Si7 0.612304 0.768508 0.957852
Si Si8 0.043672 0.707530 0.494436
O O1 0.206676 0.400181 0.366347
O O2 0.101663 0.646311 0.444604
O O3 0.200760 0.199560 0.692991
O O4 0.116151 0.269339 0.194250
O O5 0.625518 0.309850 0.365584
O O6 0.727504 0.378201 0.627631
O O7 0.718887 0.124021 0.879215
O O8 0.634357 0.621706 0.744520
O O9 0.580513 0.591830 0.964779
O O10 0.583452 0.084652 0.930844
O O11 0.500000 0.500000 0.000000
O O12 0.774523 0.273425 0.313627
O O13 0.674271 0.694590 0.243707
O O14 0.145746 0.064615 0.850449
O O15 0.923731 0.454673 0.237170
O O16 0.987684 0.648948 0.263151
O O17 0.000000 0.000000 0.500000
#
# Coordination Sequence:
#
# PCOD9073846 Si02
#       8
#     2   2   2   2   2   2   2   2
#     4  11  23  38  65  92 125 169 223 284 343 417
#     4  10  24  45  69 102 142 188 226 297 350 419
#     4  11  25  48  74 110 148 190 241 293 352 425
#     4  10  23  40  61  96 131 174 223 283 347 412
#     4  10  22  41  61  93 128 169 229 278 351 418
#     4  10  22  37  61  90 122 166 220 283 346 411
#     4  10  25  43  72 106 146 187 242 290 353 428
#     4  10  22  40  58  86 125 168 217 277 344 420
#
# _framework density 22.062495999999999
#
# number of rings (size 3 to 8) (size 9 to 14) (size 15 to 20)
#    0.000    1.750    0.000    2.250    7.000    9.500 
#    2.250    0.000    0.000    0.000    0.000    0.000 
#    0.000    0.000    0.000    0.000    0.000    0.000 
#
# Total GULP energy -89142.756707 kJ/mol
# GULP energy per Si atom -5571.422294 kJ/mol
# Density = 2.201228 g / cm^3
# Si number density = 22.062496 Si / 1000 Ang^3
#
#
#
# Elastic Constant Matrix: (Units=GPa)
#
#
# Indices 1 2 3 4 5 6 
#
# 1 110.1839 29.4566 24.8691 -7.8052 8.1154 3.3117
# 2 29.4566 113.0120 1.4250 6.8461 -7.6936 -11.6773
# 3 24.8691 1.4250 55.9871 1.0861 -6.3103 6.6476
# 4 -7.8052 6.8461 1.0861 18.0277 -8.4171 5.8993
# 5 8.1154 -7.6936 -6.3103 -8.4171 14.8788 8.8912
# 6 3.3117 -11.6773 6.6476 5.8993 8.8912 22.9156
#
#
#
# Elastic Compliance Matrix: (Units=1/GPa)
#
#
# Indices 1 2 3 4 5 6 
#
# 1 0.012849 -0.003595 -0.008416 -0.003324 -0.018335 0.006722
# 2 -0.003595 0.011553 -0.001245 -0.015257 -0.009914 0.014543
# 3 -0.008416 -0.001245 0.035496 0.047427 0.076721 -0.051693
# 4 -0.003324 -0.015257 0.047427 0.234895 0.254689 -0.180342
# 5 -0.018335 -0.009914 0.076721 0.254689 0.393961 -0.243081
# 6 0.006722 0.014543 -0.051693 -0.180342 -0.243081 0.205815
#
#
# Mechanical properties :
#
#
# Convention : Reuss Voigt Hill
#
# Bulk Modulus (GPa) = 29.95310 43.40938 36.68124
# Shear Modulus (GPa) = 5.36359 26.05992 15.71175
#
# Velocity S-wave (km/s) = 1.56089 3.44057 2.67150
# Velocity P-wave (km/s) = 4.10542 5.95833 5.11645
#
# Compressibility (1/GPa) = 0.03338552
#
# Stress axis : x y z
#
# Youngs Moduli (GPa) = 77.82498 86.55480 28.17199
#
# Poissons Ratio (x) = 0.31119 0.23710
# Poissons Ratio (y) = 0.27980 0.03508
# Poissons Ratio (z) = 0.65499 0.10778
#
# Static dielectric constant tensor:
#      x y z
#    x 1.477530 -0.082110 -0.179650 
#    y -0.082110 1.822810 -0.020060 
#    z -0.179650 -0.020060 1.759780 
# 
# From -- ./inp_files/11011.got.cif
#   From: 2010.05.17/outbox.ucp.g08.bks.cvg/sg2_6_cif.got.tgz:11011.got - 2010.06.11 11:32:03.
