data_PCOD9073300
_publ_section_title
;
Structure prediction by ZEFSAII (Michael W. Deem and Ramdas Pophale) SiO2 
 PCOD9073300
Probable space group: P -1
;
_chemical_formula_sum "Si O2"
_cell_formula_units_Z 16
_cell_length_a 9.000000
_cell_length_b 21.000000
_cell_length_c 9.000000
_cell_angle_alpha 120.000000
_cell_angle_beta 150.000000
_cell_angle_gamma 60.000000
_cell_volume 727.687525
_symmetry_space_group_name_H-M "P -1"
_symmetry_group_IT_number 2
_symmetry_cell_setting 'triclinic'
loop_
_space_group_symop_operation_xyz
x,y,z
-x,-y,-z
loop_
_atom_site_type_symbol
_atom_site_label
_atom_site_fract_x
_atom_site_fract_y
_atom_site_fract_z
Si Si1 0.463299 0.539958 0.676604
Si Si2 0.542852 0.298031 0.219379
Si Si3 0.065031 0.071104 0.289405
Si Si4 0.321166 0.321151 0.390554
Si Si5 0.937755 0.482626 0.256206
Si Si6 0.134326 0.774246 0.144234
Si Si7 0.659454 0.090975 0.693497
Si Si8 0.912789 0.799387 0.319798
O O1 0.500000 0.500000 0.500000
O O2 0.529945 0.623798 0.834049
O O3 0.112581 0.541520 0.395976
O O4 0.633516 0.492967 0.906697
O O5 0.410340 0.312936 0.286364
O O6 0.892750 0.270700 0.510744
O O7 0.413103 0.224271 0.974463
O O8 0.305313 0.091753 0.399894
O O9 0.056241 0.125200 0.483377
O O10 0.175521 0.985374 0.326085
O O11 0.763172 0.082176 0.945140
O O12 0.625609 0.301691 0.723197
O O13 0.111203 0.399222 0.301746
O O14 0.149409 0.253523 0.207462
O O15 0.000000 0.500000 0.500000
O O16 0.253540 0.838238 0.231097
O O17 0.034050 0.799317 0.255254
#
# Coordination Sequence:
#
# PCOD9073300 Si02
#       8
#     2   2   2   2   2   2   2   2
#     4  12  24  42  70  88 117 171 216 249 304 383
#     4  10  21  38  62  89 115 154 207 252 294 357
#     4  10  21  39  60  87 122 156 188 251 293 348
#     4  10  21  39  62  83 122 158 193 251 307 355
#     4  12  26  44  61  92 130 159 204 267 316 359
#     4  10  21  38  61  87 113 159 201 236 296 368
#     4  10  21  39  61  86 121 158 197 229 300 372
#     4  10  21  38  59  88 122 149 196 256 295 338
#
# _framework density 21.987459999999999
#
# number of rings (size 3 to 8) (size 9 to 14) (size 15 to 20)
#    0.000    1.500    1.250    3.750    3.500    0.500 
#   13.500    0.000    0.000    9.000    0.000    0.000 
#    0.000    0.000    0.000    0.000    0.000    0.000 
#
# Total GULP energy -89096.699251 kJ/mol
# GULP energy per Si atom -5568.543703 kJ/mol
# Density = 2.193742 g / cm^3
# Si number density = 21.987460 Si / 1000 Ang^3
#
#
#
# Elastic Constant Matrix: (Units=GPa)
#
#
# Indices 1 2 3 4 5 6 
#
# 1 -6.2180 -30.8425 15.5520 -14.2636 18.4484 11.5199
# 2 -30.8425 11.0260 17.8820 -17.4568 26.0404 12.7356
# 3 15.5520 17.8820 73.5079 -1.3537 -0.5335 -9.8914
# 4 -14.2636 -17.4568 -1.3537 -0.5758 4.6209 -2.0837
# 5 18.4484 26.0404 -0.5335 4.6209 20.9407 8.5318
# 6 11.5199 12.7356 -9.8914 -2.0837 8.5318 32.0798
#
#
#
# Elastic Compliance Matrix: (Units=1/GPa)
#
#
# Indices 1 2 3 4 5 6 
#
# 1 0.024980 -0.014354 -0.004037 -0.048886 0.010836 -0.010574
# 2 -0.014354 0.013424 -0.000982 -0.023198 0.002081 -0.002538
# 3 -0.004037 -0.000982 0.016399 0.024244 -0.004043 0.009546
# 4 -0.048886 -0.023198 0.024244 0.157582 0.022025 0.038618
# 5 0.010836 0.002081 -0.004043 0.022025 0.036454 -0.014229
# 6 -0.010574 -0.002538 0.009546 0.038618 -0.014229 0.045213
#
#
# Mechanical properties :
#
#
# Convention : Reuss Voigt Hill
#
# Bulk Modulus (GPa) = 62.28856 9.27766 35.78311
# Shear Modulus (GPa) = 14.78636 15.53723 15.16180
#
# Velocity S-wave (km/s) = 2.59606 2.66116 2.62881
# Velocity P-wave (km/s) = 6.11364 3.69743 5.05211
#
# Compressibility (1/GPa) = 0.01605431
#
# Stress axis : x y z
#
# Youngs Moduli (GPa) = 40.03264 74.49483 60.98021
#
# Poissons Ratio (x) = 1.06933 0.24620
# Poissons Ratio (y) = 0.57464 0.05989
# Poissons Ratio (z) = 0.16163 0.07317
#
# Static dielectric constant tensor:
#      x y z
#    x 1.891880 0.019110 0.355210 
#    y 0.019110 1.844410 0.285160 
#    z 0.355210 0.285160 3.123480 
# 
# From -- ./inp_files/217573.got.cif
#   From: 2010.05.17/outbox.ucp.g08.bks.cvg/sg2_109_cif.got.tgz:217573.got - 2010.06.11 11:32:03.
