data_PCOD9073163
_publ_section_title
;
Structure prediction by ZEFSAII (Michael W. Deem and Ramdas Pophale) SiO2 
 PCOD9073163
Probable space group: P -1
;
_chemical_formula_sum "Si O2"
_cell_formula_units_Z 12
_cell_length_a 9.000000
_cell_length_b 12.000000
_cell_length_c 9.000000
_cell_angle_alpha 90.000000
_cell_angle_beta 130.000000
_cell_angle_gamma 120.000000
_cell_volume 564.115245
_symmetry_space_group_name_H-M "P -1"
_symmetry_group_IT_number 2
_symmetry_cell_setting 'triclinic'
loop_
_space_group_symop_operation_xyz
x,y,z
-x,-y,-z
loop_
_atom_site_type_symbol
_atom_site_label
_atom_site_fract_x
_atom_site_fract_y
_atom_site_fract_z
Si Si1 0.129812 0.565137 0.738659
Si Si2 0.573861 0.900857 0.081645
Si Si3 0.523055 0.173746 0.632586
Si Si4 0.008083 0.050709 0.838015
Si Si5 0.102666 0.333102 0.913179
Si Si6 0.221693 0.514453 0.235092
O O1 0.169981 0.457663 0.840590
O O2 0.000000 0.500000 0.500000
O O3 0.918850 0.551730 0.701435
O O4 0.375522 0.736020 0.887641
O O5 0.540059 0.870640 0.236136
O O6 0.848284 0.977664 0.184145
O O7 0.500000 0.000000 0.000000
O O8 0.543806 0.314051 0.614503
O O9 0.799366 0.231248 0.759442
O O10 0.286535 0.040144 0.390604
O O11 0.144320 0.221169 0.902080
O O12 0.000000 0.000000 0.000000
O O13 0.259686 0.419662 0.163876
O O14 0.000000 0.500000 0.000000
#
# Coordination Sequence:
#
# PCOD9073163 Si02
#       6
#     2   2   2   2   2   2
#     4  10  21  38  68 100 118 164 219 256 317 375
#     4  12  25  43  65  90 133 172 210 262 318 381
#     4  10  20  45  65  89 126 172 208 254 324 377
#     4  12  28  39  61 101 130 165 218 260 315 378
#     4  10  20  44  70  89 128 166 206 269 317 373
#     4   8  16  38  67  85 119 164 203 252 313 373
#
# _framework density 21.272248999999999
#
# number of rings (size 3 to 8) (size 9 to 14) (size 15 to 20)
#    0.000    2.000    5.000    2.000    7.000    0.667 
#    0.000    0.833    0.000    0.000    0.000    0.000 
#    0.000    0.000    0.000    0.000    0.000    0.000 
#
# Total GULP energy -66896.684611 kJ/mol
# GULP energy per Si atom -5574.723718 kJ/mol
# Density = 2.122383 g / cm^3
# Si number density = 21.272249 Si / 1000 Ang^3
#
#
#
# Elastic Constant Matrix: (Units=GPa)
#
#
# Indices 1 2 3 4 5 6 
#
# 1 61.3202 20.4809 8.7321 -4.0390 10.8321 -6.0645
# 2 20.4809 90.8265 19.8075 26.0028 13.2274 -11.7250
# 3 8.7321 19.8075 53.8637 11.2220 -22.9800 -1.2083
# 4 -4.0390 26.0028 11.2220 21.9611 -2.5144 -5.7287
# 5 10.8321 13.2274 -22.9800 -2.5144 13.5163 2.0809
# 6 -6.0645 -11.7250 -1.2083 -5.7287 2.0809 41.2431
#
#
#
# Elastic Compliance Matrix: (Units=1/GPa)
#
#
# Indices 1 2 3 4 5 6 
#
# 1 0.014569 -0.018169 0.016190 0.019778 0.037572 -0.001697
# 2 -0.018169 0.004476 0.030434 -0.019002 0.059334 -0.006140
# 3 0.016190 0.030434 -0.040542 -0.022528 -0.117826 0.012661
# 4 0.019778 -0.019002 -0.022528 0.083193 -0.021541 0.009488
# 5 0.037572 0.059334 -0.117826 -0.021541 -0.222708 0.027185
# 6 -0.001697 -0.006140 0.012661 0.009488 0.027185 0.022568
#
#
# Mechanical properties :
#
#
# Convention : Reuss Voigt Hill
#
# Bulk Modulus (GPa) = 28.23748 33.78348 31.01048
# Shear Modulus (GPa) = -27.24059 25.81009 -0.71525
#
# Velocity S-wave (km/s) = -3.58239 3.48706 -0.58049
# Velocity P-wave (km/s) = 1.95146 5.66822 3.76301
#
# Compressibility (1/GPa) = 0.03541392
#
# Stress axis : x y z
#
# Youngs Moduli (GPa) = 68.64050 223.39867 -24.66585
#
# Poissons Ratio (x) = 4.05895 0.39935
# Poissons Ratio (y) = 1.24713 0.75069
# Poissons Ratio (z) = -1.11131 -6.79896
#
# Static dielectric constant tensor:
#      x y z
#    x 1.802840 0.031940 -0.042720 
#    y 0.031940 1.340310 0.072420 
#    z -0.042720 0.072420 1.786420 
# 
# From -- ./inp_files/179646.got.cif
#   From: 2010.05.17/outbox.ucp.g08.bks.cvg/sg2_90_cif.got.tgz:179646.got - 2010.06.11 11:32:03.
