data_PCOD9073503
_publ_section_title
;
Structure prediction by ZEFSAII (Michael W. Deem and Ramdas Pophale) SiO2 
 PCOD9073503
Probable space group: P -1
;
_chemical_formula_sum "Si O2"
_cell_formula_units_Z 16
_cell_length_a 30.000000
_cell_length_b 24.000000
_cell_length_c 12.000000
_cell_angle_alpha 150.000000
_cell_angle_beta 150.000000
_cell_angle_gamma 10.000000
_cell_volume 741.497220
_symmetry_space_group_name_H-M "P -1"
_symmetry_group_IT_number 2
_symmetry_cell_setting 'triclinic'
loop_
_space_group_symop_operation_xyz
x,y,z
-x,-y,-z
loop_
_atom_site_type_symbol
_atom_site_label
_atom_site_fract_x
_atom_site_fract_y
_atom_site_fract_z
Si Si1 0.585270 0.621078 0.387839
Si Si2 0.393938 0.087609 0.802306
Si Si3 0.511005 0.553079 0.908523
Si Si4 0.334735 0.529155 0.119136
Si Si5 0.062120 0.919856 0.625730
Si Si6 0.127980 0.053290 0.286340
Si Si7 0.558212 0.825553 0.162358
Si Si8 0.093480 0.470041 0.403860
O O1 0.778543 0.367134 0.468572
O O2 0.547265 0.796400 0.590223
O O3 0.321585 0.873949 0.300520
O O4 0.636188 0.495269 0.165418
O O5 0.400514 0.173893 0.870580
O O6 0.108809 0.376272 0.712811
O O7 0.500000 0.000000 0.000000
O O8 0.476969 0.644651 0.870417
O O9 0.255934 0.800046 0.842902
O O10 0.708413 0.217021 0.746329
O O11 0.430618 0.319023 0.043903
O O12 0.194648 0.776001 0.328362
O O13 0.098904 0.753270 0.923731
O O14 0.000000 0.000000 0.500000
O O15 0.018134 0.299412 0.515719
O O16 0.763406 0.639761 0.371490
O O17 0.286912 0.180022 0.240401
#
# Coordination Sequence:
#
# PCOD9073503 Si02
#       8
#     2   2   2   2   2   2   2   2
#     4  10  21  40  64  92 114 163 212 249 303 359
#     4  11  25  41  63  90 125 167 207 252 312 368
#     4  11  21  38  67  93 118 155 211 253 300 364
#     4  11  22  36  64  93 120 162 201 248 307 354
#     4  11  24  41  62  91 132 158 192 254 312 368
#     4   9  17  37  62  93 119 147 202 264 293 348
#     4  10  23  40  62  90 126 159 212 255 299 365
#     4   9  21  40  64  92 119 162 206 259 309 354
#
# _framework density 21.577964000000001
#
# number of rings (size 3 to 8) (size 9 to 14) (size 15 to 20)
#    0.000    1.750    2.500    1.500    7.000    2.000 
#    0.000    0.000    0.000    0.000    0.000    0.000 
#    0.000    0.000    0.000    0.000    0.000    0.000 
#
# Total GULP energy -89199.635148 kJ/mol
# GULP energy per Si atom -5574.977197 kJ/mol
# Density = 2.152885 g / cm^3
# Si number density = 21.577964 Si / 1000 Ang^3
#
#
#
# Elastic Constant Matrix: (Units=GPa)
#
#
# Indices 1 2 3 4 5 6 
#
# 1 93.8856 3.5484 24.5616 14.3704 12.3362 -4.1823
# 2 3.5484 51.8135 27.3068 21.6438 0.2309 -1.3045
# 3 24.5616 27.3068 -0.3094 17.3303 10.8784 27.9624
# 4 14.3704 21.6438 17.3303 -6.7234 8.7084 -7.7141
# 5 12.3362 0.2309 10.8784 8.7084 22.1895 4.6239
# 6 -4.1823 -1.3045 27.9624 -7.7141 4.6239 10.7105
#
#
#
# Elastic Compliance Matrix: (Units=1/GPa)
#
#
# Indices 1 2 3 4 5 6 
#
# 1 0.009752 -0.005939 0.005360 0.005809 -0.009743 -0.002517
# 2 -0.005939 0.003299 0.011257 0.024626 -0.009987 -0.009257
# 3 0.005360 0.011257 -0.012028 -0.011093 0.001707 0.026140
# 4 0.005809 0.024626 -0.011093 -0.046686 0.022141 -0.008953
# 5 -0.009743 -0.009987 0.001707 0.022141 0.043638 -0.012370
# 6 -0.002517 -0.009257 0.026140 -0.008953 -0.012370 0.021902
#
#
# Mechanical properties :
#
#
# Convention : Reuss Voigt Hill
#
# Bulk Modulus (GPa) = 44.68884 28.46926 36.57905
# Shear Modulus (GPa) = 835.79946 11.23352 423.51649
#
# Velocity S-wave (km/s) = 19.70229 2.28414 14.02493
# Velocity P-wave (km/s) = 23.20192 4.49208 16.71089
#
# Compressibility (1/GPa) = 0.02237695
#
# Stress axis : x y z
#
# Youngs Moduli (GPa) = 102.53804 303.15760 -83.13709
#
# Poissons Ratio (x) = 1.80048 0.44558
# Poissons Ratio (y) = 0.60898 0.93585
# Poissons Ratio (z) = -0.54956 -3.41254
#
# Static dielectric constant tensor:
#      x y z
#    x 1.737200 0.024750 0.019940 
#    y 0.024750 1.887360 0.023330 
#    z 0.019940 0.023330 1.832280 
# 
# From -- ./inp_files/279891.got.cif
#   From: 2010.05.17/outbox.ucp.g08.bks.cvg/sg2_140_cif.got.tgz:279891.got - 2010.06.11 11:32:03.
