data_PCOD9073689
_publ_section_title
;
Structure prediction by ZEFSAII (Michael W. Deem and Ramdas Pophale) SiO2 
 PCOD9073689
Probable space group: P -1
;
_chemical_formula_sum "Si O2"
_cell_formula_units_Z 14
_cell_length_a 12.596906
_cell_length_b 21.842586
_cell_length_c 18.329994
_cell_angle_alpha 19.167440
_cell_angle_beta 28.905867
_cell_angle_gamma 27.227533
_cell_volume 736.152240
_symmetry_space_group_name_H-M "P -1"
_symmetry_group_IT_number 2
_symmetry_cell_setting 'triclinic'
loop_
_space_group_symop_operation_xyz
x,y,z
-x,-y,-z
loop_
_atom_site_type_symbol
_atom_site_label
_atom_site_fract_x
_atom_site_fract_y
_atom_site_fract_z
Si Si1 0.652841 0.774603 0.982830
Si Si2 0.809916 0.910357 0.431991
Si Si3 0.370806 0.743488 0.315434
Si Si4 0.240006 0.070165 0.396594
Si Si5 0.705152 0.344099 0.389512
Si Si6 0.199228 0.680505 0.802315
Si Si7 0.538612 0.652742 0.863864
O O1 0.607089 0.918508 0.777876
O O2 0.929190 0.705733 0.918948
O O3 0.496776 0.843772 0.071783
O O4 0.608903 0.581241 0.196715
O O5 0.688626 0.923063 0.571019
O O6 0.729564 0.751749 0.615635
O O7 0.092591 0.822943 0.371849
O O8 0.700663 0.143914 0.208917
O O9 0.500000 0.500000 0.500000
O O10 0.384011 0.765220 0.370616
O O11 0.990609 0.261675 0.322240
O O12 0.183681 0.871901 0.643733
O O13 0.679717 0.307387 0.361454
O O14 0.351976 0.480976 0.979730
O O15 0.500000 0.500000 0.000000
#
# Coordination Sequence:
#
# PCOD9073689 Si02
#       7
#     2   2   2   2   2   2   2
#     4  10  18  31  56  82 111 146 177 226 288 336
#     4  10  21  38  59  84 112 144 187 231 276 324
#     4   9  18  34  57  83 114 146 177 223 291 339
#     4  10  18  32  52  82 111 141 185 229 276 327
#     4   9  17  30  50  78 108 141 179 226 277 326
#     4  11  19  32  53  83 112 139 189 233 268 328
#     4  11  21  36  60  84 107 148 192 235 264 318
#
# _framework density 19.017806
#
# number of rings (size 3 to 8) (size 9 to 14) (size 15 to 20)
#    0.000    2.000    1.429    6.857    0.000    0.000 
#    0.000    6.429    6.286   16.286    0.000    0.000 
#    0.000    0.000    0.000    0.000    0.000    0.000 
#
# Total GULP energy -77936.831443 kJ/mol
# GULP energy per Si atom -5566.916532 kJ/mol
# Density = 1.897452 g / cm^3
# Si number density = 19.017806 Si / 1000 Ang^3
#
#
#
# Elastic Constant Matrix: (Units=GPa)
#
#
# Indices 1 2 3 4 5 6 
#
# 1 79.9166 36.1006 26.3655 9.1521 4.6287 2.0475
# 2 36.1006 73.3133 37.6123 9.9903 6.1404 -7.1519
# 3 26.3655 37.6123 63.7698 4.5188 1.1226 7.8794
# 4 9.1521 9.9903 4.5188 23.2946 24.4550 15.7519
# 5 4.6287 6.1404 1.1226 24.4550 29.1817 -12.7410
# 6 2.0475 -7.1519 7.8794 15.7519 -12.7410 28.8039
#
#
#
# Elastic Compliance Matrix: (Units=1/GPa)
#
#
# Indices 1 2 3 4 5 6 
#
# 1 0.016676 -0.006791 -0.002578 -0.001517 -0.000533 -0.001573
# 2 -0.006791 0.021665 -0.010173 0.009949 -0.012429 -0.002293
# 3 -0.002578 -0.010173 0.023191 -0.008821 0.009126 0.000174
# 4 -0.001517 0.009949 -0.008821 -0.031181 0.042437 0.040814
# 5 -0.000533 -0.012429 0.009126 0.042437 -0.014252 -0.035056
# 6 -0.001573 -0.002293 0.000174 0.040814 -0.035056 -0.003615
#
#
# Mechanical properties :
#
#
# Convention : Reuss Voigt Hill
#
# Bulk Modulus (GPa) = 44.55009 46.35071 45.45040
# Shear Modulus (GPa) = 84.67288 24.05080 54.36184
#
# Velocity S-wave (km/s) = 6.67979 3.56004 5.35227
# Velocity P-wave (km/s) = 9.10874 6.42835 7.88330
#
# Compressibility (1/GPa) = 0.02244664
#
# Stress axis : x y z
#
# Youngs Moduli (GPa) = 59.96593 46.15756 43.12095
#
# Poissons Ratio (x) = 0.31346 0.11117
# Poissons Ratio (y) = 0.40723 0.43868
# Poissons Ratio (z) = 0.15460 0.46958
#
# Static dielectric constant tensor:
#      x y z
#    x 1.706930 0.023430 0.026610 
#    y 0.023430 1.665030 0.008490 
#    z 0.026610 0.008490 1.704480 
# 
# From -- ./inp_files/316897.got.cif
#   From: 2010.05.17/outbox.cif.g08.bks.cpg/sg2_159_cif.got.tgz:316897.got - 2010.06.03 11:33:40.
