data_PCOD9073723
_publ_section_title
;
Structure prediction by ZEFSAII (Michael W. Deem and Ramdas Pophale) SiO2 
 PCOD9073723
Probable space group: P -1
;
_chemical_formula_sum "Si O2"
_cell_formula_units_Z 12
_cell_length_a 12.000000
_cell_length_b 6.000000
_cell_length_c 9.000000
_cell_angle_alpha 60.000000
_cell_angle_beta 80.000000
_cell_angle_gamma 100.000000
_cell_volume 526.253775
_symmetry_space_group_name_H-M "P -1"
_symmetry_group_IT_number 2
_symmetry_cell_setting 'triclinic'
loop_
_space_group_symop_operation_xyz
x,y,z
-x,-y,-z
loop_
_atom_site_type_symbol
_atom_site_label
_atom_site_fract_x
_atom_site_fract_y
_atom_site_fract_z
Si Si1 0.506403 0.186968 0.578228
Si Si2 0.140020 0.206244 0.738401
Si Si3 0.865245 0.803498 0.607047
Si Si4 0.309553 0.009104 0.207128
Si Si5 0.375227 0.301408 0.801094
Si Si6 0.101277 0.716617 0.119282
O O1 0.390850 0.081278 0.749378
O O2 0.522964 0.458788 0.381445
O O3 0.500000 0.000000 0.500000
O O4 0.611830 0.155066 0.674855
O O5 0.166827 0.258466 0.539939
O O6 0.252114 0.353945 0.768335
O O7 0.024919 0.295277 0.775181
O O8 0.112018 0.895816 0.908123
O O9 0.762228 0.898650 0.675922
O O10 0.882036 0.575145 0.791907
O O11 0.000000 0.000000 0.500000
O O12 0.205479 0.856702 0.166508
O O13 0.386123 0.231926 0.993839
#
# Coordination Sequence:
#
# PCOD9073723 Si02
#       6
#     2   2   2   2   2   2
#     4  11  24  43  67  92 121 162 213 263 310 366
#     4  10  21  43  64  89 129 168 204 258 313 366
#     4  12  24  36  61  97 127 168 208 248 308 372
#     4  11  24  42  64  94 126 167 205 257 315 368
#     4  10  24  43  65  92 123 165 209 258 312 367
#     4  10  23  42  62  92 130 166 207 255 310 376
#
# _framework density 22.802686999999999
#
# number of rings (size 3 to 8) (size 9 to 14) (size 15 to 20)
#    0.000    1.333    1.667    3.000    2.333    6.667 
#    0.000    0.000    0.000    0.000    0.000    0.000 
#    0.000    0.000    0.000    0.000    0.000    0.000 
#
# Total GULP energy -66832.975700 kJ/mol
# GULP energy per Si atom -5569.414642 kJ/mol
# Density = 2.275079 g / cm^3
# Si number density = 22.802687 Si / 1000 Ang^3
#
#
#
# Elastic Constant Matrix: (Units=GPa)
#
#
# Indices 1 2 3 4 5 6 
#
# 1 127.4445 1.0725 24.4731 5.3898 18.5684 -26.7565
# 2 1.0725 -12.1925 8.5130 6.5387 -4.4150 -7.4438
# 3 24.4731 8.5130 136.2781 19.9990 5.9682 -20.8584
# 4 5.3898 6.5387 19.9990 31.1638 -5.1053 11.0500
# 5 18.5684 -4.4150 5.9682 -5.1053 50.4268 8.2118
# 6 -26.7565 -7.4438 -20.8584 11.0500 8.2118 28.6637
#
#
#
# Elastic Compliance Matrix: (Units=1/GPa)
#
#
# Indices 1 2 3 4 5 6 
#
# 1 0.013320 -0.010301 0.003224 -0.010732 -0.010405 0.019223
# 2 -0.010301 -0.047544 -0.007189 0.033486 0.010911 -0.043229
# 3 0.003224 -0.007189 0.012492 -0.014769 -0.007745 0.018146
# 4 -0.010732 0.033486 -0.014769 0.053356 0.020296 -0.038453
# 5 -0.010405 0.010911 -0.007745 0.020296 0.032413 -0.029626
# 6 0.019223 -0.043229 0.018146 -0.038453 -0.029626 0.078121
#
#
# Mechanical properties :
#
#
# Convention : Reuss Voigt Hill
#
# Bulk Modulus (GPa) = -19.89551 35.51637 7.81043
# Shear Modulus (GPa) = 32.48125 36.54894 34.51509
#
# Velocity S-wave (km/s) = 3.77828 4.00789 3.89478
# Velocity P-wave (km/s) = 3.20778 6.08497 4.86399
#
# Compressibility (1/GPa) = -0.05026260
#
# Stress axis : x y z
#
# Youngs Moduli (GPa) = 75.07628 -21.03320 80.05205
#
# Poissons Ratio (x) = -0.21666 -0.25812
# Poissons Ratio (y) = 0.77337 0.57546
# Poissons Ratio (z) = -0.24208 -0.15120
#
# Static dielectric constant tensor:
#      x y z
#    x 1.641560 0.730500 -0.058030 
#    y 0.730500 -0.344390 -0.110350 
#    z -0.058030 -0.110350 1.858280 
# 
# From -- ./inp_files/22044.got.cif
#   From: 2010.05.17/outbox.ucp.g08.bks.cvg/sg2_12_cif.got.tgz:22044.got - 2010.06.11 11:32:03.
