data_PCOD9073261
_publ_section_title
;
Structure prediction by ZEFSAII (Michael W. Deem and Ramdas Pophale) SiO2 
 PCOD9073261
Probable space group: P -1
;
_chemical_formula_sum "Si O2"
_cell_formula_units_Z 16
_cell_length_a 12.000000
_cell_length_b 18.000000
_cell_length_c 21.000000
_cell_angle_alpha 30.000000
_cell_angle_beta 160.000000
_cell_angle_gamma 150.000000
_cell_volume 738.640068
_symmetry_space_group_name_H-M "P -1"
_symmetry_group_IT_number 2
_symmetry_cell_setting 'triclinic'
loop_
_space_group_symop_operation_xyz
x,y,z
-x,-y,-z
loop_
_atom_site_type_symbol
_atom_site_label
_atom_site_fract_x
_atom_site_fract_y
_atom_site_fract_z
Si Si1 0.916194 0.680373 0.597603
Si Si2 0.379309 0.232264 0.919936
Si Si3 0.151856 0.815122 0.494923
Si Si4 0.317909 0.940510 0.703394
Si Si5 0.895179 0.265599 0.749755
Si Si6 0.806357 0.541937 0.424253
Si Si7 0.047756 0.061291 0.172850
Si Si8 0.844770 0.335767 0.805586
O O1 0.943528 0.511019 0.755099
O O2 0.546488 0.695865 0.405155
O O3 0.930720 0.707418 0.510240
O O4 0.225788 0.821538 0.684072
O O5 0.465947 0.379621 0.809760
O O6 0.180052 0.264321 0.851516
O O7 0.675022 0.170337 0.151036
O O8 0.136901 0.077666 0.870666
O O9 0.554035 0.873179 0.679714
O O10 0.081873 0.692247 0.491243
O O11 0.036584 0.967037 0.303074
O O12 0.647424 0.089057 0.757670
O O13 0.000000 0.000000 0.500000
O O14 0.715058 0.390937 0.532492
O O15 0.043471 0.325328 0.854704
O O16 0.000000 0.500000 0.500000
O O17 0.887968 0.202745 0.974720
#
# Coordination Sequence:
#
# PCOD9073261 Si02
#       8
#     2   2   2   2   2   2   2   2
#     4  11  24  40  58  89 121 159 194 248 291 351
#     4  10  21  37  63  89 118 156 198 242 298 350
#     4  10  21  37  62  87 122 151 196 244 297 347
#     4  12  23  39  61  88 123 155 200 243 291 352
#     4  11  20  38  62  87 114 158 196 243 293 346
#     4   9  20  38  60  87 120 153 195 244 298 348
#     4  10  21  39  59  92 118 153 195 249 291 356
#     4  11  23  39  60  85 122 155 200 239 299 346
#
# _framework density 21.661429999999999
#
# number of rings (size 3 to 8) (size 9 to 14) (size 15 to 20)
#    0.000    1.500    3.750    1.125    1.750    4.000 
#    0.000    0.625    0.000    0.000    0.000    0.000 
#    0.000    0.000    0.000    0.000    0.000    0.000 
#
# Total GULP energy -89169.865932 kJ/mol
# GULP energy per Si atom -5573.116621 kJ/mol
# Density = 2.161213 g / cm^3
# Si number density = 21.661430 Si / 1000 Ang^3
#
#
#
# Elastic Constant Matrix: (Units=GPa)
#
#
# Indices 1 2 3 4 5 6 
#
# 1 16.8694 7.7816 8.1395 -7.3844 -2.0062 -3.6804
# 2 7.7816 81.7514 36.5798 -44.0831 -6.1410 -6.4747
# 3 8.1395 36.5798 115.9702 -47.4408 -16.7916 -5.3730
# 4 -7.3844 -44.0831 -47.4408 37.9449 11.0294 -5.4498
# 5 -2.0062 -6.1410 -16.7916 11.0294 13.0423 -7.4168
# 6 -3.6804 -6.4747 -5.3730 -5.4498 -7.4168 24.9794
#
#
#
# Elastic Compliance Matrix: (Units=1/GPa)
#
#
# Indices 1 2 3 4 5 6 
#
# 1 0.084163 0.036412 0.025255 0.094066 0.012315 0.051450
# 2 0.036412 0.103873 0.053639 0.208151 -0.002059 0.088627
# 3 0.025255 0.053639 0.049864 0.134045 0.015321 0.062143
# 4 0.094066 0.208151 0.134045 0.486492 -0.013278 0.198841
# 5 0.012315 -0.002059 0.015321 -0.013278 0.131752 0.040799
# 6 0.051450 0.088627 0.062143 0.198841 0.040799 0.139448
#
#
# Mechanical properties :
#
#
# Convention : Reuss Voigt Hill
#
# Bulk Modulus (GPa) = 2.13443 35.51031 18.82237
# Shear Modulus (GPa) = 5.42800 25.99933 15.71366
#
# Velocity S-wave (km/s) = 1.58470 3.46823 2.69629
# Velocity P-wave (km/s) = 2.08227 5.69799 4.28970
#
# Compressibility (1/GPa) = 0.46851002
#
# Stress axis : x y z
#
# Youngs Moduli (GPa) = 11.88171 9.62718 20.05473
#
# Poissons Ratio (x) = -0.35055 -0.50648
# Poissons Ratio (y) = -0.43264 -1.07571
# Poissons Ratio (z) = -0.30007 -0.51639
#
# Static dielectric constant tensor:
#      x y z
#    x 1.730620 -0.013460 0.017560 
#    y -0.013460 1.750140 -0.009890 
#    z 0.017560 -0.009890 1.938210 
# 
# From -- ./inp_files/261758.got.cif
#   From: 2010.05.17/outbox.ucp.g08.bks.cvg/sg2_131_cif.got.tgz:261758.got - 2010.06.11 11:32:03.
