data_PCOD9073623
_publ_section_title
;
Structure prediction by ZEFSAII (Michael W. Deem and Ramdas Pophale) SiO2 
 PCOD9073623
Probable space group: P -1
;
_chemical_formula_sum "Si O2"
_cell_formula_units_Z 16
_cell_length_a 12.000000
_cell_length_b 18.000000
_cell_length_c 21.000000
_cell_angle_alpha 160.000000
_cell_angle_beta 40.000000
_cell_angle_gamma 150.000000
_cell_volume 744.844803
_symmetry_space_group_name_H-M "P -1"
_symmetry_group_IT_number 2
_symmetry_cell_setting 'triclinic'
loop_
_space_group_symop_operation_xyz
x,y,z
-x,-y,-z
loop_
_atom_site_type_symbol
_atom_site_label
_atom_site_fract_x
_atom_site_fract_y
_atom_site_fract_z
Si Si1 0.921704 0.084034 0.808293
Si Si2 0.538265 0.140792 0.230156
Si Si3 0.854989 0.459529 0.223767
Si Si4 0.039576 0.336930 0.473164
Si Si5 0.029613 0.120211 0.179010
Si Si6 0.744975 0.854422 0.377765
Si Si7 0.542565 0.392777 0.197880
Si Si8 0.766520 0.520250 0.751149
O O1 0.126182 0.230662 0.785731
O O2 0.678850 0.892784 0.721908
O O3 0.948111 0.883150 0.674118
O O4 0.922113 0.295903 0.024171
O O5 0.714608 0.287184 0.210520
O O6 0.697814 0.352382 0.388417
O O7 0.449622 0.821872 0.020275
O O8 0.670237 0.435626 0.241372
O O9 0.074899 0.797331 0.412600
O O10 0.949081 0.220321 0.348010
O O11 0.870995 0.375978 0.608852
O O12 0.270959 0.222912 0.183194
O O13 0.098387 0.294315 0.223392
O O14 0.845309 0.775538 0.970352
O O15 0.671020 0.695032 0.349740
O O16 0.505700 0.712969 0.332499
#
# Coordination Sequence:
#
# PCOD9073623 Si02
#       8
#     2   2   2   2   2   2   2   2
#     4  11  25  40  65  96 131 169 211 262 314 387
#     4  11  22  41  68  98 128 162 219 268 309 375
#     4  11  23  43  65  97 132 164 211 266 320 376
#     4  12  22  39  69  95 119 171 217 264 313 364
#     4  10  21  41  67  94 124 167 220 264 310 371
#     4  11  25  44  62  95 136 167 207 260 327 383
#     4  10  21  42  68  95 129 169 205 271 320 370
#     4  10  24  43  62  93 132 166 213 267 308 379
#
# _framework density 21.480985
#
# number of rings (size 3 to 8) (size 9 to 14) (size 15 to 20)
#    0.000    1.250    2.500    4.125    1.750    3.500 
#    4.500    1.250    0.000    0.000    0.000    0.000 
#    0.000    0.000    0.000    0.000    0.000    0.000 
#
# Total GULP energy -89481.314377 kJ/mol
# GULP energy per Si atom -5592.582149 kJ/mol
# Density = 2.143209 g / cm^3
# Si number density = 21.480985 Si / 1000 Ang^3
#
#
#
# Elastic Constant Matrix: (Units=GPa)
#
#
# Indices 1 2 3 4 5 6 
#
# 1 75.4350 17.3806 45.1038 1.4325 -0.0637 23.5954
# 2 17.3806 33.4223 16.3660 10.0802 -5.3885 14.3796
# 3 45.1038 16.3660 113.8265 10.4585 7.3793 8.2838
# 4 1.4325 10.0802 10.4585 33.0117 1.6432 2.7537
# 5 -0.0637 -5.3885 7.3793 1.6432 37.0555 -3.8635
# 6 23.5954 14.3796 8.2838 2.7537 -3.8635 28.0892
#
#
#
# Elastic Compliance Matrix: (Units=1/GPa)
#
#
# Indices 1 2 3 4 5 6 
#
# 1 0.023935 -0.002364 -0.008217 0.003728 -0.000596 -0.016920
# 2 -0.002364 0.045039 -0.003563 -0.011303 0.005869 -0.018105
# 3 -0.008217 -0.003563 0.012610 -0.002844 -0.002401 0.004956
# 4 0.003728 -0.011303 -0.002844 0.034636 -0.002634 -0.000264
# 5 -0.000596 0.005869 -0.002401 -0.002634 0.028685 0.002408
# 6 -0.016920 -0.018105 0.004956 -0.000264 0.002408 0.057978
#
#
# Mechanical properties :
#
#
# Convention : Reuss Voigt Hill
#
# Bulk Modulus (GPa) = 18.76333 42.26498 30.51416
# Shear Modulus (GPa) = 20.08541 29.22015 24.65278
#
# Velocity S-wave (km/s) = 3.06115 3.69220 3.39138
# Velocity P-wave (km/s) = 4.60955 6.15587 5.43795
#
# Compressibility (1/GPa) = 0.05329543
#
# Stress axis : x y z
#
# Youngs Moduli (GPa) = 41.77923 22.20297 79.30296
#
# Poissons Ratio (x) = 0.05249 0.65163
# Poissons Ratio (y) = 0.09877 0.28258
# Poissons Ratio (z) = 0.34330 0.07911
#
# Static dielectric constant tensor:
#      x y z
#    x 1.792360 -0.032820 0.010640 
#    y -0.032820 1.774690 -0.037100 
#    z 0.010640 -0.037100 1.793730 
# 
# From -- ./inp_files/516127.got.cif
#   From: 2010.05.17/outbox.ucp.g08.bks.cvg/sg2_259_cif.got.tgz:516127.got - 2010.06.11 11:32:03.
