data_PCOD9073200
_publ_section_title
;
Structure prediction by ZEFSAII (Michael W. Deem and Ramdas Pophale) SiO2 
 PCOD9073200
Probable space group: P -1
;
_chemical_formula_sum "Si O2"
_cell_formula_units_Z 14
_cell_length_a 15.000000
_cell_length_b 15.000000
_cell_length_c 15.000000
_cell_angle_alpha 140.000000
_cell_angle_beta 40.000000
_cell_angle_gamma 160.000000
_cell_volume 725.414092
_symmetry_space_group_name_H-M "P -1"
_symmetry_group_IT_number 2
_symmetry_cell_setting 'triclinic'
loop_
_space_group_symop_operation_xyz
x,y,z
-x,-y,-z
loop_
_atom_site_type_symbol
_atom_site_label
_atom_site_fract_x
_atom_site_fract_y
_atom_site_fract_z
Si Si1 0.388413 0.766691 0.363833
Si Si2 0.641284 0.301075 0.936117
Si Si3 0.699082 0.298942 0.085867
Si Si4 0.242250 0.700082 0.763776
Si Si5 0.436781 0.403335 0.077465
Si Si6 0.826920 0.966431 0.251903
Si Si7 0.983094 0.614284 0.477969
O O1 0.657362 0.904618 0.256791
O O2 0.194916 0.537755 0.411892
O O3 0.190078 0.660127 0.359935
O O4 0.500000 0.000000 0.500000
O O5 0.954288 0.530723 0.862930
O O6 0.465190 0.012156 0.828887
O O7 0.623384 0.322477 0.073356
O O8 0.531119 0.330869 0.980877
O O9 0.692365 0.333502 0.222441
O O10 0.000000 0.500000 0.000000
O O11 0.500000 0.000000 0.000000
O O12 0.201879 0.571794 0.608208
O O13 0.625988 0.667638 0.193201
O O14 0.500000 0.500000 0.000000
O O15 0.120359 0.160945 0.149346
O O16 0.864222 0.108724 0.413479
#
# Coordination Sequence:
#
# PCOD9073200 Si02
#       7
#     2   2   2   2   2   2   2
#     4   9  20  34  55  78 111 147 182 234 286 324
#     4  10  22  37  57  86 117 149 184 232 286 332
#     4   8  16  35  56  83 113 139 177 236 293 329
#     4  10  21  35  63  90 110 138 188 242 290 342
#     4  12  26  39  58  79 116 163 196 225 260 345
#     4  11  23  42  54  79 116 152 194 231 276 330
#     4  10  21  36  59  84 111 146 186 241 294 324
#
# _framework density 19.299322
#
# number of rings (size 3 to 8) (size 9 to 14) (size 15 to 20)
#    0.000    2.000    1.429    1.286    6.000    2.286 
#    0.000    0.000    0.000    1.714    0.000    0.000 
#    0.000    0.000    0.000    0.000    0.000    0.000 
#
# Total GULP energy -77947.563747 kJ/mol
# GULP energy per Si atom -5567.683125 kJ/mol
# Density = 1.925540 g / cm^3
# Si number density = 19.299322 Si / 1000 Ang^3
#
#
#
# Elastic Constant Matrix: (Units=GPa)
#
#
# Indices 1 2 3 4 5 6 
#
# 1 116.0134 9.2786 28.2551 0.5925 20.1780 8.6013
# 2 9.2786 118.5925 14.0991 2.0379 -5.4365 20.5479
# 3 28.2551 14.0991 55.3541 13.6245 8.6195 4.2863
# 4 0.5925 2.0379 13.6245 42.1742 14.1860 -4.9556
# 5 20.1780 -5.4365 8.6195 14.1860 42.3257 1.6711
# 6 8.6013 20.5479 4.2863 -4.9556 1.6711 33.6702
#
#
#
# Elastic Compliance Matrix: (Units=1/GPa)
#
#
# Indices 1 2 3 4 5 6 
#
# 1 0.010930 -0.000300 -0.005393 0.003204 -0.005178 -0.001194
# 2 -0.000300 0.009871 -0.001941 -0.001400 0.002513 -0.006031
# 3 -0.005393 -0.001941 0.023270 -0.007590 0.000187 -0.001527
# 4 0.003204 -0.001400 -0.007590 0.030460 -0.010608 0.006012
# 5 -0.005178 0.002513 0.000187 -0.010608 0.030065 -0.003288
# 6 -0.001194 -0.006031 -0.001527 0.006012 -0.003288 0.034928
#
#
# Mechanical properties :
#
#
# Convention : Reuss Voigt Hill
#
# Bulk Modulus (GPa) = 34.71778 43.69172 39.20475
# Shear Modulus (GPa) = 30.41531 39.52250 34.96890
#
# Velocity S-wave (km/s) = 3.97417 4.53025 4.26129
# Velocity P-wave (km/s) = 6.25195 7.07477 6.67605
#
# Compressibility (1/GPa) = 0.02880368
#
# Stress axis : x y z
#
# Youngs Moduli (GPa) = 91.49326 101.31058 42.97401
#
# Poissons Ratio (x) = 0.03034 0.23175
# Poissons Ratio (y) = 0.02740 0.08342
# Poissons Ratio (z) = 0.49340 0.19665
#
# Static dielectric constant tensor:
#      x y z
#    x 1.748190 -0.148270 0.017040 
#    y -0.148270 2.173890 0.005690 
#    z 0.017040 0.005690 1.746450 
# 
# From -- ./inp_files/533692.got.cif
#   From: 2010.05.17/outbox.ucp.g08.bks.cvg/sg2_267_cif.got.tgz:533692.got - 2010.06.11 11:32:03.
