data_PCOD9073876
_publ_section_title
;
Structure prediction by ZEFSAII (Michael W. Deem and Ramdas Pophale) SiO2 
 PCOD9073876
Probable space group: P -1
;
_chemical_formula_sum "Si O2"
_cell_formula_units_Z 16
_cell_length_a 12.000000
_cell_length_b 18.000000
_cell_length_c 9.000000
_cell_angle_alpha 130.000000
_cell_angle_beta 150.000000
_cell_angle_gamma 50.000000
_cell_volume 725.531033
_symmetry_space_group_name_H-M "P -1"
_symmetry_group_IT_number 2
_symmetry_cell_setting 'triclinic'
loop_
_space_group_symop_operation_xyz
x,y,z
-x,-y,-z
loop_
_atom_site_type_symbol
_atom_site_label
_atom_site_fract_x
_atom_site_fract_y
_atom_site_fract_z
Si Si1 0.567194 0.531813 0.778220
Si Si2 0.875324 0.891452 0.345775
Si Si3 0.961349 0.099579 0.764312
Si Si4 0.495258 0.198176 0.181891
Si Si5 0.265107 0.736868 0.724932
Si Si6 0.801977 0.251439 0.025691
Si Si7 0.583285 0.633972 0.466171
Si Si8 0.033105 0.548949 0.444580
O O1 0.500000 0.500000 0.500000
O O2 0.355949 0.618816 0.700793
O O3 0.600311 0.428724 0.773378
O O4 0.800043 0.567667 0.106036
O O5 0.860986 0.896231 0.156403
O O6 0.028922 0.784169 0.431419
O O7 0.965245 0.982966 0.634396
O O8 0.626330 0.889740 0.107747
O O9 0.724086 0.149795 0.472355
O O10 0.953798 0.170051 0.988100
O O11 0.550868 0.240288 0.145155
O O12 0.369649 0.291393 0.257363
O O13 0.242448 0.793346 0.925894
O O14 0.912055 0.344799 0.313915
O O15 0.550062 0.297627 0.728846
O O16 0.790413 0.544032 0.547238
O O17 0.000000 0.500000 0.500000
#
# Coordination Sequence:
#
# PCOD9073876 Si02
#       8
#     2   2   2   2   2   2   2   2
#     4  12  25  41  61  92 136 168 216 265 306 375
#     4  10  22  43  68  91 120 164 212 265 322 378
#     4   9  22  44  67  91 123 158 211 273 315 374
#     4  10  22  38  67  93 121 161 214 257 316 384
#     4  11  24  39  60  90 133 161 203 268 311 371
#     4  11  23  43  62  94 132 167 211 265 319 384
#     4  11  23  41  62  91 128 171 215 258 305 381
#     4  12  25  38  66  90 129 177 213 254 321 379
#
# _framework density 22.052813
#
# number of rings (size 3 to 8) (size 9 to 14) (size 15 to 20)
#    0.000    1.250    3.750    1.500    5.250    1.000 
#    0.000    0.625    0.000    0.000    0.000    0.000 
#    0.000    0.000    0.000    0.000    0.000    0.000 
#
# Total GULP energy -89087.826136 kJ/mol
# GULP energy per Si atom -5567.989133 kJ/mol
# Density = 2.200262 g / cm^3
# Si number density = 22.052813 Si / 1000 Ang^3
#
#
#
# Elastic Constant Matrix: (Units=GPa)
#
#
# Indices 1 2 3 4 5 6 
#
# 1 68.4098 27.5799 53.1235 3.5163 -26.6456 -11.3210
# 2 27.5799 64.2580 25.2490 3.8445 1.0728 -13.9166
# 3 53.1235 25.2490 78.4131 11.1077 -14.7433 2.1215
# 4 3.5163 3.8445 11.1077 14.0299 0.6373 -7.3611
# 5 -26.6456 1.0728 -14.7433 0.6373 11.3025 2.9858
# 6 -11.3210 -13.9166 2.1215 -7.3611 2.9858 29.8863
#
#
#
# Elastic Compliance Matrix: (Units=1/GPa)
#
#
# Indices 1 2 3 4 5 6 
#
# 1 -0.100012 0.048044 0.001676 0.030155 -0.244128 0.016185
# 2 0.048044 0.003982 -0.019425 0.006130 0.083340 0.014616
# 3 0.001676 -0.019425 0.036140 -0.040858 0.062445 -0.027278
# 4 0.030155 0.006130 -0.040858 0.118949 -0.001820 0.046657
# 5 -0.244128 0.083340 0.062445 -0.001820 -0.408727 -0.017716
# 6 0.016185 0.014616 -0.027278 0.046657 -0.017716 0.061595
#
#
# Mechanical properties :
#
#
# Convention : Reuss Voigt Hill
#
# Bulk Modulus (GPa) = 1433.12261 46.99842 740.06051
# Shear Modulus (GPa) = -14.35011 18.05230 1.85109
#
# Velocity S-wave (km/s) = -2.55368 2.86421 0.91718
# Velocity P-wave (km/s) = 25.34906 5.68298 18.36942
#
# Compressibility (1/GPa) = 0.00069778
#
# Stress axis : x y z
#
# Youngs Moduli (GPa) = -9.99879 251.15489 27.67051
#
# Poissons Ratio (x) = -12.06651 -0.04636
# Poissons Ratio (y) = 0.48038 0.53751
# Poissons Ratio (z) = 0.01675 4.87875
#
# Static dielectric constant tensor:
#      x y z
#    x 2.009870 0.274760 -0.144940 
#    y 0.274760 2.512300 -0.606730 
#    z -0.144940 -0.606730 2.326580 
# 
# From -- ./inp_files/81196.got.cif
#   From: 2010.05.17/outbox.ucp.g08.bks.cvg/sg2_41_cif.got.tgz:81196.got - 2010.06.11 11:32:03.
