data_PCOD9073980
_publ_section_title
;
Structure prediction by ZEFSAII (Michael W. Deem and Ramdas Pophale) SiO2 
 PCOD9073980
Probable space group: P -1
;
_chemical_formula_sum "Si O2"
_cell_formula_units_Z 16
_cell_length_a 12.000000
_cell_length_b 18.000000
_cell_length_c 9.000000
_cell_angle_alpha 50.000000
_cell_angle_beta 30.000000
_cell_angle_gamma 50.000000
_cell_volume 725.531033
_symmetry_space_group_name_H-M "P -1"
_symmetry_group_IT_number 2
_symmetry_cell_setting 'triclinic'
loop_
_space_group_symop_operation_xyz
x,y,z
-x,-y,-z
loop_
_atom_site_type_symbol
_atom_site_label
_atom_site_fract_x
_atom_site_fract_y
_atom_site_fract_z
Si Si1 0.931038 0.897964 0.270366
Si Si2 0.473861 0.514675 0.254136
Si Si3 0.283532 0.175397 0.672857
Si Si4 0.622513 0.262808 0.977770
Si Si5 0.468018 0.975052 0.898768
Si Si6 0.188003 0.587420 0.784296
Si Si7 0.714701 0.668369 0.299842
Si Si8 0.401616 0.771231 0.273439
O O1 0.867202 0.844872 0.263881
O O2 0.708677 0.930828 0.591791
O O3 0.126967 0.811382 0.231333
O O4 0.000000 0.000000 0.000000
O O5 0.407403 0.619105 0.108650
O O6 0.326513 0.539738 0.543106
O O7 0.725942 0.476054 0.084978
O O8 0.414607 0.414786 0.384475
O O9 0.190516 0.269886 0.762725
O O10 0.348004 0.073605 0.822138
O O11 0.505638 0.205478 0.307197
O O12 0.497528 0.264801 0.959176
O O13 0.325262 0.888867 0.185164
O O14 0.500000 0.000000 0.000000
O O15 0.233841 0.698895 0.594107
O O16 0.922139 0.604864 0.049328
O O17 0.568224 0.747145 0.253226
#
# Coordination Sequence:
#
# PCOD9073980 Si02
#       8
#     2   2   2   2   2   2   2   2
#     4  12  26  46  72  96 135 184 221 271 342 407
#     4   9  21  39  65  94 132 176 216 280 323 395
#     4  12  26  44  66  97 138 177 216 282 335 398
#     4  11  24  44  69  96 132 180 226 261 341 400
#     4  12  24  44  69 100 133 171 223 282 331 391
#     4   9  20  39  64  97 133 172 217 274 339 388
#     4  11  23  41  67 100 135 169 224 277 333 395
#     4  10  22  40  67  95 132 169 216 280 323 393
#
# _framework density 22.052813
#
# number of rings (size 3 to 8) (size 9 to 14) (size 15 to 20)
#    0.000    1.250    3.750    2.250    3.500    4.500 
#    0.000    3.125    0.000    0.000    0.000    0.000 
#    0.000    0.000    0.000    0.000    0.000    0.000 
#
# Total GULP energy -89185.682465 kJ/mol
# GULP energy per Si atom -5574.105154 kJ/mol
# Density = 2.200262 g / cm^3
# Si number density = 22.052813 Si / 1000 Ang^3
#
#
#
# Elastic Constant Matrix: (Units=GPa)
#
#
# Indices 1 2 3 4 5 6 
#
# 1 87.4742 36.0935 24.2548 -20.4072 14.1736 19.2201
# 2 36.0935 124.1491 17.4445 -58.8129 0.3133 2.5093
# 3 24.2548 17.4445 20.8215 -17.9235 -0.4549 8.9310
# 4 -20.4072 -58.8129 -17.9235 25.4856 7.1532 14.9754
# 5 14.1736 0.3133 -0.4549 7.1532 18.4424 0.3182
# 6 19.2201 2.5093 8.9310 14.9754 0.3182 29.7743
#
#
#
# Elastic Compliance Matrix: (Units=1/GPa)
#
#
# Indices 1 2 3 4 5 6 
#
# 1 0.022969 -0.005485 -0.025340 -0.005253 -0.016079 -0.003950
# 2 -0.005485 0.005458 -0.014726 -0.012586 0.008404 0.013738
# 3 -0.025340 -0.014726 0.061126 -0.027786 0.031787 0.012899
# 4 -0.005253 -0.012586 -0.027786 -0.036617 0.017233 0.031019
# 5 -0.016079 0.008404 0.031787 0.017233 0.060695 -0.009180
# 6 -0.003950 0.013738 0.012899 0.031019 -0.009180 0.015606
#
#
# Mechanical properties :
#
#
# Convention : Reuss Voigt Hill
#
# Bulk Modulus (GPa) = -645.51411 43.11447 -301.19982
# Shear Modulus (GPa) = 22.74573 25.05062 23.89818
#
# Velocity S-wave (km/s) = 3.21506 3.37402 3.29550
# Velocity P-wave (km/s) = 16.72023 5.89675 11.06333
#
# Compressibility (1/GPa) = -0.00154915
#
# Stress axis : x y z
#
# Youngs Moduli (GPa) = 43.53662 183.22941 16.35972
#
# Poissons Ratio (x) = 1.00506 0.41455
# Poissons Ratio (y) = 0.23881 0.24091
# Poissons Ratio (z) = 1.10320 2.69822
#
# Static dielectric constant tensor:
#      x y z
#    x 1.855460 0.047340 -0.043200 
#    y 0.047340 1.838840 0.001000 
#    z -0.043200 0.001000 1.834640 
# 
# From -- ./inp_files/38786.got.cif
#   From: 2010.05.17/outbox.ucp.g08.bks.cvg/sg2_20_cif.got.tgz:38786.got - 2010.06.11 11:32:03.
