data_PCOD9073973
_publ_section_title
;
Structure prediction by ZEFSAII (Michael W. Deem and Ramdas Pophale) SiO2 
 PCOD9073973
Probable space group: P -1
;
_chemical_formula_sum "Si O2"
_cell_formula_units_Z 16
_cell_length_a 9.000000
_cell_length_b 21.000000
_cell_length_c 12.000000
_cell_angle_alpha 40.000000
_cell_angle_beta 50.000000
_cell_angle_gamma 30.000000
_cell_volume 727.418465
_symmetry_space_group_name_H-M "P -1"
_symmetry_group_IT_number 2
_symmetry_cell_setting 'triclinic'
loop_
_space_group_symop_operation_xyz
x,y,z
-x,-y,-z
loop_
_atom_site_type_symbol
_atom_site_label
_atom_site_fract_x
_atom_site_fract_y
_atom_site_fract_z
Si Si1 0.098857 0.261943 0.392735
Si Si2 0.740712 0.968668 0.539646
Si Si3 0.275459 0.878643 0.320768
Si Si4 0.130950 0.461237 0.758814
Si Si5 0.756425 0.425684 0.885696
Si Si6 0.271882 0.082922 0.159050
Si Si7 0.465564 0.416523 0.447257
Si Si8 0.657004 0.119208 0.972447
O O1 0.393534 0.130339 0.502016
O O2 0.018002 0.407858 0.254813
O O3 0.778647 0.331405 0.464681
O O4 0.219960 0.155384 0.368350
O O5 0.888031 0.902980 0.676261
O O6 0.931966 0.978729 0.371321
O O7 0.472923 0.707934 0.487032
O O8 0.336353 0.856620 0.191629
O O9 0.371628 0.947981 0.225205
O O10 0.248012 0.481071 0.569736
O O11 0.408587 0.292284 0.906036
O O12 0.910035 0.466422 0.804201
O O13 0.641250 0.472702 0.750560
O O14 0.500000 0.500000 0.000000
O O15 0.026125 0.242422 0.002068
O O16 0.523992 0.059540 0.116388
O O17 0.000000 0.000000 0.000000
#
# Coordination Sequence:
#
# PCOD9073973 Si02
#       8
#     2   2   2   2   2   2   2   2
#     4  10  22  40  66  97 124 166 225 268 322 375
#     4  10  23  40  69  94 129 166 226 271 313 392
#     4  10  22  42  66  96 124 173 221 257 323 391
#     4  10  23  42  67  93 126 177 219 258 326 391
#     4  11  24  42  61  97 138 166 209 272 324 388
#     4  11  24  42  66  95 130 172 214 263 332 382
#     4  10  22  43  66  94 129 166 222 267 313 391
#     4  10  24  43  65  96 137 166 215 273 324 385
#
# _framework density 21.995591999999998
#
# number of rings (size 3 to 8) (size 9 to 14) (size 15 to 20)
#    0.000    1.750    0.000    3.000   10.500    1.000 
#    2.250    5.625    0.000    0.000    0.000    0.000 
#    0.000    0.000    0.000    0.000    0.000    0.000 
#
# Total GULP energy -89133.189598 kJ/mol
# GULP energy per Si atom -5570.824350 kJ/mol
# Density = 2.194553 g / cm^3
# Si number density = 21.995592 Si / 1000 Ang^3
#
#
#
# Elastic Constant Matrix: (Units=GPa)
#
#
# Indices 1 2 3 4 5 6 
#
# 1 55.1878 38.5621 7.5494 -17.7688 -28.4822 8.1211
# 2 38.5621 85.9743 31.8170 -19.8368 -9.4564 -5.4723
# 3 7.5494 31.8170 25.9106 -8.4176 -18.9955 -1.8788
# 4 -17.7688 -19.8368 -8.4176 25.0385 6.8474 -25.9438
# 5 -28.4822 -9.4564 -18.9955 6.8474 18.5405 0.2395
# 6 8.1211 -5.4723 -1.8788 -25.9438 0.2395 27.2991
#
#
#
# Elastic Compliance Matrix: (Units=1/GPa)
#
#
# Indices 1 2 3 4 5 6 
#
# 1 -0.002283 0.007237 -0.040148 -0.016531 -0.034637 -0.016039
# 2 0.007237 0.002278 0.004799 -0.024567 0.026592 -0.024947
# 3 -0.040148 0.004799 -0.012596 -0.042991 -0.055890 -0.028328
# 4 -0.016531 -0.024567 -0.042991 -0.155282 -0.022680 -0.150340
# 5 -0.034637 0.026592 -0.055890 -0.022680 -0.034474 -0.009464
# 6 -0.016039 -0.024947 -0.028328 -0.150340 -0.009464 -0.108340
#
#
# Mechanical properties :
#
#
# Convention : Reuss Voigt Hill
#
# Bulk Modulus (GPa) = -14.52960 35.88110 10.67575
# Shear Modulus (GPa) = -18.02347 20.11858 1.04755
#
# Velocity S-wave (km/s) = -2.86564 3.02762 0.69086
# Velocity P-wave (km/s) = 4.19157 5.34512 2.34532
#
# Compressibility (1/GPa) = -0.06882500
#
# Stress axis : x y z
#
# Youngs Moduli (GPa) = -437.96976 439.01545 -79.39160
#
# Poissons Ratio (x) = -3.17720 -3.18743
# Poissons Ratio (y) = 3.16963 0.38102
# Poissons Ratio (z) = -17.58372 -2.10695
#
# Static dielectric constant tensor:
#      x y z
#    x 1.830090 -0.033530 0.002080 
#    y -0.033530 1.937700 -0.056020 
#    z 0.002080 -0.056020 1.975560 
# 
# From -- ./inp_files/404827.got.cif
#   From: 2010.05.17/outbox.ucp.g08.bks.cvg/sg2_203_cif.got.tgz:404827.got - 2010.06.11 11:32:03.
