data_PCOD9073604
_publ_section_title
;
Structure prediction by ZEFSAII (Michael W. Deem and Ramdas Pophale) SiO2 
 PCOD9073604
Probable space group: P -1
;
_chemical_formula_sum "Si O2"
_cell_formula_units_Z 16
_cell_length_a 12.000000
_cell_length_b 6.000000
_cell_length_c 18.000000
_cell_angle_alpha 120.000000
_cell_angle_beta 50.000000
_cell_angle_gamma 90.000000
_cell_volume 752.153660
_symmetry_space_group_name_H-M "P -1"
_symmetry_group_IT_number 2
_symmetry_cell_setting 'triclinic'
loop_
_space_group_symop_operation_xyz
x,y,z
-x,-y,-z
loop_
_atom_site_type_symbol
_atom_site_label
_atom_site_fract_x
_atom_site_fract_y
_atom_site_fract_z
Si Si1 0.166139 0.428298 0.769028
Si Si2 0.202331 0.657696 0.275689
Si Si3 0.197710 0.280922 0.092280
Si Si4 0.660120 0.243738 0.347468
Si Si5 0.294718 0.632033 0.881725
Si Si6 0.481907 0.257209 0.871526
Si Si7 0.088076 0.701802 0.501913
Si Si8 0.562839 0.660680 0.676235
O O1 0.239989 0.585076 0.702440
O O2 0.173683 0.591168 0.869168
O O3 0.980994 0.515355 0.835624
O O4 0.254694 0.070758 0.694072
O O5 0.185038 0.389974 0.201229
O O6 0.379585 0.638262 0.176434
O O7 0.168546 0.686057 0.383304
O O8 0.051595 0.968959 0.363129
O O9 0.358923 0.307240 0.000858
O O10 0.235173 0.954568 0.996556
O O11 0.500000 0.500000 0.500000
O O12 0.569306 0.185896 0.306988
O O13 0.346457 0.414995 0.891730
O O14 0.466401 0.537435 0.747558
O O15 0.578993 0.910705 0.756251
O O16 0.249441 0.573149 0.464983
O O17 0.000000 0.500000 0.500000
#
# Coordination Sequence:
#
# PCOD9073604 Si02
#       8
#     2   2   2   2   2   2   2   2
#     4  11  25  47  69 108 142 181 241 284 357 420
#     4  11  25  43  64 102 133 178 234 284 348 418
#     4  11  27  41  67 102 138 180 229 297 343 415
#     4  11  25  44  73 104 143 186 231 293 351 424
#     4  10  22  43  68  92 135 185 225 284 345 422
#     4  11  21  43  68  92 134 181 229 278 353 415
#     4  11  23  41  68  93 135 178 227 285 346 421
#     4  10  21  41  65  98 130 180 227 282 352 415
#
# _framework density 21.272248999999999
#
# number of rings (size 3 to 8) (size 9 to 14) (size 15 to 20)
#    0.000    1.250    3.750    1.125    3.500    3.000 
#    0.000    0.000    0.000    0.000    0.000    0.000 
#    0.000    0.000    0.000    0.000    0.000    0.000 
#
# Total GULP energy -89125.230409 kJ/mol
# GULP energy per Si atom -5570.326901 kJ/mol
# Density = 2.122383 g / cm^3
# Si number density = 21.272249 Si / 1000 Ang^3
#
#
#
# Elastic Constant Matrix: (Units=GPa)
#
#
# Indices 1 2 3 4 5 6 
#
# 1 76.6127 0.4331 29.6482 4.2645 -14.0560 15.8833
# 2 0.4331 81.5287 21.8991 7.6204 -7.6007 4.8573
# 3 29.6482 21.8991 83.1808 3.6435 -8.2199 5.2538
# 4 4.2645 7.6204 3.6435 15.8624 -2.2526 -3.7493
# 5 -14.0560 -7.6007 -8.2199 -2.2526 41.3824 8.1882
# 6 15.8833 4.8573 5.2538 -3.7493 8.1882 30.8989
#
#
#
# Elastic Compliance Matrix: (Units=1/GPa)
#
#
# Indices 1 2 3 4 5 6 
#
# 1 0.020121 0.003845 -0.006182 -0.007725 0.008481 -0.013081
# 2 0.003845 0.014806 -0.004186 -0.007956 0.003866 -0.005582
# 3 -0.006182 -0.004186 0.015214 0.000480 -0.000083 0.001329
# 4 -0.007725 -0.007956 0.000480 0.071871 -0.002976 0.014649
# 5 0.008481 0.003866 -0.000083 -0.002976 0.030213 -0.013320
# 6 -0.013081 -0.005582 0.001329 0.014649 -0.013320 0.045047
#
#
# Mechanical properties :
#
#
# Convention : Reuss Voigt Hill
#
# Bulk Modulus (GPa) = 26.95575 38.36479 32.66027
# Shear Modulus (GPa) = 22.45371 30.25153 26.35262
#
# Velocity S-wave (km/s) = 3.25243 3.77518 3.52351
# Velocity P-wave (km/s) = 5.17723 6.08908 5.65158
#
# Compressibility (1/GPa) = 0.03709784
#
# Stress axis : x y z
#
# Youngs Moduli (GPa) = 49.69928 67.53996 65.72882
#
# Poissons Ratio (x) = -0.25972 0.40630
# Poissons Ratio (y) = -0.19112 0.27511
# Poissons Ratio (z) = 0.30722 0.28269
#
# Static dielectric constant tensor:
#      x y z
#    x 1.802550 -0.041060 0.047340 
#    y -0.041060 1.812580 -0.006700 
#    z 0.047340 -0.006700 1.832590 
# 
# From -- ./inp_files/69042.got.cif
#   From: 2010.05.17/outbox.ucp.g08.bks.cvg/sg2_35_cif.got.tgz:69042.got - 2010.06.11 11:32:03.
