data_PCOD9073040
_publ_section_title
;
Structure prediction by ZEFSAII (Michael W. Deem and Ramdas Pophale) SiO2 
 PCOD9073040
Probable space group: P -1
;
_chemical_formula_sum "Si O2"
_cell_formula_units_Z 16
_cell_length_a 9.000000
_cell_length_b 24.000000
_cell_length_c 9.000000
_cell_angle_alpha 150.000000
_cell_angle_beta 120.000000
_cell_angle_gamma 50.000000
_cell_volume 736.400153
_symmetry_space_group_name_H-M "P -1"
_symmetry_group_IT_number 2
_symmetry_cell_setting 'triclinic'
loop_
_space_group_symop_operation_xyz
x,y,z
-x,-y,-z
loop_
_atom_site_type_symbol
_atom_site_label
_atom_site_fract_x
_atom_site_fract_y
_atom_site_fract_z
Si Si1 0.782645 0.803817 0.416422
Si Si2 0.116183 0.844251 0.843314
Si Si3 0.589743 0.572327 0.119439
Si Si4 0.179451 0.066496 0.546298
Si Si5 0.993348 0.505966 0.830264
Si Si6 0.607546 0.034564 0.267039
Si Si7 0.692905 0.424998 0.522224
Si Si8 0.216700 0.835960 0.526958
O O1 0.726496 0.892439 0.446240
O O2 0.576662 0.838871 0.468927
O O3 0.919895 0.834014 0.668370
O O4 0.895603 0.655319 0.089345
O O5 0.237402 0.717090 0.709987
O O6 0.180342 0.856317 0.733099
O O7 0.152297 0.948473 0.194231
O O8 0.424772 0.713912 0.340295
O O9 0.782960 0.562277 0.267901
O O10 0.500000 0.500000 0.000000
O O11 0.647398 0.504127 0.833622
O O12 0.952445 0.178655 0.677155
O O13 0.279840 0.044584 0.708505
O O14 0.869777 0.437708 0.562826
O O15 0.000000 0.500000 0.000000
O O16 0.763804 0.056573 0.305597
O O17 0.500000 0.000000 0.000000
O O18 0.500000 0.500000 0.500000
#
# Coordination Sequence:
#
# PCOD9073040 Si02
#       8
#     2   2   2   2   2   2   2   2
#     4  11  21  42  69  94 131 174 218 278 328 401
#     4  11  22  43  68  92 135 175 224 266 331 413
#     4  11  20  42  67  97 131 170 221 275 341 385
#     4  11  25  43  64  99 128 179 219 265 338 412
#     4  10  20  40  67  98 131 175 226 266 331 401
#     4  12  25  42  63  96 132 167 217 277 337 388
#     4  11  24  41  65  99 131 182 230 270 325 400
#     4  11  23  41  66  94 132 170 215 277 332 393
#
# _framework density 21.727318
#
# number of rings (size 3 to 8) (size 9 to 14) (size 15 to 20)
#    0.000    1.000    3.750    6.000    3.500    0.000 
#    0.000    0.625    0.000    0.000    0.000    0.000 
#    0.000    0.000    0.000    0.000    0.000    0.000 
#
# Total GULP energy -89120.609208 kJ/mol
# GULP energy per Si atom -5570.038075 kJ/mol
# Density = 2.167787 g / cm^3
# Si number density = 21.727318 Si / 1000 Ang^3
#
#
#
# Elastic Constant Matrix: (Units=GPa)
#
#
# Indices 1 2 3 4 5 6 
#
# 1 124.5701 51.5480 14.3120 -2.7914 14.9719 -3.1627
# 2 51.5480 173.5365 36.5882 -2.3160 12.9176 9.7036
# 3 14.3120 36.5882 52.5387 9.2592 4.7535 7.9943
# 4 -2.7914 -2.3160 9.2592 33.6614 -6.9351 0.7198
# 5 14.9719 12.9176 4.7535 -6.9351 14.1586 8.2921
# 6 -3.1627 9.7036 7.9943 0.7198 8.2921 31.3589
#
#
#
# Elastic Compliance Matrix: (Units=1/GPa)
#
#
# Indices 1 2 3 4 5 6 
#
# 1 0.010779 -0.002442 -0.000536 -0.001959 -0.013176 0.005509
# 2 -0.002442 0.007650 -0.004580 0.001271 -0.001624 -0.001046
# 3 -0.000536 -0.004580 0.024851 -0.008313 -0.005761 -0.003258
# 4 -0.001959 0.001271 -0.008313 0.037311 0.025540 -0.006082
# 5 -0.013176 -0.001624 -0.005761 0.025540 0.118862 -0.031374
# 6 0.005509 -0.001046 -0.003258 -0.006082 -0.031374 0.042034
#
#
# Mechanical properties :
#
#
# Convention : Reuss Voigt Hill
#
# Bulk Modulus (GPa) = 35.50768 61.72685 48.61727
# Shear Modulus (GPa) = 18.79749 32.38227 25.58988
#
# Velocity S-wave (km/s) = 2.94454 3.86475 3.43560
# Velocity P-wave (km/s) = 5.28567 6.95604 6.17757
#
# Compressibility (1/GPa) = 0.02816292
#
# Stress axis : x y z
#
# Youngs Moduli (GPa) = 92.76913 130.72006 40.23930
#
# Poissons Ratio (x) = 0.31925 0.02159
# Poissons Ratio (y) = 0.22656 0.18430
# Poissons Ratio (z) = 0.04977 0.59872
#
# Static dielectric constant tensor:
#      x y z
#    x 1.912270 -0.036630 0.014110 
#    y -0.036630 1.776770 0.060120 
#    z 0.014110 0.060120 1.853670 
# 
# From -- ./inp_files/226811.got.cif
#   From: 2010.05.17/outbox.ucp.g08.bks.cvg/sg2_114_cif.got.tgz:226811.got - 2010.06.11 11:32:03.
