data_PCOD9073406
_publ_section_title
;
Structure prediction by ZEFSAII (Michael W. Deem and Ramdas Pophale) SiO2 
 PCOD9073406
Probable space group: P -1
;
_chemical_formula_sum "Si O2"
_cell_formula_units_Z 16
_cell_length_a 9.000000
_cell_length_b 12.000000
_cell_length_c 15.000000
_cell_angle_alpha 130.000000
_cell_angle_beta 50.000000
_cell_angle_gamma 140.000000
_cell_volume 759.581896
_symmetry_space_group_name_H-M "P -1"
_symmetry_group_IT_number 2
_symmetry_cell_setting 'triclinic'
loop_
_space_group_symop_operation_xyz
x,y,z
-x,-y,-z
loop_
_atom_site_type_symbol
_atom_site_label
_atom_site_fract_x
_atom_site_fract_y
_atom_site_fract_z
Si Si1 0.497858 0.982068 0.384637
Si Si2 0.697246 0.873065 0.008956
Si Si3 0.477807 0.408871 0.326855
Si Si4 0.928551 0.756135 0.720332
Si Si5 0.754069 0.472988 0.066386
Si Si6 0.902547 0.728529 0.977155
Si Si7 0.864064 0.458876 0.706437
Si Si8 0.561032 0.305620 0.420941
O O1 0.455336 0.113366 0.411834
O O2 0.784557 0.095459 0.310614
O O3 0.500000 0.000000 0.500000
O O4 0.313614 0.761059 0.326038
O O5 0.827763 0.832944 0.863852
O O6 0.418693 0.722385 0.017089
O O7 0.751088 0.801775 0.040119
O O8 0.823722 0.087092 0.056493
O O9 0.193038 0.276489 0.344249
O O10 0.630787 0.455570 0.200485
O O11 0.510471 0.299591 0.332142
O O12 0.537341 0.593010 0.440802
O O13 0.813086 0.550132 0.692454
O O14 0.815937 0.637424 0.061490
O O15 0.000000 0.500000 0.000000
O O16 0.860973 0.567506 0.848357
O O17 0.143707 0.548970 0.619700
#
# Coordination Sequence:
#
# PCOD9073406 Si02
#       8
#     2   2   2   2   2   2   2   2
#     4  11  22  37  63  93 118 156 204 248 300 356
#     4   9  21  39  61  89 121 160 202 245 301 357
#     4  10  21  42  62  85 123 162 197 245 301 356
#     4   9  20  38  60  87 122 156 195 247 298 355
#     4  11  23  39  62  91 123 159 200 247 300 361
#     4  10  21  39  63  90 121 157 201 250 299 355
#     4  10  21  39  63  91 122 156 199 249 299 353
#     4  10  22  41  62  85 123 161 197 246 299 357
#
# _framework density 21.064219999999999
#
# number of rings (size 3 to 8) (size 9 to 14) (size 15 to 20)
#    0.000    2.000    0.000    2.625    0.000   10.500 
#    0.000   11.875    0.000    0.000    0.000    0.000 
#    0.000    0.000    0.000    0.000    0.000    0.000 
#
# Total GULP energy -89152.401514 kJ/mol
# GULP energy per Si atom -5572.025095 kJ/mol
# Density = 2.101628 g / cm^3
# Si number density = 21.064220 Si / 1000 Ang^3
#
#
#
# Elastic Constant Matrix: (Units=GPa)
#
#
# Indices 1 2 3 4 5 6 
#
# 1 103.1504 69.3051 35.6878 6.0238 15.6078 -11.8871
# 2 69.3051 216.3678 39.7665 21.1910 8.5725 -23.3731
# 3 35.6878 39.7665 70.0708 -1.8645 12.3622 -20.5350
# 4 6.0238 21.1910 -1.8645 35.1229 -4.3198 1.0011
# 5 15.6078 8.5725 12.3622 -4.3198 23.5647 -11.9110
# 6 -11.8871 -23.3731 -20.5350 1.0011 -11.9110 38.7967
#
#
#
# Elastic Compliance Matrix: (Units=1/GPa)
#
#
# Indices 1 2 3 4 5 6 
#
# 1 0.014772 -0.003669 -0.004911 -0.001420 -0.007408 -0.002521
# 2 -0.003669 0.006618 -0.001471 -0.003331 0.001516 0.002636
# 3 -0.004911 -0.001471 0.020336 0.002266 -0.002678 0.007492
# 4 -0.001420 -0.003331 0.002266 0.031678 0.006782 0.000023
# 5 -0.007408 0.001516 -0.002678 0.006782 0.056756 0.014476
# 6 -0.002521 0.002636 0.007492 0.000023 0.014476 0.035000
#
#
# Mechanical properties :
#
#
# Convention : Reuss Voigt Hill
#
# Bulk Modulus (GPa) = 46.24495 75.45642 60.85069
# Shear Modulus (GPa) = 25.97802 35.81882 30.89842
#
# Velocity S-wave (km/s) = 3.51561 4.12813 3.83413
# Velocity P-wave (km/s) = 6.20333 7.65649 6.96790
#
# Compressibility (1/GPa) = 0.02162398
#
# Stress axis : x y z
#
# Youngs Moduli (GPa) = 67.69569 151.10005 49.17438
#
# Poissons Ratio (x) = 0.55436 0.24150
# Poissons Ratio (y) = 0.24836 0.07233
# Poissons Ratio (z) = 0.33247 0.22226
#
# Static dielectric constant tensor:
#      x y z
#    x 1.862500 0.033140 0.010170 
#    y 0.033140 1.742940 0.005850 
#    z 0.010170 0.005850 1.809390 
# 
# From -- ./inp_files/500795.got.cif
#   From: 2010.05.17/outbox.ucp.g08.bks.cvg/sg2_251_cif.got.tgz:500795.got - 2010.06.11 11:32:03.
