data_PCOD9073091
_publ_section_title
;
Structure prediction by ZEFSAII (Michael W. Deem and Ramdas Pophale) SiO2 
 PCOD9073091
Probable space group: P -1
;
_chemical_formula_sum "Si O2"
_cell_formula_units_Z 15
_cell_length_a 7.030766
_cell_length_b 5.473120
_cell_length_c 20.999430
_cell_angle_alpha 89.029655
_cell_angle_beta 47.598806
_cell_angle_gamma 104.369856
_cell_volume 558.526976
_symmetry_space_group_name_H-M "P -1"
_symmetry_group_IT_number 2
_symmetry_cell_setting 'triclinic'
loop_
_space_group_symop_operation_xyz
x,y,z
-x,-y,-z
loop_
_atom_site_type_symbol
_atom_site_label
_atom_site_fract_x
_atom_site_fract_y
_atom_site_fract_z
Si Si1 0.863388 0.042285 0.619856
Si Si2 0.862358 0.007009 0.940901
Si Si3 0.880797 0.347112 0.297441
Si Si4 0.359750 0.717119 0.119272
Si Si5 0.029004 0.601350 0.574191
Si Si6 0.000000 0.500000 0.000000
Si Si7 0.353358 0.231247 0.613515
Si Si8 0.599299 0.108750 0.175932
O O1 0.594123 0.898412 0.722139
O O2 0.853784 0.310971 0.593159
O O3 0.127667 0.152937 0.607448
O O4 0.919534 0.816963 0.569461
O O5 0.751983 0.120071 0.905815
O O6 0.895440 0.215142 0.988585
O O7 0.140008 0.965021 0.862817
O O8 0.647198 0.732994 0.020238
O O9 0.002766 0.387748 0.341830
O O10 0.709968 0.543786 0.333471
O O11 0.128420 0.444348 0.190136
O O12 0.706924 0.041334 0.334572
O O13 0.422012 0.884681 0.168662
O O14 0.350675 0.675343 0.486876
O O15 0.264555 0.612988 0.889834
#
# Coordination Sequence:
#
# PCOD9073091 Si02
#       8
#     2   2   2   2   2   1   2   2
#     4  10  19  30  55  85 124 163 208 261 315 382
#     4  10  24  42  62  90 129 172 209 274 319 390
#     4  10  18  32  56  86 125 165 207 274 304 393
#     4  10  20  43  61  91 128 169 222 255 334 377
#     4  10  18  31  52  91 126 163 209 267 320 387
#     4  10  22  40  64  88 122 166 216 262 322 382
#     4  10  18  31  52  90 128 159 212 265 326 375
#     4  11  22  40  61  89 129 166 214 268 323 382
#
# _framework density 26.856356000000002
#
# number of rings (size 3 to 8) (size 9 to 14) (size 15 to 20)
#    0.000    1.867    2.667    5.600    1.867    2.133 
#    2.400    5.333    0.000    0.000    0.000   10.267 
#    0.000    0.000    0.000    0.000    0.000    0.000 
#
# Total GULP energy -83917.377855 kJ/mol
# GULP energy per Si atom -5594.491857 kJ/mol
# Density = 2.679523 g / cm^3
# Si number density = 26.856356 Si / 1000 Ang^3
#
#
#
# Elastic Constant Matrix: (Units=GPa)
#
#
# Indices 1 2 3 4 5 6 
#
# 1 82.5838 13.2022 34.1374 7.3152 5.7049 3.3700
# 2 13.2022 178.1457 68.7310 -26.5597 -7.7217 -17.7600
# 3 34.1374 68.7310 202.8639 -32.6351 -13.1236 -16.2312
# 4 7.3152 -26.5597 -32.6351 58.4811 -4.3457 -1.0658
# 5 5.7049 -7.7217 -13.1236 -4.3457 26.8313 1.1418
# 6 3.3700 -17.7600 -16.2312 -1.0658 1.1418 28.9586
#
#
#
# Elastic Compliance Matrix: (Units=1/GPa)
#
#
# Indices 1 2 3 4 5 6 
#
# 1 0.014807 -0.001119 -0.003631 -0.004902 -0.005853 -0.004394
# 2 -0.001119 0.007091 -0.001334 0.002827 0.001924 0.003759
# 3 -0.003631 -0.001334 0.007268 0.004304 0.004484 0.003660
# 4 -0.004902 0.002827 0.004304 0.022037 0.007307 0.005240
# 5 -0.005853 0.001924 0.004484 0.007307 0.042318 0.002975
# 6 -0.004394 0.003759 0.003660 0.005240 0.002975 0.039476
#
#
# Mechanical properties :
#
#
# Convention : Reuss Voigt Hill
#
# Bulk Modulus (GPa) = 58.83490 77.30384 68.06937
# Shear Modulus (GPa) = 33.14981 46.02239 39.58610
#
# Velocity S-wave (km/s) = 3.51713 4.14412 3.84343
# Velocity P-wave (km/s) = 6.20068 7.19340 6.71540
#
# Compressibility (1/GPa) = 0.01699672
#
# Stress axis : x y z
#
# Youngs Moduli (GPa) = 67.53684 141.03044 137.59412
#
# Poissons Ratio (x) = 0.15780 0.49965
# Poissons Ratio (y) = 0.07557 0.18355
# Poissons Ratio (z) = 0.24525 0.18813
#
# Static dielectric constant tensor:
#      x y z
#    x 2.585030 -0.371970 -0.071160 
#    y -0.371970 1.940350 -0.837220 
#    z -0.071160 -0.837220 0.010580 
# 
# From -- ./inp_files/616178.got.cif
#   From: 2010.05.17/outbox.cif.g08.bks.cpg/sg2_309_cif.got.tgz:616178.got - 2010.06.03 11:33:40.
