data_PCOD9073595
_publ_section_title
;
Structure prediction by ZEFSAII (Michael W. Deem and Ramdas Pophale) SiO2 
 PCOD9073595
Probable space group: P -1
;
_chemical_formula_sum "Si O2"
_cell_formula_units_Z 14
_cell_length_a 12.000000
_cell_length_b 12.000000
_cell_length_c 12.000000
_cell_angle_alpha 70.000000
_cell_angle_beta 80.000000
_cell_angle_gamma 140.000000
_cell_volume 722.981415
_symmetry_space_group_name_H-M "P -1"
_symmetry_group_IT_number 2
_symmetry_cell_setting 'triclinic'
loop_
_space_group_symop_operation_xyz
x,y,z
-x,-y,-z
loop_
_atom_site_type_symbol
_atom_site_label
_atom_site_fract_x
_atom_site_fract_y
_atom_site_fract_z
Si Si1 0.521833 0.454609 0.891605
Si Si2 0.934819 0.033804 0.315315
Si Si3 0.035157 0.871743 0.238677
Si Si4 0.422223 0.571304 0.703164
Si Si5 0.085797 0.377812 0.008184
Si Si6 0.163617 0.718281 0.298827
Si Si7 0.765251 0.272745 0.974761
O O1 0.458031 0.482973 0.793714
O O2 0.815160 0.698272 0.749761
O O3 0.500000 0.500000 0.000000
O O4 0.303479 0.153748 0.039232
O O5 0.968154 0.147002 0.159667
O O6 0.681322 0.827814 0.498918
O O7 0.964085 0.919849 0.314832
O O8 0.080136 0.779033 0.304838
O O9 0.808222 0.652602 0.265599
O O10 0.322804 0.567453 0.820863
O O11 0.890838 0.273934 0.007489
O O12 0.151341 0.527016 0.048367
O O13 0.000000 0.500000 0.500000
O O14 0.468244 0.991515 0.153706
O O15 0.137557 0.644569 0.199704
#
# Coordination Sequence:
#
# PCOD9073595 Si02
#       7
#     2   2   2   2   2   2   2
#     4  10  21  41  64  97 137 172 210 270 342 403
#     4  11  25  42  68 107 132 173 221 277 345 399
#     4  11  23  44  68  99 136 173 221 279 340 397
#     4  12  23  41  68 100 140 172 220 275 339 403
#     4  11  23  45  71  96 138 174 226 274 334 401
#     4  11  25  46  68  98 134 175 230 274 330 396
#     4  10  25  46  68  97 131 185 222 273 331 395
#
# _framework density 19.364260000000002
#
# number of rings (size 3 to 8) (size 9 to 14) (size 15 to 20)
#    0.000    1.143    4.286    2.143    4.000    1.143 
#    7.714    2.857    0.000    0.000    0.000    0.000 
#    0.000    0.000    0.000    0.000    0.000    0.000 
#
# Total GULP energy -77998.408456 kJ/mol
# GULP energy per Si atom -5571.314890 kJ/mol
# Density = 1.932019 g / cm^3
# Si number density = 19.364260 Si / 1000 Ang^3
#
#
#
# Elastic Constant Matrix: (Units=GPa)
#
#
# Indices 1 2 3 4 5 6 
#
# 1 149.1660 50.0835 74.8045 -0.3256 0.3822 1.4264
# 2 50.0835 65.0084 59.5179 -6.0134 -4.9376 3.0531
# 3 74.8045 59.5179 186.9505 2.2813 -8.2933 1.5809
# 4 -0.3256 -6.0134 2.2813 32.5017 -1.0722 -12.4022
# 5 0.3822 -4.9376 -8.2933 -1.0722 40.1300 5.0735
# 6 1.4264 3.0531 1.5809 -12.4022 5.0735 36.0187
#
#
#
# Elastic Compliance Matrix: (Units=1/GPa)
#
#
# Indices 1 2 3 4 5 6 
#
# 1 0.009674 -0.005705 -0.002101 -0.000819 -0.001261 0.000088
# 2 -0.005705 0.025835 -0.005906 0.005113 0.002181 -0.000251
# 3 -0.002101 -0.005906 0.008142 -0.001864 0.000996 -0.000556
# 4 -0.000819 0.005113 -0.001864 0.036520 -0.000328 0.012302
# 5 -0.001261 0.002181 0.000996 -0.000328 0.025895 -0.003939
# 6 0.000088 -0.000251 -0.000556 0.012302 -0.003939 0.032596
#
#
# Mechanical properties :
#
#
# Convention : Reuss Voigt Hill
#
# Bulk Modulus (GPa) = 61.62626 85.54854 73.58740
# Shear Modulus (GPa) = 29.15567 36.17801 32.66684
#
# Velocity S-wave (km/s) = 3.88447 4.32706 4.11172
# Velocity P-wave (km/s) = 7.21198 8.32100 7.78626
#
# Compressibility (1/GPa) = 0.01622685
#
# Stress axis : x y z
#
# Youngs Moduli (GPa) = 103.37329 38.70716 122.82542
#
# Poissons Ratio (x) = 0.22081 0.25809
# Poissons Ratio (y) = 0.58971 0.72538
# Poissons Ratio (z) = 0.21722 0.22860
#
# Static dielectric constant tensor:
#      x y z
#    x 1.696010 0.018990 0.001720 
#    y 0.018990 1.738470 -0.001260 
#    z 0.001720 -0.001260 1.660740 
# 
# From -- ./inp_files/259327.got.cif
#   From: 2010.05.17/outbox.ucp.g08.bks.cvg/sg2_130_cif.got.tgz:259327.got - 2010.06.11 11:32:03.
