data_PCOD9073422
_publ_section_title
;
Structure prediction by ZEFSAII (Michael W. Deem and Ramdas Pophale) SiO2 
 PCOD9073422
Probable space group: P -1
;
_chemical_formula_sum "Si O2"
_cell_formula_units_Z 16
_cell_length_a 21.000000
_cell_length_b 12.000000
_cell_length_c 9.000000
_cell_angle_alpha 50.000000
_cell_angle_beta 30.000000
_cell_angle_gamma 40.000000
_cell_volume 727.418465
_symmetry_space_group_name_H-M "P -1"
_symmetry_group_IT_number 2
_symmetry_cell_setting 'triclinic'
loop_
_space_group_symop_operation_xyz
x,y,z
-x,-y,-z
loop_
_atom_site_type_symbol
_atom_site_label
_atom_site_fract_x
_atom_site_fract_y
_atom_site_fract_z
Si Si1 0.638175 0.522836 0.239762
Si Si2 0.368418 0.365394 0.504054
Si Si3 0.289732 0.916031 0.015098
Si Si4 0.167784 0.255481 0.841765
Si Si5 0.856193 0.164145 0.220013
Si Si6 0.867824 0.268766 0.434275
Si Si7 0.335667 0.987312 0.184790
Si Si8 0.686254 0.766100 0.730545
O O1 0.500000 0.500000 0.500000
O O2 0.617743 0.611576 0.367432
O O3 0.791323 0.334543 0.107958
O O4 0.663418 0.625952 0.974765
O O5 0.253204 0.307268 0.741465
O O6 0.291413 0.549451 0.420263
O O7 0.535456 0.237952 0.211874
O O8 0.174539 0.852118 0.289260
O O9 0.269854 0.015539 0.126280
O O10 0.260827 0.046731 0.830842
O O11 0.190531 0.307332 0.587276
O O12 0.998960 0.302349 0.184651
O O13 0.904456 0.192778 0.258907
O O14 0.717103 0.136827 0.541012
O O15 0.000000 0.000000 0.000000
O O16 0.277958 0.141830 0.288377
O O17 0.517445 0.901233 0.887166
#
# Coordination Sequence:
#
# PCOD9073422 Si02
#       8
#     2   2   2   2   2   2   2   2
#     4  11  24  43  67  99 129 170 224 271 325 389
#     4  11  24  42  67  96 133 170 217 273 329 384
#     4  11  23  42  69  97 128 177 221 268 321 389
#     4  12  24  42  67  99 132 175 220 266 328 390
#     4  10  21  42  66  94 131 172 215 272 328 389
#     4  10  24  43  65  94 135 170 216 273 327 388
#     4  10  21  39  64  96 133 170 217 270 321 380
#     4  11  23  38  67  98 133 168 217 272 322 385
#
# _framework density 21.995591999999998
#
# number of rings (size 3 to 8) (size 9 to 14) (size 15 to 20)
#    0.000    1.250    2.500    3.000    3.500    2.000 
#    0.000   10.625    0.000    0.000    0.000    0.000 
#    0.000    0.000    0.000    0.000    0.000    0.000 
#
# Total GULP energy -89372.281212 kJ/mol
# GULP energy per Si atom -5585.767576 kJ/mol
# Density = 2.194553 g / cm^3
# Si number density = 21.995592 Si / 1000 Ang^3
#
#
#
# Elastic Constant Matrix: (Units=GPa)
#
#
# Indices 1 2 3 4 5 6 
#
# 1 89.2893 29.1780 63.6064 -10.9714 -17.4469 13.1386
# 2 29.1780 67.2432 34.2336 -6.1469 9.7710 4.4145
# 3 63.6064 34.2336 78.4485 -20.8454 -19.4527 0.4532
# 4 -10.9714 -6.1469 -20.8454 48.8588 -2.9503 -2.7645
# 5 -17.4469 9.7710 -19.4527 -2.9503 26.9185 -5.6447
# 6 13.1386 4.4145 0.4532 -2.7645 -5.6447 10.2555
#
#
#
# Elastic Compliance Matrix: (Units=1/GPa)
#
#
# Indices 1 2 3 4 5 6 
#
# 1 0.120125 0.072275 -0.179998 -0.064808 -0.142833 -0.273139
# 2 0.072275 0.086763 -0.144784 -0.055330 -0.140605 -0.215849
# 3 -0.179998 -0.144784 0.320306 0.121090 0.278024 0.464439
# 4 -0.064808 -0.055330 0.121090 0.067538 0.110887 0.180732
# 5 -0.142833 -0.140605 0.278024 0.110887 0.297808 0.425034
# 6 -0.273139 -0.215849 0.464439 0.180732 0.425034 0.802487
#
#
# Mechanical properties :
#
#
# Convention : Reuss Voigt Hill
#
# Bulk Modulus (GPa) = 45.08593 54.33522 49.71058
# Shear Modulus (GPa) = 2.26507 24.40409 13.33458
#
# Velocity S-wave (km/s) = 1.01588 3.33453 2.46486
# Velocity P-wave (km/s) = 4.68169 6.29141 5.54527
#
# Compressibility (1/GPa) = 0.02217987
#
# Stress axis : x y z
#
# Youngs Moduli (GPa) = 8.32470 11.52559 3.12201
#
# Poissons Ratio (x) = -0.83302 0.56196
# Poissons Ratio (y) = -0.60167 0.45202
# Poissons Ratio (z) = 1.49843 1.66872
#
# Static dielectric constant tensor:
#      x y z
#    x 1.790750 -0.011300 -0.003410 
#    y -0.011300 1.874220 -0.010840 
#    z -0.003410 -0.010840 1.754160 
# 
# From -- ./inp_files/345914.got.cif
#   From: 2010.05.17/outbox.ucp.g08.bks.cvg/sg2_173_cif.got.tgz:345914.got - 2010.06.11 11:32:03.
