data_PCOD9073667
_publ_section_title
;
Structure prediction by ZEFSAII (Michael W. Deem and Ramdas Pophale) SiO2 
 PCOD9073667
Probable space group: P -1
;
_chemical_formula_sum "Si O2"
_cell_formula_units_Z 16
_cell_length_a 9.000000
_cell_length_b 15.000000
_cell_length_c 12.000000
_cell_angle_alpha 150.000000
_cell_angle_beta 80.000000
_cell_angle_gamma 110.000000
_cell_volume 734.803614
_symmetry_space_group_name_H-M "P -1"
_symmetry_group_IT_number 2
_symmetry_cell_setting 'triclinic'
loop_
_space_group_symop_operation_xyz
x,y,z
-x,-y,-z
loop_
_atom_site_type_symbol
_atom_site_label
_atom_site_fract_x
_atom_site_fract_y
_atom_site_fract_z
Si Si1 0.312816 0.098786 0.429588
Si Si2 0.707473 0.477779 0.401891
Si Si3 0.896063 0.225893 0.037403
Si Si4 0.416346 0.141330 0.705306
Si Si5 0.755035 0.472364 0.646501
Si Si6 0.561643 0.486077 0.207514
Si Si7 0.191962 0.072017 0.081118
Si Si8 0.337912 0.934322 0.708351
O O1 0.327570 0.157886 0.621949
O O2 0.311961 0.292862 0.581771
O O3 0.477435 0.064970 0.329404
O O4 0.161936 0.899435 0.203101
O O5 0.838305 0.402395 0.251140
O O6 0.690614 0.412211 0.462679
O O7 0.573128 0.411233 0.249321
O O8 0.751582 0.704810 0.653753
O O9 0.086723 0.329894 0.154651
O O10 0.801669 0.063716 0.965327
O O11 0.500000 0.000000 0.500000
O O12 0.307324 0.034360 0.709473
O O13 0.554449 0.335703 0.949128
O O14 0.614130 0.502608 0.766438
O O15 0.778451 0.290172 0.501346
O O16 0.299332 0.039060 0.932416
O O17 0.000000 0.000000 0.000000
#
# Coordination Sequence:
#
# PCOD9073667 Si02
#       8
#     2   2   2   2   2   2   2   2
#     4  10  23  43  68  92 128 170 224 274 316 375
#     4  12  22  38  63  96 132 176 208 261 321 391
#     4  12  24  43  62  98 139 171 210 268 325 386
#     4  10  21  42  65  94 127 166 220 280 316 367
#     4  11  23  40  63  96 138 169 210 262 327 393
#     4  11  23  40  67  97 121 172 224 263 323 387
#     4  12  23  39  66  95 138 176 209 260 332 392
#     4  10  22  41  65  96 129 175 216 267 323 379
#
# _framework density 21.774525000000001
#
# number of rings (size 3 to 8) (size 9 to 14) (size 15 to 20)
#    0.000    1.000    3.750    4.125    0.000    1.500 
#    0.000    1.250    0.000    0.000    0.000    0.000 
#    0.000    0.000    0.000    0.000    0.000    0.000 
#
# Total GULP energy -89253.985076 kJ/mol
# GULP energy per Si atom -5578.374067 kJ/mol
# Density = 2.172497 g / cm^3
# Si number density = 21.774525 Si / 1000 Ang^3
#
#
#
# Elastic Constant Matrix: (Units=GPa)
#
#
# Indices 1 2 3 4 5 6 
#
# 1 29.2429 1.3025 19.2075 -2.5584 -3.2907 -10.5012
# 2 1.3025 77.4972 10.6102 5.1676 10.0317 -15.5232
# 3 19.2075 10.6102 122.1731 -14.6618 -13.4682 -6.5247
# 4 -2.5584 5.1676 -14.6618 27.1489 -15.9441 -0.5343
# 5 -3.2907 10.0317 -13.4682 -15.9441 17.9309 -8.4088
# 6 -10.5012 -15.5232 -6.5247 -0.5343 -8.4088 1.5092
#
#
#
# Elastic Compliance Matrix: (Units=1/GPa)
#
#
# Indices 1 2 3 4 5 6 
#
# 1 0.031841 0.006287 -0.014245 -0.029931 -0.040540 -0.011839
# 2 0.006287 0.026583 -0.010912 -0.034706 -0.042209 0.022529
# 3 -0.014245 -0.010912 0.014722 0.020306 0.020642 -0.025510
# 4 -0.029931 -0.034706 0.020306 0.087185 0.063691 -0.091712
# 5 -0.040540 -0.042209 0.020642 0.063691 0.086415 -0.122969
# 6 -0.011839 0.022529 -0.025510 -0.091712 -0.122969 -0.015955
#
#
# Mechanical properties :
#
#
# Convention : Reuss Voigt Hill
#
# Bulk Modulus (GPa) = 28.24350 32.35039 30.29694
# Shear Modulus (GPa) = 17.83596 22.50401 20.16999
#
# Velocity S-wave (km/s) = 2.86513 3.21830 3.04684
# Velocity P-wave (km/s) = 4.89330 5.35716 5.13048
#
# Compressibility (1/GPa) = 0.03540638
#
# Stress axis : x y z
#
# Youngs Moduli (GPa) = 31.40606 37.61839 67.92380
#
# Poissons Ratio (x) = -0.23652 0.96759
# Poissons Ratio (y) = -0.19746 0.74118
# Poissons Ratio (z) = 0.44739 0.41049
#
# Static dielectric constant tensor:
#      x y z
#    x 1.850110 -0.046130 0.023830 
#    y -0.046130 1.855100 0.002110 
#    z 0.023830 0.002110 1.825380 
# 
# From -- ./inp_files/400018.got.cif
#   From: 2010.05.17/outbox.ucp.g08.bks.cvg/sg2_201_cif.got.tgz:400018.got - 2010.06.11 11:32:03.
