data_PCOD9073289
_publ_section_title
;
Structure prediction by ZEFSAII (Michael W. Deem and Ramdas Pophale) SiO2 
 PCOD9073289
Probable space group: P -1
;
_chemical_formula_sum "Si O2"
_cell_formula_units_Z 16
_cell_length_a 18.000000
_cell_length_b 12.000000
_cell_length_c 9.000000
_cell_angle_alpha 50.000000
_cell_angle_beta 50.000000
_cell_angle_gamma 30.000000
_cell_volume 725.531033
_symmetry_space_group_name_H-M "P -1"
_symmetry_group_IT_number 2
_symmetry_cell_setting 'triclinic'
loop_
_space_group_symop_operation_xyz
x,y,z
-x,-y,-z
loop_
_atom_site_type_symbol
_atom_site_label
_atom_site_fract_x
_atom_site_fract_y
_atom_site_fract_z
Si Si1 0.584141 0.706971 0.718541
Si Si2 0.993952 0.599562 0.272087
Si Si3 0.097511 0.007760 0.782520
Si Si4 0.969259 0.997951 0.708782
Si Si5 0.728667 0.776048 0.277481
Si Si6 0.389993 0.480622 0.852609
Si Si7 0.616336 0.390884 0.806713
Si Si8 0.773121 0.546605 0.108928
O O1 0.676371 0.738088 0.517289
O O2 0.596977 0.587125 0.660184
O O3 0.411620 0.946633 0.783360
O O4 0.652815 0.552668 0.909417
O O5 0.917952 0.834006 0.233607
O O6 0.886912 0.662001 0.224836
O O7 0.000000 0.500000 0.500000
O O8 0.160101 0.430018 0.129430
O O9 0.012446 0.095309 0.659281
O O10 0.267751 0.751780 0.760898
O O11 0.000000 0.000000 0.000000
O O12 0.792458 0.159018 0.816629
O O13 0.000000 0.000000 0.500000
O O14 0.087998 0.731004 0.817961
O O15 0.743261 0.670813 0.192763
O O16 0.551751 0.371337 0.770465
O O17 0.366284 0.390780 0.829181
O O18 0.500000 0.500000 0.000000
#
# Coordination Sequence:
#
# PCOD9073289 Si02
#       8
#     2   2   2   2   2   2   2   2
#     4  10  22  41  69  93 136 182 231 280 344 413
#     4  12  26  42  68 100 136 182 235 278 343 416
#     4  11  21  42  70  96 133 176 236 283 341 407
#     4  11  24  41  71 104 139 176 225 297 351 392
#     4  11  25  43  63  98 141 184 227 280 349 423
#     4  10  21  40  69  99 127 177 236 286 338 403
#     4  10  21  37  70  97 126 174 231 280 338 405
#     4  11  25  43  67  99 144 180 228 293 347 407
#
# _framework density 22.052813
#
# number of rings (size 3 to 8) (size 9 to 14) (size 15 to 20)
#    0.000    1.250    2.500    4.125    7.000    0.500 
#    0.000    8.125    0.000    0.000    0.000    0.000 
#    0.000    0.000    0.000    0.000    0.000    0.000 
#
# Total GULP energy -89288.049500 kJ/mol
# GULP energy per Si atom -5580.503094 kJ/mol
# Density = 2.200262 g / cm^3
# Si number density = 22.052813 Si / 1000 Ang^3
#
#
#
# Elastic Constant Matrix: (Units=GPa)
#
#
# Indices 1 2 3 4 5 6 
#
# 1 189.8853 43.5080 6.9781 -6.2405 19.3497 9.2791
# 2 43.5080 73.6382 6.0913 -3.8391 5.5886 -1.6579
# 3 6.9781 6.0913 53.2390 -0.4832 11.6893 4.9238
# 4 -6.2405 -3.8391 -0.4832 16.0649 9.8765 -1.9149
# 5 19.3497 5.5886 11.6893 9.8765 29.7589 11.0834
# 6 9.2791 -1.6579 4.9238 -1.9149 11.0834 39.9947
#
#
#
# Elastic Compliance Matrix: (Units=1/GPa)
#
#
# Indices 1 2 3 4 5 6 
#
# 1 0.006790 -0.003331 0.000853 0.005582 -0.006020 0.000117
# 2 -0.003331 0.016163 -0.000944 0.004726 -0.003046 0.002630
# 3 0.000853 -0.000944 0.021355 0.008046 -0.011722 0.000768
# 4 0.005582 0.004726 0.008046 0.095087 -0.044774 0.014871
# 5 -0.006020 -0.003046 -0.011722 -0.044774 0.063942 -0.017150
# 6 0.000117 0.002630 0.000768 0.014871 -0.017150 0.030455
#
#
# Mechanical properties :
#
#
# Convention : Reuss Voigt Hill
#
# Bulk Modulus (GPa) = 26.69327 47.76859 37.23093
# Shear Modulus (GPa) = 19.75312 34.50937 27.13125
#
# Velocity S-wave (km/s) = 2.99610 3.96011 3.51135
# Velocity P-wave (km/s) = 4.90911 6.52825 5.77570
#
# Compressibility (1/GPa) = 0.03746263
#
# Stress axis : x y z
#
# Youngs Moduli (GPa) = 147.28533 61.86903 46.82708
#
# Poissons Ratio (x) = 0.20612 -0.03994
# Poissons Ratio (y) = 0.49068 0.04421
# Poissons Ratio (z) = -0.12562 0.05841
#
# Static dielectric constant tensor:
#      x y z
#    x 1.875300 0.028540 -0.183070 
#    y 0.028540 1.855170 -0.126190 
#    z -0.183070 -0.126190 1.879260 
# 
# From -- ./inp_files/332840.got.cif
#   From: 2010.05.17/outbox.ucp.g08.bks.cvg/sg2_167_cif.got.tgz:332840.got - 2010.06.11 11:32:03.
