data_PCOD9073470
_publ_section_title
;
Structure prediction by ZEFSAII (Michael W. Deem and Ramdas Pophale) SiO2 
 PCOD9073470
Probable space group: P -1
;
_chemical_formula_sum "Si O2"
_cell_formula_units_Z 16
_cell_length_a 9.000000
_cell_length_b 15.000000
_cell_length_c 27.000000
_cell_angle_alpha 160.000000
_cell_angle_beta 140.000000
_cell_angle_gamma 50.000000
_cell_volume 750.501489
_symmetry_space_group_name_H-M "P -1"
_symmetry_group_IT_number 2
_symmetry_cell_setting 'triclinic'
loop_
_space_group_symop_operation_xyz
x,y,z
-x,-y,-z
loop_
_atom_site_type_symbol
_atom_site_label
_atom_site_fract_x
_atom_site_fract_y
_atom_site_fract_z
Si Si1 0.550270 0.706821 0.353848
Si Si2 0.553684 0.826504 0.615373
Si Si3 0.118633 0.915617 0.072587
Si Si4 0.869601 0.122911 0.397360
Si Si5 0.908444 0.701156 0.258232
Si Si6 0.580262 0.229536 0.288696
Si Si7 0.593483 0.838628 0.329422
Si Si8 0.580981 0.821173 0.887699
O O1 0.470090 0.644844 0.243418
O O2 0.435178 0.469579 0.241503
O O3 0.837807 0.737963 0.448821
O O4 0.500000 0.000000 0.500000
O O5 0.293428 0.774540 0.551218
O O6 0.590216 0.542615 0.463096
O O7 0.551886 0.005604 0.659199
O O8 0.758663 0.969289 0.783312
O O9 0.063312 0.590069 0.891086
O O10 0.869315 0.971548 0.027726
O O11 0.319477 0.041222 0.147077
O O12 0.778505 0.162553 0.339940
O O13 0.830188 0.811923 0.244951
O O14 0.698521 0.679162 0.233205
O O15 0.162925 0.925140 0.461372
O O16 0.577895 0.199031 0.213111
O O17 0.500000 0.000000 0.000000
#
# Coordination Sequence:
#
# PCOD9073470 Si02
#       8
#     2   2   2   2   2   2   2   2
#     4  11  23  42  65  88 133 175 213 254 318 390
#     4  10  21  39  69 100 120 161 223 268 311 377
#     4  11  23  42  67  93 130 163 215 274 314 373
#     4   9  20  38  68  97 121 164 217 266 307 381
#     4   9  18  36  65  96 123 155 218 269 308 365
#     4  11  24  43  68  90 127 173 216 260 323 376
#     4   9  19  37  64  92 121 171 211 255 313 379
#     4  12  29  43  60  98 135 170 212 265 324 387
#
# _framework density 21.319078000000001
#
# number of rings (size 3 to 8) (size 9 to 14) (size 15 to 20)
#    0.000    1.750    0.000    5.625    5.250    5.000 
#    2.250    0.625    0.000    0.000    0.000    0.000 
#    0.000    0.000    0.000    0.000    0.000    0.000 
#
# Total GULP energy -89306.588543 kJ/mol
# GULP energy per Si atom -5581.661784 kJ/mol
# Density = 2.127056 g / cm^3
# Si number density = 21.319078 Si / 1000 Ang^3
#
#
#
# Elastic Constant Matrix: (Units=GPa)
#
#
# Indices 1 2 3 4 5 6 
#
# 1 49.7009 43.1764 28.9326 -0.6173 -16.4118 26.7295
# 2 43.1764 143.3388 28.9145 -9.0109 -23.8959 37.9071
# 3 28.9326 28.9145 47.4868 -0.7611 -19.1795 0.2246
# 4 -0.6173 -9.0109 -0.7611 19.3836 -5.0171 -2.0038
# 5 -16.4118 -23.8959 -19.1795 -5.0171 24.6545 2.6049
# 6 26.7295 37.9071 0.2246 -2.0038 2.6049 49.1844
#
#
#
# Elastic Compliance Matrix: (Units=1/GPa)
#
#
# Indices 1 2 3 4 5 6 
#
# 1 0.065150 0.000659 -0.029405 0.004100 0.025874 -0.036983
# 2 0.000659 0.012974 -0.002488 0.008450 0.013932 -0.010739
# 3 -0.029405 -0.002488 0.045580 0.004743 0.012620 0.017214
# 4 0.004100 0.008450 0.004743 0.062312 0.028104 -0.007713
# 5 0.025874 0.013932 0.012620 0.028104 0.089832 -0.028469
# 6 -0.036983 -0.010739 0.017214 -0.007713 -0.028469 0.049822
#
#
# Mechanical properties :
#
#
# Convention : Reuss Voigt Hill
#
# Bulk Modulus (GPa) = 16.33004 49.17484 32.75244
# Shear Modulus (GPa) = 12.23843 27.94471 20.09157
#
# Velocity S-wave (km/s) = 2.39855 3.62440 3.07322
# Velocity P-wave (km/s) = 3.91755 6.37427 5.29048
#
# Compressibility (1/GPa) = 0.06123683
#
# Stress axis : x y z
#
# Youngs Moduli (GPa) = 15.34923 77.07826 21.93924
#
# Poissons Ratio (x) = -0.05076 0.64511
# Poissons Ratio (y) = -0.01011 0.05458
# Poissons Ratio (z) = 0.45134 0.19175
#
# Static dielectric constant tensor:
#      x y z
#    x 1.859390 -0.009230 0.068500 
#    y -0.009230 1.757260 -0.020590 
#    z 0.068500 -0.020590 1.853820 
# 
# From -- ./inp_files/617340.got.cif
#   From: 2010.05.17/outbox.ucp.g08.bks.cvg/sg2_309_cif.got.tgz:617340.got - 2010.06.11 11:32:03.
