data_PCOD9073765
_publ_section_title
;
Structure prediction by ZEFSAII (Michael W. Deem and Ramdas Pophale) SiO2 
 PCOD9073765
Probable space group: P -1
;
_chemical_formula_sum "Si O2"
_cell_formula_units_Z 16
_cell_length_a 9.000000
_cell_length_b 9.000000
_cell_length_c 12.000000
_cell_angle_alpha 80.000000
_cell_angle_beta 100.000000
_cell_angle_gamma 130.000000
_cell_volume 730.800219
_symmetry_space_group_name_H-M "P -1"
_symmetry_group_IT_number 2
_symmetry_cell_setting 'triclinic'
loop_
_space_group_symop_operation_xyz
x,y,z
-x,-y,-z
loop_
_atom_site_type_symbol
_atom_site_label
_atom_site_fract_x
_atom_site_fract_y
_atom_site_fract_z
Si Si1 0.542256 0.205589 0.105932
Si Si2 0.202682 0.092062 0.662070
Si Si3 0.880343 0.098192 0.552647
Si Si4 0.458659 0.277062 0.329701
Si Si5 0.632432 0.431027 0.713011
Si Si6 0.153077 0.461572 0.039909
Si Si7 0.782251 0.366264 0.533897
Si Si8 0.784774 0.056755 0.086812
O O1 0.483501 0.208092 0.223744
O O2 0.667487 0.128740 0.115407
O O3 0.687698 0.426710 0.050250
O O4 0.356987 0.081197 0.014589
O O5 0.435383 0.230307 0.668432
O O6 0.097069 0.185447 0.608703
O O7 0.127682 0.928861 0.578516
O O8 0.174299 0.029555 0.794572
O O9 0.769018 0.176889 0.573048
O O10 0.744969 0.884449 0.615305
O O11 0.442940 0.447000 0.292897
O O12 0.629177 0.329642 0.428007
O O13 0.731032 0.446063 0.840459
O O14 0.774652 0.468872 0.627502
O O15 0.002594 0.229660 0.050300
O O16 0.000000 0.500000 0.000000
O O17 0.000000 0.500000 0.500000
#
# Coordination Sequence:
#
# PCOD9073765 Si02
#       8
#     2   2   2   2   2   2   2   2
#     4  10  23  42  70 101 138 183 240 285 350 409
#     4  11  23  45  71  99 143 180 235 288 358 414
#     4  11  26  43  70 103 137 187 232 288 349 425
#     4  12  26  46  69 104 142 184 233 292 346 426
#     4  12  26  46  71 100 145 187 229 293 358 411
#     4  10  23  43  69 102 138 184 232 292 346 419
#     4  12  28  44  70 105 140 185 235 289 354 422
#     4  10  21  43  71 101 136 186 229 296 347 411
#
# _framework density 21.893808
#
# number of rings (size 3 to 8) (size 9 to 14) (size 15 to 20)
#    0.000    1.000    2.500    3.000   10.500    0.500 
#    2.250    1.250    0.000    0.000    0.000    0.000 
#    0.000    0.000    0.000    0.000    0.000    0.000 
#
# Total GULP energy -89272.702896 kJ/mol
# GULP energy per Si atom -5579.543931 kJ/mol
# Density = 2.184398 g / cm^3
# Si number density = 21.893808 Si / 1000 Ang^3
#
#
#
# Elastic Constant Matrix: (Units=GPa)
#
#
# Indices 1 2 3 4 5 6 
#
# 1 96.3095 15.0348 35.3179 5.3567 15.0161 8.2211
# 2 15.0348 48.0939 20.2445 7.8388 3.3677 15.1497
# 3 35.3179 20.2445 117.3443 10.0750 17.9208 5.7634
# 4 5.3567 7.8388 10.0750 14.9599 5.8466 0.4628
# 5 15.0161 3.3677 17.9208 5.8466 49.0709 2.8286
# 6 8.2211 15.1497 5.7634 0.4628 2.8286 41.7840
#
#
#
# Elastic Compliance Matrix: (Units=1/GPa)
#
#
# Indices 1 2 3 4 5 6 
#
# 1 0.012253 -0.002037 -0.002874 -0.000393 -0.002450 -0.001106
# 2 -0.002037 0.027358 -0.002893 -0.012066 0.001765 -0.009105
# 3 -0.002874 -0.002893 0.010542 -0.003644 -0.002358 0.000361
# 4 -0.000393 -0.012066 -0.003644 0.078488 -0.007337 0.004582
# 5 -0.002450 0.001765 -0.002358 -0.007337 0.022817 -0.001296
# 6 -0.001106 -0.009105 0.000361 0.004582 -0.001296 0.027439
#
#
# Mechanical properties :
#
#
# Convention : Reuss Voigt Hill
#
# Bulk Modulus (GPa) = 28.94818 44.77133 36.85976
# Shear Modulus (GPa) = 24.26938 33.90633 29.08786
#
# Velocity S-wave (km/s) = 3.33303 3.93959 3.64893
# Velocity P-wave (km/s) = 5.29745 6.41775 5.88432
#
# Compressibility (1/GPa) = 0.03454448
#
# Stress axis : x y z
#
# Youngs Moduli (GPa) = 81.60991 36.55175 94.86307
#
# Poissons Ratio (x) = 0.07445 0.27268
# Poissons Ratio (y) = 0.16622 0.27447
# Poissons Ratio (z) = 0.23458 0.10575
#
# Static dielectric constant tensor:
#      x y z
#    x 1.618010 0.174840 -0.009910 
#    y 0.174840 1.782500 -0.124370 
#    z -0.009910 -0.124370 1.817600 
# 
# From -- ./inp_files/208056.got.cif
#   From: 2010.05.17/outbox.ucp.g08.bks.cvg/sg2_105_cif.got.tgz:208056.got - 2010.06.11 11:32:03.
