data_PCOD9073178
_publ_section_title
;
Structure prediction by ZEFSAII (Michael W. Deem and Ramdas Pophale) SiO2 
 PCOD9073178
Probable space group: P -1
;
_chemical_formula_sum "Si O2"
_cell_formula_units_Z 14
_cell_length_a 12.575213
_cell_length_b 5.378999
_cell_length_c 11.228843
_cell_angle_alpha 98.236524
_cell_angle_beta 54.189219
_cell_angle_gamma 66.842429
_cell_volume 490.207597
_symmetry_space_group_name_H-M "P -1"
_symmetry_group_IT_number 2
_symmetry_cell_setting 'triclinic'
loop_
_space_group_symop_operation_xyz
x,y,z
-x,-y,-z
loop_
_atom_site_type_symbol
_atom_site_label
_atom_site_fract_x
_atom_site_fract_y
_atom_site_fract_z
Si Si1 0.171279 0.628052 0.728803
Si Si2 0.828500 0.854312 0.186164
Si Si3 0.802418 0.171024 0.642854
Si Si4 0.283371 0.200817 0.159248
Si Si5 0.473645 0.740679 0.400219
Si Si6 0.935848 0.590437 0.410338
Si Si7 0.560618 0.105930 0.201250
O O1 0.082779 0.991621 0.827977
O O2 0.355941 0.451166 0.646224
O O3 0.145951 0.556581 0.606426
O O4 0.096606 0.494996 0.850438
O O5 0.670044 0.048703 0.396410
O O6 0.741286 0.952299 0.124013
O O7 0.720251 0.536822 0.740783
O O8 0.731637 0.056119 0.782388
O O9 0.810179 0.962528 0.514854
O O10 0.000000 0.000000 0.500000
O O11 0.107681 0.438573 0.225475
O O12 0.413928 0.025879 0.957670
O O13 0.491949 0.952422 0.312193
O O14 0.475908 0.471185 0.309271
O O15 0.000000 0.500000 0.500000
#
# Coordination Sequence:
#
# PCOD9073178 Si02
#       7
#     2   2   2   2   2   2   2
#     4  10  19  32  54  80 104 137 179 218 266 314
#     4  10  20  35  54  81 107 136 179 223 263 322
#     4   9  18  33  51  71  99 138 182 218 251 297
#     4  10  19  32  51  78 107 142 174 213 263 315
#     4  10  19  35  54  80 108 137 177 222 263 322
#     4   9  20  36  54  78 107 140 180 221 259 313
#     4  10  18  31  53  80 108 140 172 211 271 327
#
# _framework density 28.559332000000001
#
# number of rings (size 3 to 8) (size 9 to 14) (size 15 to 20)
#    0.000    2.286    0.000    6.429    0.000    6.857 
#    0.000    5.714    0.000    0.000    0.000   79.000 
#    0.000    0.000    0.000    0.000    0.000    0.000 
#
# Total GULP energy -78230.635222 kJ/mol
# GULP energy per Si atom -5587.902516 kJ/mol
# Density = 2.849433 g / cm^3
# Si number density = 28.559332 Si / 1000 Ang^3
#
#
#
# Elastic Constant Matrix: (Units=GPa)
#
#
# Indices 1 2 3 4 5 6 
#
# 1 103.8893 30.4391 47.7557 33.6196 36.1407 16.7999
# 2 30.4391 226.1743 70.5291 43.9055 7.9683 46.0023
# 3 47.7557 70.5291 186.1384 35.4919 32.7253 6.4101
# 4 33.6196 43.9055 35.4919 60.7603 5.8058 6.8835
# 5 36.1407 7.9683 32.7253 5.8058 68.7242 18.2459
# 6 16.7999 46.0023 6.4101 6.8835 18.2459 53.8148
#
#
#
# Elastic Compliance Matrix: (Units=1/GPa)
#
#
# Indices 1 2 3 4 5 6 
#
# 1 0.014816 0.000394 -0.001527 -0.006803 -0.006041 -0.001862
# 2 0.000394 0.006845 -0.002175 -0.003404 0.001895 -0.005922
# 3 -0.001527 -0.002175 0.007393 -0.001921 -0.003027 0.002727
# 4 -0.006803 -0.003404 -0.001921 0.023402 0.002536 0.001409
# 5 -0.006041 0.001895 -0.003027 0.002536 0.020500 -0.006648
# 6 -0.001862 -0.005922 0.002727 0.001409 -0.006648 0.025975
#
#
# Mechanical properties :
#
#
# Convention : Reuss Voigt Hill
#
# Bulk Modulus (GPa) = 44.56627 90.40555 67.48591
# Shear Modulus (GPa) = 44.23717 61.15841 52.69779
#
# Velocity S-wave (km/s) = 3.93995 4.63260 4.30024
# Velocity P-wave (km/s) = 6.02796 7.76780 6.95252
#
# Compressibility (1/GPa) = 0.02243849
#
# Stress axis : x y z
#
# Youngs Moduli (GPa) = 67.49366 146.08862 135.26504
#
# Poissons Ratio (x) = -0.05762 0.20661
# Poissons Ratio (y) = -0.02662 0.29419
# Poissons Ratio (z) = 0.10309 0.31773
#
# Static dielectric constant tensor:
#      x y z
#    x 2.456710 -0.015240 -0.068340 
#    y -0.015240 2.338470 0.011740 
#    z -0.068340 0.011740 2.314620 
# 
# From -- ./inp_files/440764.got.cif
#   From: 2010.05.17/outbox.cif.g08.bks.cpg/sg2_221_cif.got.tgz:440764.got - 2010.06.03 11:33:40.
