data_PCOD9073891
_publ_section_title
;
Structure prediction by ZEFSAII (Michael W. Deem and Ramdas Pophale) SiO2 
 PCOD9073891
Probable space group: P -1
;
_chemical_formula_sum "Si O2"
_cell_formula_units_Z 14
_cell_length_a 11.814977
_cell_length_b 8.395425
_cell_length_c 15.222659
_cell_angle_alpha 124.225271
_cell_angle_beta 152.970558
_cell_angle_gamma 63.458285
_cell_volume 561.446671
_symmetry_space_group_name_H-M "P -1"
_symmetry_group_IT_number 2
_symmetry_cell_setting 'triclinic'
loop_
_space_group_symop_operation_xyz
x,y,z
-x,-y,-z
loop_
_atom_site_type_symbol
_atom_site_label
_atom_site_fract_x
_atom_site_fract_y
_atom_site_fract_z
Si Si1 0.164496 0.323724 0.775487
Si Si2 0.201858 0.258840 0.517418
Si Si3 0.917074 0.268274 0.957824
Si Si4 0.221683 0.326762 0.007316
Si Si5 0.762397 0.284407 0.331785
Si Si6 0.893214 0.852244 0.777132
Si Si7 0.422357 0.778635 0.083932
O O1 0.392247 0.209150 0.867464
O O2 0.939870 0.282627 0.538824
O O3 0.082386 0.276206 0.803071
O O4 0.282441 0.552527 0.919332
O O5 0.238428 0.491574 0.629168
O O6 0.229257 0.221558 0.421842
O O7 0.390418 0.180802 0.691450
O O8 0.913854 0.190668 0.330928
O O9 0.064240 0.285280 0.973254
O O10 0.099521 0.285407 0.175122
O O11 0.742383 0.435450 0.894320
O O12 0.791108 0.044715 0.799138
O O13 0.475093 0.231630 0.145730
O O14 0.190405 0.895547 0.970382
#
# Coordination Sequence:
#
# PCOD9073891 Si02
#       7
#     2   2   2   2   2   2   2
#     4  10  18  32  60  88 110 140 181 232 283 330
#     4  10  18  31  59  91 111 140 184 232 286 334
#     4  10  24  38  60  76 114 156 200 216 284 320
#     4  11  20  41  56  83 113 149 188 242 263 341
#     4  10  18  31  59  91 111 140 184 232 286 334
#     4  11  20  41  56  83 113 149 188 242 263 341
#     4  10  18  32  60  88 110 140 181 232 283 330
#
# _framework density 24.935583999999999
#
# number of rings (size 3 to 8) (size 9 to 14) (size 15 to 20)
#    0.000    1.714    4.286    0.857    0.000    0.000 
#    0.000   20.000    0.000    3.429    0.000    0.000 
#    0.000    0.000    0.000    0.000    0.000    0.000 
#
# Total GULP energy -78232.621742 kJ/mol
# GULP energy per Si atom -5588.044410 kJ/mol
# Density = 2.487883 g / cm^3
# Si number density = 24.935584 Si / 1000 Ang^3
#
#
#
# Elastic Constant Matrix: (Units=GPa)
#
#
# Indices 1 2 3 4 5 6 
#
# 1 163.6010 1.1403 22.1114 -4.7975 -36.1939 -0.1926
# 2 1.1403 88.0879 6.9772 -10.3801 2.8119 -18.1967
# 3 22.1114 6.9772 79.3896 -19.4670 -27.9864 5.8101
# 4 -4.7975 -10.3801 -19.4670 19.7041 -5.2647 0.6142
# 5 -36.1939 2.8119 -27.9864 -5.2647 43.5889 0.7493
# 6 -0.1926 -18.1967 5.8101 0.6142 0.7493 21.0264
#
#
#
# Elastic Compliance Matrix: (Units=1/GPa)
#
#
# Indices 1 2 3 4 5 6 
#
# 1 0.008047 -0.000049 0.003154 0.007675 0.009661 -0.001409
# 2 -0.000049 0.014894 -0.001352 0.005713 -0.001405 0.013146
# 3 0.003154 -0.001352 0.032981 0.040783 0.029022 -0.012480
# 4 0.007675 0.005713 0.040783 0.108416 0.045473 -0.011042
# 5 0.009661 -0.001405 0.029022 0.045473 0.055394 -0.012449
# 6 -0.001409 0.013146 -0.012480 -0.011042 -0.012449 0.063138
#
#
# Mechanical properties :
#
#
# Convention : Reuss Voigt Hill
#
# Bulk Modulus (GPa) = 16.82715 43.50404 30.16560
# Shear Modulus (GPa) = 16.71275 36.92051 26.81663
#
# Velocity S-wave (km/s) = 2.59170 3.85208 3.28294
# Velocity P-wave (km/s) = 3.96469 6.10484 5.14723
#
# Compressibility (1/GPa) = 0.05942775
#
# Stress axis : x y z
#
# Youngs Moduli (GPa) = 124.26519 67.14275 30.32048
#
# Poissons Ratio (x) = 0.00329 -0.09562
# Poissons Ratio (y) = 0.00609 0.04099
# Poissons Ratio (z) = -0.39190 0.09077
#
# Static dielectric constant tensor:
#      x y z
#    x 2.013780 0.056730 0.014500 
#    y 0.056730 2.038930 0.036690 
#    z 0.014500 0.036690 1.983750 
# 
# From -- ./inp_files/282753.got.cif
#   From: 2010.05.17/outbox.cif.g08.bks.cpg/sg2_142_cif.got.tgz:282753.got - 2010.06.03 11:33:40.
