data_PCOD9073441
_publ_section_title
;
Structure prediction by ZEFSAII (Michael W. Deem and Ramdas Pophale) SiO2 
 PCOD9073441
Probable space group: P -1
;
_chemical_formula_sum "Si O2"
_cell_formula_units_Z 16
_cell_length_a 8.046730
_cell_length_b 13.471535
_cell_length_c 12.829470
_cell_angle_alpha 91.051149
_cell_angle_beta 135.084260
_cell_angle_gamma 121.354635
_cell_volume 643.246646
_symmetry_space_group_name_H-M "P -1"
_symmetry_group_IT_number 2
_symmetry_cell_setting 'triclinic'
loop_
_space_group_symop_operation_xyz
x,y,z
-x,-y,-z
loop_
_atom_site_type_symbol
_atom_site_label
_atom_site_fract_x
_atom_site_fract_y
_atom_site_fract_z
Si Si1 0.364684 0.901447 0.296405
Si Si2 0.564379 0.291148 0.616427
Si Si3 0.067819 0.703968 0.725149
Si Si4 0.732406 0.021213 0.245362
Si Si5 0.897746 0.860733 0.241736
Si Si6 0.555908 0.555974 0.141689
Si Si7 0.319198 0.472570 0.252956
Si Si8 0.964469 0.465537 0.604767
O O1 0.267170 0.761674 0.292848
O O2 0.064055 0.881662 0.204078
O O3 0.458417 0.927328 0.217222
O O4 0.749699 0.041436 0.526482
O O5 0.767118 0.438763 0.774131
O O6 0.607682 0.343884 0.517037
O O7 0.155051 0.154553 0.469938
O O8 0.718500 0.593282 0.488038
O O9 0.930178 0.665407 0.781595
O O10 0.193345 0.629595 0.761445
O O11 0.295591 0.875398 0.809048
O O12 0.741948 0.922335 0.180465
O O13 0.621590 0.693289 0.162394
O O14 0.310724 0.445039 0.127917
O O15 0.907662 0.606539 0.331786
O O16 0.500000 0.500000 0.000000
O O17 0.000000 0.500000 0.500000
#
# Coordination Sequence:
#
# PCOD9073441 Si02
#       8
#     2   2   2   2   2   2   2   2
#     4  10  18  31  54  87 119 149 191 253 303 345
#     4   9  17  32  53  85 122 145 191 253 308 345
#     4   9  18  33  56  90 116 144 193 249 304 345
#     4  10  19  31  55  89 119 149 188 255 309 343
#     4  10  20  34  54  83 119 155 196 241 298 351
#     4  12  24  39  58  86 125 160 196 243 298 358
#     4   9  17  33  55  82 116 155 185 240 305 345
#     4  11  21  34  60  89 121 152 198 254 292 355
#
# _framework density 24.873816999999999
#
# number of rings (size 3 to 8) (size 9 to 14) (size 15 to 20)
#    0.000    2.000    2.500    4.500    0.000    0.000 
#    0.000    2.500    0.000    1.500    0.000    0.000 
#    0.000    0.000    0.000    0.000    0.000    0.000 
#
# Total GULP energy -89251.002145 kJ/mol
# GULP energy per Si atom -5578.187634 kJ/mol
# Density = 2.481720 g / cm^3
# Si number density = 24.873817 Si / 1000 Ang^3
#
#
#
# Elastic Constant Matrix: (Units=GPa)
#
#
# Indices 1 2 3 4 5 6 
#
# 1 154.6132 81.1050 26.7072 -12.0516 -32.3226 24.5146
# 2 81.1050 184.6790 22.0028 -11.9787 -21.0107 10.0344
# 3 26.7072 22.0028 61.0321 -16.7923 -0.6148 16.2482
# 4 -12.0516 -11.9787 -16.7923 23.1656 11.8033 -14.8175
# 5 -32.3226 -21.0107 -0.6148 11.8033 38.0428 -10.7718
# 6 24.5146 10.0344 16.2482 -14.8175 -10.7718 59.3070
#
#
#
# Elastic Compliance Matrix: (Units=1/GPa)
#
#
# Indices 1 2 3 4 5 6 
#
# 1 0.010636 -0.003482 -0.003951 -0.004694 0.007804 -0.002480
# 2 -0.003482 0.007188 -0.000925 0.001445 0.000828 0.000988
# 3 -0.003951 -0.000925 0.023980 0.018621 -0.009798 -0.001907
# 4 -0.004694 0.001445 0.018621 0.073414 -0.022600 0.010832
# 5 0.007804 0.000828 -0.009798 -0.022600 0.040520 0.001032
# 6 -0.002480 0.000988 -0.001907 0.010832 0.001032 0.021135
#
#
# Mechanical properties :
#
#
# Convention : Reuss Voigt Hill
#
# Bulk Modulus (GPa) = 39.86110 73.32825 56.59468
# Shear Modulus (GPa) = 24.75844 42.13703 33.44774
#
# Velocity S-wave (km/s) = 3.15836 4.12033 3.67099
# Velocity P-wave (km/s) = 5.41853 7.22359 6.38516
#
# Compressibility (1/GPa) = 0.02508712
#
# Stress axis : x y z
#
# Youngs Moduli (GPa) = 94.02459 139.11283 41.70186
#
# Poissons Ratio (x) = 0.48438 0.16478
# Poissons Ratio (y) = 0.32738 0.03857
# Poissons Ratio (z) = 0.37154 0.12867
#
# Static dielectric constant tensor:
#      x y z
#    x 2.100110 -0.116290 0.117800 
#    y -0.116290 2.005790 -0.074080 
#    z 0.117800 -0.074080 2.181160 
# 
# From -- ./inp_files/395953.got.cif
#   From: 2010.05.17/outbox.cif.g08.bks.cpg/sg2_198_cif.got.tgz:395953.got - 2010.06.03 11:33:40.
