data_PCOD9073672
_publ_section_title
;
Structure prediction by ZEFSAII (Michael W. Deem and Ramdas Pophale) SiO2 
 PCOD9073672
Probable space group: P -1
;
_chemical_formula_sum "Si O2"
_cell_formula_units_Z 12
_cell_length_a 9.934154
_cell_length_b 8.919122
_cell_length_c 9.570296
_cell_angle_alpha 64.857472
_cell_angle_beta 97.181485
_cell_angle_gamma 45.096581
_cell_volume 407.159168
_symmetry_space_group_name_H-M "P -1"
_symmetry_group_IT_number 2
_symmetry_cell_setting 'triclinic'
loop_
_space_group_symop_operation_xyz
x,y,z
-x,-y,-z
loop_
_atom_site_type_symbol
_atom_site_label
_atom_site_fract_x
_atom_site_fract_y
_atom_site_fract_z
Si Si1 0.068463 0.535967 0.721064
Si Si2 0.358672 0.526883 0.648824
Si Si3 0.310429 0.033837 0.765638
Si Si4 0.601843 0.018452 0.666065
Si Si5 0.273814 0.550091 0.214530
Si Si6 0.896229 0.083159 0.180179
O O1 0.900862 0.734612 0.478559
O O2 0.263247 0.488947 0.762254
O O3 0.212489 0.218623 0.823751
O O4 0.880063 0.726303 0.751417
O O5 0.523126 0.254294 0.663559
O O6 0.524498 0.508143 0.727151
O O7 0.103794 0.869232 0.413712
O O8 0.526536 0.934989 0.778140
O O9 0.326316 0.819741 0.859788
O O10 0.411030 0.251423 0.417889
O O11 0.167797 0.677516 0.994921
O O12 0.050279 0.826624 0.180594
#
# Coordination Sequence:
#
# PCOD9073672 Si02
#       6
#     2   2   2   2   2   2
#     4   9  17  31  54  80 106 140 182 220 262 320
#     4   9  19  35  54  79 110 143 176 217 270 318
#     4   9  18  33  53  78 109 143 178 221 269 316
#     4  10  18  31  56  81 104 143 182 217 268 320
#     4  10  19  33  56  82 108 142 179 219 270 318
#     4   9  18  34  56  80 107 142 179 219 268 319
#
# _framework density 29.472501000000001
#
# number of rings (size 3 to 8) (size 9 to 14) (size 15 to 20)
#    0.000    2.667    0.000    5.500    0.000    0.667 
#    0.000    6.667    0.000   20.000    0.000    1.167 
#    0.000    1.333    0.000    0.000    0.000    0.000 
#
# Total GULP energy -67314.311411 kJ/mol
# GULP energy per Si atom -5609.525951 kJ/mol
# Density = 2.940542 g / cm^3
# Si number density = 29.472501 Si / 1000 Ang^3
#
#
#
# Elastic Constant Matrix: (Units=GPa)
#
#
# Indices 1 2 3 4 5 6 
#
# 1 181.9088 50.1421 59.2269 -6.8446 -10.6183 -11.7081
# 2 50.1421 220.8521 44.7139 -14.6816 -7.8792 -20.3155
# 3 59.2269 44.7139 124.8298 0.9532 -24.9832 6.2166
# 4 -6.8446 -14.6816 0.9532 35.1566 9.0306 -2.6895
# 5 -10.6183 -7.8792 -24.9832 9.0306 58.0152 -7.2151
# 6 -11.7081 -20.3155 6.2166 -2.6895 -7.2151 43.3628
#
#
#
# Elastic Compliance Matrix: (Units=1/GPa)
#
#
# Indices 1 2 3 4 5 6 
#
# 1 0.006886 -0.000644 -0.003180 0.001355 -0.000150 0.002072
# 2 -0.000644 0.005460 -0.001849 0.002471 -0.000213 0.002767
# 3 -0.003180 -0.001849 0.011163 -0.002959 0.004083 -0.002830
# 4 0.001355 0.002471 -0.002959 0.031388 -0.005200 0.003029
# 5 -0.000150 -0.000213 0.004083 -0.005200 0.020032 0.002285
# 6 0.002072 0.002767 -0.002830 0.003029 0.002285 0.025891
#
#
# Mechanical properties :
#
#
# Convention : Reuss Voigt Hill
#
# Bulk Modulus (GPa) = 82.22746 92.86186 87.54466
# Shear Modulus (GPa) = 43.02211 52.20742 47.61477
#
# Velocity S-wave (km/s) = 3.82480 4.21336 4.02377
# Velocity P-wave (km/s) = 6.88954 7.43278 7.16631
#
# Compressibility (1/GPa) = 0.01216139
#
# Stress axis : x y z
#
# Youngs Moduli (GPa) = 145.22762 183.15692 89.58455
#
# Poissons Ratio (x) = 0.11799 0.28486
# Poissons Ratio (y) = 0.09356 0.16568
# Poissons Ratio (z) = 0.46179 0.33873
#
# Static dielectric constant tensor:
#      x y z
#    x 2.233820 0.007560 0.003410 
#    y 0.007560 2.289770 0.004880 
#    z 0.003410 0.004880 2.315200 
# 
# From -- ./inp_files/425462.got.cif
#   From: 2010.05.17/outbox.cif.g08.bks.cpg/sg2_213_cif.got.tgz:425462.got - 2010.06.03 11:33:40.
