data_PCOD9073326
_publ_section_title
;
Structure prediction by ZEFSAII (Michael W. Deem and Ramdas Pophale) SiO2 
 PCOD9073326
Probable space group: P -1
;
_chemical_formula_sum "Si O2"
_cell_formula_units_Z 14
_cell_length_a 12.000000
_cell_length_b 12.000000
_cell_length_c 12.000000
_cell_angle_alpha 110.000000
_cell_angle_beta 90.000000
_cell_angle_gamma 30.000000
_cell_volume 630.239816
_symmetry_space_group_name_H-M "P -1"
_symmetry_group_IT_number 2
_symmetry_cell_setting 'triclinic'
loop_
_space_group_symop_operation_xyz
x,y,z
-x,-y,-z
loop_
_atom_site_type_symbol
_atom_site_label
_atom_site_fract_x
_atom_site_fract_y
_atom_site_fract_z
Si Si1 0.717862 0.787176 0.275177
Si Si2 0.383194 0.724755 0.770053
Si Si3 0.369925 0.371153 0.441067
Si Si4 0.116201 0.298703 0.526076
Si Si5 0.138312 0.706740 0.775694
Si Si6 0.094822 0.626535 0.971438
Si Si7 0.485669 0.391654 0.031470
O O1 0.922812 0.614381 0.320067
O O2 0.868169 0.548642 0.109465
O O3 0.578293 0.050194 0.327444
O O4 0.452664 0.970651 0.388311
O O5 0.513597 0.626533 0.618267
O O6 0.191853 0.794535 0.792156
O O7 0.572100 0.520363 0.809682
O O8 0.218823 0.009163 0.894876
O O9 0.293631 0.479207 0.603620
O O10 0.072469 0.631643 0.467843
O O11 0.000000 0.500000 0.500000
O O12 0.230873 0.567032 0.847796
O O13 0.795820 0.028668 0.884451
O O14 0.256585 0.518777 0.040462
O O15 0.500000 0.500000 0.000000
#
# Coordination Sequence:
#
# PCOD9073326 Si02
#       7
#     2   2   2   2   2   2   2
#     4  10  21  38  62  87 116 160 200 241 292 353
#     4  11  24  39  58  91 126 154 193 250 300 348
#     4  11  24  39  59  91 128 154 190 247 305 353
#     4   9  18  37  58  85 118 153 202 239 284 349
#     4  11  21  39  63  88 117 157 202 246 289 349
#     4  11  21  39  65  88 115 156 207 243 286 353
#     4  11  20  41  65  87 114 158 208 241 289 354
#
# _framework density 22.213766
#
# number of rings (size 3 to 8) (size 9 to 14) (size 15 to 20)
#    0.000    1.429    2.857    4.714    0.000    5.143 
#    0.000    2.143    0.000    0.000    0.000    0.000 
#    0.000    0.000    0.000    0.000    0.000    0.000 
#
# Total GULP energy -78039.593870 kJ/mol
# GULP energy per Si atom -5574.256705 kJ/mol
# Density = 2.216321 g / cm^3
# Si number density = 22.213766 Si / 1000 Ang^3
#
#
#
# Elastic Constant Matrix: (Units=GPa)
#
#
# Indices 1 2 3 4 5 6 
#
# 1 29.8605 20.9114 19.4062 -12.5590 5.4654 18.7830
# 2 20.9114 61.6058 11.0613 -16.2442 -0.1784 -1.6118
# 3 19.4062 11.0613 22.1598 0.5628 12.1299 8.2709
# 4 -12.5590 -16.2442 0.5628 11.1833 8.3589 13.5401
# 5 5.4654 -0.1784 12.1299 8.3589 34.7978 -4.1586
# 6 18.7830 -1.6118 8.2709 13.5401 -4.1586 27.9046
#
#
#
# Elastic Compliance Matrix: (Units=1/GPa)
#
#
# Indices 1 2 3 4 5 6 
#
# 1 0.014520 -0.014090 -0.029278 -0.057932 0.025352 0.029979
# 2 -0.014090 0.025110 -0.003459 0.012561 0.001253 0.006051
# 3 -0.029278 -0.003459 0.106247 0.025020 -0.042098 -0.030398
# 4 -0.057932 0.012561 0.025020 -0.014007 0.008633 0.040388
# 5 0.025352 0.001253 -0.042098 0.008633 0.036981 -0.003192
# 6 0.029979 0.006051 -0.030398 0.040388 -0.003192 0.004943
#
#
# Mechanical properties :
#
#
# Convention : Reuss Voigt Hill
#
# Bulk Modulus (GPa) = 19.14819 24.04267 21.59543
# Shear Modulus (GPa) = 17.55282 18.92696 18.23989
#
# Velocity S-wave (km/s) = 2.81406 2.92213 2.86861
# Velocity P-wave (km/s) = 4.38147 4.71508 4.55133
#
# Compressibility (1/GPa) = 0.05222426
#
# Stress axis : x y z
#
# Youngs Moduli (GPa) = 68.87099 39.82513 9.41206
#
# Poissons Ratio (x) = 0.56112 0.27556
# Poissons Ratio (y) = 0.97037 0.03255
# Poissons Ratio (z) = 2.01638 0.13774
#
# Static dielectric constant tensor:
#      x y z
#    x 1.812690 0.011440 -0.042020 
#    y 0.011440 1.892760 -0.028500 
#    z -0.042020 -0.028500 1.882770 
# 
# From -- ./inp_files/60362.got.cif
#   From: 2010.05.17/outbox.ucp.g08.bks.cvg/sg2_31_cif.got.tgz:60362.got - 2010.06.11 11:32:03.
