data_PCOD9073052
_publ_section_title
;
Structure prediction by ZEFSAII (Michael W. Deem and Ramdas Pophale) SiO2 
 PCOD9073052
Probable space group: P -1
;
_chemical_formula_sum "Si O2"
_cell_formula_units_Z 14
_cell_length_a 21.000000
_cell_length_b 12.000000
_cell_length_c 15.000000
_cell_angle_alpha 150.000000
_cell_angle_beta 160.000000
_cell_angle_gamma 30.000000
_cell_volume 615.533390
_symmetry_space_group_name_H-M "P -1"
_symmetry_group_IT_number 2
_symmetry_cell_setting 'triclinic'
loop_
_space_group_symop_operation_xyz
x,y,z
-x,-y,-z
loop_
_atom_site_type_symbol
_atom_site_label
_atom_site_fract_x
_atom_site_fract_y
_atom_site_fract_z
Si Si1 0.455805 0.311610 0.373900
Si Si2 0.822846 0.349902 0.619989
Si Si3 0.223685 0.947348 0.240591
Si Si4 0.803975 0.028041 0.067855
Si Si5 0.566769 0.138820 0.015868
Si Si6 0.675460 0.407924 0.031059
Si Si7 0.270796 0.306151 0.410562
O O1 0.500000 0.500000 0.500000
O O2 0.284292 0.448421 0.310880
O O3 0.632567 0.153520 0.558139
O O4 0.417080 0.125442 0.126321
O O5 0.665706 0.237303 0.294221
O O6 0.874385 0.476784 0.686078
O O7 0.993998 0.155800 0.760774
O O8 0.266287 0.734468 0.080451
O O9 0.234318 0.178471 0.362606
O O10 0.000000 0.000000 0.000000
O O11 0.682867 0.106987 0.052728
O O12 0.807480 0.262617 0.183045
O O13 0.701558 0.898427 0.770733
O O14 0.356150 0.321304 0.841453
O O15 0.454470 0.391096 0.738131
#
# Coordination Sequence:
#
# PCOD9073052 Si02
#       7
#     2   2   2   2   2   2   2
#     4  12  27  45  69  92 136 184 215 271 348 395
#     4  11  24  42  67 104 133 169 229 279 323 395
#     4  11  23  42  67 101 135 177 227 270 330 396
#     4  11  20  35  68 103 130 167 219 279 334 377
#     4  11  22  43  67  95 133 174 223 270 336 394
#     4  10  21  41  69  96 135 173 227 278 322 400
#     4  10  20  40  70  95 134 177 219 278 322 391
#
# _framework density 22.744501
#
# number of rings (size 3 to 8) (size 9 to 14) (size 15 to 20)
#    0.000    1.143    4.286    3.857    4.000    1.714 
#    0.000    2.143    0.000    0.000    0.000    0.000 
#    0.000    0.000    0.000    0.000    0.000    0.000 
#
# Total GULP energy -78058.372348 kJ/mol
# GULP energy per Si atom -5575.598025 kJ/mol
# Density = 2.269273 g / cm^3
# Si number density = 22.744501 Si / 1000 Ang^3
#
#
#
# Elastic Constant Matrix: (Units=GPa)
#
#
# Indices 1 2 3 4 5 6 
#
# 1 33.4430 20.1662 25.9869 7.0487 10.7841 36.7298
# 2 20.1662 156.6460 64.5697 9.1027 -2.8468 29.8848
# 3 25.9869 64.5697 31.7157 -7.5568 -2.9662 10.4106
# 4 7.0487 9.1027 -7.5568 43.6470 5.7935 -12.6168
# 5 10.7841 -2.8468 -2.9662 5.7935 15.7798 -12.9666
# 6 36.7298 29.8848 10.4106 -12.6168 -12.9666 27.6093
#
#
#
# Elastic Compliance Matrix: (Units=1/GPa)
#
#
# Indices 1 2 3 4 5 6 
#
# 1 0.000760 -0.013129 0.025228 0.009303 0.008082 0.011735
# 2 -0.013129 0.018168 -0.031204 -0.004880 0.023133 0.018201
# 3 0.025228 -0.031204 0.089530 0.009301 -0.054599 -0.054936
# 4 0.009303 -0.004880 0.009301 0.024085 -0.022797 -0.010301
# 5 0.008082 0.023133 -0.054599 -0.022797 0.063631 0.004262
# 6 0.011735 0.018201 -0.054936 -0.010301 0.004262 0.018915
#
#
# Mechanical properties :
#
#
# Convention : Reuss Voigt Hill
#
# Bulk Modulus (GPa) = 14.23560 49.25003 31.74281
# Shear Modulus (GPa) = 18.06910 24.81268 21.44089
#
# Velocity S-wave (km/s) = 2.82164 3.30651 3.07365
# Velocity P-wave (km/s) = 4.10950 6.02312 5.15587
#
# Compressibility (1/GPa) = 0.07024643
#
# Stress axis : x y z
#
# Youngs Moduli (GPa) = 1316.60786 55.04160 11.16945
#
# Poissons Ratio (x) = 0.72267 -0.28178
# Poissons Ratio (y) = 17.28632 0.34853
# Poissons Ratio (z) = -33.21556 1.71753
#
# Static dielectric constant tensor:
#      x y z
#    x 1.845400 0.026220 0.043770 
#    y 0.026220 1.931470 0.082480 
#    z 0.043770 0.082480 1.895420 
# 
# From -- ./inp_files/541199.got.cif
#   From: 2010.05.17/outbox.ucp.g08.bks.cvg/sg2_271_cif.got.tgz:541199.got - 2010.06.11 11:32:03.
