data_PCOD9073532
_publ_section_title
;
Structure prediction by ZEFSAII (Michael W. Deem and Ramdas Pophale) SiO2 
 PCOD9073532
Probable space group: P -1
;
_chemical_formula_sum "Si O2"
_cell_formula_units_Z 16
_cell_length_a 18.880010
_cell_length_b 9.895223
_cell_length_c 11.685228
_cell_angle_alpha 105.759016
_cell_angle_beta 78.322358
_cell_angle_gamma 36.781402
_cell_volume 861.496079
_symmetry_space_group_name_H-M "P -1"
_symmetry_group_IT_number 2
_symmetry_cell_setting 'triclinic'
loop_
_space_group_symop_operation_xyz
x,y,z
-x,-y,-z
loop_
_atom_site_type_symbol
_atom_site_label
_atom_site_fract_x
_atom_site_fract_y
_atom_site_fract_z
Si Si1 0.671549 0.813196 0.193935
Si Si2 0.996610 0.353642 0.410133
Si Si3 0.617507 0.428089 0.944269
Si Si4 0.861980 0.296160 0.521433
Si Si5 0.752733 0.343229 0.096760
Si Si6 0.488032 0.162000 0.112163
Si Si7 0.302802 0.471287 0.592730
Si Si8 0.886259 0.454354 0.236977
O O1 0.729722 0.546725 0.114885
O O2 0.816233 0.635301 0.181710
O O3 0.640430 0.914310 0.097176
O O4 0.487598 0.154272 0.397979
O O5 0.000000 0.500000 0.500000
O O6 0.887834 0.418369 0.520266
O O7 0.929439 0.483619 0.331382
O O8 0.189704 0.951778 0.245969
O O9 0.537464 0.672410 0.933207
O O10 0.500000 0.500000 0.000000
O O11 0.635664 0.464363 0.072785
O O12 0.682614 0.565678 0.696062
O O13 0.850194 0.244782 0.387239
O O14 0.000000 0.000000 0.500000
O O15 0.707821 0.416921 0.263495
O O16 0.946388 0.940560 0.926596
O O17 0.500000 0.000000 0.000000
O O18 0.266574 0.377093 0.627529
#
# Coordination Sequence:
#
# PCOD9073532 Si02
#       8
#     2   2   2   2   2   2   2   2
#     4  10  18  31  55  82 113 139 185 235 276 326
#     4  10  22  38  59  83 113 153 193 228 280 339
#     4  11  24  38  58  83 117 152 189 232 285 344
#     4  10  20  37  59  84 116 145 189 238 277 332
#     4  10  18  33  53  80 111 147 185 229 273 333
#     4  11  22  36  58  88 116 147 187 235 291 328
#     4   9  18  28  52  83 107 141 185 226 279 321
#     4   9  18  31  52  82 110 146 186 226 277 331
#
# _framework density 18.572341999999999
#
# number of rings (size 3 to 8) (size 9 to 14) (size 15 to 20)
#    0.000    2.000    2.500    3.000    1.750    3.000 
#    0.000    0.000    2.750    3.750    0.000    0.000 
#    0.000    0.000    0.000    0.000    0.000    0.000 
#
# Total GULP energy -89111.465041 kJ/mol
# GULP energy per Si atom -5569.466565 kJ/mol
# Density = 1.853007 g / cm^3
# Si number density = 18.572342 Si / 1000 Ang^3
#
#
#
# Elastic Constant Matrix: (Units=GPa)
#
#
# Indices 1 2 3 4 5 6 
#
# 1 100.1933 68.8176 28.2907 -16.2789 22.9945 -11.7589
# 2 68.8176 177.7723 39.8441 -22.6040 22.7721 -38.1985
# 3 28.2907 39.8441 51.5834 -15.9035 23.1202 -7.0963
# 4 -16.2789 -22.6040 -15.9035 24.0689 -8.0444 4.3816
# 5 22.9945 22.7721 23.1202 -8.0444 33.2410 -10.3866
# 6 -11.7589 -38.1985 -7.0963 4.3816 -10.3866 33.1414
#
#
#
# Elastic Compliance Matrix: (Units=1/GPa)
#
#
# Indices 1 2 3 4 5 6 
#
# 1 0.015529 -0.005226 -0.000858 0.003359 -0.006772 -0.003264
# 2 -0.005226 0.010853 -0.004763 0.002763 0.003390 0.010332
# 3 -0.000858 -0.004763 0.035464 0.012939 -0.019566 -0.006044
# 4 0.003359 0.002763 0.012939 0.055003 0.000062 -0.000106
# 5 -0.006772 0.003390 -0.019566 0.000062 0.050138 0.013020
# 6 -0.003264 0.010332 -0.006044 -0.000106 0.013020 0.043725
#
#
# Mechanical properties :
#
#
# Convention : Reuss Voigt Hill
#
# Bulk Modulus (GPa) = 24.90595 67.05043 45.97819
# Shear Modulus (GPa) = 20.34248 30.93005 25.63626
#
# Velocity S-wave (km/s) = 3.31314 4.08534 3.71933
# Velocity P-wave (km/s) = 5.29860 7.64421 6.57682
#
# Compressibility (1/GPa) = 0.04015104
#
# Stress axis : x y z
#
# Youngs Moduli (GPa) = 64.39376 92.14178 28.19774
#
# Poissons Ratio (x) = 0.48152 0.02421
# Poissons Ratio (y) = 0.33651 0.13431
# Poissons Ratio (z) = 0.05528 0.43889
#
# Static dielectric constant tensor:
#      x y z
#    x 1.627050 -0.061490 0.001810 
#    y -0.061490 1.707060 -0.020700 
#    z 0.001810 -0.020700 1.666120 
# 
# From -- ./inp_files/185966.got.cif
#   From: 2010.05.17/outbox.cif.g08.bks.cpg/sg2_93_cif.got.tgz:185966.got - 2010.06.03 11:33:40.
