data_PCOD9073654
_publ_section_title
;
Structure prediction by ZEFSAII (Michael W. Deem and Ramdas Pophale) SiO2 
 PCOD9073654
Probable space group: P -1
;
_chemical_formula_sum "Si O2"
_cell_formula_units_Z 16
_cell_length_a 12.000000
_cell_length_b 9.000000
_cell_length_c 15.000000
_cell_angle_alpha 50.000000
_cell_angle_beta 110.000000
_cell_angle_gamma 70.000000
_cell_volume 728.972637
_symmetry_space_group_name_H-M "P -1"
_symmetry_group_IT_number 2
_symmetry_cell_setting 'triclinic'
loop_
_space_group_symop_operation_xyz
x,y,z
-x,-y,-z
loop_
_atom_site_type_symbol
_atom_site_label
_atom_site_fract_x
_atom_site_fract_y
_atom_site_fract_z
Si Si1 0.870280 0.210404 0.490809
Si Si2 0.135840 0.158076 0.806438
Si Si3 0.288039 0.855962 0.780716
Si Si4 0.258814 0.426023 0.401964
Si Si5 0.508379 0.826013 0.268530
Si Si6 0.293664 0.969413 0.532773
Si Si7 0.325294 0.680747 0.196474
Si Si8 0.690937 0.703429 0.112035
O O1 0.706895 0.515046 0.391923
O O2 0.853701 0.998364 0.560960
O O3 0.785301 0.391786 0.300711
O O4 0.083136 0.001670 0.658021
O O5 0.162228 0.320260 0.807173
O O6 0.916628 0.390518 0.651299
O O7 0.237241 0.045753 0.782124
O O8 0.224812 0.880777 0.001571
O O9 0.308024 0.923434 0.662098
O O10 0.500000 0.500000 0.000000
O O11 0.440109 0.212666 0.599023
O O12 0.226064 0.657781 0.244440
O O13 0.263154 0.236181 0.410971
O O14 0.380974 0.800624 0.221658
O O15 0.388570 0.157540 0.063131
O O16 0.485939 0.663691 0.654519
O O17 0.500000 0.000000 0.000000
#
# Coordination Sequence:
#
# PCOD9073654 Si02
#       8
#     2   2   2   2   2   2   2   2
#     4  10  21  42  61  91 135 169 199 256 330 383
#     4  11  23  41  63  98 124 165 217 263 314 373
#     4  12  24  39  65  93 131 164 214 260 321 384
#     4  12  23  40  68  95 125 168 221 262 298 379
#     4   9  20  38  67  96 121 165 216 263 309 372
#     4  11  25  39  63  94 129 171 204 259 324 378
#     4  10  22  45  63  90 131 173 208 257 322 369
#     4   9  20  37  64  90 133 160 200 261 320 381
#
# _framework density 21.948698
#
# number of rings (size 3 to 8) (size 9 to 14) (size 15 to 20)
#    0.000    1.500    2.500    3.000    3.500    1.000 
#    0.000    0.000    0.000    0.750    0.000    0.000 
#    0.000    0.000    0.000    0.000    0.000    0.000 
#
# Total GULP energy -89270.807841 kJ/mol
# GULP energy per Si atom -5579.425490 kJ/mol
# Density = 2.189874 g / cm^3
# Si number density = 21.948698 Si / 1000 Ang^3
#
#
#
# Elastic Constant Matrix: (Units=GPa)
#
#
# Indices 1 2 3 4 5 6 
#
# 1 71.7206 13.3878 18.3072 -2.2845 -0.3303 17.0406
# 2 13.3878 64.3943 2.8179 1.4849 -0.3086 11.5111
# 3 18.3072 2.8179 66.7630 6.9248 10.2018 27.2992
# 4 -2.2845 1.4849 6.9248 29.5671 -2.9892 -0.6384
# 5 -0.3303 -0.3086 10.2018 -2.9892 30.0484 -0.4752
# 6 17.0406 11.5111 27.2992 -0.6384 -0.4752 29.6653
#
#
#
# Elastic Compliance Matrix: (Units=1/GPa)
#
#
# Indices 1 2 3 4 5 6 
#
# 1 0.016527 -0.002179 -0.002008 0.001803 0.000914 -0.006747
# 2 -0.002179 0.017556 0.004287 -0.002432 -0.001693 -0.009585
# 3 -0.002008 0.004287 0.029461 -0.009019 -0.011320 -0.027997
# 4 0.001803 -0.002432 -0.009019 0.037089 0.006891 0.009116
# 5 0.000914 -0.001693 -0.011320 0.006891 0.037980 0.011306
# 6 -0.006747 -0.009585 -0.027997 0.009116 0.011306 0.067445
#
#
# Mechanical properties :
#
#
# Convention : Reuss Voigt Hill
#
# Bulk Modulus (GPa) = 15.68790 30.21152 22.94971
# Shear Modulus (GPa) = 22.01605 29.08050 25.54828
#
# Velocity S-wave (km/s) = 3.17056 3.64391 3.41545
# Velocity P-wave (km/s) = 4.53501 5.61236 5.10220
#
# Compressibility (1/GPa) = 0.06374340
#
# Stress axis : x y z
#
# Youngs Moduli (GPa) = 60.50708 56.96006 33.94298
#
# Poissons Ratio (x) = 0.12413 0.06815
# Poissons Ratio (y) = 0.13186 -0.14550
# Poissons Ratio (z) = 0.12149 -0.24417
#
# Static dielectric constant tensor:
#      x y z
#    x 1.879770 0.034120 0.019980 
#    y 0.034120 1.841930 -0.025840 
#    z 0.019980 -0.025840 1.819880 
# 
# From -- ./inp_files/222652.got.cif
#   From: 2010.05.17/outbox.ucp.g08.bks.cvg/sg2_112_cif.got.tgz:222652.got - 2010.06.11 11:32:03.
