data_PCOD9073860
_publ_section_title
;
Structure prediction by ZEFSAII (Michael W. Deem and Ramdas Pophale) SiO2 
 PCOD9073860
Probable space group: P -1
;
_chemical_formula_sum "Si O2"
_cell_formula_units_Z 16
_cell_length_a 15.000000
_cell_length_b 12.000000
_cell_length_c 9.000000
_cell_angle_alpha 130.000000
_cell_angle_beta 70.000000
_cell_angle_gamma 70.000000
_cell_volume 728.972637
_symmetry_space_group_name_H-M "P -1"
_symmetry_group_IT_number 2
_symmetry_cell_setting 'triclinic'
loop_
_space_group_symop_operation_xyz
x,y,z
-x,-y,-z
loop_
_atom_site_type_symbol
_atom_site_label
_atom_site_fract_x
_atom_site_fract_y
_atom_site_fract_z
Si Si1 0.334044 0.080709 0.299814
Si Si2 0.157351 0.998375 0.853380
Si Si3 0.464126 0.371766 0.408876
Si Si4 0.823420 0.514177 0.830875
Si Si5 0.699367 0.960779 0.393538
Si Si6 0.416266 0.255576 0.609036
Si Si7 0.109649 0.277178 0.357245
Si Si8 0.808182 0.378745 0.418140
O O1 0.273722 0.076870 0.479389
O O2 0.412140 0.126427 0.378915
O O3 0.206199 0.261858 0.401477
O O4 0.435464 0.844103 0.948308
O O5 0.245528 0.953072 0.624390
O O6 0.186400 0.794592 0.679816
O O7 0.202740 0.053043 0.009459
O O8 0.975308 0.228901 0.147107
O O9 0.500000 0.500000 0.500000
O O10 0.467701 0.324723 0.537959
O O11 0.300450 0.509588 0.563971
O O12 0.762463 0.528690 0.718659
O O13 0.003945 0.294198 0.527079
O O14 0.792706 0.721369 0.054196
O O15 0.744575 0.538825 0.040153
O O16 0.532017 0.117509 0.564628
O O17 0.000000 0.500000 0.500000
#
# Coordination Sequence:
#
# PCOD9073860 Si02
#       8
#     2   2   2   2   2   2   2   2
#     4  11  25  40  63  94 122 164 205 259 308 365
#     4  10  22  40  65  90 125 163 206 255 305 364
#     4  12  25  40  63  90 127 163 211 251 307 370
#     4  10  22  38  62  90 122 159 203 254 304 367
#     4  11  21  41  62  91 127 160 207 255 308 364
#     4  11  24  39  63  90 129 161 206 257 304 368
#     4  11  22  39  65  92 126 158 208 257 305 365
#     4  10  22  40  63  91 123 167 207 247 309 370
#
# _framework density 21.948698
#
# number of rings (size 3 to 8) (size 9 to 14) (size 15 to 20)
#    0.000    1.250    1.250    5.625    3.500    4.000 
#    0.000    2.500    0.000    6.000    0.000    0.000 
#    0.000    0.000    0.000    0.000    0.000    0.000 
#
# Total GULP energy -89128.621470 kJ/mol
# GULP energy per Si atom -5570.538842 kJ/mol
# Density = 2.189874 g / cm^3
# Si number density = 21.948698 Si / 1000 Ang^3
#
#
#
# Elastic Constant Matrix: (Units=GPa)
#
#
# Indices 1 2 3 4 5 6 
#
# 1 86.0306 42.8060 -5.1548 -8.0020 -5.2246 -11.5582
# 2 42.8060 73.7158 34.0635 -7.6155 -5.1328 -5.5923
# 3 -5.1548 34.0635 55.1894 -20.0681 -7.3896 4.3035
# 4 -8.0020 -7.6155 -20.0681 19.8307 -2.7665 -2.9205
# 5 -5.2246 -5.1328 -7.3896 -2.7665 19.8679 -10.7172
# 6 -11.5582 -5.5923 4.3035 -2.9205 -10.7172 46.5969
#
#
#
# Elastic Compliance Matrix: (Units=1/GPa)
#
#
# Indices 1 2 3 4 5 6 
#
# 1 0.058850 -0.056297 0.079854 0.093169 0.053665 0.018648
# 2 -0.056297 0.074027 -0.091642 -0.096244 -0.050911 -0.014358
# 3 0.079854 -0.091642 0.154309 0.170026 0.092706 0.026536
# 4 0.093169 -0.096244 0.170026 0.245176 0.117666 0.038286
# 5 0.053665 -0.050911 0.092706 0.117666 0.120329 0.033690
# 6 0.018648 -0.014358 0.026536 0.038286 0.033690 0.032061
#
#
# Mechanical properties :
#
#
# Convention : Reuss Voigt Hill
#
# Bulk Modulus (GPa) = 6.62183 39.81834 23.22008
# Shear Modulus (GPa) = 5.73882 26.80719 16.27300
#
# Velocity S-wave (km/s) = 1.61874 3.49858 2.72584
# Velocity P-wave (km/s) = 2.55290 5.87376 4.52870
#
# Compressibility (1/GPa) = 0.15101574
#
# Stress axis : x y z
#
# Youngs Moduli (GPa) = 16.99225 13.50867 6.48052
#
# Poissons Ratio (x) = 0.76050 -0.51749
# Poissons Ratio (y) = 0.95661 0.59388
# Poissons Ratio (z) = -1.35689 1.23796
#
# Static dielectric constant tensor:
#      x y z
#    x 1.829500 0.007330 -0.102760 
#    y 0.007330 1.872190 0.068920 
#    z -0.102760 0.068920 1.922650 
# 
# From -- ./inp_files/308513.got.cif
#   From: 2010.05.17/outbox.ucp.g08.bks.cvg/sg2_155_cif.got.tgz:308513.got - 2010.06.11 11:32:03.
