data_PCOD9073173
_publ_section_title
;
Structure prediction by ZEFSAII (Michael W. Deem and Ramdas Pophale) SiO2 
 PCOD9073173
Probable space group: P -1
;
_chemical_formula_sum "Si O2"
_cell_formula_units_Z 16
_cell_length_a 15.000000
_cell_length_b 9.000000
_cell_length_c 15.000000
_cell_angle_alpha 140.000000
_cell_angle_beta 50.000000
_cell_angle_gamma 140.000000
_cell_volume 828.970839
_symmetry_space_group_name_H-M "P -1"
_symmetry_group_IT_number 2
_symmetry_cell_setting 'triclinic'
loop_
_space_group_symop_operation_xyz
x,y,z
-x,-y,-z
loop_
_atom_site_type_symbol
_atom_site_label
_atom_site_fract_x
_atom_site_fract_y
_atom_site_fract_z
Si Si1 0.502964 0.900523 0.164113
Si Si2 0.515741 0.756488 0.411106
Si Si3 0.682160 0.481593 0.399070
Si Si4 0.230501 0.883970 0.348115
Si Si5 0.829384 0.198692 0.447449
Si Si6 0.100312 0.231171 0.318217
Si Si7 0.597604 0.569563 0.840514
Si Si8 0.002405 0.211752 0.665150
O O1 0.352222 0.848628 0.222536
O O2 0.480609 0.717483 0.183589
O O3 0.601038 0.233619 0.265894
O O4 0.558752 0.775713 0.000190
O O5 0.421806 0.642028 0.506775
O O6 0.455209 0.517924 0.266623
O O7 0.500000 0.000000 0.500000
O O8 0.682247 0.917517 0.391253
O O9 0.836391 0.535997 0.324670
O O10 0.713434 0.792023 0.518092
O O11 0.173953 0.754642 0.422436
O O12 0.111637 0.747953 0.286626
O O13 0.847456 0.480272 0.527599
O O14 0.960508 0.176131 0.335287
O O15 0.235572 0.297050 0.206503
O O16 0.049479 0.964955 0.291455
O O17 0.000000 0.000000 0.500000
#
# Coordination Sequence:
#
# PCOD9073173 Si02
#       8
#     2   2   2   2   2   2   2   2
#     4  11  23  41  61  88 120 168 197 247 306 360
#     4  12  21  37  60  95 117 154 204 254 291 348
#     4  11  21  37  63  90 122 154 203 246 302 354
#     4  11  20  38  60  96 119 157 201 253 297 358
#     4  11  22  33  64  92 120 150 209 253 290 348
#     4  11  20  39  56  93 120 161 197 249 299 357
#     4  11  23  41  62  85 127 158 203 248 304 358
#     4  10  21  33  59  89 126 154 191 253 306 346
#
# _framework density 19.301041000000001
#
# number of rings (size 3 to 8) (size 9 to 14) (size 15 to 20)
#    0.000    1.000    7.500    1.875    0.000    0.000 
#    0.000    4.375    0.000    3.000    0.000    0.000 
#    0.000    0.000    0.000    0.000    0.000    0.000 
#
# Total GULP energy -89166.755808 kJ/mol
# GULP energy per Si atom -5572.922238 kJ/mol
# Density = 1.925711 g / cm^3
# Si number density = 19.301041 Si / 1000 Ang^3
#
#
#
# Elastic Constant Matrix: (Units=GPa)
#
#
# Indices 1 2 3 4 5 6 
#
# 1 92.4678 31.4927 39.4822 -5.8087 -19.8237 33.4861
# 2 31.4927 82.6430 19.8968 -6.1539 -0.8567 32.5161
# 3 39.4822 19.8968 105.3054 -13.4614 -18.5306 16.6648
# 4 -5.8087 -6.1539 -13.4614 15.1278 3.4996 -6.8663
# 5 -19.8237 -0.8567 -18.5306 3.4996 24.9679 -8.6947
# 6 33.4861 32.5161 16.6648 -6.8663 -8.6947 28.5558
#
#
#
# Elastic Compliance Matrix: (Units=1/GPa)
#
#
# Indices 1 2 3 4 5 6 
#
# 1 0.022287 0.002349 -0.004546 -0.007860 0.006417 -0.026093
# 2 0.002349 0.024489 -0.002573 -0.004155 -0.010198 -0.033242
# 3 -0.004546 -0.002573 0.013313 0.009735 0.006493 0.004809
# 4 -0.007860 -0.004155 0.009735 0.082965 -0.001075 0.027889
# 5 0.006417 -0.010198 0.006493 -0.001075 0.055684 0.016994
# 6 -0.026093 -0.033242 0.004809 0.027889 0.016994 0.112543
#
#
# Mechanical properties :
#
#
# Convention : Reuss Voigt Hill
#
# Bulk Modulus (GPa) = 19.78289 51.35107 35.56698
# Shear Modulus (GPa) = 14.80741 26.36658 20.58700
#
# Velocity S-wave (km/s) = 2.77281 3.70005 3.26947
# Velocity P-wave (km/s) = 4.53025 6.70201 5.72014
#
# Compressibility (1/GPa) = 0.05054872
#
# Stress axis : x y z
#
# Youngs Moduli (GPa) = 44.86973 40.83541 75.11630
#
# Poissons Ratio (x) = -0.09593 0.34149
# Poissons Ratio (y) = -0.10541 0.19325
# Poissons Ratio (z) = 0.20399 0.10506
#
# Static dielectric constant tensor:
#      x y z
#    x 1.834400 -0.021990 -0.001720 
#    y -0.021990 1.778000 0.001650 
#    z -0.001720 0.001650 1.619700 
# 
# From -- ./inp_files/354327.got.cif
#   From: 2010.05.17/outbox.ucp.g08.bks.cvg/sg2_178_cif.got.tgz:354327.got - 2010.06.11 11:32:03.
