data_PCOD9073642
_publ_section_title
;
Structure prediction by ZEFSAII (Michael W. Deem and Ramdas Pophale) SiO2 
 PCOD9073642
Probable space group: P -1
;
_chemical_formula_sum "Si O2"
_cell_formula_units_Z 15
_cell_length_a 15.000000
_cell_length_b 15.000000
_cell_length_c 6.000000
_cell_angle_alpha 110.000000
_cell_angle_beta 70.000000
_cell_angle_gamma 150.000000
_cell_volume 631.268861
_symmetry_space_group_name_H-M "P -1"
_symmetry_group_IT_number 2
_symmetry_cell_setting 'triclinic'
loop_
_space_group_symop_operation_xyz
x,y,z
-x,-y,-z
loop_
_atom_site_type_symbol
_atom_site_label
_atom_site_fract_x
_atom_site_fract_y
_atom_site_fract_z
Si Si1 0.022492 0.202397 0.926299
Si Si2 0.180091 0.593616 0.757961
Si Si3 0.303078 0.110108 0.793102
Si Si4 0.405929 0.321605 0.488590
Si Si5 0.640934 0.393103 0.065941
Si Si6 0.538145 0.940024 0.564530
Si Si7 0.162220 0.778083 0.129765
Si Si8 0.000000 0.000000 0.500000
O O1 0.894152 0.171378 0.890848
O O2 0.205145 0.411846 0.009705
O O3 0.071123 0.159545 0.680826
O O4 0.903988 0.058650 0.102796
O O5 0.262123 0.619258 0.939298
O O6 0.345000 0.726022 0.563232
O O7 0.995006 0.381567 0.693982
O O8 0.145019 0.675402 0.886742
O O9 0.349960 0.241359 0.716076
O O10 0.321293 0.022225 0.590540
O O11 0.462036 0.234566 0.941097
O O12 0.500000 0.500000 0.500000
O O13 0.558962 0.375800 0.337204
O O14 0.213202 0.149954 0.384153
O O15 0.500000 0.000000 0.500000
O O16 0.637158 0.054306 0.805466
#
# Coordination Sequence:
#
# PCOD9073642 Si02
#       8
#     2   2   2   2   2   2   2   1
#     4  11  24  44  70  99 133 181 225 283 336 398
#     4  10  21  41  69  95 135 185 213 276 338 393
#     4  12  26  43  70 102 136 172 230 280 333 407
#     4  12  26  47  70  97 133 181 224 281 341 397
#     4  11  23  47  69  99 138 175 226 274 341 406
#     4  12  23  37  64 102 138 178 221 274 334 401
#     4  10  22  41  67  97 137 178 226 270 335 401
#     4  12  24  46  72  92 138 174 224 284 340 386
#
# _framework density 23.761666000000002
#
# number of rings (size 3 to 8) (size 9 to 14) (size 15 to 20)
#    0.000    0.800    4.000    3.600    0.000    3.733 
#    0.000    0.000    0.000    0.000    0.000    0.000 
#    0.000    0.000    0.000    0.000    0.000    0.000 
#
# Total GULP energy -83506.107248 kJ/mol
# GULP energy per Si atom -5567.073817 kJ/mol
# Density = 2.370758 g / cm^3
# Si number density = 23.761666 Si / 1000 Ang^3
#
#
#
# Elastic Constant Matrix: (Units=GPa)
#
#
# Indices 1 2 3 4 5 6 
#
# 1 82.8844 7.1628 8.2749 -5.0985 -20.4355 -9.6004
# 2 7.1628 126.9501 15.1247 -19.3858 -1.9517 10.9356
# 3 8.2749 15.1247 17.6690 -11.4983 -14.5513 -6.9041
# 4 -5.0985 -19.3858 -11.4983 34.3578 1.5484 -5.0772
# 5 -20.4355 -1.9517 -14.5513 1.5484 27.4650 -3.4086
# 6 -9.6004 10.9356 -6.9041 -5.0772 -3.4086 50.2162
#
#
#
# Elastic Compliance Matrix: (Units=1/GPa)
#
#
# Indices 1 2 3 4 5 6 
#
# 1 0.019720 -0.004100 0.037045 0.013429 0.034924 0.013484
# 2 -0.004100 0.011536 -0.030829 -0.004922 -0.019448 -0.009352
# 3 0.037045 -0.030829 0.341874 0.105680 0.211196 0.085820
# 4 0.013429 -0.004922 0.105680 0.065047 0.065589 0.029198
# 5 0.034924 -0.019448 0.211196 0.065589 0.176478 0.058559
# 6 0.013484 -0.009352 0.085820 0.029198 0.058559 0.043255
#
#
# Mechanical properties :
#
#
# Convention : Reuss Voigt Hill
#
# Bulk Modulus (GPa) = 2.64998 32.06982 17.35990
# Shear Modulus (GPa) = 6.41465 35.53720 20.97593
#
# Velocity S-wave (km/s) = 1.64482 3.87145 2.97436
# Velocity P-wave (km/s) = 2.17368 5.78878 4.37235
#
# Compressibility (1/GPa) = 0.37736186
#
# Stress axis : x y z
#
# Youngs Moduli (GPa) = 50.71093 86.68218 2.92505
#
# Poissons Ratio (x) = 0.35540 -0.10836
# Poissons Ratio (y) = 0.20792 0.09018
# Poissons Ratio (z) = -1.87857 2.67231
#
# Static dielectric constant tensor:
#      x y z
#    x 1.861760 -0.030070 -0.020540 
#    y -0.030070 1.939190 -0.028560 
#    z -0.020540 -0.028560 2.118550 
# 
# From -- ./inp_files/98413.got.cif
#   From: 2010.05.17/outbox.ucp.g08.bks.cvg/sg2_50_cif.got.tgz:98413.got - 2010.06.11 11:32:03.
