data_PCOD9073135
_publ_section_title
;
Structure prediction by ZEFSAII (Michael W. Deem and Ramdas Pophale) SiO2 
 PCOD9073135
Probable space group: P -1
;
_chemical_formula_sum "Si O2"
_cell_formula_units_Z 16
_cell_length_a 15.000000
_cell_length_b 12.000000
_cell_length_c 12.000000
_cell_angle_alpha 120.000000
_cell_angle_beta 100.000000
_cell_angle_gamma 30.000000
_cell_volume 748.962810
_symmetry_space_group_name_H-M "P -1"
_symmetry_group_IT_number 2
_symmetry_cell_setting 'triclinic'
loop_
_space_group_symop_operation_xyz
x,y,z
-x,-y,-z
loop_
_atom_site_type_symbol
_atom_site_label
_atom_site_fract_x
_atom_site_fract_y
_atom_site_fract_z
Si Si1 0.103347 0.791438 0.664446
Si Si2 0.203263 0.175446 0.546224
Si Si3 0.198532 0.383274 0.472430
Si Si4 0.790886 0.762692 0.167969
Si Si5 0.570206 0.538592 0.603032
Si Si6 0.598215 0.473789 0.842781
Si Si7 0.395303 0.288006 0.881884
Si Si8 0.354809 0.535274 0.798810
O O1 0.235732 0.484895 0.545467
O O2 0.197315 0.731613 0.542324
O O3 0.168632 0.783668 0.786530
O O4 0.840717 0.115545 0.759329
O O5 0.208027 0.310922 0.560817
O O6 0.148980 0.267934 0.709313
O O7 0.023971 0.339938 0.510021
O O8 0.427835 0.803536 0.388192
O O9 0.368154 0.073867 0.287481
O O10 0.727040 0.691729 0.116236
O O11 0.597719 0.119234 0.272774
O O12 0.000000 0.500000 0.000000
O O13 0.500000 0.500000 0.500000
O O14 0.595199 0.482922 0.712138
O O15 0.420797 0.590032 0.889237
O O16 0.570968 0.652377 0.980362
O O17 0.305438 0.494509 0.864083
#
# Coordination Sequence:
#
# PCOD9073135 Si02
#       8
#     2   2   2   2   2   2   2   2
#     4  12  23  44  74 100 132 187 241 278 340 414
#     4  10  20  42  71 103 134 174 234 284 341 407
#     4  10  21  40  74 102 130 179 230 286 341 414
#     4  12  27  44  70 104 141 184 230 288 349 409
#     4  12  26  48  70  95 141 191 233 280 338 417
#     4  12  27  44  68 106 143 183 231 286 349 411
#     4  11  26  46  68 105 142 180 225 293 361 406
#     4  11  22  47  75 101 141 178 235 292 343 414
#
# _framework density 21.362876
#
# number of rings (size 3 to 8) (size 9 to 14) (size 15 to 20)
#    0.000    0.750    5.000    1.500    3.500    4.000 
#    0.000    0.000    0.000    0.000    0.000    0.000 
#    0.000    0.000    0.000    0.000    0.000    0.000 
#
# Total GULP energy -89322.151399 kJ/mol
# GULP energy per Si atom -5582.634462 kJ/mol
# Density = 2.131425 g / cm^3
# Si number density = 21.362876 Si / 1000 Ang^3
#
#
#
# Elastic Constant Matrix: (Units=GPa)
#
#
# Indices 1 2 3 4 5 6 
#
# 1 85.2348 -37.8918 19.4417 29.3009 1.8450 56.4561
# 2 -37.8918 -0.6544 10.5418 48.2028 -27.7743 90.6022
# 3 19.4417 10.5418 106.2972 0.8084 10.1185 24.0370
# 4 29.3009 48.2028 0.8084 1.8608 11.1160 -51.7691
# 5 1.8450 -27.7743 10.1185 11.1160 31.6617 13.1668
# 6 56.4561 90.6022 24.0370 -51.7691 13.1668 -58.7292
#
#
#
# Elastic Compliance Matrix: (Units=1/GPa)
#
#
# Indices 1 2 3 4 5 6 
#
# 1 0.009147 -0.002553 -0.001544 0.001539 -0.003669 0.002043
# 2 -0.002553 0.010488 -0.003210 0.004564 0.004833 0.009472
# 3 -0.001544 -0.003210 0.011554 0.002099 -0.005192 -0.004722
# 4 0.001539 0.004564 0.002099 0.025659 -0.000238 -0.013292
# 5 -0.003669 0.004833 -0.005192 -0.000238 0.033792 0.009590
# 6 0.002043 0.009472 -0.004722 -0.013292 0.009590 0.011484
#
#
# Mechanical properties :
#
#
# Convention : Reuss Voigt Hill
#
# Bulk Modulus (GPa) = 60.33309 19.45123 39.89216
# Shear Modulus (GPa) = 40.89550 8.21105 24.55328
#
# Velocity S-wave (km/s) = 4.38005 1.96264 3.39387
# Velocity P-wave (km/s) = 7.34051 3.77636 5.83712
#
# Compressibility (1/GPa) = 0.01657465
#
# Stress axis : x y z
#
# Youngs Moduli (GPa) = 109.32910 95.34808 86.54768
#
# Poissons Ratio (x) = 0.24342 0.13365
# Poissons Ratio (y) = 0.27912 0.27781
# Poissons Ratio (z) = 0.16883 0.30606
#
# Static dielectric constant tensor:
#      x y z
#    x 1.845580 -0.012310 -0.045140 
#    y -0.012310 1.774980 0.009810 
#    z -0.045140 0.009810 1.754540 
# 
# From -- ./inp_files/278900.got.cif
#   From: 2010.05.17/outbox.ucp.g08.bks.cvg/sg2_140_cif.got.tgz:278900.got - 2010.06.11 11:32:03.
