data_PCOD9073921
_publ_section_title
;
Structure prediction by ZEFSAII (Michael W. Deem and Ramdas Pophale) SiO2 
 PCOD9073921
Probable space group: P -1
;
_chemical_formula_sum "Si O2"
_cell_formula_units_Z 16
_cell_length_a 21.000000
_cell_length_b 9.000000
_cell_length_c 9.000000
_cell_angle_alpha 100.000000
_cell_angle_beta 60.000000
_cell_angle_gamma 50.000000
_cell_volume 751.240448
_symmetry_space_group_name_H-M "P -1"
_symmetry_group_IT_number 2
_symmetry_cell_setting 'triclinic'
loop_
_space_group_symop_operation_xyz
x,y,z
-x,-y,-z
loop_
_atom_site_type_symbol
_atom_site_label
_atom_site_fract_x
_atom_site_fract_y
_atom_site_fract_z
Si Si1 0.582713 0.246873 0.241309
Si Si2 0.942625 0.749572 0.420227
Si Si3 0.228966 0.278905 0.847290
Si Si4 0.643059 0.394694 0.944971
Si Si5 0.957144 0.241588 0.430924
Si Si6 0.822332 0.649933 0.429139
Si Si7 0.531246 0.125748 0.017556
Si Si8 0.229795 0.561455 0.057233
O O1 0.500000 0.500000 0.500000
O O2 0.517313 0.217495 0.218691
O O3 0.704723 0.961634 0.158197
O O4 0.617464 0.298315 0.069573
O O5 0.906460 0.649993 0.381735
O O6 0.995150 0.692981 0.517735
O O7 0.797494 0.096593 0.642345
O O8 0.066311 0.587999 0.140967
O O9 0.228049 0.253403 0.666656
O O10 0.290857 0.330450 0.834611
O O11 0.548728 0.616627 0.956087
O O12 0.651487 0.523983 0.064070
O O13 0.918193 0.344013 0.324166
O O14 0.827480 0.406641 0.712956
O O15 0.089737 0.895265 0.221427
O O16 0.691288 0.867155 0.731632
O O17 0.500000 0.000000 0.000000
#
# Coordination Sequence:
#
# PCOD9073921 Si02
#       8
#     2   2   2   2   2   2   2   2
#     4  12  27  45  68  98 134 174 221 278 327 388
#     4  10  22  39  66  97 130 166 219 271 323 392
#     4  11  25  41  64  99 139 169 211 272 333 391
#     4  11  23  42  72  94 126 175 223 269 326 389
#     4   9  19  37  65  92 127 170 215 263 324 388
#     4  12  23  39  66  97 132 171 220 269 326 389
#     4  12  26  46  71  96 130 178 228 270 323 396
#     4   9  20  40  63  95 129 167 214 266 327 392
#
# _framework density 21.298107999999999
#
# number of rings (size 3 to 8) (size 9 to 14) (size 15 to 20)
#    0.000    1.250    1.250    5.625    5.250    1.500 
#    0.000    2.500    0.000    0.000    0.000    0.000 
#    0.000    0.000    0.000    0.000    0.000    0.000 
#
# Total GULP energy -89119.540622 kJ/mol
# GULP energy per Si atom -5569.971289 kJ/mol
# Density = 2.124963 g / cm^3
# Si number density = 21.298108 Si / 1000 Ang^3
#
#
#
# Elastic Constant Matrix: (Units=GPa)
#
#
# Indices 1 2 3 4 5 6 
#
# 1 114.2297 44.7030 13.4604 -16.4279 22.9103 10.4258
# 2 44.7030 161.5033 14.1839 -5.8330 13.7757 -21.1554
# 3 13.4604 14.1839 48.8374 4.9034 23.4751 -1.4469
# 4 -16.4279 -5.8330 4.9034 16.5076 -0.5829 2.2679
# 5 22.9103 13.7757 23.4751 -0.5829 28.4760 -0.0198
# 6 10.4258 -21.1554 -1.4469 2.2679 -0.0198 26.6373
#
#
#
# Elastic Compliance Matrix: (Units=1/GPa)
#
#
# Indices 1 2 3 4 5 6 
#
# 1 0.015686 -0.004349 -0.000002 0.015211 -0.010211 -0.010896
# 2 -0.004349 0.008512 -0.000784 -0.002271 -0.000013 0.008613
# 3 -0.000002 -0.000784 0.036384 -0.012470 -0.029867 0.002394
# 4 0.015211 -0.002271 -0.012470 0.080749 0.000783 -0.015309
# 5 -0.010211 -0.000013 -0.029867 0.000783 0.067978 0.002348
# 6 -0.010896 0.008613 0.002394 -0.015309 0.002348 0.050082
#
#
# Mechanical properties :
#
#
# Convention : Reuss Voigt Hill
#
# Bulk Modulus (GPa) = 19.87598 52.14053 36.00826
# Shear Modulus (GPa) = 17.45626 31.13904 24.29765
#
# Velocity S-wave (km/s) = 2.86600 3.82783 3.38129
# Velocity P-wave (km/s) = 4.50605 6.63859 5.67342
#
# Compressibility (1/GPa) = 0.05031198
#
# Stress axis : x y z
#
# Youngs Moduli (GPa) = 63.74949 117.48619 27.48490
#
# Poissons Ratio (x) = 0.51090 0.00006
# Poissons Ratio (y) = 0.27722 0.02155
# Poissons Ratio (z) = 0.00014 0.09211
#
# Static dielectric constant tensor:
#      x y z
#    x 1.940400 0.043590 -0.058580 
#    y 0.043590 1.836490 0.014400 
#    z -0.058580 0.014400 1.765530 
# 
# From -- ./inp_files/343644.got.cif
#   From: 2010.05.17/outbox.ucp.g08.bks.cvg/sg2_172_cif.got.tgz:343644.got - 2010.06.11 11:32:03.
