data_PCOD9073212
_publ_section_title
;
Structure prediction by ZEFSAII (Michael W. Deem and Ramdas Pophale) SiO2 
 PCOD9073212
Probable space group: P -1
;
_chemical_formula_sum "Si O2"
_cell_formula_units_Z 16
_cell_length_a 9.000000
_cell_length_b 18.000000
_cell_length_c 6.000000
_cell_angle_alpha 90.000000
_cell_angle_beta 130.000000
_cell_angle_gamma 90.000000
_cell_volume 744.595199
_symmetry_space_group_name_H-M "P -1"
_symmetry_group_IT_number 2
_symmetry_cell_setting 'triclinic'
loop_
_space_group_symop_operation_xyz
x,y,z
-x,-y,-z
loop_
_atom_site_type_symbol
_atom_site_label
_atom_site_fract_x
_atom_site_fract_y
_atom_site_fract_z
Si Si1 0.064589 0.343392 0.819168
Si Si2 0.612545 0.710614 0.524764
Si Si3 0.628059 0.541794 0.941729
Si Si4 0.682979 0.402759 0.695074
Si Si5 0.952229 0.778435 0.554331
Si Si6 0.385602 0.953493 0.572318
Si Si7 0.319701 0.833016 0.195516
Si Si8 0.657480 0.904108 0.204687
O O1 0.989705 0.279023 0.583176
O O2 0.887337 0.371080 0.804609
O O3 0.238501 0.311474 0.138008
O O4 0.183005 0.409897 0.807866
O O5 0.461806 0.647708 0.292998
O O6 0.766247 0.739289 0.492091
O O7 0.454696 0.771863 0.445194
O O8 0.708443 0.480832 0.843361
O O9 0.460336 0.587571 0.652778
O O10 0.500000 0.500000 0.000000
O O11 0.849761 0.854721 0.379204
O O12 0.136086 0.798106 0.888841
O O13 0.255694 0.894352 0.314966
O O14 0.500000 0.000000 0.500000
O O15 0.293735 0.014292 0.648797
O O16 0.554052 0.911950 0.869355
O O17 0.480211 0.869876 0.183679
#
# Coordination Sequence:
#
# PCOD9073212 Si02
#       8
#     2   2   2   2   2   2   2   2
#     4  11  23  38  61  89 120 157 199 246 297 357
#     4  10  22  40  59  84 120 156 195 247 297 353
#     4  10  22  40  61  86 120 157 195 247 299 349
#     4  10  22  39  61  89 116 153 202 245 294 354
#     4  11  23  37  59  91 120 156 199 243 298 358
#     4   9  18  38  61  82 116 160 196 243 297 345
#     4  10  21  36  59  87 118 154 197 245 296 351
#     4   9  20  38  59  85 119 154 198 245 293 351
#
# _framework density 21.488185999999999
#
# number of rings (size 3 to 8) (size 9 to 14) (size 15 to 20)
#    0.000    2.000    0.000    2.625    0.000    9.000 
#    0.000    5.625    0.000    0.000    0.000    0.000 
#    0.000    0.000    0.000    0.000    0.000    0.000 
#
# Total GULP energy -89183.014387 kJ/mol
# GULP energy per Si atom -5573.938399 kJ/mol
# Density = 2.143928 g / cm^3
# Si number density = 21.488186 Si / 1000 Ang^3
#
#
#
# Elastic Constant Matrix: (Units=GPa)
#
#
# Indices 1 2 3 4 5 6 
#
# 1 77.5463 25.3136 43.4719 -5.0832 31.0745 -13.7450
# 2 25.3136 73.4502 63.0857 5.1581 30.3280 -20.2046
# 3 43.4719 63.0857 106.9806 17.1694 22.6666 -20.0594
# 4 -5.0832 5.1581 17.1694 28.5952 9.0939 -5.6740
# 5 31.0745 30.3280 22.6666 9.0939 26.2596 -1.5616
# 6 -13.7450 -20.2046 -20.0594 -5.6740 -1.5616 19.7949
#
#
#
# Elastic Compliance Matrix: (Units=1/GPa)
#
#
# Indices 1 2 3 4 5 6 
#
# 1 -0.011976 -0.037369 0.013104 -0.027543 0.053366 -0.036864
# 2 -0.037369 -0.020267 0.011074 -0.039929 0.069436 -0.041381
# 3 0.013104 0.011074 0.009419 0.013218 -0.039181 0.030644
# 4 -0.027543 -0.039929 0.013218 0.000607 0.064638 -0.041213
# 5 0.053366 0.069436 -0.039181 0.064638 -0.089087 0.079724
# 6 -0.036864 -0.041381 0.030644 -0.041213 0.079724 0.008213
#
#
# Mechanical properties :
#
#
# Convention : Reuss Voigt Hill
#
# Bulk Modulus (GPa) = -20.32225 57.96883 18.82329
# Shear Modulus (GPa) = -53.69880 23.33700 -15.18090
#
# Velocity S-wave (km/s) = -5.00441 3.29909 -2.66085
# Velocity P-wave (km/s) = 6.54753 6.44574 0.81320
#
# Compressibility (1/GPa) = -0.04920714
#
# Stress axis : x y z
#
# Youngs Moduli (GPa) = -83.49740 -49.34013 106.17115
#
# Poissons Ratio (x) = -1.84377 -1.39126
# Poissons Ratio (y) = -3.12018 -1.17571
# Poissons Ratio (z) = 1.09414 0.54638
#
# Static dielectric constant tensor:
#      x y z
#    x 1.791010 0.074640 -0.086070 
#    y 0.074640 1.961810 -0.044960 
#    z -0.086070 -0.044960 1.757880 
# 
# From -- ./inp_files/10721.got.cif
#   From: 2010.05.17/outbox.ucp.g08.bks.cvg/sg2_6_cif.got.tgz:10721.got - 2010.06.11 11:32:03.
