data_PCOD9073186
_publ_section_title
;
Structure prediction by ZEFSAII (Michael W. Deem and Ramdas Pophale) SiO2 
 PCOD9073186
Probable space group: P -1
;
_chemical_formula_sum "Si O2"
_cell_formula_units_Z 16
_cell_length_a 6.000000
_cell_length_b 6.000000
_cell_length_c 27.000000
_cell_angle_alpha 50.000000
_cell_angle_beta 90.000000
_cell_angle_gamma 80.000000
_cell_volume 725.212580
_symmetry_space_group_name_H-M "P -1"
_symmetry_group_IT_number 2
_symmetry_cell_setting 'triclinic'
loop_
_space_group_symop_operation_xyz
x,y,z
-x,-y,-z
loop_
_atom_site_type_symbol
_atom_site_label
_atom_site_fract_x
_atom_site_fract_y
_atom_site_fract_z
Si Si1 0.184007 0.250894 0.330445
Si Si2 0.133393 0.503472 0.782652
Si Si3 0.986016 0.674463 0.568250
Si Si4 0.470584 0.743405 0.261257
Si Si5 0.527331 0.370090 0.605410
Si Si6 0.579772 0.341976 0.147057
Si Si7 0.704633 0.442878 0.967785
Si Si8 0.025153 0.909730 0.899754
O O1 0.042983 0.300792 0.375041
O O2 0.288097 0.541939 0.278406
O O3 0.038120 0.226300 0.284082
O O4 0.377678 0.944283 0.377823
O O5 0.305138 0.379254 0.754899
O O6 0.290352 0.576757 0.816497
O O7 0.999193 0.260763 0.838879
O O8 0.744047 0.552890 0.572237
O O9 0.248548 0.494079 0.577490
O O10 0.000000 0.000000 0.500000
O O11 0.488457 0.697038 0.326655
O O12 0.439046 0.094058 0.198746
O O13 0.402517 0.596370 0.080201
O O14 0.779977 0.223690 0.122869
O O15 0.822034 0.729917 0.921961
O O16 0.500000 0.500000 0.000000
O O17 0.880974 0.172723 0.032732
#
# Coordination Sequence:
#
# PCOD9073186 Si02
#       8
#     2   2   2   2   2   2   2   2
#     4  11  25  41  70 100 142 184 233 288 353 420
#     4  11  22  38  62  95 131 172 226 287 352 416
#     4  11  26  48  72 107 147 188 237 294 349 418
#     4  10  22  41  61  95 136 175 226 285 349 412
#     4  11  25  43  76 103 144 189 236 292 352 422
#     4  10  21  34  62  90 125 168 224 281 349 410
#     4   9  18  38  57  82 120 173 221 279 345 409
#     4   9  20  37  59  83 127 169 221 282 345 410
#
# _framework density 22.062495999999999
#
# number of rings (size 3 to 8) (size 9 to 14) (size 15 to 20)
#    0.000    1.750    1.250    1.875    3.500    4.500 
#    0.000    5.625    0.000    0.000    0.000    0.000 
#    0.000    0.000    0.000    0.000    0.000    0.000 
#
# Total GULP energy -89138.949943 kJ/mol
# GULP energy per Si atom -5571.184371 kJ/mol
# Density = 2.201228 g / cm^3
# Si number density = 22.062496 Si / 1000 Ang^3
#
#
#
# Elastic Constant Matrix: (Units=GPa)
#
#
# Indices 1 2 3 4 5 6 
#
# 1 117.8835 10.3550 48.2216 -11.2626 -25.9013 -0.6566
# 2 10.3550 45.5940 11.0609 -5.3324 -1.5962 -3.2497
# 3 48.2216 11.0609 105.2477 -13.7282 -29.8534 11.0237
# 4 -11.2626 -5.3324 -13.7282 23.4491 1.1990 -1.4902
# 5 -25.9013 -1.5962 -29.8534 1.1990 55.3957 -6.5228
# 6 -0.6566 -3.2497 11.0237 -1.4902 -6.5228 31.0673
#
#
#
# Elastic Compliance Matrix: (Units=1/GPa)
#
#
# Indices 1 2 3 4 5 6 
#
# 1 0.011199 -0.000965 -0.003980 0.002812 0.003282 0.002372
# 2 -0.000965 0.023299 -0.001991 0.003901 -0.000562 0.003193
# 3 -0.003980 -0.001991 0.014096 0.005375 0.005095 -0.003967
# 4 0.002812 0.003901 0.005375 0.047954 0.003473 0.001589
# 5 0.003282 -0.000562 0.005095 0.003473 0.022608 0.003116
# 6 0.002372 0.003193 -0.003967 0.001589 0.003116 0.034710
#
#
# Mechanical properties :
#
#
# Convention : Reuss Voigt Hill
#
# Bulk Modulus (GPa) = 28.80131 45.33334 37.06733
# Shear Modulus (GPa) = 27.88430 35.25493 31.56962
#
# Velocity S-wave (km/s) = 3.55896 4.00178 3.78685
# Velocity P-wave (km/s) = 5.47458 6.47647 5.99649
#
# Compressibility (1/GPa) = 0.03472064
#
# Stress axis : x y z
#
# Youngs Moduli (GPa) = 89.29456 42.92022 70.94175
#
# Poissons Ratio (x) = 0.04142 0.28238
# Poissons Ratio (y) = 0.08616 0.14127
# Poissons Ratio (z) = 0.35543 0.08547
#
# Static dielectric constant tensor:
#      x y z
#    x 1.873660 0.009330 0.076650 
#    y 0.009330 1.837800 -0.026700 
#    z 0.076650 -0.026700 1.808660 
# 
# From -- ./inp_files/13712.got.cif
#   From: 2010.05.17/outbox.ucp.g08.bks.cvg/sg2_7_cif.got.tgz:13712.got - 2010.06.11 11:32:03.
