data_PCOD9073974
_publ_section_title
;
Structure prediction by ZEFSAII (Michael W. Deem and Ramdas Pophale) SiO2 
 PCOD9073974
Probable space group: P -1
;
_chemical_formula_sum "Si O2"
_cell_formula_units_Z 15
_cell_length_a 18.000000
_cell_length_b 18.000000
_cell_length_c 12.000000
_cell_angle_alpha 150.000000
_cell_angle_beta 30.000000
_cell_angle_gamma 160.000000
_cell_volume 633.120058
_symmetry_space_group_name_H-M "P -1"
_symmetry_group_IT_number 2
_symmetry_cell_setting 'triclinic'
loop_
_space_group_symop_operation_xyz
x,y,z
-x,-y,-z
loop_
_atom_site_type_symbol
_atom_site_label
_atom_site_fract_x
_atom_site_fract_y
_atom_site_fract_z
Si Si1 0.747886 0.774908 0.303156
Si Si2 0.274216 0.718736 0.321465
Si Si3 0.100678 0.334324 0.208301
Si Si4 0.017335 0.741300 0.307894
Si Si5 0.647909 0.079999 0.157422
Si Si6 0.302877 0.533150 0.427836
Si Si7 0.500000 0.000000 0.000000
Si Si8 0.147237 0.386423 0.876660
O O1 0.526221 0.650039 0.356752
O O2 0.710790 0.630359 0.264072
O O3 0.850287 0.001018 0.517406
O O4 0.910201 0.810773 0.051346
O O5 0.233872 0.568454 0.275181
O O6 0.135067 0.764102 0.581065
O O7 0.531356 0.945441 0.249243
O O8 0.183723 0.565627 0.129520
O O9 0.236388 0.396251 0.224388
O O10 0.899606 0.630762 0.434308
O O11 0.833942 0.600727 0.263830
O O12 0.218944 0.778218 0.070754
O O13 0.678444 0.280132 0.385568
O O14 0.500535 0.952492 0.070500
O O15 0.875607 0.156349 0.947239
#
# Coordination Sequence:
#
# PCOD9073974 Si02
#       8
#     2   2   2   2   2   2   1   2
#     4  11  25  46  62  97 138 174 218 271 330 388
#     4  10  22  44  69  97 131 171 224 276 322 382
#     4  10  23  45  66  96 133 174 225 272 320 391
#     4  11  25  43  69 100 135 170 218 272 331 397
#     4  11  23  40  69 100 130 172 221 270 329 388
#     4  12  25  43  66 101 133 173 223 266 332 389
#     4  10  22  40  66  98 128 166 210 274 320 382
#     4  10  24  43  69  98 132 171 221 268 332 397
#
# _framework density 23.692188999999999
#
# number of rings (size 3 to 8) (size 9 to 14) (size 15 to 20)
#    0.000    1.333    2.667    1.600    1.867    4.800 
#    2.400    0.000    0.000    0.000    0.000    0.000 
#    0.000    0.000    0.000    0.000    0.000    0.000 
#
# Total GULP energy -83623.899462 kJ/mol
# GULP energy per Si atom -5574.926631 kJ/mol
# Density = 2.363826 g / cm^3
# Si number density = 23.692189 Si / 1000 Ang^3
#
#
#
# Elastic Constant Matrix: (Units=GPa)
#
#
# Indices 1 2 3 4 5 6 
#
# 1 117.2927 8.8634 8.2101 0.4773 27.4331 11.8154
# 2 8.8634 31.9916 5.7780 -14.9736 0.2543 -11.3737
# 3 8.2101 5.7780 -36.2478 -6.4537 17.2718 -8.0573
# 4 0.4773 -14.9736 -6.4537 17.6261 2.9787 17.0179
# 5 27.4331 0.2543 17.2718 2.9787 36.3573 -2.3568
# 6 11.8154 -11.3737 -8.0573 17.0179 -2.3568 23.1501
#
#
#
# Elastic Compliance Matrix: (Units=1/GPa)
#
#
# Indices 1 2 3 4 5 6 
#
# 1 0.017243 0.001599 -0.002856 0.046360 -0.018378 -0.044960
# 2 0.001599 0.058745 -0.002250 0.087664 -0.010208 -0.038219
# 3 -0.002856 -0.002250 -0.020234 -0.022856 0.014406 0.011579
# 4 0.046360 0.087664 -0.022856 0.458047 -0.083901 -0.333805
# 5 -0.018378 -0.010208 0.014406 -0.083901 0.046385 0.075778
# 6 -0.044960 -0.038219 0.011579 -0.333805 0.075778 0.304495
#
#
# Mechanical properties :
#
#
# Convention : Reuss Voigt Hill
#
# Bulk Modulus (GPa) = 20.51668 17.63773 19.07721
# Shear Modulus (GPa) = 5.63098 21.43904 13.53501
#
# Velocity S-wave (km/s) = 1.54334 3.01142 2.39275
# Velocity P-wave (km/s) = 3.44301 4.42179 3.96273
#
# Compressibility (1/GPa) = 0.04874083
#
# Stress axis : x y z
#
# Youngs Moduli (GPa) = 57.99287 17.02258 -49.42298
#
# Poissons Ratio (x) = -0.02722 -0.14117
# Poissons Ratio (y) = -0.09274 -0.11120
# Poissons Ratio (z) = 0.16565 0.03830
#
# Static dielectric constant tensor:
#      x y z
#    x 1.906520 -0.001890 0.028410 
#    y -0.001890 1.970910 0.007630 
#    z 0.028410 0.007630 1.929670 
# 
# From -- ./inp_files/466641.got.cif
#   From: 2010.05.17/outbox.ucp.g08.bks.cvg/sg2_234_cif.got.tgz:466641.got - 2010.06.11 11:32:03.
