data_PCOD9073363
_publ_section_title
;
Structure prediction by ZEFSAII (Michael W. Deem and Ramdas Pophale) SiO2 
 PCOD9073363
Probable space group: P -1
;
_chemical_formula_sum "Si O2"
_cell_formula_units_Z 16
_cell_length_a 18.000000
_cell_length_b 12.000000
_cell_length_c 9.000000
_cell_angle_alpha 130.000000
_cell_angle_beta 60.000000
_cell_angle_gamma 150.000000
_cell_volume 736.400153
_symmetry_space_group_name_H-M "P -1"
_symmetry_group_IT_number 2
_symmetry_cell_setting 'triclinic'
loop_
_space_group_symop_operation_xyz
x,y,z
-x,-y,-z
loop_
_atom_site_type_symbol
_atom_site_label
_atom_site_fract_x
_atom_site_fract_y
_atom_site_fract_z
Si Si1 0.530901 0.112916 0.296101
Si Si2 0.684446 0.398137 0.067285
Si Si3 0.160733 0.570665 0.667820
Si Si4 0.632979 0.850859 0.539334
Si Si5 0.458192 0.319992 0.191321
Si Si6 0.186361 0.947275 0.965061
Si Si7 0.934513 0.249855 0.393861
Si Si8 0.016475 0.172412 0.720853
O O1 0.615781 0.271922 0.192478
O O2 0.661296 0.210471 0.333442
O O3 0.461584 0.162063 0.469263
O O4 0.379680 0.817637 0.154002
O O5 0.602633 0.424010 0.112434
O O6 0.858620 0.664636 0.136724
O O7 0.135629 0.708229 0.829106
O O8 0.083304 0.385519 0.725969
O O9 0.076590 0.382378 0.450373
O O10 0.527210 0.566802 0.380248
O O11 0.633461 0.874040 0.739496
O O12 0.798203 0.069436 0.493602
O O13 0.362259 0.190066 0.027555
O O14 0.128393 0.909831 0.829010
O O15 0.128643 0.970353 0.174218
O O16 0.000000 0.500000 0.500000
O O17 0.000000 0.000000 0.500000
#
# Coordination Sequence:
#
# PCOD9073363 Si02
#       8
#     2   2   2   2   2   2   2   2
#     4   9  18  35  61  91 121 152 205 260 310 358
#     4   9  19  35  56  94 123 150 199 264 314 363
#     4  10  21  41  63  89 125 167 209 261 309 371
#     4  10  22  37  66  93 123 162 206 265 312 366
#     4  10  21  38  67  93 120 159 211 266 316 357
#     4  11  23  41  61  90 122 173 211 250 312 382
#     4  10  24  42  61  87 131 174 213 246 306 387
#     4  11  25  37  65  95 127 157 212 268 317 362
#
# _framework density 21.727318
#
# number of rings (size 3 to 8) (size 9 to 14) (size 15 to 20)
#    0.000    2.000    1.250    1.125   14.000    0.500 
#    0.000    4.375    0.000    0.000    0.000    0.000 
#    0.000    0.000    0.000    0.000    0.000    0.000 
#
# Total GULP energy -89084.254379 kJ/mol
# GULP energy per Si atom -5567.765899 kJ/mol
# Density = 2.167787 g / cm^3
# Si number density = 21.727318 Si / 1000 Ang^3
#
#
#
# Elastic Constant Matrix: (Units=GPa)
#
#
# Indices 1 2 3 4 5 6 
#
# 1 71.6185 9.0397 28.7582 -9.2112 6.8075 23.1032
# 2 9.0397 44.6321 -11.2646 12.2729 -0.6511 8.7958
# 3 28.7582 -11.2646 47.0418 26.2629 11.3013 39.0896
# 4 -9.2112 12.2729 26.2629 28.4252 5.9194 35.4997
# 5 6.8075 -0.6511 11.3013 5.9194 39.9442 19.0622
# 6 23.1032 8.7958 39.0896 35.4997 19.0622 49.4542
#
#
#
# Elastic Compliance Matrix: (Units=1/GPa)
#
#
# Indices 1 2 3 4 5 6 
#
# 1 -0.000719 0.004080 -0.001458 -0.039534 -0.009125 0.032658
# 2 0.004080 0.042410 0.054315 0.038131 0.020878 -0.087799
# 3 -0.001458 0.054315 0.139620 0.060733 0.037236 -0.177287
# 4 -0.039534 0.038131 0.060733 -0.060788 -0.005279 0.009353
# 5 -0.009125 0.020878 0.037236 -0.005279 0.035724 -0.038863
# 6 0.032658 -0.087799 -0.177287 0.009353 -0.038863 0.168977
#
#
# Mechanical properties :
#
#
# Convention : Reuss Voigt Hill
#
# Bulk Modulus (GPa) = 3.38771 24.03990 13.71380
# Shear Modulus (GPa) = 16.14237 32.68199 24.41218
#
# Velocity S-wave (km/s) = 2.72867 3.88259 3.35561
# Velocity P-wave (km/s) = 3.38971 5.58460 4.61941
#
# Compressibility (1/GPa) = 0.29518488
#
# Stress axis : x y z
#
# Youngs Moduli (GPa) = -1390.55504 23.57938 7.16229
#
# Poissons Ratio (x) = -0.09619 0.01044
# Poissons Ratio (y) = 5.67280 -0.38902
# Poissons Ratio (z) = -2.02689 -1.28072
#
# Static dielectric constant tensor:
#      x y z
#    x 1.998660 0.046730 0.070710 
#    y 0.046730 1.756210 -0.007610 
#    z 0.070710 -0.007610 1.802940 
# 
# From -- ./inp_files/184388.got.cif
#   From: 2010.05.17/outbox.ucp.g08.bks.cvg/sg2_93_cif.got.tgz:184388.got - 2010.06.11 11:32:03.
