data_PCOD9073603
_publ_section_title
;
Structure prediction by ZEFSAII (Michael W. Deem and Ramdas Pophale) SiO2 
 PCOD9073603
Probable space group: P -1
;
_chemical_formula_sum "Si O2"
_cell_formula_units_Z 16
_cell_length_a 18.000000
_cell_length_b 21.000000
_cell_length_c 12.000000
_cell_angle_alpha 30.000000
_cell_angle_beta 150.000000
_cell_angle_gamma 160.000000
_cell_volume 738.640068
_symmetry_space_group_name_H-M "P -1"
_symmetry_group_IT_number 2
_symmetry_cell_setting 'triclinic'
loop_
_space_group_symop_operation_xyz
x,y,z
-x,-y,-z
loop_
_atom_site_type_symbol
_atom_site_label
_atom_site_fract_x
_atom_site_fract_y
_atom_site_fract_z
Si Si1 0.097743 0.218162 0.188167
Si Si2 0.145762 0.798929 0.776005
Si Si3 0.737132 0.071289 0.640306
Si Si4 0.633791 0.247641 0.690464
Si Si5 0.300199 0.863827 0.267337
Si Si6 0.834744 0.816281 0.427142
Si Si7 0.543406 0.669891 0.071323
Si Si8 0.142150 0.349536 0.584167
O O1 0.191747 0.209908 0.434690
O O2 0.290686 0.447020 0.059153
O O3 0.018440 0.042626 0.281558
O O4 0.849677 0.128001 0.006989
O O5 0.952563 0.758600 0.644042
O O6 0.022281 0.693754 0.657568
O O7 0.375175 0.030145 0.700451
O O8 0.222317 0.735149 0.053889
O O9 0.795776 0.187204 0.653991
O O10 0.972279 0.199566 0.689161
O O11 0.568080 0.041363 0.383935
O O12 0.603889 0.852390 0.831271
O O13 0.710536 0.258656 0.648251
O O14 0.675021 0.423630 0.491305
O O15 0.605531 0.699113 0.239599
O O16 0.724432 0.687982 0.227447
#
# Coordination Sequence:
#
# PCOD9073603 Si02
#       8
#     2   2   2   2   2   2   2   2
#     4  11  22  41  67  99 127 172 218 263 330 382
#     4  10  21  41  65  97 134 165 213 273 322 384
#     4  11  25  46  66  94 135 173 222 266 320 381
#     4  11  22  41  67  99 127 172 218 263 330 382
#     4  11  24  45  66  98 128 179 213 274 316 387
#     4  10  21  41  65  97 134 165 213 273 322 384
#     4  11  24  43  66  97 130 174 214 268 321 383
#     4  11  24  43  66  97 130 174 214 268 321 383
#
# _framework density 21.661429999999999
#
# number of rings (size 3 to 8) (size 9 to 14) (size 15 to 20)
#    0.000    1.250    3.750    1.875    0.000    4.000 
#    0.000    1.250    0.000    0.000    0.000    0.000 
#    0.000    0.000    0.000    0.000    0.000    0.000 
#
# Total GULP energy -89155.311344 kJ/mol
# GULP energy per Si atom -5572.206959 kJ/mol
# Density = 2.161213 g / cm^3
# Si number density = 21.661430 Si / 1000 Ang^3
#
#
#
# Elastic Constant Matrix: (Units=GPa)
#
#
# Indices 1 2 3 4 5 6 
#
# 1 61.7499 5.0193 5.7810 -1.4925 -3.8296 -12.9232
# 2 5.0193 92.2435 24.8717 -8.7488 -4.7484 -3.0727
# 3 5.7810 24.8717 66.0988 7.0906 3.1664 -1.1862
# 4 -1.4925 -8.7488 7.0906 37.6182 0.1378 -3.6944
# 5 -3.8296 -4.7484 3.1664 0.1378 22.6810 4.8540
# 6 -12.9232 -3.0727 -1.1862 -3.6944 4.8540 23.4884
#
#
#
# Elastic Compliance Matrix: (Units=1/GPa)
#
#
# Indices 1 2 3 4 5 6 
#
# 1 0.018622 0.000058 -0.001748 0.002084 0.001195 0.010246
# 2 0.000058 0.012906 -0.005432 0.004159 0.003134 0.001453
# 3 -0.001748 -0.005432 0.018006 -0.004785 -0.003759 -0.000739
# 4 0.002084 0.004159 -0.004785 0.029116 0.000443 0.005937
# 5 0.001195 0.003134 -0.003759 0.000443 0.047362 -0.008840
# 6 0.010246 0.001453 -0.000739 0.005937 -0.008840 0.051125
#
#
# Mechanical properties :
#
#
# Convention : Reuss Voigt Hill
#
# Bulk Modulus (GPa) = 28.33485 32.38182 30.35834
# Shear Modulus (GPa) = 24.61325 29.05220 26.83272
#
# Velocity S-wave (km/s) = 3.37452 3.66621 3.52338
# Velocity P-wave (km/s) = 5.31906 5.73611 5.53151
#
# Compressibility (1/GPa) = 0.03529223
#
# Stress axis : x y z
#
# Youngs Moduli (GPa) = 53.69999 77.48067 55.53801
#
# Poissons Ratio (x) = -0.00452 0.09705
# Poissons Ratio (y) = -0.00313 0.30167
# Poissons Ratio (z) = 0.09384 0.42086
#
# Static dielectric constant tensor:
#      x y z
#    x 1.866180 -0.024020 -0.025660 
#    y -0.024020 1.790890 0.003580 
#    z -0.025660 0.003580 1.780720 
# 
# From -- ./inp_files/467076.got.cif
#   From: 2010.05.17/outbox.ucp.g08.bks.cvg/sg2_234_cif.got.tgz:467076.got - 2010.06.11 11:32:03.
