data_PCOD9073375
_publ_section_title
;
Structure prediction by ZEFSAII (Michael W. Deem and Ramdas Pophale) SiO2 
 PCOD9073375
Probable space group: P -1
;
_chemical_formula_sum "Si O2"
_cell_formula_units_Z 12
_cell_length_a 9.881628
_cell_length_b 7.040322
_cell_length_c 19.756342
_cell_angle_alpha 152.371590
_cell_angle_beta 132.993464
_cell_angle_gamma 49.650006
_cell_volume 462.385540
_symmetry_space_group_name_H-M "P -1"
_symmetry_group_IT_number 2
_symmetry_cell_setting 'triclinic'
loop_
_space_group_symop_operation_xyz
x,y,z
-x,-y,-z
loop_
_atom_site_type_symbol
_atom_site_label
_atom_site_fract_x
_atom_site_fract_y
_atom_site_fract_z
Si Si1 0.950288 0.690373 0.179789
Si Si2 0.833542 0.738484 0.361962
Si Si3 0.697852 0.081792 0.563483
Si Si4 0.855176 0.049892 0.063917
Si Si5 0.440048 0.322986 0.996030
Si Si6 0.472203 0.150595 0.322607
O O1 0.108301 0.967359 0.344782
O O2 0.909111 0.368550 0.124463
O O3 0.744056 0.880551 0.146896
O O4 0.045423 0.392557 0.060173
O O5 0.910913 0.279598 0.222420
O O6 0.732806 0.815049 0.423198
O O7 0.686614 0.952057 0.323369
O O8 0.000000 0.000000 0.500000
O O9 0.653844 0.570196 0.685270
O O10 0.500000 0.000000 0.500000
O O11 0.631614 0.050029 0.995850
O O12 0.390183 0.711109 0.153486
O O13 0.500000 0.500000 0.000000
O O14 0.500000 0.500000 0.500000
#
# Coordination Sequence:
#
# PCOD9073375 Si02
#       6
#     2   2   2   2   2   2
#     4  10  18  31  54  82 111 144 182 231 282 326
#     4  10  19  35  59  83 106 141 193 231 269 325
#     4  11  22  37  54  81 118 149 178 228 288 335
#     4   9  17  31  56  83 106 135 193 238 265 318
#     4   9  17  29  52  83 107 134 184 237 270 313
#     4   9  19  33  55  80 107 140 184 228 268 321
#
# _framework density 25.952366000000001
#
# number of rings (size 3 to 8) (size 9 to 14) (size 15 to 20)
#    0.000    2.333    1.667    3.000    2.333    0.000 
#    0.000    1.667    0.000    9.000    0.000    0.000 
#    0.000    0.000    0.000    0.000    0.000    0.000 
#
# Total GULP energy -66970.930904 kJ/mol
# GULP energy per Si atom -5580.910909 kJ/mol
# Density = 2.589330 g / cm^3
# Si number density = 25.952366 Si / 1000 Ang^3
#
#
#
# Elastic Constant Matrix: (Units=GPa)
#
#
# Indices 1 2 3 4 5 6 
#
# 1 133.0597 30.8401 64.6214 0.9764 -2.6568 -24.8593
# 2 30.8401 64.7964 57.2127 -1.5202 18.1499 -25.7289
# 3 64.6214 57.2127 136.9376 -11.8573 -14.6921 -23.7150
# 4 0.9764 -1.5202 -11.8573 52.8114 -25.8800 11.1006
# 5 -2.6568 18.1499 -14.6921 -25.8800 47.4146 -2.4561
# 6 -24.8593 -25.7289 -23.7150 11.1006 -2.4561 41.0434
#
#
#
# Elastic Compliance Matrix: (Units=1/GPa)
#
#
# Indices 1 2 3 4 5 6 
#
# 1 0.011684 0.009723 -0.009935 -0.009424 -0.010806 0.009334
# 2 0.009723 0.093587 -0.049012 -0.057200 -0.079255 0.046964
# 3 -0.009935 -0.049012 0.036768 0.034973 0.047541 -0.022111
# 4 -0.009424 -0.057200 0.034973 0.064928 0.065832 -0.034978
# 5 -0.010806 -0.079255 0.047541 0.065832 0.099383 -0.040616
# 6 0.009334 0.046964 -0.022111 -0.034978 -0.040616 0.053712
#
#
# Mechanical properties :
#
#
# Convention : Reuss Voigt Hill
#
# Bulk Modulus (GPa) = 22.94039 71.12691 47.03365
# Shear Modulus (GPa) = 10.56993 40.39520 25.48256
#
# Velocity S-wave (km/s) = 2.02031 3.94955 3.13692
# Velocity P-wave (km/s) = 3.78164 6.94729 5.59310
#
# Compressibility (1/GPa) = 0.04359124
#
# Stress axis : x y z
#
# Youngs Moduli (GPa) = 85.58669 10.68529 27.19749
#
# Poissons Ratio (x) = -0.10390 0.27021
# Poissons Ratio (y) = -0.83218 1.33300
# Poissons Ratio (z) = 0.85032 0.52371
#
# Static dielectric constant tensor:
#      x y z
#    x 2.085710 0.086000 -0.026960 
#    y 0.086000 2.139670 -0.095860 
#    z -0.026960 -0.095860 2.051780 
# 
# From -- ./inp_files/185498.got.cif
#   From: 2010.05.17/outbox.cif.g08.bks.cpg/sg2_93_cif.got.tgz:185498.got - 2010.06.03 11:33:40.
