data_PCOD9073430
_publ_section_title
;
Structure prediction by ZEFSAII (Michael W. Deem and Ramdas Pophale) SiO2 
 PCOD9073430
Probable space group: P -1
;
_chemical_formula_sum "Si O2"
_cell_formula_units_Z 16
_cell_length_a 9.000000
_cell_length_b 9.000000
_cell_length_c 12.000000
_cell_angle_alpha 130.000000
_cell_angle_beta 90.000000
_cell_angle_gamma 90.000000
_cell_volume 744.595199
_symmetry_space_group_name_H-M "P -1"
_symmetry_group_IT_number 2
_symmetry_cell_setting 'triclinic'
loop_
_space_group_symop_operation_xyz
x,y,z
-x,-y,-z
loop_
_atom_site_type_symbol
_atom_site_label
_atom_site_fract_x
_atom_site_fract_y
_atom_site_fract_z
Si Si1 0.615728 0.757035 0.579820
Si Si2 0.255078 0.258269 0.751828
Si Si3 0.937201 0.409294 0.747011
Si Si4 0.346731 0.845973 0.780257
Si Si5 0.173271 0.976081 0.445471
Si Si6 0.161071 0.571051 0.495614
Si Si7 0.485377 0.503631 0.746432
Si Si8 0.748994 0.732917 0.978072
O O1 0.498395 0.862680 0.712920
O O2 0.716598 0.599254 0.569672
O O3 0.516493 0.637877 0.431061
O O4 0.737946 0.887389 0.576999
O O5 0.400454 0.373437 0.772505
O O6 0.109999 0.361535 0.745835
O O7 0.258043 0.044222 0.591783
O O8 0.246227 0.267414 0.888081
O O9 0.839756 0.233684 0.715548
O O10 0.875374 0.382850 0.609402
O O11 0.900344 0.627085 0.889220
O O12 0.220750 0.750386 0.655202
O O13 0.386310 0.684194 0.793288
O O14 0.292416 0.042799 0.933588
O O15 0.000000 0.000000 0.500000
O O16 0.000000 0.500000 0.500000
O O17 0.629034 0.597757 0.849010
#
# Coordination Sequence:
#
# PCOD9073430 Si02
#       8
#     2   2   2   2   2   2   2   2
#     4  10  21  39  65  92 120 155 202 257 306 355
#     4  10  22  40  60  86 119 158 204 253 301 354
#     4  11  22  40  61  89 123 158 199 252 304 361
#     4  11  23  41  61  91 124 158 202 251 302 365
#     4   9  19  38  63  88 116 153 199 253 302 351
#     4  11  21  40  69  95 118 155 203 256 309 358
#     4  10  21  40  61  85 119 157 201 252 299 355
#     4  12  24  38  58  86 125 168 200 240 299 367
#
# _framework density 21.488185999999999
#
# number of rings (size 3 to 8) (size 9 to 14) (size 15 to 20)
#    0.000    1.500    0.000    7.875    0.000    3.000 
#    0.000    6.875    0.000    0.000    0.000    0.000 
#    0.000    0.000    0.000    0.000    0.000    0.000 
#
# Total GULP energy -89210.777207 kJ/mol
# GULP energy per Si atom -5575.673575 kJ/mol
# Density = 2.143928 g / cm^3
# Si number density = 21.488186 Si / 1000 Ang^3
#
#
#
# Elastic Constant Matrix: (Units=GPa)
#
#
# Indices 1 2 3 4 5 6 
#
# 1 54.5153 14.1768 -3.3141 11.5610 12.1061 14.2506
# 2 14.1768 30.7246 -2.9447 11.6127 3.2852 7.4244
# 3 -3.3141 -2.9447 42.2997 23.3164 1.7045 -6.2737
# 4 11.5610 11.6127 23.3164 40.5121 -16.3904 6.4407
# 5 12.1061 3.2852 1.7045 -16.3904 33.8970 2.2397
# 6 14.2506 7.4244 -6.2737 6.4407 2.2397 36.8408
#
#
#
# Elastic Compliance Matrix: (Units=1/GPa)
#
#
# Indices 1 2 3 4 5 6 
#
# 1 0.034786 0.005540 0.026510 -0.040249 -0.033691 -0.000973
# 2 0.005540 0.056232 0.035581 -0.053021 -0.035118 0.003988
# 3 0.026510 0.035581 0.087382 -0.097589 -0.065721 0.018512
# 4 -0.040249 -0.053021 -0.097589 0.151241 0.099059 -0.022828
# 5 -0.033691 -0.035118 -0.065721 0.099059 0.097085 -0.014302
# 6 -0.000973 0.003988 0.018512 -0.022828 -0.014302 0.034729
#
#
# Mechanical properties :
#
#
# Convention : Reuss Voigt Hill
#
# Bulk Modulus (GPa) = 3.18813 15.93062 9.55937
# Shear Modulus (GPa) = 11.60775 30.22477 20.91626
#
# Velocity S-wave (km/s) = 2.32672 3.75450 3.12329
# Velocity P-wave (km/s) = 2.95044 5.12102 4.17911
#
# Compressibility (1/GPa) = 0.31366382
#
# Stress axis : x y z
#
# Youngs Moduli (GPa) = 28.74718 17.78341 11.44402
#
# Poissons Ratio (x) = -0.09852 -0.30339
# Poissons Ratio (y) = -0.15926 -0.40720
# Poissons Ratio (z) = -0.76210 -0.63276
#
# Static dielectric constant tensor:
#      x y z
#    x 1.783820 -0.002420 -0.041920 
#    y -0.002420 1.988310 0.011480 
#    z -0.041920 0.011480 1.780950 
# 
# From -- ./inp_files/205993.got.cif
#   From: 2010.05.17/outbox.ucp.g08.bks.cvg/sg2_103_cif.got.tgz:205993.got - 2010.06.11 11:32:03.
