data_PCOD9073222
_publ_section_title
;
Structure prediction by ZEFSAII (Michael W. Deem and Ramdas Pophale) SiO2 
 PCOD9073222
Probable space group: P -1
;
_chemical_formula_sum "Si O2"
_cell_formula_units_Z 16
_cell_length_a 15.000000
_cell_length_b 18.000000
_cell_length_c 9.000000
_cell_angle_alpha 140.000000
_cell_angle_beta 150.000000
_cell_angle_gamma 40.000000
_cell_volume 740.097418
_symmetry_space_group_name_H-M "P -1"
_symmetry_group_IT_number 2
_symmetry_cell_setting 'triclinic'
loop_
_space_group_symop_operation_xyz
x,y,z
-x,-y,-z
loop_
_atom_site_type_symbol
_atom_site_label
_atom_site_fract_x
_atom_site_fract_y
_atom_site_fract_z
Si Si1 0.011824 0.048464 0.370768
Si Si2 0.968638 0.671875 0.842279
Si Si3 0.368045 0.050736 0.745294
Si Si4 0.720050 0.302581 0.437558
Si Si5 0.745772 0.939403 0.971350
Si Si6 0.011320 0.589383 0.453520
Si Si7 0.358763 0.318664 0.129955
Si Si8 0.371397 0.519707 0.691323
O O1 0.168927 0.023263 0.427946
O O2 0.864983 0.185108 0.385979
O O3 0.150592 0.025887 0.681314
O O4 0.868281 0.970555 0.061732
O O5 0.912884 0.551374 0.602135
O O6 0.802194 0.793721 0.828876
O O7 0.009669 0.668939 0.720066
O O8 0.144323 0.662103 0.190877
O O9 0.520185 0.002589 0.756847
O O10 0.313060 0.195419 0.906612
O O11 0.500000 0.000000 0.000000
O O12 0.556769 0.280803 0.270077
O O13 0.607286 0.399631 0.298032
O O14 0.162824 0.596132 0.562358
O O15 0.810312 0.611303 0.118405
O O16 0.371644 0.395410 0.414546
O O17 0.500000 0.500000 0.000000
#
# Coordination Sequence:
#
# PCOD9073222 Si02
#       8
#     2   2   2   2   2   2   2   2
#     4   9  18  35  63  93 133 169 222 268 330 396
#     4  10  23  41  71  93 139 173 222 274 340 395
#     4  10  21  36  64 103 126 172 228 272 327 403
#     4  11  22  42  67  98 132 181 213 276 340 402
#     4   9  18  37  61  99 128 175 215 275 331 391
#     4  11  25  43  64 101 133 178 224 278 330 400
#     4  12  24  42  71  96 136 178 220 276 339 396
#     4  12  27  42  64  99 135 174 227 277 333 400
#
# _framework density 21.618776
#
# number of rings (size 3 to 8) (size 9 to 14) (size 15 to 20)
#    0.000    1.500    2.500    2.250   10.500    0.000 
#    0.000    0.625    2.750    1.500    0.000    0.000 
#    0.000    0.000    0.000    0.000    0.000    0.000 
#
# Total GULP energy -89202.626768 kJ/mol
# GULP energy per Si atom -5575.164173 kJ/mol
# Density = 2.156957 g / cm^3
# Si number density = 21.618776 Si / 1000 Ang^3
#
#
#
# Elastic Constant Matrix: (Units=GPa)
#
#
# Indices 1 2 3 4 5 6 
#
# 1 101.6162 19.0791 27.5348 -5.7838 12.8727 -15.3046
# 2 19.0791 93.9494 27.7080 -0.7925 0.4972 -9.1366
# 3 27.5348 27.7080 63.0205 -14.7041 -4.2876 -8.6496
# 4 -5.7838 -0.7925 -14.7041 25.9462 -3.8179 7.8806
# 5 12.8727 0.4972 -4.2876 -3.8179 37.9100 -10.3480
# 6 -15.3046 -9.1366 -8.6496 7.8806 -10.3480 31.6550
#
#
#
# Elastic Compliance Matrix: (Units=1/GPa)
#
#
# Indices 1 2 3 4 5 6 
#
# 1 0.012335 -0.000569 -0.005397 -0.001983 -0.004036 0.003500
# 2 -0.000569 0.012735 -0.005929 -0.003953 -0.000316 0.002661
# 3 -0.005397 -0.005929 0.024470 0.013054 0.006315 0.001180
# 4 -0.001983 -0.003953 0.013054 0.048845 0.004614 -0.009184
# 5 -0.004036 -0.000316 0.006315 0.004614 0.031327 0.008775
# 6 0.003500 0.002661 0.001180 -0.009184 0.008775 0.039528
#
#
# Mechanical properties :
#
#
# Convention : Reuss Voigt Hill
#
# Bulk Modulus (GPa) = 38.83201 45.24777 42.03989
# Shear Modulus (GPa) = 24.79987 31.38653 28.09320
#
# Velocity S-wave (km/s) = 3.39063 3.81441 3.60874
# Velocity P-wave (km/s) = 5.77318 6.35412 6.07061
#
# Compressibility (1/GPa) = 0.02575195
#
# Stress axis : x y z
#
# Youngs Moduli (GPa) = 81.06694 78.52137 40.86626
#
# Poissons Ratio (x) = 0.04464 0.22054
# Poissons Ratio (y) = 0.04609 0.24231
# Poissons Ratio (z) = 0.43748 0.46559
#
# Static dielectric constant tensor:
#      x y z
#    x 1.882750 0.034870 0.038200 
#    y 0.034870 1.924100 -0.039000 
#    z 0.038200 -0.039000 1.782430 
# 
# From -- ./inp_files/318189.got.cif
#   From: 2010.05.17/outbox.ucp.g08.bks.cvg/sg2_160_cif.got.tgz:318189.got - 2010.06.11 11:32:03.
