data_PCOD9073023
_publ_section_title
;
Structure prediction by ZEFSAII (Michael W. Deem and Ramdas Pophale) SiO2 
 PCOD9073023
Probable space group: P -1
;
_chemical_formula_sum "Si O2"
_cell_formula_units_Z 12
_cell_length_a 9.000000
_cell_length_b 12.000000
_cell_length_c 18.000000
_cell_angle_alpha 150.000000
_cell_angle_beta 140.000000
_cell_angle_gamma 50.000000
_cell_volume 623.501542
_symmetry_space_group_name_H-M "P -1"
_symmetry_group_IT_number 2
_symmetry_cell_setting 'triclinic'
loop_
_space_group_symop_operation_xyz
x,y,z
-x,-y,-z
loop_
_atom_site_type_symbol
_atom_site_label
_atom_site_fract_x
_atom_site_fract_y
_atom_site_fract_z
Si Si1 0.759394 0.487227 0.058899
Si Si2 0.070570 0.040299 0.681453
Si Si3 0.187674 0.967681 0.272249
Si Si4 0.626930 0.607893 0.497139
Si Si5 0.132212 0.564209 0.365050
Si Si6 0.703857 0.130729 0.194327
O O1 0.857657 0.723532 0.194378
O O2 0.933952 0.445824 0.169775
O O3 0.500000 0.500000 0.000000
O O4 0.767995 0.275470 0.883902
O O5 0.045327 0.814254 0.492234
O O6 0.279616 0.971511 0.775559
O O7 0.855696 0.048696 0.663614
O O8 0.353299 0.164612 0.412501
O O9 0.940830 0.060972 0.207981
O O10 0.371613 0.587277 0.423709
O O11 0.804826 0.568643 0.611903
O O12 0.671884 0.393541 0.339112
O O13 0.500000 0.000000 0.000000
#
# Coordination Sequence:
#
# PCOD9073023 Si02
#       6
#     2   2   2   2   2   2
#     4  12  24  41  59  87 124 163 201 239 296 360
#     4   9  22  40  59  86 123 155 202 242 294 355
#     4  10  22  38  61  86 123 153 202 249 288 357
#     4  10  20  40  64  92 118 153 203 243 307 348
#     4  10  22  39  65  86 121 159 194 250 296 356
#     4   9  19  35  62  89 118 152 192 254 293 345
#
# _framework density 19.246143
#
# number of rings (size 3 to 8) (size 9 to 14) (size 15 to 20)
#    1.000    1.000    0.000    3.500    0.000    2.000 
#    0.000    1.667    0.000    0.000    0.000    0.000 
#    0.000    0.000    0.000    0.000    0.000    0.000 
#
# Total GULP energy -66817.540677 kJ/mol
# GULP energy per Si atom -5568.128390 kJ/mol
# Density = 1.920234 g / cm^3
# Si number density = 19.246143 Si / 1000 Ang^3
#
#
#
# Elastic Constant Matrix: (Units=GPa)
#
#
# Indices 1 2 3 4 5 6 
#
# 1 108.9597 25.5531 20.8331 15.5331 1.4956 -13.3500
# 2 25.5531 58.2197 27.7191 22.1444 -2.4667 4.0332
# 3 20.8331 27.7191 48.6849 9.5024 -8.1224 -2.3260
# 4 15.5331 22.1444 9.5024 46.2895 -6.9741 -0.0196
# 5 1.4956 -2.4667 -8.1224 -6.9741 30.6165 18.2850
# 6 -13.3500 4.0332 -2.3260 -0.0196 18.2850 37.2431
#
#
#
# Elastic Compliance Matrix: (Units=1/GPa)
#
#
# Indices 1 2 3 4 5 6 
#
# 1 0.012148 -0.003470 -0.003504 -0.002787 -0.007259 0.008074
# 2 -0.003470 0.029346 -0.013540 -0.010144 -0.000311 -0.005120
# 3 -0.003504 -0.013540 0.030644 0.002762 0.009295 -0.002438
# 4 -0.002787 -0.010144 0.002762 0.028164 0.008908 -0.004087
# 5 -0.007259 -0.000311 0.009295 0.008908 0.054714 -0.028846
# 6 0.008074 -0.005120 -0.002438 -0.004087 -0.028846 0.044307
#
#
# Mechanical properties :
#
#
# Convention : Reuss Voigt Hill
#
# Bulk Modulus (GPa) = 32.14455 40.45275 36.29865
# Shear Modulus (GPa) = 19.94250 32.28043 26.11146
#
# Velocity S-wave (km/s) = 3.22247 4.09986 3.68735
# Velocity P-wave (km/s) = 5.53026 6.59363 6.08522
#
# Compressibility (1/GPa) = 0.03110947
#
# Stress axis : x y z
#
# Youngs Moduli (GPa) = 82.32002 34.07652 32.63306
#
# Poissons Ratio (x) = 0.11826 0.11434
# Poissons Ratio (y) = 0.28568 0.44185
# Poissons Ratio (z) = 0.28843 0.46139
#
# Static dielectric constant tensor:
#      x y z
#    x 1.760280 0.014630 -0.011490 
#    y 0.014630 1.671840 -0.025020 
#    z -0.011490 -0.025020 1.690860 
# 
# From -- ./inp_files/302225.got.cif
#   From: 2010.05.17/outbox.ucp.g08.bks.cvg/sg2_152_cif.got.tgz:302225.got - 2010.06.11 11:32:03.
