data_PCOD9073325
_publ_section_title
;
Structure prediction by ZEFSAII (Michael W. Deem and Ramdas Pophale) SiO2 
 PCOD9073325
Probable space group: P -1
;
_chemical_formula_sum "Si O2"
_cell_formula_units_Z 16
_cell_length_a 18.000000
_cell_length_b 21.000000
_cell_length_c 9.000000
_cell_angle_alpha 60.000000
_cell_angle_beta 50.000000
_cell_angle_gamma 20.000000
_cell_volume 818.070593
_symmetry_space_group_name_H-M "P -1"
_symmetry_group_IT_number 2
_symmetry_cell_setting 'triclinic'
loop_
_space_group_symop_operation_xyz
x,y,z
-x,-y,-z
loop_
_atom_site_type_symbol
_atom_site_label
_atom_site_fract_x
_atom_site_fract_y
_atom_site_fract_z
Si Si1 0.804717 0.658063 0.367861
Si Si2 0.042738 0.081657 0.902505
Si Si3 0.867643 0.706885 0.491244
Si Si4 0.542063 0.339235 0.143613
Si Si5 0.984063 0.703426 0.623026
Si Si6 0.360814 0.915834 0.403771
Si Si7 0.776842 0.532717 0.117679
Si Si8 0.170747 0.621977 0.028624
O O1 0.693609 0.786912 0.497262
O O2 0.594836 0.783600 0.364438
O O3 0.914788 0.507123 0.483240
O O4 0.053883 0.526527 0.126119
O O5 0.286122 0.854648 0.895996
O O6 0.150195 0.030486 0.660551
O O7 0.762613 0.235547 0.060139
O O8 0.989237 0.187366 0.962528
O O9 0.794260 0.794485 0.641909
O O10 0.994787 0.684592 0.264871
O O11 0.276133 0.512793 0.387601
O O12 0.426796 0.452042 0.005733
O O13 0.050550 0.610707 0.792039
O O14 0.817803 0.893187 0.659282
O O15 0.507890 0.759419 0.274416
O O16 0.753960 0.474460 0.110423
#
# Coordination Sequence:
#
# PCOD9073325 Si02
#       8
#     2   2   2   2   2   2   2   2
#     4  10  21  38  62  86 124 163 202 252 298 346
#     4  11  21  39  71  92 111 162 205 250 301 358
#     4   9  18  38  61  87 115 158 206 248 290 349
#     4  10  21  40  69  92 118 150 211 249 299 364
#     4  11  22  38  61  90 122 159 201 252 300 363
#     4  12  22  37  64  88 121 165 202 245 306 353
#     4  11  24  42  57  89 132 160 195 254 303 352
#     4  10  21  40  63  91 123 156 199 255 300 355
#
# _framework density 19.558214
#
# number of rings (size 3 to 8) (size 9 to 14) (size 15 to 20)
#    0.000    1.500    5.000    1.500    0.000    2.000 
#    0.000    1.250    0.000    0.000    0.000    0.000 
#    0.000    0.000    0.000    0.000    0.000    0.000 
#
# Total GULP energy -89127.192717 kJ/mol
# GULP energy per Si atom -5570.449545 kJ/mol
# Density = 1.951370 g / cm^3
# Si number density = 19.558214 Si / 1000 Ang^3
#
#
#
# Elastic Constant Matrix: (Units=GPa)
#
#
# Indices 1 2 3 4 5 6 
#
# 1 112.3814 30.7574 30.9286 10.5327 23.3132 26.3947
# 2 30.7574 101.4343 10.9663 7.5399 9.2879 31.7078
# 3 30.9286 10.9663 44.3740 2.8864 7.0832 7.1452
# 4 10.5327 7.5399 2.8864 22.0890 -0.0562 3.2262
# 5 23.3132 9.2879 7.0832 -0.0562 38.0095 5.7962
# 6 26.3947 31.7078 7.1452 3.2262 5.7962 43.5439
#
#
#
# Elastic Compliance Matrix: (Units=1/GPa)
#
#
# Indices 1 2 3 4 5 6 
#
# 1 0.014264 -0.000827 -0.007520 -0.004731 -0.006295 -0.005622
# 2 -0.000827 0.013216 -0.000928 -0.002743 -0.001242 -0.008602
# 3 -0.007520 -0.000928 0.027961 0.000145 -0.000478 0.000699
# 4 -0.004731 -0.002743 0.000145 0.048337 0.003495 0.000795
# 5 -0.006295 -0.001242 -0.000478 0.003495 0.030495 0.000480
# 6 -0.005622 -0.008602 0.000699 0.000795 0.000480 0.032399
#
#
# Mechanical properties :
#
#
# Convention : Reuss Voigt Hill
#
# Bulk Modulus (GPa) = 27.10672 44.83269 35.96971
# Shear Modulus (GPa) = 25.31416 33.09763 29.20590
#
# Velocity S-wave (km/s) = 3.60154 4.11817 3.86849
# Velocity P-wave (km/s) = 5.58430 6.75166 6.19553
#
# Compressibility (1/GPa) = 0.03689122
#
# Stress axis : x y z
#
# Youngs Moduli (GPa) = 70.10805 75.66561 35.76460
#
# Poissons Ratio (x) = 0.06255 0.26894
# Poissons Ratio (y) = 0.05796 0.03320
# Poissons Ratio (z) = 0.52719 0.07024
#
# Static dielectric constant tensor:
#      x y z
#    x 1.744590 0.033960 -0.011470 
#    y 0.033960 1.735190 -0.022880 
#    z -0.011470 -0.022880 1.697330 
# 
# From -- ./inp_files/215210.got.cif
#   From: 2010.05.17/outbox.ucp.g08.bks.cvg/sg2_108_cif.got.tgz:215210.got - 2010.06.11 11:32:03.
