data_PCOD9073490
_publ_section_title
;
Structure prediction by ZEFSAII (Michael W. Deem and Ramdas Pophale) SiO2 
 PCOD9073490
Probable space group: P -1
;
_chemical_formula_sum "Si O2"
_cell_formula_units_Z 16
_cell_length_a 9.203466
_cell_length_b 11.504972
_cell_length_c 19.157626
_cell_angle_alpha 23.915376
_cell_angle_beta 57.603498
_cell_angle_gamma 65.742498
_cell_volume 675.630508
_symmetry_space_group_name_H-M "P -1"
_symmetry_group_IT_number 2
_symmetry_cell_setting 'triclinic'
loop_
_space_group_symop_operation_xyz
x,y,z
-x,-y,-z
loop_
_atom_site_type_symbol
_atom_site_label
_atom_site_fract_x
_atom_site_fract_y
_atom_site_fract_z
Si Si1 0.429078 0.800904 0.559444
Si Si2 0.333728 0.618610 0.314443
Si Si3 0.341309 0.815570 0.056434
Si Si4 0.678492 0.927817 0.697409
Si Si5 0.345259 0.462058 0.887477
Si Si6 0.869401 0.194477 0.174046
Si Si7 0.878626 0.145903 0.655899
Si Si8 0.718641 0.261579 0.037556
O O1 0.579137 0.658352 0.565008
O O2 0.297355 0.532229 0.782730
O O3 0.500000 0.000000 0.500000
O O4 0.331239 0.935808 0.450756
O O5 0.255699 0.718148 0.207127
O O6 0.192765 0.610536 0.416759
O O7 0.510013 0.881475 0.139129
O O8 0.455063 0.569699 0.148067
O O9 0.240992 0.816401 0.009239
O O10 0.822365 0.132687 0.597690
O O11 0.487378 0.888522 0.807363
O O12 0.725897 0.609410 0.854697
O O13 0.312841 0.718866 0.804812
O O14 0.237973 0.153389 0.113864
O O15 0.850295 0.169291 0.110116
O O16 0.930711 0.925179 0.342545
O O17 0.000000 0.500000 0.000000
#
# Coordination Sequence:
#
# PCOD9073490 Si02
#       8
#     2   2   2   2   2   2   2   2
#     4  11  22  32  53  85 107 134 172 231 276 305
#     4   9  18  34  50  77 114 134 172 218 274 313
#     4   9  16  30  56  79 101 144 172 223 263 303
#     4  11  20  31  56  84 105 134 181 227 257 310
#     4   9  16  34  52  78 110 133 176 214 263 307
#     4  10  18  31  55  80 109 142 177 216 256 312
#     4  10  19  36  56  79 106 148 177 207 266 316
#     4  11  17  32  55  82 106 133 189 221 249 311
#
# _framework density 23.681583
#
# number of rings (size 3 to 8) (size 9 to 14) (size 15 to 20)
#    0.000    2.000    5.000    3.750    0.000    0.500 
#    0.000    1.250    0.000    3.000    0.000    0.000 
#    0.000    0.000    0.000    0.000    0.000    0.000 
#
# Total GULP energy -89294.919471 kJ/mol
# GULP energy per Si atom -5580.932467 kJ/mol
# Density = 2.362768 g / cm^3
# Si number density = 23.681583 Si / 1000 Ang^3
#
#
#
# Elastic Constant Matrix: (Units=GPa)
#
#
# Indices 1 2 3 4 5 6 
#
# 1 80.2766 31.4831 21.2342 4.7091 29.4406 29.1494
# 2 31.4831 115.6176 20.9772 -12.0063 20.5057 23.7673
# 3 21.2342 20.9772 71.6073 5.1066 29.8581 17.0635
# 4 4.7091 -12.0063 5.1066 45.1917 6.7748 17.0624
# 5 29.4406 20.5057 29.8581 6.7748 29.2149 9.6428
# 6 29.1494 23.7673 17.0635 17.0624 9.6428 36.5352
#
#
#
# Elastic Compliance Matrix: (Units=1/GPa)
#
#
# Indices 1 2 3 4 5 6 
#
# 1 0.033640 0.003905 0.013264 0.014135 -0.043329 -0.030740
# 2 0.003905 0.013725 0.003914 0.010679 -0.015139 -0.014863
# 3 0.013264 0.003914 0.031393 0.010681 -0.043660 -0.021256
# 4 0.014135 0.010679 0.010681 0.039572 -0.030749 -0.033578
# 5 -0.043329 -0.015139 -0.043660 -0.030749 0.125031 0.046170
# 6 -0.030740 -0.014863 -0.021256 -0.033578 0.046170 0.074989
#
#
# Mechanical properties :
#
#
# Convention : Reuss Voigt Hill
#
# Bulk Modulus (GPa) = 8.26955 46.09895 27.18425
# Shear Modulus (GPa) = 15.79818 35.10883 25.45350
#
# Velocity S-wave (km/s) = 2.58565 3.85455 3.28201
# Velocity P-wave (km/s) = 3.52330 6.27045 5.08587
#
# Compressibility (1/GPa) = 0.12092559
#
# Stress axis : x y z
#
# Youngs Moduli (GPa) = 29.72632 72.85870 31.85404
#
# Poissons Ratio (x) = -0.28449 -0.42253
# Poissons Ratio (y) = -0.11607 -0.12469
# Poissons Ratio (z) = -0.39430 -0.28519
#
# Static dielectric constant tensor:
#      x y z
#    x 2.092220 -0.005860 -0.148550 
#    y -0.005860 1.952060 0.008990 
#    z -0.148550 0.008990 2.126950 
# 
# From -- ./inp_files/558277.got.cif
#   From: 2010.05.17/outbox.cif.g08.bks.cpg/sg2_280_cif.got.tgz:558277.got - 2010.06.03 11:33:40.
