data_PCOD9073338
_publ_section_title
;
Structure prediction by ZEFSAII (Michael W. Deem and Ramdas Pophale) SiO2 
 PCOD9073338
Probable space group: P -1
;
_chemical_formula_sum "Si O2"
_cell_formula_units_Z 16
_cell_length_a 12.000000
_cell_length_b 9.000000
_cell_length_c 12.000000
_cell_angle_alpha 130.000000
_cell_angle_beta 50.000000
_cell_angle_gamma 110.000000
_cell_volume 754.912344
_symmetry_space_group_name_H-M "P -1"
_symmetry_group_IT_number 2
_symmetry_cell_setting 'triclinic'
loop_
_space_group_symop_operation_xyz
x,y,z
-x,-y,-z
loop_
_atom_site_type_symbol
_atom_site_label
_atom_site_fract_x
_atom_site_fract_y
_atom_site_fract_z
Si Si1 0.589405 0.972474 0.592896
Si Si2 0.999541 0.109525 0.265203
Si Si3 0.099597 0.460591 0.088132
Si Si4 0.741915 0.951354 0.251424
Si Si5 0.675898 0.751979 0.853290
Si Si6 0.234350 0.669436 0.305960
Si Si7 0.482234 0.811997 0.783518
Si Si8 0.164426 0.669668 0.920941
O O1 0.695960 0.916652 0.392688
O O2 0.648441 0.170890 0.698587
O O3 0.418661 0.990986 0.671244
O O4 0.590117 0.807608 0.606522
O O5 0.151201 0.211138 0.225409
O O6 0.871224 0.095023 0.244144
O O7 0.895789 0.222394 0.480664
O O8 0.068858 0.880162 0.113615
O O9 0.151114 0.605811 0.218045
O O10 0.928916 0.426560 0.162133
O O11 0.153520 0.537342 0.972882
O O12 0.186009 0.245493 0.948511
O O13 0.681337 0.534828 0.798424
O O14 0.587983 0.744982 0.787898
O O15 0.585558 0.956050 0.054088
O O16 0.334901 0.704918 0.812118
#
# Coordination Sequence:
#
# PCOD9073338 Si02
#       8
#     2   2   2   2   2   2   2   2
#     4  10  22  39  61  91 119 163 196 240 302 354
#     4   9  20  41  61  83 120 160 197 244 298 343
#     4  10  21  38  63  90 118 155 204 248 294 350
#     4   9  20  40  62  84 125 156 201 246 289 356
#     4  10  22  38  59  92 126 152 194 255 296 346
#     4  11  23  36  65  93 115 157 205 247 290 353
#     4  10  22  39  60  88 125 159 194 239 307 359
#     4   9  21  41  60  86 123 160 191 251 299 349
#
# _framework density 21.194514000000002
#
# number of rings (size 3 to 8) (size 9 to 14) (size 15 to 20)
#    0.000    2.250    0.000    1.125    7.000    2.500 
#    6.750    5.625    0.000    0.000    0.000    0.000 
#    0.000    0.000    0.000    0.000    0.000    0.000 
#
# Total GULP energy -89111.163444 kJ/mol
# GULP energy per Si atom -5569.447715 kJ/mol
# Density = 2.114627 g / cm^3
# Si number density = 21.194514 Si / 1000 Ang^3
#
#
#
# Elastic Constant Matrix: (Units=GPa)
#
#
# Indices 1 2 3 4 5 6 
#
# 1 158.7946 50.1811 33.9778 -7.4539 8.9196 33.6282
# 2 50.1811 91.5633 5.9373 -13.6291 0.2691 22.2632
# 3 33.9778 5.9373 39.9681 0.7991 8.8016 8.3412
# 4 -7.4539 -13.6291 0.7991 25.8933 6.3479 -0.1115
# 5 8.9196 0.2691 8.8016 6.3479 40.0024 1.1513
# 6 33.6282 22.2632 8.3412 -0.1115 1.1513 43.8990
#
#
#
# Elastic Compliance Matrix: (Units=1/GPa)
#
#
# Indices 1 2 3 4 5 6 
#
# 1 0.009997 -0.003767 -0.006874 0.001276 -0.000767 -0.004419
# 2 -0.003767 0.015144 0.002034 0.006965 -0.000667 -0.005146
# 3 -0.006874 0.002034 0.032125 -0.000581 -0.005407 -0.001730
# 4 0.001276 0.006965 -0.000581 0.044402 -0.007132 -0.004100
# 5 -0.000767 -0.000667 -0.005407 -0.007132 0.027460 0.001215
# 6 -0.004419 -0.005146 -0.001730 -0.004100 0.001215 0.029060
#
#
# Mechanical properties :
#
#
# Convention : Reuss Voigt Hill
#
# Bulk Modulus (GPa) = 24.96709 52.27984 38.62346
# Shear Modulus (GPa) = 26.48962 35.30759 30.89860
#
# Velocity S-wave (km/s) = 3.53913 4.08595 3.82233
# Velocity P-wave (km/s) = 5.33912 6.85421 6.14355
#
# Compressibility (1/GPa) = 0.04005272
#
# Stress axis : x y z
#
# Youngs Moduli (GPa) = 100.02678 66.03376 31.12856
#
# Poissons Ratio (x) = 0.24873 0.21398
# Poissons Ratio (y) = 0.37677 -0.06332
# Poissons Ratio (z) = 0.68758 -0.13431
#
# Static dielectric constant tensor:
#      x y z
#    x 1.782770 -0.009580 0.044240 
#    y -0.009580 1.784680 -0.029920 
#    z 0.044240 -0.029920 1.782560 
# 
# From -- ./inp_files/226122.got.cif
#   From: 2010.05.17/outbox.ucp.g08.bks.cvg/sg2_114_cif.got.tgz:226122.got - 2010.06.11 11:32:03.
