data_PCOD9073743
_publ_section_title
;
Structure prediction by ZEFSAII (Michael W. Deem and Ramdas Pophale) SiO2 
 PCOD9073743
Probable space group: P -1
;
_chemical_formula_sum "Si O2"
_cell_formula_units_Z 14
_cell_length_a 9.529040
_cell_length_b 11.243852
_cell_length_c 10.908243
_cell_angle_alpha 125.230412
_cell_angle_beta 89.279600
_cell_angle_gamma 130.216610
_cell_volume 595.408101
_symmetry_space_group_name_H-M "P -1"
_symmetry_group_IT_number 2
_symmetry_cell_setting 'triclinic'
loop_
_space_group_symop_operation_xyz
x,y,z
-x,-y,-z
loop_
_atom_site_type_symbol
_atom_site_label
_atom_site_fract_x
_atom_site_fract_y
_atom_site_fract_z
Si Si1 0.206495 0.172781 0.009628
Si Si2 0.094929 0.549961 0.394188
Si Si3 0.555629 0.324264 0.674742
Si Si4 0.342322 0.804642 0.177364
Si Si5 0.339435 0.967791 0.900925
Si Si6 0.004889 0.329600 0.752208
Si Si7 0.738639 0.744849 0.208617
O O1 0.328215 0.423893 0.180544
O O2 0.134368 0.101213 0.824396
O O3 0.363773 0.160768 0.026672
O O4 0.000000 0.000000 0.000000
O O5 0.338738 0.676995 0.441584
O O6 0.000000 0.500000 0.500000
O O7 0.910926 0.276003 0.197722
O O8 0.060125 0.663683 0.376945
O O9 0.637601 0.290224 0.766189
O O10 0.310103 0.172868 0.638546
O O11 0.216149 0.840303 0.259278
O O12 0.577982 0.003914 0.221466
O O13 0.171063 0.590336 0.957366
O O14 0.500000 0.000000 0.000000
O O15 0.139234 0.290954 0.750621
O O16 0.500000 0.500000 0.000000
#
# Coordination Sequence:
#
# PCOD9073743 Si02
#       7
#     2   2   2   2   2   2   2
#     4  11  20  31  54  94 122 140 183 255 305 330
#     4  11  25  42  57  82 126 167 192 233 297 357
#     4  10  19  37  58  85 119 156 189 242 302 348
#     4  10  18  33  57  90 113 148 192 250 291 344
#     4  12  23  34  59  93 117 144 201 251 288 338
#     4  10  19  34  58  84 118 154 193 234 300 349
#     4  10  18  31  56  87 116 147 190 242 299 344
#
# _framework density 23.513285
#
# number of rings (size 3 to 8) (size 9 to 14) (size 15 to 20)
#    0.000    1.429    7.143    0.857    2.000    0.000 
#    0.000    3.571    0.000    0.857    0.000    0.000 
#    0.000    0.000    0.000    0.000    0.000    0.000 
#
# Total GULP energy -78121.984456 kJ/mol
# GULP energy per Si atom -5580.141747 kJ/mol
# Density = 2.345977 g / cm^3
# Si number density = 23.513285 Si / 1000 Ang^3
#
#
#
# Elastic Constant Matrix: (Units=GPa)
#
#
# Indices 1 2 3 4 5 6 
#
# 1 226.3327 65.1960 42.7436 -30.0696 -16.0334 7.8459
# 2 65.1960 159.4436 28.9345 -15.9153 -3.2394 25.3431
# 3 42.7436 28.9345 41.8364 -9.7973 -3.0407 9.9085
# 4 -30.0696 -15.9153 -9.7973 41.9766 13.0914 -2.8027
# 5 -16.0334 -3.2394 -3.0407 13.0914 24.7954 -5.6029
# 6 7.8459 25.3431 9.9085 -2.8027 -5.6029 48.8372
#
#
#
# Elastic Compliance Matrix: (Units=1/GPa)
#
#
# Indices 1 2 3 4 5 6 
#
# 1 0.006193 -0.001590 -0.004864 0.002030 0.002402 0.001209
# 2 -0.001590 0.008135 -0.002930 0.001647 -0.001986 -0.003505
# 3 -0.004864 -0.002930 0.032571 0.003445 -0.002342 -0.004377
# 4 0.002030 0.001647 0.003445 0.031249 -0.014956 -0.001802
# 5 0.002402 -0.001986 -0.002342 -0.014956 0.050604 0.006067
# 6 0.001209 -0.003505 -0.004377 -0.001802 0.006067 0.023581
#
#
# Mechanical properties :
#
#
# Convention : Reuss Voigt Hill
#
# Bulk Modulus (GPa) = 35.54778 77.92900 56.73839
# Shear Modulus (GPa) = 27.70407 42.50442 35.10425
#
# Velocity S-wave (km/s) = 3.43626 4.25629 3.86807
# Velocity P-wave (km/s) = 5.55831 7.57424 6.64319
#
# Compressibility (1/GPa) = 0.02813115
#
# Stress axis : x y z
#
# Youngs Moduli (GPa) = 161.47813 122.92662 30.70171
#
# Poissons Ratio (x) = 0.19550 0.14932
# Poissons Ratio (y) = 0.25682 0.08996
# Poissons Ratio (z) = 0.78537 0.36017
#
# Static dielectric constant tensor:
#      x y z
#    x 1.864970 0.066670 -0.031080 
#    y 0.066670 1.950270 0.063690 
#    z -0.031080 0.063690 2.044950 
# 
# From -- ./inp_files/178976.got.cif
#   From: 2010.05.17/outbox.cif.g08.bks.cpg/sg2_90_cif.got.tgz:178976.got - 2010.06.03 11:33:40.
