data_PCOD9073153
_publ_section_title
;
Structure prediction by ZEFSAII (Michael W. Deem and Ramdas Pophale) SiO2 
 PCOD9073153
Probable space group: P -1
;
_chemical_formula_sum "Si O2"
_cell_formula_units_Z 16
_cell_length_a 15.000000
_cell_length_b 15.000000
_cell_length_c 15.000000
_cell_angle_alpha 150.000000
_cell_angle_beta 30.000000
_cell_angle_gamma 130.000000
_cell_volume 762.223433
_symmetry_space_group_name_H-M "P -1"
_symmetry_group_IT_number 2
_symmetry_cell_setting 'triclinic'
loop_
_space_group_symop_operation_xyz
x,y,z
-x,-y,-z
loop_
_atom_site_type_symbol
_atom_site_label
_atom_site_fract_x
_atom_site_fract_y
_atom_site_fract_z
Si Si1 0.313711 0.035068 0.294481
Si Si2 0.929924 0.947689 0.847343
Si Si3 0.778385 0.474921 0.840562
Si Si4 0.932881 0.343899 0.972989
Si Si5 0.519065 0.621386 0.864901
Si Si6 0.668577 0.135464 0.058128
Si Si7 0.924251 0.353148 0.197614
Si Si8 0.778794 0.681761 0.849485
O O1 0.284041 0.009725 0.193546
O O2 0.420247 0.821481 0.065214
O O3 0.102199 0.140850 0.614768
O O4 0.445858 0.161000 0.296535
O O5 0.815946 0.874374 0.956837
O O6 0.117190 0.745813 0.482721
O O7 0.797642 0.034076 0.946650
O O8 0.987178 0.126533 0.978790
O O9 0.687144 0.641821 0.986428
O O10 0.953804 0.531860 0.770211
O O11 0.631267 0.459396 0.030743
O O12 0.729134 0.309593 0.120825
O O13 0.957523 0.361043 0.071075
O O14 0.000000 0.500000 0.000000
O O15 0.692577 0.462020 0.516730
O O16 0.639981 0.661998 0.875741
O O17 0.000000 0.500000 0.500000
#
# Coordination Sequence:
#
# PCOD9073153 Si02
#       8
#     2   2   2   2   2   2   2   2
#     4  11  24  41  72  94 129 181 219 264 336 389
#     4  10  21  45  69  92 143 171 217 280 325 392
#     4  11  24  43  70  96 133 176 224 271 335 394
#     4  11  27  41  64  98 139 172 220 272 328 393
#     4  12  23  43  71  96 133 173 225 276 325 401
#     4  10  22  42  66  96 128 174 224 257 330 392
#     4  11  25  43  64 100 132 175 221 273 336 385
#     4  10  20  43  71  95 131 180 215 274 342 386
#
# _framework density 20.991219999999998
#
# number of rings (size 3 to 8) (size 9 to 14) (size 15 to 20)
#    0.000    1.250    3.750    2.250    7.000    3.000 
#    2.250    0.625    0.000    0.000    0.000    0.000 
#    0.000    0.000    0.000    0.000    0.000    0.000 
#
# Total GULP energy -89209.108940 kJ/mol
# GULP energy per Si atom -5575.569309 kJ/mol
# Density = 2.094344 g / cm^3
# Si number density = 20.991220 Si / 1000 Ang^3
#
#
#
# Elastic Constant Matrix: (Units=GPa)
#
#
# Indices 1 2 3 4 5 6 
#
# 1 23.3310 1.8731 -1.6118 0.2136 -7.1675 -3.9257
# 2 1.8731 219.1568 34.3886 -0.8462 -3.8251 -2.6383
# 3 -1.6118 34.3886 66.8732 -4.7669 4.7143 1.2850
# 4 0.2136 -0.8462 -4.7669 43.9675 -3.7932 2.5984
# 5 -7.1675 -3.8251 4.7143 -3.7932 18.7546 -4.9241
# 6 -3.9257 -2.6383 1.2850 2.5984 -4.9241 40.1654
#
#
#
# Elastic Compliance Matrix: (Units=1/GPa)
#
#
# Indices 1 2 3 4 5 6 
#
# 1 0.050770 0.000109 -0.000430 0.001138 0.021753 0.007576
# 2 0.000109 0.005033 -0.002739 -0.000075 0.001917 0.000669
# 3 -0.000430 -0.002739 0.016838 0.001426 -0.005054 -0.001472
# 4 0.001138 -0.000075 0.001426 0.023337 0.004547 -0.000892
# 5 0.021753 0.001917 -0.005054 0.004547 0.066925 0.010324
# 6 0.007576 0.000669 -0.001472 -0.000892 0.010324 0.027052
#
#
# Mechanical properties :
#
#
# Convention : Reuss Voigt Hill
#
# Bulk Modulus (GPa) = 15.03299 42.07342 28.55321
# Shear Modulus (GPa) = 22.90964 38.89158 30.90061
#
# Velocity S-wave (km/s) = 3.30721 4.30903 3.84092
# Velocity P-wave (km/s) = 4.66482 6.69656 5.77081
#
# Compressibility (1/GPa) = 0.06652034
#
# Stress axis : x y z
#
# Youngs Moduli (GPa) = 19.69669 198.68894 59.38972
#
# Poissons Ratio (x) = -0.02163 0.02555
# Poissons Ratio (y) = -0.00214 0.16266
# Poissons Ratio (z) = 0.00848 0.54418
#
# Static dielectric constant tensor:
#      x y z
#    x 1.802280 0.011100 0.014680 
#    y 0.011100 1.767610 0.009540 
#    z 0.014680 0.009540 1.771650 
# 
# From -- ./inp_files/534498.got.cif
#   From: 2010.05.17/outbox.ucp.g08.bks.cvg/sg2_268_cif.got.tgz:534498.got - 2010.06.11 11:32:03.
