data_PCOD9073985
_publ_section_title
;
Structure prediction by ZEFSAII (Michael W. Deem and Ramdas Pophale) SiO2 
 PCOD9073985
Probable space group: P -1
;
_chemical_formula_sum "Si O2"
_cell_formula_units_Z 15
_cell_length_a 21.000000
_cell_length_b 9.000000
_cell_length_c 6.000000
_cell_angle_alpha 90.000000
_cell_angle_beta 70.000000
_cell_angle_gamma 40.000000
_cell_volume 617.169155
_symmetry_space_group_name_H-M "P -1"
_symmetry_group_IT_number 2
_symmetry_cell_setting 'triclinic'
loop_
_space_group_symop_operation_xyz
x,y,z
-x,-y,-z
loop_
_atom_site_type_symbol
_atom_site_label
_atom_site_fract_x
_atom_site_fract_y
_atom_site_fract_z
Si Si1 0.516443 0.752568 0.310229
Si Si2 0.669374 0.389924 0.516600
Si Si3 0.088024 0.761501 0.061371
Si Si4 0.738704 0.721199 0.477281
Si Si5 0.260894 0.526328 0.200494
Si Si6 0.500000 0.500000 0.000000
Si Si7 0.033886 0.556074 0.270447
Si Si8 0.179272 0.130476 0.784328
O O1 0.567980 0.646596 0.495748
O O2 0.497872 0.624228 0.220036
O O3 0.392676 0.054928 0.453752
O O4 0.612442 0.668517 0.052500
O O5 0.748701 0.360157 0.562528
O O6 0.740776 0.153409 0.271617
O O7 0.609665 0.392700 0.768724
O O8 0.165228 0.728742 0.126694
O O9 0.038057 0.725749 0.292561
O O10 0.173660 0.516070 0.796441
O O11 0.000000 0.000000 0.000000
O O12 0.745678 0.630648 0.707057
O O13 0.770981 0.836304 0.445620
O O14 0.000000 0.500000 0.500000
O O15 0.939163 0.715437 0.184789
O O16 0.153431 0.270943 0.034528
#
# Coordination Sequence:
#
# PCOD9073985 Si02
#       8
#     2   2   2   2   2   1   2   2
#     4  11  24  44  73 107 148 187 238 295 359 429
#     4  11  24  45  69 107 145 190 238 297 356 431
#     4  11  27  49  74 104 145 193 243 308 365 432
#     4  11  24  47  71 105 147 186 237 296 363 436
#     4  11  26  44  73 104 142 195 236 289 364 440
#     4  10  22  40  68 104 140 186 236 288 352 428
#     4  10  23  46  74 102 137 190 246 304 366 431
#     4  10  23  44  70 103 141 183 240 300 359 422
#
# _framework density 24.30452
#
# number of rings (size 3 to 8) (size 9 to 14) (size 15 to 20)
#    0.000    1.333    1.333    2.400    3.733    6.933 
#    9.600    0.000    0.000    0.000    0.000    0.000 
#    0.000    0.000    0.000    0.000    0.000    0.000 
#
# Total GULP energy -83551.190017 kJ/mol
# GULP energy per Si atom -5570.079334 kJ/mol
# Density = 2.424920 g / cm^3
# Si number density = 24.304520 Si / 1000 Ang^3
#
#
#
# Elastic Constant Matrix: (Units=GPa)
#
#
# Indices 1 2 3 4 5 6 
#
# 1 92.1366 50.1474 10.3134 -7.9604 -9.2529 -2.6206
# 2 50.1474 144.7335 35.5127 13.2976 10.1658 -19.6535
# 3 10.3134 35.5127 1.7542 36.5286 -9.1379 2.9736
# 4 -7.9604 13.2976 36.5286 2.6822 1.5831 -3.8989
# 5 -9.2529 10.1658 -9.1379 1.5831 32.0006 -15.8077
# 6 -2.6206 -19.6535 2.9736 -3.8989 -15.8077 33.8648
#
#
#
# Elastic Compliance Matrix: (Units=1/GPa)
#
#
# Indices 1 2 3 4 5 6 
#
# 1 0.015837 -0.007835 0.005646 0.005022 0.008880 0.000906
# 2 -0.007835 0.012724 -0.004898 -0.011568 -0.005499 0.003310
# 3 0.005646 -0.004898 0.000869 0.031086 0.003172 0.002578
# 4 0.005022 -0.011568 0.031086 0.011616 0.012499 -0.001883
# 5 0.008880 -0.005499 0.003172 0.012499 0.045733 0.020004
# 6 0.000906 0.003310 0.002578 -0.001883 0.020004 0.040414
#
#
# Mechanical properties :
#
#
# Convention : Reuss Voigt Hill
#
# Bulk Modulus (GPa) = 65.54525 47.84127 56.69326
# Shear Modulus (GPa) = 34.14093 23.21957 28.68025
#
# Velocity S-wave (km/s) = 3.75202 3.09424 3.43889
# Velocity P-wave (km/s) = 6.76735 5.70023 6.25658
#
# Compressibility (1/GPa) = 0.01525664
#
# Stress axis : x y z
#
# Youngs Moduli (GPa) = 63.14327 78.59021 1151.11015
#
# Poissons Ratio (x) = 0.61573 -6.49968
# Poissons Ratio (y) = 0.49471 5.63858
# Poissons Ratio (z) = -0.35654 0.38497
#
# Static dielectric constant tensor:
#      x y z
#    x 2.014920 0.030720 -0.029130 
#    y 0.030720 1.929960 0.021470 
#    z -0.029130 0.021470 1.981030 
# 
# From -- ./inp_files/117017.got.cif
#   From: 2010.05.17/outbox.ucp.g08.bks.cvg/sg2_59_cif.got.tgz:117017.got - 2010.06.11 11:32:03.
