data_PCOD9073709
_publ_section_title
;
Structure prediction by ZEFSAII (Michael W. Deem and Ramdas Pophale) SiO2 
 PCOD9073709
Probable space group: P -1
;
_chemical_formula_sum "Si O2"
_cell_formula_units_Z 16
_cell_length_a 9.000000
_cell_length_b 24.000000
_cell_length_c 9.000000
_cell_angle_alpha 40.000000
_cell_angle_beta 100.000000
_cell_angle_gamma 130.000000
_cell_volume 729.599496
_symmetry_space_group_name_H-M "P -1"
_symmetry_group_IT_number 2
_symmetry_cell_setting 'triclinic'
loop_
_space_group_symop_operation_xyz
x,y,z
-x,-y,-z
loop_
_atom_site_type_symbol
_atom_site_label
_atom_site_fract_x
_atom_site_fract_y
_atom_site_fract_z
Si Si1 0.118855 0.925377 0.265537
Si Si2 0.409606 0.092648 0.251887
Si Si3 0.015440 0.190871 0.050267
Si Si4 0.479828 0.319036 0.681191
Si Si5 0.216697 0.843702 0.215632
Si Si6 0.008580 0.661871 0.043397
Si Si7 0.355663 0.196339 0.578278
Si Si8 0.833974 0.343784 0.237017
O O1 0.049737 0.816657 0.364861
O O2 0.864824 0.849563 0.441625
O O3 0.315078 0.995879 0.286773
O O4 0.236298 0.053590 0.917611
O O5 0.189449 0.972395 0.581755
O O6 0.429614 0.200521 0.980358
O O7 0.699033 0.206417 0.115537
O O8 0.856827 0.164396 0.945030
O O9 0.267225 0.275162 0.829348
O O10 0.077728 0.285759 0.004235
O O11 0.770507 0.489021 0.403355
O O12 0.443158 0.289242 0.554459
O O13 0.178525 0.726233 0.482009
O O14 0.500000 0.000000 0.000000
O O15 0.062736 0.658413 0.886498
O O16 0.553740 0.256851 0.364267
O O17 0.000000 0.500000 0.000000
#
# Coordination Sequence:
#
# PCOD9073709 Si02
#       8
#     2   2   2   2   2   2   2   2
#     4  10  21  42  72 103 139 177 236 286 342 404
#     4  11  25  43  73 105 141 185 233 286 345 416
#     4  12  26  46  69 107 140 185 234 286 353 415
#     4  11  24  46  72 102 144 185 228 288 353 416
#     4  12  23  41  72 100 137 184 232 290 338 404
#     4  12  26  45  70 103 145 178 232 291 354 419
#     4  10  21  42  71 103 135 179 236 285 339 406
#     4  12  26  45  70 100 137 184 234 283 344 423
#
# _framework density 21.929839999999999
#
# number of rings (size 3 to 8) (size 9 to 14) (size 15 to 20)
#    0.000    0.750    3.750    3.750    1.750    2.000 
#    0.000    3.750    0.000    0.000    0.000    0.000 
#    0.000    0.000    0.000    0.000    0.000    0.000 
#
# Total GULP energy -89214.201741 kJ/mol
# GULP energy per Si atom -5575.887609 kJ/mol
# Density = 2.187993 g / cm^3
# Si number density = 21.929840 Si / 1000 Ang^3
#
#
#
# Elastic Constant Matrix: (Units=GPa)
#
#
# Indices 1 2 3 4 5 6 
#
# 1 100.5433 24.1157 37.0827 5.9196 -24.4427 -15.4455
# 2 24.1157 89.0516 37.9014 4.0677 8.3052 -9.0114
# 3 37.0827 37.9014 137.1059 -5.8098 -11.0310 0.5641
# 4 5.9196 4.0677 -5.8098 31.1775 -8.2266 -3.0154
# 5 -24.4427 8.3052 -11.0310 -8.2266 43.0587 -0.5386
# 6 -15.4455 -9.0114 0.5641 -3.0154 -0.5386 34.9210
#
#
#
# Elastic Compliance Matrix: (Units=1/GPa)
#
#
# Indices 1 2 3 4 5 6 
#
# 1 0.014472 -0.003067 -0.002430 -0.000067 0.008244 0.005770
# 2 -0.003067 0.014660 -0.003879 -0.003487 -0.006202 0.002092
# 3 -0.002430 -0.003879 0.009352 0.003142 0.002341 -0.001919
# 4 -0.000067 -0.003487 0.003142 0.035520 0.008253 0.002214
# 5 0.008244 -0.006202 0.002341 0.008253 0.031317 0.003204
# 6 0.005770 0.002092 -0.001919 0.002214 0.003204 0.032000
#
#
# Mechanical properties :
#
#
# Convention : Reuss Voigt Hill
#
# Bulk Modulus (GPa) = 50.67300 58.32226 54.49763
# Shear Modulus (GPa) = 30.74095 37.00485 33.87290
#
# Velocity S-wave (km/s) = 3.74811 4.11228 3.93441
# Velocity P-wave (km/s) = 6.47210 7.01430 6.74865
#
# Compressibility (1/GPa) = 0.01973438
#
# Stress axis : x y z
#
# Youngs Moduli (GPa) = 69.09803 68.21174 106.92445
#
# Poissons Ratio (x) = 0.20920 0.25980
# Poissons Ratio (y) = 0.21191 0.41471
# Poissons Ratio (z) = 0.16789 0.26456
#
# Static dielectric constant tensor:
#      x y z
#    x 1.905990 0.027370 -0.056890 
#    y 0.027370 1.816480 -0.016700 
#    z -0.056890 -0.016700 1.742930 
# 
# From -- ./inp_files/225988.got.cif
#   From: 2010.05.17/outbox.ucp.g08.bks.cvg/sg2_113_cif.got.tgz:225988.got - 2010.06.11 11:32:03.
