data_PCOD9073477
_publ_section_title
;
Structure prediction by ZEFSAII (Michael W. Deem and Ramdas Pophale) SiO2 
 PCOD9073477
Probable space group: P -1
;
_chemical_formula_sum "Si O2"
_cell_formula_units_Z 15
_cell_length_a 15.000000
_cell_length_b 6.000000
_cell_length_c 12.000000
_cell_angle_alpha 80.000000
_cell_angle_beta 40.000000
_cell_angle_gamma 70.000000
_cell_volume 645.327792
_symmetry_space_group_name_H-M "P -1"
_symmetry_group_IT_number 2
_symmetry_cell_setting 'triclinic'
loop_
_space_group_symop_operation_xyz
x,y,z
-x,-y,-z
loop_
_atom_site_type_symbol
_atom_site_label
_atom_site_fract_x
_atom_site_fract_y
_atom_site_fract_z
Si Si1 0.416323 0.825834 0.484476
Si Si2 0.998904 0.829384 0.391445
Si Si3 0.539234 0.753547 0.739711
Si Si4 0.815367 0.894342 0.765436
Si Si5 0.802845 0.341845 0.443411
Si Si6 0.063619 0.501659 0.147265
Si Si7 0.500000 0.000000 0.000000
Si Si8 0.673073 0.371554 0.209193
O O1 0.307163 0.729838 0.525507
O O2 0.575477 0.620333 0.339783
O O3 0.347154 0.834737 0.672669
O O4 0.429428 0.062780 0.395439
O O5 0.001033 0.676070 0.295534
O O6 0.942744 0.759893 0.566605
O O7 0.157328 0.859071 0.253676
O O8 0.895678 0.099625 0.437546
O O9 0.694077 0.535985 0.612889
O O10 0.413068 0.654844 0.818843
O O11 0.489285 0.883870 0.893109
O O12 0.827006 0.739267 0.878964
O O13 0.673025 0.924667 0.829353
O O14 0.919775 0.435491 0.255346
O O15 0.164456 0.615611 0.968105
#
# Coordination Sequence:
#
# PCOD9073477 Si02
#       8
#     2   2   2   2   2   2   1   2
#     4  10  21  43  65  90 125 163 207 256 306 366
#     4  10  21  40  58  83 126 166 202 248 302 367
#     4  11  23  42  63  91 125 165 206 252 311 368
#     4  10  22  36  57  85 120 166 200 245 308 362
#     4  10  22  39  63  90 123 163 205 251 307 366
#     4  11  21  38  60  90 123 157 206 255 305 364
#     4  12  22  36  62  92 120 152 200 256 296 358
#     4  10  23  40  66  93 122 163 208 256 309 363
#
# _framework density 23.244001000000001
#
# number of rings (size 3 to 8) (size 9 to 14) (size 15 to 20)
#    0.000    1.600    0.000    4.800    0.000    4.800 
#    0.000   14.000    0.000    0.000    0.000    0.000 
#    0.000    0.000    0.000    0.000    0.000    0.000 
#
# Total GULP energy -83510.776040 kJ/mol
# GULP energy per Si atom -5567.385069 kJ/mol
# Density = 2.319110 g / cm^3
# Si number density = 23.244001 Si / 1000 Ang^3
#
#
#
# Elastic Constant Matrix: (Units=GPa)
#
#
# Indices 1 2 3 4 5 6 
#
# 1 47.0234 4.1055 7.9733 10.6386 0.7675 9.8116
# 2 4.1055 52.5559 17.5771 -7.2255 -8.8871 4.0109
# 3 7.9733 17.5771 87.0724 -3.0933 13.0985 2.7940
# 4 10.6386 -7.2255 -3.0933 13.7561 -10.6435 -0.0454
# 5 0.7675 -8.8871 13.0985 -10.6435 22.2053 -0.4857
# 6 9.8116 4.0109 2.7940 -0.0454 -0.4857 16.2538
#
#
#
# Elastic Compliance Matrix: (Units=1/GPa)
#
#
# Indices 1 2 3 4 5 6 
#
# 1 0.064663 -0.043962 0.013721 -0.146718 -0.098990 -0.033912
# 2 -0.043962 0.071455 -0.023463 0.159919 0.120983 0.017000
# 3 0.013721 -0.023463 0.020613 -0.056420 -0.049235 -0.007665
# 4 -0.146718 0.159919 -0.056420 0.537417 0.361507 0.071107
# 5 -0.098990 0.120983 -0.049235 0.361507 0.300254 0.048347
# 6 -0.033912 0.017000 -0.007665 0.071107 0.048347 0.080761
#
#
# Mechanical properties :
#
#
# Convention : Reuss Voigt Hill
#
# Bulk Modulus (GPa) = 20.27496 27.32929 23.80212
# Shear Modulus (GPa) = 4.17010 20.90943 12.53976
#
# Velocity S-wave (km/s) = 1.34088 3.00252 2.32520
# Velocity P-wave (km/s) = 3.33749 4.87886 4.17984
#
# Compressibility (1/GPa) = 0.04932191
#
# Stress axis : x y z
#
# Youngs Moduli (GPa) = 15.46484 13.99480 48.51350
#
# Poissons Ratio (x) = 0.61524 -0.66564
# Poissons Ratio (y) = 0.67987 1.13827
# Poissons Ratio (z) = -0.21219 0.32836
#
# Static dielectric constant tensor:
#      x y z
#    x 1.960640 -0.024730 -0.023240 
#    y -0.024730 1.937030 0.007730 
#    z -0.023240 0.007730 1.871640 
# 
# From -- ./inp_files/43890.got.cif
#   From: 2010.05.17/outbox.ucp.g08.bks.cvg/sg2_22_cif.got.tgz:43890.got - 2010.06.11 11:32:03.
