data_PCOD9073708
_publ_section_title
;
Structure prediction by ZEFSAII (Michael W. Deem and Ramdas Pophale) SiO2 
 PCOD9073708
Probable space group: P -1
;
_chemical_formula_sum "Si O2"
_cell_formula_units_Z 16
_cell_length_a 18.000000
_cell_length_b 15.000000
_cell_length_c 27.000000
_cell_angle_alpha 20.000000
_cell_angle_beta 160.000000
_cell_angle_gamma 160.000000
_cell_volume 746.015535
_symmetry_space_group_name_H-M "P -1"
_symmetry_group_IT_number 2
_symmetry_cell_setting 'triclinic'
loop_
_space_group_symop_operation_xyz
x,y,z
-x,-y,-z
loop_
_atom_site_type_symbol
_atom_site_label
_atom_site_fract_x
_atom_site_fract_y
_atom_site_fract_z
Si Si1 0.390572 0.439996 0.102340
Si Si2 0.834570 0.380104 0.046800
Si Si3 0.340280 0.621489 0.866040
Si Si4 0.410179 0.324361 0.736992
Si Si5 0.153955 0.859734 0.199205
Si Si6 0.234430 0.273074 0.321372
Si Si7 0.526184 0.769248 0.410288
Si Si8 0.127702 0.315617 0.655969
O O1 0.657127 0.629065 0.197969
O O2 0.324325 0.105291 0.218188
O O3 0.195151 0.446106 0.016073
O O4 0.366003 0.574014 0.965023
O O5 0.105480 0.476014 0.145683
O O6 0.732984 0.028808 0.178704
O O7 0.657847 0.381795 0.891839
O O8 0.072537 0.440479 0.766577
O O9 0.414034 0.959377 0.729622
O O10 0.500000 0.500000 0.000000
O O11 0.495239 0.520389 0.639420
O O12 0.268017 0.425104 0.634122
O O13 0.296046 0.758590 0.302467
O O14 0.000000 0.000000 0.000000
O O15 0.270489 0.157228 0.457404
O O16 0.073562 0.020019 0.311813
O O17 0.500000 0.500000 0.500000
O O18 0.000000 0.500000 0.500000
#
# Coordination Sequence:
#
# PCOD9073708 Si02
#       8
#     2   2   2   2   2   2   2   2
#     4  10  21  42  71 101 131 176 234 272 336 416
#     4   9  20  38  65  92 132 169 224 273 331 407
#     4  11  24  46  73  96 135 186 232 280 336 401
#     4   9  20  41  59  95 130 177 216 272 333 410
#     4  10  22  45  69  94 135 175 229 278 332 400
#     4  11  24  41  64  94 141 171 218 284 349 392
#     4  12  28  45  66 107 139 179 233 284 342 408
#     4  10  22  42  66  98 134 167 221 283 339 401
#
# _framework density 21.447275000000001
#
# number of rings (size 3 to 8) (size 9 to 14) (size 15 to 20)
#    0.000    1.750    2.500    1.875    5.250    3.000 
#    4.500    0.000    0.000    0.000    0.000    0.000 
#    0.000    0.000    0.000    0.000    0.000    0.000 
#
# Total GULP energy -89208.856925 kJ/mol
# GULP energy per Si atom -5575.553558 kJ/mol
# Density = 2.139846 g / cm^3
# Si number density = 21.447275 Si / 1000 Ang^3
#
#
#
# Elastic Constant Matrix: (Units=GPa)
#
#
# Indices 1 2 3 4 5 6 
#
# 1 114.8855 47.1332 42.7559 -16.7985 19.4945 -16.8388
# 2 47.1332 94.3258 33.4040 -10.0928 4.5258 -20.9360
# 3 42.7559 33.4040 80.2948 -8.4748 25.7811 -3.8861
# 4 -16.7985 -10.0928 -8.4748 33.3942 -6.5312 5.5092
# 5 19.4945 4.5258 25.7811 -6.5312 45.8371 -1.0876
# 6 -16.8388 -20.9360 -3.8861 5.5092 -1.0876 37.4616
#
#
#
# Elastic Compliance Matrix: (Units=1/GPa)
#
#
# Indices 1 2 3 4 5 6 
#
# 1 0.013189 -0.004074 -0.004077 0.003470 -0.002357 0.002650
# 2 -0.004074 0.015802 -0.005048 0.001034 0.003311 0.006420
# 3 -0.004077 -0.005048 0.019400 0.000120 -0.008731 -0.002912
# 4 0.003470 0.001034 0.000120 0.033054 0.003002 -0.002624
# 5 -0.002357 0.003311 -0.008731 0.003002 0.027836 0.000252
# 6 0.002650 0.006420 -0.002912 -0.002624 0.000252 0.031564
#
#
# Mechanical properties :
#
#
# Convention : Reuss Voigt Hill
#
# Bulk Modulus (GPa) = 45.46828 59.56582 52.51705
# Shear Modulus (GPa) = 28.64140 34.41944 31.53042
#
# Velocity S-wave (km/s) = 3.65832 4.01039 3.83840
# Velocity P-wave (km/s) = 6.25224 7.01981 6.64711
#
# Compressibility (1/GPa) = 0.02199335
#
# Stress axis : x y z
#
# Youngs Moduli (GPa) = 75.82313 63.28502 51.54634
#
# Poissons Ratio (x) = 0.25782 0.21014
# Poissons Ratio (y) = 0.30890 0.26019
# Poissons Ratio (z) = 0.30911 0.31945
#
# Static dielectric constant tensor:
#      x y z
#    x 1.838370 0.008420 -0.029500 
#    y 0.008420 1.864860 -0.018790 
#    z -0.029500 -0.018790 1.770270 
# 
# From -- ./inp_files/620471.got.cif
#   From: 2010.05.17/outbox.ucp.g08.bks.cvg/sg2_311_cif.got.tgz:620471.got - 2010.06.11 11:32:03.
