data_PCOD9073569
_publ_section_title
;
Structure prediction by ZEFSAII (Michael W. Deem and Ramdas Pophale) SiO2 
 PCOD9073569
Probable space group: P -1
;
_chemical_formula_sum "Si O2"
_cell_formula_units_Z 16
_cell_length_a 18.000000
_cell_length_b 12.000000
_cell_length_c 9.000000
_cell_angle_alpha 40.000000
_cell_angle_beta 80.000000
_cell_angle_gamma 50.000000
_cell_volume 729.599496
_symmetry_space_group_name_H-M "P -1"
_symmetry_group_IT_number 2
_symmetry_cell_setting 'triclinic'
loop_
_space_group_symop_operation_xyz
x,y,z
-x,-y,-z
loop_
_atom_site_type_symbol
_atom_site_label
_atom_site_fract_x
_atom_site_fract_y
_atom_site_fract_z
Si Si1 0.581517 0.189402 0.232190
Si Si2 0.227036 0.594956 0.005480
Si Si3 0.716176 0.234256 0.754317
Si Si4 0.115732 0.338529 0.895236
Si Si5 0.602087 0.648577 0.093154
Si Si6 0.458135 0.246125 0.492869
Si Si7 0.046665 0.081898 0.805581
Si Si8 0.143988 0.361666 0.214522
O O1 0.552219 0.115210 0.456077
O O2 0.731585 0.951857 0.427239
O O3 0.500000 0.500000 0.000000
O O4 0.515859 0.241605 0.051294
O O5 0.336686 0.386946 0.306513
O O6 0.164242 0.526651 0.067338
O O7 0.295631 0.530962 0.895653
O O8 0.117254 0.910180 0.799568
O O9 0.671881 0.439386 0.424371
O O10 0.600953 0.488425 0.656014
O O11 0.764674 0.974116 0.910971
O O12 0.844257 0.040169 0.000998
O O13 0.066640 0.581978 0.553025
O O14 0.987836 0.458313 0.848876
O O15 0.149572 0.322247 0.073245
O O16 0.539185 0.949379 0.850859
O O17 0.000000 0.000000 0.000000
#
# Coordination Sequence:
#
# PCOD9073569 Si02
#       8
#     2   2   2   2   2   2   2   2
#     4  11  22  39  70 101 133 177 226 283 343 401
#     4  10  21  40  71  97 131 176 230 279 330 399
#     4  11  25  43  67  98 144 177 216 286 347 399
#     4  11  27  44  66 101 137 181 228 278 338 404
#     4  11  21  42  70 104 133 176 233 279 339 404
#     4  10  21  43  66 103 135 177 223 283 342 401
#     4  11  26  45  67  99 135 185 225 273 344 402
#     4  11  23  43  71  98 135 175 232 286 331 392
#
# _framework density 21.929839999999999
#
# number of rings (size 3 to 8) (size 9 to 14) (size 15 to 20)
#    0.000    1.250    2.500    3.000   10.500    0.500 
#    0.000    2.500    0.000    0.000    0.000    0.000 
#    0.000    0.000    0.000    0.000    0.000    0.000 
#
# Total GULP energy -89315.715601 kJ/mol
# GULP energy per Si atom -5582.232225 kJ/mol
# Density = 2.187993 g / cm^3
# Si number density = 21.929840 Si / 1000 Ang^3
#
#
#
# Elastic Constant Matrix: (Units=GPa)
#
#
# Indices 1 2 3 4 5 6 
#
# 1 56.1307 5.3917 8.9934 2.6230 4.2291 1.3925
# 2 5.3917 109.0396 12.4920 -8.1367 -4.6117 13.2049
# 3 8.9934 12.4920 119.9547 -6.7431 -6.8075 9.3151
# 4 2.6230 -8.1367 -6.7431 46.3297 1.8379 -1.8887
# 5 4.2291 -4.6117 -6.8075 1.8379 23.6568 -2.8029
# 6 1.3925 13.2049 9.3151 -1.8887 -2.8029 29.7338
#
#
#
# Elastic Compliance Matrix: (Units=1/GPa)
#
#
# Indices 1 2 3 4 5 6 
#
# 1 0.018520 -0.000950 -0.001552 -0.001304 -0.003890 -0.000409
# 2 -0.000950 0.009928 -0.000490 0.001509 0.001375 -0.003985
# 3 -0.001552 -0.000490 0.008872 0.001109 0.002389 -0.002193
# 4 -0.001304 0.001509 0.001109 0.022133 -0.000829 0.000371
# 5 -0.003890 0.001375 0.002389 -0.000829 0.044336 0.002950
# 6 -0.000409 -0.003985 -0.002193 0.000371 0.002950 0.036410
#
#
# Mechanical properties :
#
#
# Convention : Reuss Voigt Hill
#
# Bulk Modulus (GPa) = 31.91367 37.65323 34.78345
# Shear Modulus (GPa) = 31.92298 37.16057 34.54177
#
# Velocity S-wave (km/s) = 3.81949 4.12092 3.97306
# Velocity P-wave (km/s) = 5.83400 6.31267 6.07805
#
# Compressibility (1/GPa) = 0.03133453
#
# Stress axis : x y z
#
# Youngs Moduli (GPa) = 53.99692 100.73027 112.71265
#
# Poissons Ratio (x) = 0.09572 0.17491
# Poissons Ratio (y) = 0.05131 0.05526
# Poissons Ratio (z) = 0.08379 0.04939
#
# Static dielectric constant tensor:
#      x y z
#    x 1.900480 -0.013930 -0.095640 
#    y -0.013930 1.803360 -0.011270 
#    z -0.095640 -0.011270 1.869800 
# 
# From -- ./inp_files/332731.got.cif
#   From: 2010.05.17/outbox.ucp.g08.bks.cvg/sg2_167_cif.got.tgz:332731.got - 2010.06.11 11:32:03.
