data_PCOD9073232
_publ_section_title
;
Structure prediction by ZEFSAII (Michael W. Deem and Ramdas Pophale) SiO2 
 PCOD9073232
Probable space group: P -1
;
_chemical_formula_sum "Si O2"
_cell_formula_units_Z 16
_cell_length_a 19.610459
_cell_length_b 9.703138
_cell_length_c 9.546295
_cell_angle_alpha 59.877200
_cell_angle_beta 37.809646
_cell_angle_gamma 38.176522
_cell_volume 653.339305
_symmetry_space_group_name_H-M "P -1"
_symmetry_group_IT_number 2
_symmetry_cell_setting 'triclinic'
loop_
_space_group_symop_operation_xyz
x,y,z
-x,-y,-z
loop_
_atom_site_type_symbol
_atom_site_label
_atom_site_fract_x
_atom_site_fract_y
_atom_site_fract_z
Si Si1 0.801114 0.834608 0.846274
Si Si2 0.516072 0.357783 0.366067
Si Si3 0.528226 0.233800 0.716882
Si Si4 0.823492 0.717347 0.411572
Si Si5 0.035286 0.025331 0.589594
Si Si6 0.549089 0.828701 0.632464
Si Si7 0.192170 0.466808 0.211914
Si Si8 0.100687 0.142473 0.024375
O O1 0.836294 0.628626 0.817123
O O2 0.833524 0.969561 0.644928
O O3 0.882455 0.776234 0.899013
O O4 0.605540 0.025199 0.090117
O O5 0.471837 0.314632 0.604492
O O6 0.464279 0.593884 0.332934
O O7 0.430363 0.362682 0.374229
O O8 0.714108 0.127477 0.150468
O O9 0.700624 0.964058 0.570221
O O10 0.386076 0.290737 0.998560
O O11 0.707956 0.731770 0.494124
O O12 0.881791 0.534575 0.527871
O O13 0.923499 0.722147 0.140767
O O14 0.894241 0.270833 0.779211
O O15 0.000000 0.000000 0.500000
O O16 0.034289 0.854652 0.753385
O O17 0.500000 0.000000 0.500000
#
# Coordination Sequence:
#
# PCOD9073232 Si02
#       8
#     2   2   2   2   2   2   2   2
#     4  10  20  35  61  85 109 151 200 234 273 341
#     4   9  17  30  54  84 110 153 192 225 267 343
#     4  10  18  31  53  85 119 145 181 230 289 338
#     4  11  22  35  57  93 123 146 178 244 305 332
#     4  10  22  41  62  81 108 158 206 234 270 345
#     4  11  17  34  59  86 117 151 190 231 281 355
#     4  12  22  36  58  90 119 146 187 249 295 327
#     4   9  18  38  59  81 111 156 196 226 276 348
#
# _framework density 24.489571000000002
#
# number of rings (size 3 to 8) (size 9 to 14) (size 15 to 20)
#    0.000    1.750    6.250    0.750    0.000    0.000 
#    0.000    6.250    0.000    0.000    0.000    0.000 
#    0.000    0.000    0.000    0.000    0.000    0.000 
#
# Total GULP energy -89416.188260 kJ/mol
# GULP energy per Si atom -5588.511766 kJ/mol
# Density = 2.443383 g / cm^3
# Si number density = 24.489571 Si / 1000 Ang^3
#
#
#
# Elastic Constant Matrix: (Units=GPa)
#
#
# Indices 1 2 3 4 5 6 
#
# 1 61.8808 30.9459 9.6746 -8.6186 5.4303 27.2873
# 2 30.9459 83.6403 16.1127 -10.4300 0.9332 30.7032
# 3 9.6746 16.1127 141.7165 -25.0510 0.7741 8.0236
# 4 -8.6186 -10.4300 -25.0510 35.5915 11.1005 4.9084
# 5 5.4303 0.9332 0.7741 11.1005 23.7854 5.6447
# 6 27.2873 30.7032 8.0236 4.9084 5.6447 41.6193
#
#
#
# Elastic Compliance Matrix: (Units=1/GPa)
#
#
# Indices 1 2 3 4 5 6 
#
# 1 0.026556 -0.002776 0.001411 0.011119 -0.007406 -0.015942
# 2 -0.002776 0.018373 -0.000056 0.006431 -0.000129 -0.012464
# 3 0.001411 -0.000056 0.008544 0.007859 -0.003560 -0.002975
# 4 0.011119 0.006431 0.007859 0.047039 -0.021148 -0.016229
# 5 -0.007406 -0.000129 -0.003560 -0.021148 0.053517 0.000873
# 6 -0.015942 -0.012464 -0.002975 -0.016229 0.000873 0.046044
#
#
# Mechanical properties :
#
#
# Convention : Reuss Voigt Hill
#
# Bulk Modulus (GPa) = 19.75089 44.52266 32.13678
# Shear Modulus (GPa) = 22.74887 35.56619 29.15753
#
# Velocity S-wave (km/s) = 3.05113 3.81504 3.45427
# Velocity P-wave (km/s) = 4.52714 6.13398 5.39077
#
# Compressibility (1/GPa) = 0.05063064
#
# Stress axis : x y z
#
# Youngs Moduli (GPa) = 37.65588 54.42886 117.04785
#
# Poissons Ratio (x) = 0.15109 -0.16518
# Poissons Ratio (y) = 0.10453 0.00657
# Poissons Ratio (z) = -0.05314 0.00306
#
# Static dielectric constant tensor:
#      x y z
#    x 1.967100 -0.040990 -0.014080 
#    y -0.040990 1.975300 0.068590 
#    z -0.014080 0.068590 1.976900 
# 
# From -- ./inp_files/474152.got.cif
#   From: 2010.05.17/outbox.cif.g08.bks.cpg/sg2_238_cif.got.tgz:474152.got - 2010.06.03 11:33:40.
