data_PCOD9073214
_publ_section_title
;
Structure prediction by ZEFSAII (Michael W. Deem and Ramdas Pophale) SiO2 
 PCOD9073214
Probable space group: P -1
;
_chemical_formula_sum "Si O2"
_cell_formula_units_Z 14
_cell_length_a 15.000000
_cell_length_b 12.000000
_cell_length_c 12.000000
_cell_angle_alpha 50.000000
_cell_angle_beta 150.000000
_cell_angle_gamma 140.000000
_cell_volume 692.779491
_symmetry_space_group_name_H-M "P -1"
_symmetry_group_IT_number 2
_symmetry_cell_setting 'triclinic'
loop_
_space_group_symop_operation_xyz
x,y,z
-x,-y,-z
loop_
_atom_site_type_symbol
_atom_site_label
_atom_site_fract_x
_atom_site_fract_y
_atom_site_fract_z
Si Si1 0.344170 0.810315 0.012561
Si Si2 0.431316 0.850460 0.429564
Si Si3 0.520374 0.715414 0.968721
Si Si4 0.275754 0.095927 0.492137
Si Si5 0.634814 0.463650 0.302917
Si Si6 0.874276 0.116118 0.084934
Si Si7 0.123761 0.704836 0.627679
O O1 0.163561 0.801450 0.900543
O O2 0.211755 0.680254 0.854884
O O3 0.511022 0.788810 0.276446
O O4 0.500000 0.000000 0.000000
O O5 0.627403 0.901826 0.525253
O O6 0.365609 0.665078 0.526117
O O7 0.500000 0.000000 0.500000
O O8 0.235293 0.838613 0.160251
O O9 0.559475 0.593361 0.168632
O O10 0.709458 0.912056 0.063392
O O11 0.533329 0.660633 0.893011
O O12 0.295135 0.700829 0.737065
O O13 0.103017 0.147716 0.284174
O O14 0.165931 0.896489 0.541854
O O15 0.871487 0.575500 0.434077
#
# Coordination Sequence:
#
# PCOD9073214 Si02
#       7
#     2   2   2   2   2   2   2
#     4   9  19  35  60  91 116 147 205 247 279 341
#     4  11  22  41  58  86 122 155 196 241 285 359
#     4  11  21  38  59  89 122 149 194 245 287 352
#     4  10  21  36  60  87 118 154 195 241 290 341
#     4  11  24  37  59  89 121 153 191 242 298 346
#     4  11  20  38  62  88 118 157 194 242 293 343
#     4  11  20  38  62  89 116 155 196 245 293 337
#
# _framework density 20.208449999999999
#
# number of rings (size 3 to 8) (size 9 to 14) (size 15 to 20)
#    0.000    1.429    7.143    0.429    0.000    5.143 
#    0.000    2.857    0.000    5.143    0.000    0.000 
#    0.000    0.000    0.000    0.000    0.000    0.000 
#
# Total GULP energy -77967.095364 kJ/mol
# GULP energy per Si atom -5569.078240 kJ/mol
# Density = 2.016246 g / cm^3
# Si number density = 20.208450 Si / 1000 Ang^3
#
#
#
# Elastic Constant Matrix: (Units=GPa)
#
#
# Indices 1 2 3 4 5 6 
#
# 1 52.5434 -22.5852 47.5970 -6.2443 19.1649 4.4489
# 2 -22.5852 29.7729 22.6218 -21.0580 -1.2962 6.2101
# 3 47.5970 22.6218 93.5707 -24.4831 29.7759 0.2746
# 4 -6.2443 -21.0580 -24.4831 41.0861 -1.9507 0.8347
# 5 19.1649 -1.2962 29.7759 -1.9507 42.9137 4.1354
# 6 4.4489 6.2101 0.2746 0.8347 4.1354 17.5963
#
#
#
# Elastic Compliance Matrix: (Units=1/GPa)
#
#
# Indices 1 2 3 4 5 6 
#
# 1 -0.019346 -0.046390 0.019908 -0.015796 -0.009602 0.023959
# 2 -0.046390 -0.037330 0.032350 -0.007708 -0.005723 0.026109
# 3 0.019908 0.032350 -0.000511 0.019387 -0.005121 -0.016159
# 4 -0.015796 -0.007708 0.019387 0.029128 -0.005925 0.006422
# 5 -0.009602 -0.005723 -0.005121 -0.005925 0.030939 -0.002463
# 6 0.023959 0.026109 -0.016159 0.006422 -0.002463 0.042084
#
#
# Mechanical properties :
#
#
# Convention : Reuss Voigt Hill
#
# Bulk Modulus (GPa) = -22.00144 30.12825 4.06340
# Shear Modulus (GPa) = 276.60715 28.86945 152.73830
#
# Velocity S-wave (km/s) = 11.71214 3.78376 8.70319
# Velocity P-wave (km/s) = 13.11442 5.83354 10.14934
#
# Compressibility (1/GPa) = -0.04545157
#
# Stress axis : x y z
#
# Youngs Moduli (GPa) = -51.68926 -26.78779 -1955.84305
#
# Poissons Ratio (x) = -1.24269 38.93765
# Poissons Ratio (y) = -2.39788 63.27182
# Poissons Ratio (z) = 1.02905 0.86659
#
# Static dielectric constant tensor:
#      x y z
#    x 1.772410 -0.017340 -0.023020 
#    y -0.017340 1.734880 -0.016730 
#    z -0.023020 -0.016730 1.750360 
# 
# From -- ./inp_files/70245.got.cif
#   From: 2010.05.17/outbox.ucp.g08.bks.cvg/sg2_36_cif.got.tgz:70245.got - 2010.06.11 11:32:03.
