data_PCOD9073539
_publ_section_title
;
Structure prediction by ZEFSAII (Michael W. Deem and Ramdas Pophale) SiO2 
 PCOD9073539
Probable space group: P -1
;
_chemical_formula_sum "Si O2"
_cell_formula_units_Z 16
_cell_length_a 9.000000
_cell_length_b 15.000000
_cell_length_c 24.000000
_cell_angle_alpha 30.000000
_cell_angle_beta 150.000000
_cell_angle_gamma 130.000000
_cell_volume 731.734496
_symmetry_space_group_name_H-M "P -1"
_symmetry_group_IT_number 2
_symmetry_cell_setting 'triclinic'
loop_
_space_group_symop_operation_xyz
x,y,z
-x,-y,-z
loop_
_atom_site_type_symbol
_atom_site_label
_atom_site_fract_x
_atom_site_fract_y
_atom_site_fract_z
Si Si1 0.082515 0.063304 0.430592
Si Si2 0.784522 0.330198 0.776039
Si Si3 0.238665 0.050360 0.983717
Si Si4 0.026442 0.507940 0.153896
Si Si5 0.123310 0.945850 0.754246
Si Si6 0.068676 0.654788 0.366723
Si Si7 0.229294 0.626972 0.560164
Si Si8 0.184227 0.288648 0.143253
O O1 0.066806 0.286262 0.301858
O O2 0.859552 0.088151 0.288814
O O3 0.442336 0.880808 0.635174
O O4 0.000000 0.000000 0.500000
O O5 0.037701 0.380127 0.868220
O O6 0.458502 0.529970 0.549499
O O7 0.933203 0.205674 0.836491
O O8 0.709310 0.173634 0.873015
O O9 0.134217 0.138755 0.840702
O O10 0.546846 0.060762 0.108278
O O11 0.388673 0.481749 0.268599
O O12 0.823362 0.638029 0.964324
O O13 0.014809 0.820436 0.830702
O O14 0.847592 0.169403 0.546297
O O15 0.049851 0.680010 0.413327
O O16 0.902768 0.509179 0.376169
O O17 0.000000 0.500000 0.000000
#
# Coordination Sequence:
#
# PCOD9073539 Si02
#       8
#     2   2   2   2   2   2   2   2
#     4  12  29  48  71 103 143 181 232 295 351 412
#     4  10  24  42  63  99 140 178 222 277 334 422
#     4  11  24  41  66  99 138 179 226 273 342 414
#     4  11  24  45  70 101 135 179 237 279 347 407
#     4  12  24  45  70 101 137 179 231 285 342 411
#     4  10  21  41  64  97 137 178 220 277 339 397
#     4  10  21  40  67 100 135 171 227 283 327 407
#     4  12  25  46  77 100 137 186 234 295 343 413
#
# _framework density 21.865853999999999
#
# number of rings (size 3 to 8) (size 9 to 14) (size 15 to 20)
#    0.000    1.000    3.750    2.250    3.500    3.000 
#    4.500    0.000    0.000    0.000    0.000    0.000 
#    0.000    0.000    0.000    0.000    0.000    0.000 
#
# Total GULP energy -89121.892096 kJ/mol
# GULP energy per Si atom -5570.118256 kJ/mol
# Density = 2.181609 g / cm^3
# Si number density = 21.865854 Si / 1000 Ang^3
#
#
#
# Elastic Constant Matrix: (Units=GPa)
#
#
# Indices 1 2 3 4 5 6 
#
# 1 56.3639 17.0471 22.9950 2.5879 -15.5683 0.0420
# 2 17.0471 86.0303 35.3393 -13.3235 -6.1080 -4.7422
# 3 22.9950 35.3393 119.3357 10.0610 -24.0403 4.1202
# 4 2.5879 -13.3235 10.0610 23.2771 -7.2328 -5.7881
# 5 -15.5683 -6.1080 -24.0403 -7.2328 46.0330 -4.6185
# 6 0.0420 -4.7422 4.1202 -5.7881 -4.6185 24.0678
#
#
#
# Elastic Compliance Matrix: (Units=1/GPa)
#
#
# Indices 1 2 3 4 5 6 
#
# 1 0.021080 -0.003253 -0.001865 -0.001613 0.005501 0.000309
# 2 -0.003253 0.017705 -0.005935 0.015643 0.001465 0.008553
# 3 -0.001865 -0.005935 0.011993 -0.008606 0.003020 -0.004709
# 4 -0.001613 0.015643 -0.008606 0.064112 0.009292 0.021760
# 5 0.005501 0.001465 0.003020 0.009292 0.027547 0.007283
# 6 0.000309 0.008553 -0.004709 0.021760 0.007283 0.050671
#
#
# Mechanical properties :
#
#
# Convention : Reuss Voigt Hill
#
# Bulk Modulus (GPa) = 34.87796 45.83253 40.35524
# Shear Modulus (GPa) = 22.24492 31.09882 26.67187
#
# Velocity S-wave (km/s) = 3.19303 3.77537 3.49635
# Velocity P-wave (km/s) = 5.43870 6.32541 5.89874
#
# Compressibility (1/GPa) = 0.02867140
#
# Stress axis : x y z
#
# Youngs Moduli (GPa) = 47.43844 56.48262 83.38004
#
# Poissons Ratio (x) = 0.18375 0.15550
# Poissons Ratio (y) = 0.15433 0.49486
# Poissons Ratio (z) = 0.08847 0.33522
#
# Static dielectric constant tensor:
#      x y z
#    x 1.905670 -0.020610 -0.007520 
#    y -0.020610 1.883910 0.002370 
#    z -0.007520 0.002370 1.807230 
# 
# From -- ./inp_files/608182.got.cif
#   From: 2010.05.17/outbox.ucp.g08.bks.cvg/sg2_305_cif.got.tgz:608182.got - 2010.06.11 11:32:03.
