data_PCOD9073648
_publ_section_title
;
Structure prediction by ZEFSAII (Michael W. Deem and Ramdas Pophale) SiO2 
 PCOD9073648
Probable space group: P -1
;
_chemical_formula_sum "Si O2"
_cell_formula_units_Z 16
_cell_length_a 12.000000
_cell_length_b 9.000000
_cell_length_c 12.000000
_cell_angle_alpha 60.000000
_cell_angle_beta 50.000000
_cell_angle_gamma 90.000000
_cell_volume 752.153660
_symmetry_space_group_name_H-M "P -1"
_symmetry_group_IT_number 2
_symmetry_cell_setting 'triclinic'
loop_
_space_group_symop_operation_xyz
x,y,z
-x,-y,-z
loop_
_atom_site_type_symbol
_atom_site_label
_atom_site_fract_x
_atom_site_fract_y
_atom_site_fract_z
Si Si1 0.047797 0.634928 0.801959
Si Si2 0.672900 0.638945 0.552341
Si Si3 0.416589 0.664967 0.074814
Si Si4 0.599671 0.981004 0.546446
Si Si5 0.275990 0.368457 0.067316
Si Si6 0.670226 0.054954 0.085433
Si Si7 0.351998 0.359103 0.769620
Si Si8 0.943054 0.707314 0.186125
O O1 0.223316 0.824613 0.636727
O O2 0.070751 0.503201 0.742929
O O3 0.918645 0.698746 0.805417
O O4 0.000000 0.500000 0.000000
O O5 0.651712 0.479929 0.719892
O O6 0.543090 0.539259 0.568544
O O7 0.854438 0.729802 0.344989
O O8 0.637986 0.802250 0.570021
O O9 0.344190 0.535831 0.056043
O O10 0.618112 0.743709 0.923546
O O11 0.348005 0.819882 0.051710
O O12 0.500000 0.000000 0.500000
O O13 0.476173 0.957432 0.735642
O O14 0.328127 0.424897 0.884111
O O15 0.632858 0.837622 0.160157
O O16 0.855458 0.152365 0.987886
O O17 0.181556 0.296867 0.832149
#
# Coordination Sequence:
#
# PCOD9073648 Si02
#       8
#     2   2   2   2   2   2   2   2
#     4  12  24  43  73 107 139 177 230 287 359 415
#     4  11  26  46  68 102 144 188 230 288 344 412
#     4  10  23  46  70  94 145 193 230 278 346 406
#     4  12  26  42  70 106 141 181 231 285 355 421
#     4  10  21  41  70  97 134 184 225 284 338 416
#     4  12  25  44  70 104 140 188 232 285 348 416
#     4  11  23  41  72 102 140 175 232 294 357 403
#     4  12  24  42  71 104 144 173 231 297 354 407
#
# _framework density 21.272248999999999
#
# number of rings (size 3 to 8) (size 9 to 14) (size 15 to 20)
#    0.000    0.750    2.500    6.000    3.500    2.500 
#    0.000    3.750    0.000    0.000    0.000    0.000 
#    0.000    0.000    0.000    0.000    0.000    0.000 
#
# Total GULP energy -89134.511884 kJ/mol
# GULP energy per Si atom -5570.906993 kJ/mol
# Density = 2.122383 g / cm^3
# Si number density = 21.272249 Si / 1000 Ang^3
#
#
#
# Elastic Constant Matrix: (Units=GPa)
#
#
# Indices 1 2 3 4 5 6 
#
# 1 138.1407 -4.5614 49.8501 -0.1953 -39.4135 5.1335
# 2 -4.5614 69.9370 41.6615 -2.7298 -24.9861 3.1094
# 3 49.8501 41.6615 94.8295 0.6067 -26.5117 1.4262
# 4 -0.1953 -2.7298 0.6067 37.0085 6.6925 -5.5555
# 5 -39.4135 -24.9861 -26.5117 6.6925 44.5516 3.1070
# 6 5.1335 3.1094 1.4262 -5.5555 3.1070 36.8206
#
#
#
# Elastic Compliance Matrix: (Units=1/GPa)
#
#
# Indices 1 2 3 4 5 6 
#
# 1 0.015633 0.012223 -0.009030 -0.002449 0.015998 -0.004581
# 2 0.012223 0.031081 -0.014260 -0.001980 0.020461 -0.005802
# 3 -0.009030 -0.014260 0.020443 -0.000441 -0.003889 0.001933
# 4 -0.002449 -0.001980 -0.000441 0.029220 -0.008322 0.005637
# 5 0.015998 0.020461 -0.003889 -0.008322 0.047643 -0.009083
# 6 -0.004581 -0.005802 0.001933 0.005637 -0.009083 0.029829
#
#
# Mechanical properties :
#
#
# Convention : Reuss Voigt Hill
#
# Bulk Modulus (GPa) = 22.21138 52.97860 37.59499
# Shear Modulus (GPa) = 23.69759 38.07328 30.88544
#
# Velocity S-wave (km/s) = 3.34131 4.23520 3.81453
# Velocity P-wave (km/s) = 5.03487 6.99107 6.09200
#
# Compressibility (1/GPa) = 0.04502196
#
# Stress axis : x y z
#
# Youngs Moduli (GPa) = 63.96883 32.17417 48.91538
#
# Poissons Ratio (x) = -0.39325 0.44172
# Poissons Ratio (y) = -0.78187 0.69752
# Poissons Ratio (z) = 0.57766 0.45880
#
# Static dielectric constant tensor:
#      x y z
#    x 1.804720 -0.006230 -0.016140 
#    y -0.006230 1.774740 0.020130 
#    z -0.016140 0.020130 1.926730 
# 
# From -- ./inp_files/419128.got.cif
#   From: 2010.05.17/outbox.ucp.g08.bks.cvg/sg2_210_cif.got.tgz:419128.got - 2010.06.11 11:32:03.
