data_PCOD9073884
_publ_section_title
;
Structure prediction by ZEFSAII (Michael W. Deem and Ramdas Pophale) SiO2 
 PCOD9073884
Probable space group: P -1
;
_chemical_formula_sum "Si O2"
_cell_formula_units_Z 16
_cell_length_a 15.000000
_cell_length_b 15.000000
_cell_length_c 9.000000
_cell_angle_alpha 120.000000
_cell_angle_beta 120.000000
_cell_angle_gamma 30.000000
_cell_volume 866.294673
_symmetry_space_group_name_H-M "P -1"
_symmetry_group_IT_number 2
_symmetry_cell_setting 'triclinic'
loop_
_space_group_symop_operation_xyz
x,y,z
-x,-y,-z
loop_
_atom_site_type_symbol
_atom_site_label
_atom_site_fract_x
_atom_site_fract_y
_atom_site_fract_z
Si Si1 0.905578 0.625544 0.170843
Si Si2 0.237602 0.633635 0.335634
Si Si3 0.828972 0.625225 0.576075
Si Si4 0.183116 0.133082 0.149013
Si Si5 0.589343 0.286801 0.524177
Si Si6 0.226576 0.489533 0.930296
Si Si7 0.819827 0.921925 0.245001
Si Si8 0.491147 0.770570 0.294095
O O1 0.797218 0.614527 0.138550
O O2 0.807044 0.814697 0.210324
O O3 0.070038 0.518624 0.328934
O O4 0.000000 0.500000 0.000000
O O5 0.389922 0.478838 0.454947
O O6 0.291340 0.705753 0.386207
O O7 0.025393 0.795592 0.337146
O O8 0.254739 0.533895 0.137351
O O9 0.773517 0.781488 0.726260
O O10 0.647107 0.720756 0.445632
O O11 0.000000 0.500000 0.500000
O O12 0.963977 0.315076 0.137184
O O13 0.312187 0.969938 0.239035
O O14 0.211349 0.067075 0.949907
O O15 0.566020 0.260753 0.649452
O O16 0.683132 0.116846 0.365905
O O17 0.394424 0.371107 0.864059
#
# Coordination Sequence:
#
# PCOD9073884 Si02
#       8
#     2   2   2   2   2   2   2   2
#     4  11  19  38  67  94 116 167 211 240 312 378
#     4  10  22  47  66  86 126 161 213 268 300 355
#     4  11  21  38  60  88 128 170 195 246 319 364
#     4  10  22  39  59  88 125 165 202 248 310 371
#     4  11  26  39  65  98 116 165 217 254 311 363
#     4  10  22  42  64  87 128 169 198 254 315 363
#     4  11  22  42  67  90 127 162 211 258 305 367
#     4  12  24  38  59  93 129 159 204 256 307 372
#
# _framework density 18.469466000000001
#
# number of rings (size 3 to 8) (size 9 to 14) (size 15 to 20)
#    0.000    1.250    6.250    2.250    1.750    2.500 
#    0.000    4.375    0.000    0.000    0.000    0.000 
#    0.000    0.000    0.000    0.000    0.000    0.000 
#
# Total GULP energy -89218.026426 kJ/mol
# GULP energy per Si atom -5576.126652 kJ/mol
# Density = 1.842743 g / cm^3
# Si number density = 18.469466 Si / 1000 Ang^3
#
#
#
# Elastic Constant Matrix: (Units=GPa)
#
#
# Indices 1 2 3 4 5 6 
#
# 1 109.8243 53.4490 28.3107 1.5889 -4.0425 15.0748
# 2 53.4490 98.9772 20.2225 -12.7267 -5.3625 19.8552
# 3 28.3107 20.2225 53.9505 -9.1246 5.5413 10.3626
# 4 1.5889 -12.7267 -9.1246 43.0565 -0.9406 -3.0741
# 5 -4.0425 -5.3625 5.5413 -0.9406 32.8804 1.1633
# 6 15.0748 19.8552 10.3626 -3.0741 1.1633 33.0363
#
#
#
# Elastic Compliance Matrix: (Units=1/GPa)
#
#
# Indices 1 2 3 4 5 6 
#
# 1 0.013979 -0.006612 -0.005419 -0.003664 0.001488 -0.001099
# 2 -0.006612 0.015682 -0.000779 0.004346 0.002207 -0.005837
# 3 -0.005419 -0.000779 0.023661 0.004607 -0.004511 -0.003894
# 4 -0.003664 0.004346 0.004607 0.025626 0.000215 -0.000008
# 5 0.001488 0.002207 -0.004511 0.000215 0.031782 -0.001689
# 6 -0.001099 -0.005837 -0.003894 -0.000008 -0.001689 0.035559
#
#
# Mechanical properties :
#
#
# Convention : Reuss Voigt Hill
#
# Bulk Modulus (GPa) = 36.09679 51.85737 43.97708
# Shear Modulus (GPa) = 27.60252 32.51262 30.05757
#
# Velocity S-wave (km/s) = 3.87006 4.20020 4.03851
# Velocity P-wave (km/s) = 6.28938 7.18753 6.75340
#
# Compressibility (1/GPa) = 0.02770329
#
# Stress axis : x y z
#
# Youngs Moduli (GPa) = 71.53786 63.76633 42.26278
#
# Poissons Ratio (x) = 0.42161 0.22900
# Poissons Ratio (y) = 0.47299 0.03293
# Poissons Ratio (z) = 0.38763 0.04969
#
# Static dielectric constant tensor:
#      x y z
#    x 1.651630 0.001310 -0.031370 
#    y 0.001310 1.640780 -0.005120 
#    z -0.031370 -0.005120 1.681660 
# 
# From -- ./inp_files/315772.got.cif
#   From: 2010.05.17/outbox.ucp.g08.bks.cvg/sg2_158_cif.got.tgz:315772.got - 2010.06.11 11:32:03.
