data_PCOD9073034
_publ_section_title
;
Structure prediction by ZEFSAII (Michael W. Deem and Ramdas Pophale) SiO2 
 PCOD9073034
Probable space group: P -1
;
_chemical_formula_sum "Si O2"
_cell_formula_units_Z 14
_cell_length_a 6.000000
_cell_length_b 24.000000
_cell_length_c 12.000000
_cell_angle_alpha 150.000000
_cell_angle_beta 90.000000
_cell_angle_gamma 70.000000
_cell_volume 630.239816
_symmetry_space_group_name_H-M "P -1"
_symmetry_group_IT_number 2
_symmetry_cell_setting 'triclinic'
loop_
_space_group_symop_operation_xyz
x,y,z
-x,-y,-z
loop_
_atom_site_type_symbol
_atom_site_label
_atom_site_fract_x
_atom_site_fract_y
_atom_site_fract_z
Si Si1 0.737416 0.997683 0.110404
Si Si2 0.204436 0.667199 0.836208
Si Si3 0.882013 0.442975 0.127513
Si Si4 0.711997 0.253234 0.469514
Si Si5 0.869886 0.840811 0.492187
Si Si6 0.123329 0.378814 0.391062
Si Si7 0.190779 0.899770 0.137035
O O1 0.660931 0.136916 0.282117
O O2 0.423259 0.048988 0.236060
O O3 0.913436 0.971652 0.178037
O O4 0.989637 0.839454 0.770460
O O5 0.500000 0.500000 0.500000
O O6 0.170770 0.623575 0.882575
O O7 0.967473 0.709454 0.812781
O O8 0.194622 0.805793 0.073893
O O9 0.578823 0.583078 0.300009
O O10 0.995899 0.518643 0.319689
O O11 0.107554 0.290682 0.788624
O O12 0.829214 0.250635 0.587669
O O13 0.828981 0.958302 0.608283
O O14 0.000000 0.500000 0.500000
O O15 0.488199 0.246265 0.173208
#
# Coordination Sequence:
#
# PCOD9073034 Si02
#       7
#     2   2   2   2   2   2   2
#     4  10  21  42  67  97 129 176 222 267 322 390
#     4  11  21  41  68  95 125 175 227 267 314 392
#     4  11  23  43  65 102 136 168 219 276 333 379
#     4  10  21  43  68  96 130 176 226 260 321 405
#     4  11  25  41  65 101 141 169 208 280 335 381
#     4  10  20  40  66  92 124 168 225 269 310 387
#     4  11  21  42  67  94 133 171 226 261 321 400
#
# _framework density 22.213766
#
# number of rings (size 3 to 8) (size 9 to 14) (size 15 to 20)
#    0.000    1.429    4.286    1.714    0.000    1.143 
#   10.286    6.429    0.000    0.000    0.000    0.000 
#    0.000    0.000    0.000    0.000    0.000    0.000 
#
# Total GULP energy -78048.725251 kJ/mol
# GULP energy per Si atom -5574.908946 kJ/mol
# Density = 2.216321 g / cm^3
# Si number density = 22.213766 Si / 1000 Ang^3
#
#
#
# Elastic Constant Matrix: (Units=GPa)
#
#
# Indices 1 2 3 4 5 6 
#
# 1 49.5196 16.4083 5.0553 16.4561 3.4010 0.7401
# 2 16.4083 93.9663 23.6705 32.9445 -1.0003 5.7845
# 3 5.0553 23.6705 89.3701 26.6168 14.7024 7.2203
# 4 16.4561 32.9445 26.6168 40.4807 2.1835 1.5156
# 5 3.4010 -1.0003 14.7024 2.1835 26.3449 5.4434
# 6 0.7401 5.7845 7.2203 1.5156 5.4434 35.2880
#
#
#
# Elastic Compliance Matrix: (Units=1/GPa)
#
#
# Indices 1 2 3 4 5 6 
#
# 1 0.024023 -0.001330 0.002653 -0.010229 -0.003826 0.000201
# 2 -0.001330 0.015233 -0.000822 -0.011374 0.002609 -0.002215
# 3 0.002653 -0.000822 0.015756 -0.010282 -0.008011 -0.001467
# 4 -0.010229 -0.011374 -0.010282 0.044671 0.002537 0.001873
# 5 -0.003826 0.002609 -0.008011 0.002537 0.043969 -0.005600
# 6 0.000201 -0.002215 -0.001467 0.001873 -0.005600 0.029781
#
#
# Mechanical properties :
#
#
# Convention : Reuss Voigt Hill
#
# Bulk Modulus (GPa) = 17.85289 35.90271 26.87780
# Shear Modulus (GPa) = 26.16397 32.93751 29.55074
#
# Velocity S-wave (km/s) = 3.43567 3.85483 3.65127
# Velocity P-wave (km/s) = 4.87778 6.00087 5.46823
#
# Compressibility (1/GPa) = 0.05601333
#
# Stress axis : x y z
#
# Youngs Moduli (GPa) = 41.62702 65.64580 63.46820
#
# Poissons Ratio (x) = 0.08731 -0.16838
# Poissons Ratio (y) = 0.05537 0.05219
# Poissons Ratio (z) = -0.11044 0.05398
#
# Static dielectric constant tensor:
#      x y z
#    x 2.076550 -0.051310 0.034060 
#    y -0.051310 1.863740 -0.044140 
#    z 0.034060 -0.044140 1.789640 
# 
# From -- ./inp_files/371122.got.cif
#   From: 2010.05.17/outbox.ucp.g08.bks.cvg/sg2_186_cif.got.tgz:371122.got - 2010.06.11 11:32:03.
