data_PCOD9073071
_publ_section_title
;
Structure prediction by ZEFSAII (Michael W. Deem and Ramdas Pophale) SiO2 
 PCOD9073071
Probable space group: P -1
;
_chemical_formula_sum "Si O2"
_cell_formula_units_Z 14
_cell_length_a 13.538157
_cell_length_b 8.459049
_cell_length_c 7.438567
_cell_angle_alpha 88.956223
_cell_angle_beta 48.102891
_cell_angle_gamma 108.667573
_cell_volume 567.293896
_symmetry_space_group_name_H-M "P -1"
_symmetry_group_IT_number 2
_symmetry_cell_setting 'triclinic'
loop_
_space_group_symop_operation_xyz
x,y,z
-x,-y,-z
loop_
_atom_site_type_symbol
_atom_site_label
_atom_site_fract_x
_atom_site_fract_y
_atom_site_fract_z
Si Si1 0.526631 0.186323 0.879354
Si Si2 0.073813 0.063545 0.647449
Si Si3 0.021978 0.755471 0.948039
Si Si4 0.654353 0.083199 0.422366
Si Si5 0.532235 0.691082 0.688842
Si Si6 0.766239 0.832721 0.889460
Si Si7 0.285456 0.462612 0.741010
O O1 0.535251 0.316793 0.029037
O O2 0.382122 0.148454 0.940152
O O3 0.650806 0.216464 0.580060
O O4 0.500000 0.000000 0.000000
O O5 0.198188 0.193264 0.359210
O O6 0.070871 0.875092 0.703715
O O7 0.913233 0.006746 0.754908
O O8 0.069587 0.162415 0.829478
O O9 0.178366 0.810660 0.855998
O O10 0.882002 0.564948 0.093291
O O11 0.500000 0.000000 0.500000
O O12 0.643109 0.897496 0.520050
O O13 0.398262 0.634671 0.708738
O O14 0.617536 0.574146 0.532558
O O15 0.742990 0.686270 0.067109
#
# Coordination Sequence:
#
# PCOD9073071 Si02
#       7
#     2   2   2   2   2   2   2
#     4  10  20  33  52  77 110 147 181 219 263 326
#     4   9  17  29  53  81 108 134 180 239 273 316
#     4  10  18  34  55  79 107 145 183 224 280 321
#     4  11  21  36  59  82 109 146 188 225 263 331
#     4  10  21  38  56  82 112 144 183 227 286 327
#     4  10  18  31  52  84 108 136 183 231 281 321
#     4  10  21  36  58  81 112 144 177 236 289 327
#
# _framework density 24.678567000000001
#
# number of rings (size 3 to 8) (size 9 to 14) (size 15 to 20)
#    0.000    2.000    0.000    6.857    0.000    0.571 
#    0.000    2.857    0.000    0.000    0.000    0.000 
#    0.000    0.000    0.000    0.000    0.000    0.000 
#
# Total GULP energy -78037.227393 kJ/mol
# GULP energy per Si atom -5574.087671 kJ/mol
# Density = 2.462240 g / cm^3
# Si number density = 24.678567 Si / 1000 Ang^3
#
#
#
# Elastic Constant Matrix: (Units=GPa)
#
#
# Indices 1 2 3 4 5 6 
#
# 1 86.8309 20.2426 28.1672 -1.5490 -23.9925 20.3332
# 2 20.2426 87.7093 46.4408 4.1660 -6.6941 22.0539
# 3 28.1672 46.4408 141.5279 9.1729 -7.9096 18.9864
# 4 -1.5490 4.1660 9.1729 35.5988 13.8080 -1.9318
# 5 -23.9925 -6.6941 -7.9096 13.8080 57.3308 -9.7009
# 6 20.3332 22.0539 18.9864 -1.9318 -9.7009 35.7768
#
#
#
# Elastic Compliance Matrix: (Units=1/GPa)
#
#
# Indices 1 2 3 4 5 6 
#
# 1 0.015012 -0.000672 -0.001601 -0.001223 0.005279 -0.005903
# 2 -0.000672 0.015484 -0.003904 -0.001255 0.000083 -0.007136
# 3 -0.001601 -0.003904 0.009027 -0.002171 0.000391 -0.001485
# 4 -0.001223 -0.001255 -0.002171 0.032089 -0.008332 0.002094
# 5 0.005279 0.000083 0.000391 -0.008332 0.022109 0.002286
# 6 -0.005903 -0.007136 -0.001485 0.002094 0.002286 0.037226
#
#
# Mechanical properties :
#
#
# Convention : Reuss Voigt Hill
#
# Bulk Modulus (GPa) = 36.80603 56.19660 46.50131
# Shear Modulus (GPa) = 32.81775 40.48913 36.65344
#
# Velocity S-wave (km/s) = 3.65061 4.05490 3.85805
# Velocity P-wave (km/s) = 5.71977 6.68908 6.22333
#
# Compressibility (1/GPa) = 0.02716946
#
# Stress axis : x y z
#
# Youngs Moduli (GPa) = 66.61516 64.58438 110.77577
#
# Poissons Ratio (x) = 0.04338 0.17736
# Poissons Ratio (y) = 0.04474 0.43244
# Poissons Ratio (z) = 0.10666 0.25212
#
# Static dielectric constant tensor:
#      x y z
#    x 2.079810 0.032700 0.046490 
#    y 0.032700 2.016240 0.028490 
#    z 0.046490 0.028490 2.000670 
# 
# From -- ./inp_files/261992.got.cif
#   From: 2010.05.17/outbox.cif.g08.bks.cpg/sg2_131_cif.got.tgz:261992.got - 2010.06.03 11:33:40.
