data_PCOD9073458
_publ_section_title
;
Structure prediction by ZEFSAII (Michael W. Deem and Ramdas Pophale) SiO2 
 PCOD9073458
Probable space group: P -1
;
_chemical_formula_sum "Si O2"
_cell_formula_units_Z 16
_cell_length_a 15.000000
_cell_length_b 12.000000
_cell_length_c 9.000000
_cell_angle_alpha 120.000000
_cell_angle_beta 110.000000
_cell_angle_gamma 120.000000
_cell_volume 745.925389
_symmetry_space_group_name_H-M "P -1"
_symmetry_group_IT_number 2
_symmetry_cell_setting 'triclinic'
loop_
_space_group_symop_operation_xyz
x,y,z
-x,-y,-z
loop_
_atom_site_type_symbol
_atom_site_label
_atom_site_fract_x
_atom_site_fract_y
_atom_site_fract_z
Si Si1 0.924443 0.772560 0.822829
Si Si2 0.526038 0.393192 0.614478
Si Si3 0.707853 0.307219 0.941255
Si Si4 0.542358 0.391410 0.290875
Si Si5 0.982535 0.628215 0.535620
Si Si6 0.202057 0.980438 0.630643
Si Si7 0.888673 0.718526 0.112656
Si Si8 0.347516 0.998109 0.462077
O O1 0.735595 0.562735 0.506435
O O2 0.016724 0.766086 0.778333
O O3 0.932561 0.746065 0.983691
O O4 0.000000 0.000000 0.000000
O O5 0.501606 0.300673 0.376645
O O6 0.444987 0.440823 0.584183
O O7 0.428722 0.206418 0.558648
O O8 0.723922 0.628784 0.933528
O O9 0.509233 0.108931 0.701048
O O10 0.735368 0.193555 0.826003
O O11 0.794574 0.496130 0.993874
O O12 0.797193 0.434770 0.231126
O O13 0.393027 0.209110 0.961203
O O14 0.000000 0.500000 0.500000
O O15 0.104895 0.805184 0.591423
O O16 0.225385 0.912115 0.460030
O O17 0.064183 0.931288 0.449843
#
# Coordination Sequence:
#
# PCOD9073458 Si02
#       8
#     2   2   2   2   2   2   2   2
#     4  11  26  46  70  96 136 178 223 272 339 395
#     4   9  21  41  66  91 129 175 223 271 334 394
#     4   9  21  43  63  93 132 168 221 279 329 398
#     4  10  23  42  65  97 129 171 226 276 324 400
#     4  11  27  43  66  98 136 176 221 277 331 397
#     4  11  25  39  65  98 133 170 225 276 328 399
#     4   9  22  42  62  96 130 173 209 277 334 394
#     4  10  21  39  67  93 126 176 223 271 336 391
#
# _framework density 21.449867000000001
#
# number of rings (size 3 to 8) (size 9 to 14) (size 15 to 20)
#    0.000    2.000    0.000    0.750   12.250    2.000 
#    4.500    1.250    0.000    0.000    0.000    0.000 
#    0.000    0.000    0.000    0.000    0.000    0.000 
#
# Total GULP energy -89108.173670 kJ/mol
# GULP energy per Si atom -5569.260854 kJ/mol
# Density = 2.140105 g / cm^3
# Si number density = 21.449867 Si / 1000 Ang^3
#
#
#
# Elastic Constant Matrix: (Units=GPa)
#
#
# Indices 1 2 3 4 5 6 
#
# 1 89.3629 54.3099 12.8458 -8.8543 -6.1423 7.9738
# 2 54.3099 65.8736 13.6826 -29.9939 -2.4482 1.4994
# 3 12.8458 13.6826 104.6205 -17.5852 9.0516 -1.8902
# 4 -8.8543 -29.9939 -17.5852 23.3336 -3.4163 5.0405
# 5 -6.1423 -2.4482 9.0516 -3.4163 30.0406 -2.6341
# 6 7.9738 1.4994 -1.8902 5.0405 -2.6341 19.6805
#
#
#
# Elastic Compliance Matrix: (Units=1/GPa)
#
#
# Indices 1 2 3 4 5 6 
#
# 1 0.077545 -0.134645 -0.018298 -0.162230 -0.006496 0.017764
# 2 -0.134645 0.279504 0.036039 0.349046 0.019695 -0.050042
# 3 -0.018298 0.036039 0.015870 0.052907 -0.000217 -0.007388
# 4 -0.162230 0.349046 0.052907 0.490776 0.028334 -0.077687
# 5 -0.006496 0.019695 -0.000217 0.028334 0.036745 -0.001228
# 6 0.017764 -0.050042 -0.007388 -0.077687 -0.001228 0.066451
#
#
# Mechanical properties :
#
#
# Convention : Reuss Voigt Hill
#
# Bulk Modulus (GPa) = 7.18841 46.83707 27.01274
# Shear Modulus (GPa) = 4.00941 26.54551 15.27746
#
# Velocity S-wave (km/s) = 1.36867 3.52171 2.67168
# Velocity P-wave (km/s) = 2.41996 6.19836 4.70510
#
# Compressibility (1/GPa) = 0.13911275
#
# Stress axis : x y z
#
# Youngs Moduli (GPa) = 12.89577 3.57776 63.01214
#
# Poissons Ratio (x) = 0.48173 1.15297
# Poissons Ratio (y) = 1.73635 -2.27092
# Poissons Ratio (z) = 0.23596 -0.12894
#
# Static dielectric constant tensor:
#      x y z
#    x 1.945790 0.018300 -0.051660 
#    y 0.018300 1.731260 -0.020100 
#    z -0.051660 -0.020100 1.880260 
# 
# From -- ./inp_files/308339.got.cif
#   From: 2010.05.17/outbox.ucp.g08.bks.cvg/sg2_155_cif.got.tgz:308339.got - 2010.06.11 11:32:03.
