data_PCOD9073521
_publ_section_title
;
Structure prediction by ZEFSAII (Michael W. Deem and Ramdas Pophale) SiO2 
 PCOD9073521
Probable space group: P -1
;
_chemical_formula_sum "Si O2"
_cell_formula_units_Z 16
_cell_length_a 12.000000
_cell_length_b 12.000000
_cell_length_c 12.000000
_cell_angle_alpha 110.000000
_cell_angle_beta 100.000000
_cell_angle_gamma 140.000000
_cell_volume 722.981415
_symmetry_space_group_name_H-M "P -1"
_symmetry_group_IT_number 2
_symmetry_cell_setting 'triclinic'
loop_
_space_group_symop_operation_xyz
x,y,z
-x,-y,-z
loop_
_atom_site_type_symbol
_atom_site_label
_atom_site_fract_x
_atom_site_fract_y
_atom_site_fract_z
Si Si1 0.024645 0.796551 0.286429
Si Si2 0.077656 0.421162 0.219933
Si Si3 0.577370 0.864463 0.331073
Si Si4 0.142864 0.971670 0.774242
Si Si5 0.728959 0.043132 0.844900
Si Si6 0.476103 0.344581 0.149218
Si Si7 0.812434 0.804024 0.504296
Si Si8 0.738328 0.266045 0.442437
O O1 0.736891 0.537872 0.198696
O O2 0.200866 0.924073 0.465155
O O3 0.088840 0.794758 0.177981
O O4 0.146696 0.039484 0.366349
O O5 0.316665 0.589355 0.252602
O O6 0.191381 0.633426 0.384895
O O7 0.947966 0.219758 0.225838
O O8 0.873825 0.261114 0.035142
O O9 0.662564 0.869051 0.239380
O O10 0.578871 0.997233 0.326704
O O11 0.901600 0.787237 0.599415
O O12 0.284110 0.188599 0.961354
O O13 0.659803 0.868059 0.856344
O O14 0.456232 0.825078 0.677713
O O15 0.561803 0.535555 0.304722
O O16 0.000000 0.000000 0.500000
O O17 0.000000 0.500000 0.500000
#
# Coordination Sequence:
#
# PCOD9073521 Si02
#       8
#     2   2   2   2   2   2   2   2
#     4  11  23  42  65  94 128 168 212 261 316 375
#     4  11  25  44  65  96 128 167 213 260 319 378
#     4  12  23  42  67  93 129 172 209 263 318 369
#     4  11  22  44  64  93 133 165 211 266 312 374
#     4  11  25  45  64  95 130 165 212 263 314 378
#     4  10  22  42  66  93 130 168 209 264 314 372
#     4  10  21  40  65  97 125 170 214 254 319 376
#     4  12  24  44  69  93 128 169 210 262 320 377
#
# _framework density 22.130583000000001
#
# number of rings (size 3 to 8) (size 9 to 14) (size 15 to 20)
#    0.000    1.000    5.000    2.625    0.000    3.500 
#    4.500    1.250    0.000    0.000    0.000    0.000 
#    0.000    0.000    0.000    0.000    0.000    0.000 
#
# Total GULP energy -89159.020086 kJ/mol
# GULP energy per Si atom -5572.438755 kJ/mol
# Density = 2.208021 g / cm^3
# Si number density = 22.130583 Si / 1000 Ang^3
#
#
#
# Elastic Constant Matrix: (Units=GPa)
#
#
# Indices 1 2 3 4 5 6 
#
# 1 0.4012 -14.7740 -12.3783 -1.4893 6.7444 22.6649
# 2 -14.7740 84.5846 -13.9124 -11.1950 13.4959 32.6738
# 3 -12.3783 -13.9124 114.8559 -17.1435 -3.6662 9.3656
# 4 -1.4893 -11.1950 -17.1435 37.6489 5.0128 -8.5415
# 5 6.7444 13.4959 -3.6662 5.0128 11.2937 -2.3094
# 6 22.6649 32.6738 9.3656 -8.5415 -2.3094 17.1866
#
#
#
# Elastic Compliance Matrix: (Units=1/GPa)
#
#
# Indices 1 2 3 4 5 6 
#
# 1 0.002545 -0.014053 -0.003290 -0.002246 0.020686 0.026816
# 2 -0.014053 0.007716 -0.000639 0.002845 -0.001180 0.005467
# 3 -0.003290 -0.000639 0.008717 0.003792 0.004549 0.003298
# 4 -0.002246 0.002845 0.003792 0.033140 -0.013461 0.010148
# 5 0.020686 -0.001180 0.004549 -0.013461 0.080264 -0.023420
# 6 0.026816 0.005467 0.003298 0.010148 -0.023420 0.012526
#
#
# Mechanical properties :
#
#
# Convention : Reuss Voigt Hill
#
# Bulk Modulus (GPa) = -58.87552 13.07916 -22.89818
# Shear Modulus (GPa) = 28.53740 29.28626 28.91183
#
# Velocity S-wave (km/s) = 3.59486 3.64172 3.61836
# Velocity P-wave (km/s) = 3.07096 4.85856 2.66222
#
# Compressibility (1/GPa) = -0.01698499
#
# Stress axis : x y z
#
# Youngs Moduli (GPa) = 392.90414 129.60597 114.71971
#
# Poissons Ratio (x) = 1.82136 0.37738
# Poissons Ratio (y) = 5.52149 0.07328
# Poissons Ratio (z) = 1.29248 0.08279
#
# Static dielectric constant tensor:
#      x y z
#    x 2.024670 -0.053840 -0.021400 
#    y -0.053840 1.783520 0.038950 
#    z -0.021400 0.038950 1.824230 
# 
# From -- ./inp_files/428562.got.cif
#   From: 2010.05.17/outbox.ucp.g08.bks.cvg/sg2_215_cif.got.tgz:428562.got - 2010.06.11 11:32:03.
