data_PCOD9073833
_publ_section_title
;
Structure prediction by ZEFSAII (Michael W. Deem and Ramdas Pophale) SiO2 
 PCOD9073833
Probable space group: P -1
;
_chemical_formula_sum "Si O2"
_cell_formula_units_Z 16
_cell_length_a 28.442184
_cell_length_b 19.024650
_cell_length_c 14.753133
_cell_angle_alpha 27.043336
_cell_angle_beta 20.188974
_cell_angle_gamma 17.643264
_cell_volume 834.493337
_symmetry_space_group_name_H-M "P -1"
_symmetry_group_IT_number 2
_symmetry_cell_setting 'triclinic'
loop_
_space_group_symop_operation_xyz
x,y,z
-x,-y,-z
loop_
_atom_site_type_symbol
_atom_site_label
_atom_site_fract_x
_atom_site_fract_y
_atom_site_fract_z
Si Si1 0.345145 0.359476 0.585039
Si Si2 0.324526 0.707440 0.013129
Si Si3 0.941730 0.890805 0.680613
Si Si4 0.889565 0.969966 0.300742
Si Si5 0.419145 0.002954 0.739229
Si Si6 0.870822 0.111481 0.377041
Si Si7 0.296672 0.507602 0.131395
Si Si8 0.532951 0.600962 0.502776
O O1 0.560928 0.255602 0.289880
O O2 0.346890 0.391535 0.652329
O O3 0.149541 0.618867 0.603841
O O4 0.351792 0.190916 0.716820
O O5 0.500000 0.500000 0.000000
O O6 0.279028 0.598148 0.158789
O O7 0.106120 0.956450 0.152030
O O8 0.837591 0.015888 0.628223
O O9 0.000000 0.000000 0.500000
O O10 0.780154 0.935602 0.982444
O O11 0.867173 0.052681 0.348757
O O12 0.660003 0.142989 0.482029
O O13 0.064311 0.690548 0.306313
O O14 0.000000 0.000000 0.000000
O O15 0.587888 0.750133 0.770428
O O16 0.500000 0.000000 0.500000
O O17 0.704044 0.386823 0.372665
O O18 0.428420 0.531230 0.814544
#
# Coordination Sequence:
#
# PCOD9073833 Si02
#       8
#     2   2   2   2   2   2   2   2
#     4  11  23  37  58  89 130 160 205 254 312 373
#     4  10  18  31  57  87 116 158 204 246 302 364
#     4  12  23  42  63  93 127 168 210 255 309 379
#     4   9  20  37  61  93 120 155 219 272 303 352
#     4  12  26  39  59  93 134 169 202 252 318 384
#     4  11  20  33  68  90 122 158 212 259 312 355
#     4   9  19  37  55  84 120 165 206 252 305 366
#     4  10  19  38  62  90 118 162 215 264 303 366
#
# _framework density 19.173311999999999
#
# number of rings (size 3 to 8) (size 9 to 14) (size 15 to 20)
#    0.000    1.500    3.750    3.000    3.500    0.000 
#    0.000    0.625    0.000    0.750    0.000    0.000 
#    0.000    0.000    0.000    0.000    0.000    0.000 
#
# Total GULP energy -89086.249493 kJ/mol
# GULP energy per Si atom -5567.890593 kJ/mol
# Density = 1.912967 g / cm^3
# Si number density = 19.173312 Si / 1000 Ang^3
#
#
#
# Elastic Constant Matrix: (Units=GPa)
#
#
# Indices 1 2 3 4 5 6 
#
# 1 73.3277 22.1920 11.1426 -7.1182 2.2299 2.8910
# 2 22.1920 161.8354 29.9875 14.1607 -15.1935 2.3223
# 3 11.1426 29.9875 68.5610 9.0030 7.6728 7.3984
# 4 -7.1182 14.1607 9.0030 34.1036 3.2869 -6.0664
# 5 2.2299 -15.1935 7.6728 3.2869 24.1132 4.3132
# 6 2.8910 2.3223 7.3984 -6.0664 4.3132 31.2591
#
#
#
# Elastic Compliance Matrix: (Units=1/GPa)
#
#
# Indices 1 2 3 4 5 6 
#
# 1 0.015239 -0.002529 -0.001747 0.005119 -0.003258 0.000635
# 2 -0.002529 0.008187 -0.003308 -0.003994 0.007233 -0.001365
# 3 -0.001747 -0.003308 0.017928 -0.003755 -0.006458 -0.003674
# 4 0.005119 -0.003994 -0.003755 0.035377 -0.008175 0.008706
# 5 -0.003258 0.007233 -0.006458 -0.008175 0.050806 -0.007304
# 6 0.000635 -0.001365 -0.003674 0.008706 -0.007304 0.035600
#
#
# Mechanical properties :
#
#
# Convention : Reuss Voigt Hill
#
# Bulk Modulus (GPa) = 38.18523 47.81869 43.00196
# Shear Modulus (GPa) = 26.73318 33.92197 30.32758
#
# Velocity S-wave (km/s) = 3.73807 4.21078 3.98145
# Velocity P-wave (km/s) = 6.21208 6.97390 6.60399
#
# Compressibility (1/GPa) = 0.02618814
#
# Stress axis : x y z
#
# Youngs Moduli (GPa) = 65.62043 122.14561 55.77751
#
# Poissons Ratio (x) = 0.30890 0.09742
# Poissons Ratio (y) = 0.16595 0.18449
# Poissons Ratio (z) = 0.11461 0.40401
#
# Static dielectric constant tensor:
#      x y z
#    x 1.756480 -0.007280 0.054160 
#    y -0.007280 1.709470 0.050240 
#    z 0.054160 0.050240 1.765030 
# 
# From -- ./inp_files/170696.got.cif
#   From: 2010.05.17/outbox.cif.g08.bks.cpg/sg2_86_cif.got.tgz:170696.got - 2010.06.03 11:33:40.
