data_PCOD9073693
_publ_section_title
;
Structure prediction by ZEFSAII (Michael W. Deem and Ramdas Pophale) SiO2 
 PCOD9073693
Probable space group: P -1
;
_chemical_formula_sum "Si O2"
_cell_formula_units_Z 16
_cell_length_a 15.000000
_cell_length_b 15.000000
_cell_length_c 6.000000
_cell_angle_alpha 120.000000
_cell_angle_beta 120.000000
_cell_angle_gamma 40.000000
_cell_volume 734.725185
_symmetry_space_group_name_H-M "P -1"
_symmetry_group_IT_number 2
_symmetry_cell_setting 'triclinic'
loop_
_space_group_symop_operation_xyz
x,y,z
-x,-y,-z
loop_
_atom_site_type_symbol
_atom_site_label
_atom_site_fract_x
_atom_site_fract_y
_atom_site_fract_z
Si Si1 0.930014 0.862842 0.572127
Si Si2 0.088930 0.716730 0.985814
Si Si3 0.817238 0.202552 0.407006
Si Si4 0.316205 0.922813 0.795543
Si Si5 0.634378 0.470167 0.210898
Si Si6 0.423900 0.057029 0.230273
Si Si7 0.935395 0.430584 0.869972
Si Si8 0.384616 0.306401 0.342803
O O1 0.948767 0.841061 0.829647
O O2 0.042267 0.875616 0.663586
O O3 0.990483 0.710674 0.363892
O O4 0.778573 0.990005 0.435224
O O5 0.228989 0.612719 0.879942
O O6 0.127788 0.783932 0.280241
O O7 0.058573 0.629212 0.958135
O O8 0.753522 0.132260 0.257332
O O9 0.697571 0.363525 0.366607
O O10 0.482526 0.790247 0.781160
O O11 0.320905 0.029131 0.061236
O O12 0.578337 0.623053 0.369484
O O13 0.500000 0.500000 0.000000
O O14 0.364590 0.213240 0.331505
O O15 0.500000 0.000000 0.500000
O O16 0.500000 0.000000 0.000000
O O17 0.767833 0.558168 0.776308
O O18 0.000000 0.500000 0.000000
#
# Coordination Sequence:
#
# PCOD9073693 Si02
#       8
#     2   2   2   2   2   2   2   2
#     4  10  22  46  62 103 140 179 237 283 362 436
#     4  10  21  42  68  96 144 178 230 298 348 434
#     4  10  22  42  66 102 140 179 234 290 355 442
#     4  11  24  43  72 100 140 191 232 293 366 426
#     4  11  23  38  68 106 138 176 229 292 365 421
#     4  10  25  48  66 101 145 186 239 297 362 433
#     4  11  23  44  69  98 133 181 239 288 355 423
#     4  11  23  45  68 105 136 177 243 298 348 434
#
# _framework density 21.77685
#
# number of rings (size 3 to 8) (size 9 to 14) (size 15 to 20)
#    0.000    1.500    3.750    1.875    3.500    3.000 
#   15.750    0.000    0.000    0.000    0.000    0.000 
#    0.000    0.000    0.000    0.000    0.000    0.000 
#
# Total GULP energy -89205.982016 kJ/mol
# GULP energy per Si atom -5575.373876 kJ/mol
# Density = 2.172728 g / cm^3
# Si number density = 21.776850 Si / 1000 Ang^3
#
#
#
# Elastic Constant Matrix: (Units=GPa)
#
#
# Indices 1 2 3 4 5 6 
#
# 1 142.0913 26.7019 51.0947 19.1830 35.6880 30.9149
# 2 26.7019 89.6649 29.9248 2.8034 3.9514 17.2595
# 3 51.0947 29.9248 84.8310 -8.0530 15.2704 23.5054
# 4 19.1830 2.8034 -8.0530 32.4983 8.8820 9.2128
# 5 35.6880 3.9514 15.2704 8.8820 39.6427 5.4267
# 6 30.9149 17.2595 23.5054 9.2128 5.4267 50.7236
#
#
#
# Elastic Compliance Matrix: (Units=1/GPa)
#
#
# Indices 1 2 3 4 5 6 
#
# 1 0.012472 -0.000754 -0.005720 -0.005932 -0.007231 -0.002843
# 2 -0.000754 0.013089 -0.004029 -0.001534 0.001545 -0.002014
# 3 -0.005720 -0.004029 0.020173 0.011554 -0.003965 -0.006166
# 4 -0.005932 -0.001534 0.011554 0.041488 -0.007160 -0.007986
# 5 -0.007231 0.001545 -0.003965 -0.007160 0.034253 0.003355
# 6 -0.002843 -0.002014 -0.006166 -0.007986 0.003355 0.026082
#
#
# Mechanical properties :
#
#
# Convention : Reuss Voigt Hill
#
# Bulk Modulus (GPa) = 40.43729 59.11443 49.77586
# Shear Modulus (GPa) = 28.27963 38.49733 33.38848
#
# Velocity S-wave (km/s) = 3.60753 4.20909 3.91987
# Velocity P-wave (km/s) = 5.99680 7.12927 6.58741
#
# Compressibility (1/GPa) = 0.02472965
#
# Stress axis : x y z
#
# Youngs Moduli (GPa) = 80.18209 76.39819 49.57030
#
# Poissons Ratio (x) = 0.05758 0.28352
# Poissons Ratio (y) = 0.06044 0.19972
# Poissons Ratio (z) = 0.45860 0.30781
#
# Static dielectric constant tensor:
#      x y z
#    x 1.878870 -0.064860 -0.101980 
#    y -0.064860 1.858860 0.039560 
#    z -0.101980 0.039560 1.904250 
# 
# From -- ./inp_files/98638.got.cif
#   From: 2010.05.17/outbox.ucp.g08.bks.cvg/sg2_50_cif.got.tgz:98638.got - 2010.06.11 11:32:03.
