data_PCOD9073923
_publ_section_title
;
Structure prediction by ZEFSAII (Michael W. Deem and Ramdas Pophale) SiO2 
 PCOD9073923
Probable space group: P -1
;
_chemical_formula_sum "Si O2"
_cell_formula_units_Z 16
_cell_length_a 24.000000
_cell_length_b 15.000000
_cell_length_c 9.000000
_cell_angle_alpha 130.000000
_cell_angle_beta 150.000000
_cell_angle_gamma 30.000000
_cell_volume 731.734496
_symmetry_space_group_name_H-M "P -1"
_symmetry_group_IT_number 2
_symmetry_cell_setting 'triclinic'
loop_
_space_group_symop_operation_xyz
x,y,z
-x,-y,-z
loop_
_atom_site_type_symbol
_atom_site_label
_atom_site_fract_x
_atom_site_fract_y
_atom_site_fract_z
Si Si1 0.217430 0.946534 0.784334
Si Si2 0.234673 0.315733 0.505236
Si Si3 0.653835 0.287924 0.879798
Si Si4 0.752112 0.460683 0.723115
Si Si5 0.773605 0.688305 0.167913
Si Si6 0.640526 0.562430 0.236210
Si Si7 0.961809 0.982692 0.055552
Si Si8 0.192347 0.242566 0.006019
O O1 0.166453 0.124891 0.835419
O O2 0.252947 0.878871 0.963990
O O3 0.417347 0.756699 0.961082
O O4 0.069777 0.979755 0.412551
O O5 0.290707 0.233112 0.720210
O O6 0.309352 0.381703 0.707896
O O7 0.007184 0.521181 0.205389
O O8 0.279871 0.207327 0.335092
O O9 0.429342 0.464002 0.571567
O O10 0.696950 0.385467 0.125716
O O11 0.744262 0.175012 0.810818
O O12 0.734978 0.506074 0.556444
O O13 0.730433 0.592564 0.916213
O O14 0.942062 0.225510 0.933325
O O15 0.722658 0.802984 0.016313
O O16 0.000000 0.500000 0.500000
O O17 0.000000 0.000000 0.000000
#
# Coordination Sequence:
#
# PCOD9073923 Si02
#       8
#     2   2   2   2   2   2   2   2
#     4  11  23  43  66  98 133 173 229 280 338 409
#     4  10  22  39  67  95 124 183 224 274 346 392
#     4  11  24  44  69  97 136 180 224 277 341 408
#     4  11  23  45  68  97 140 176 226 281 342 404
#     4  10  23  42  67  94 136 178 225 288 334 401
#     4  11  21  43  70  95 133 179 224 283 341 406
#     4  12  27  40  66 104 138 178 223 280 340 410
#     4  10  22  41  65  93 131 174 232 280 328 401
#
# _framework density 21.865853999999999
#
# number of rings (size 3 to 8) (size 9 to 14) (size 15 to 20)
#    0.000    1.250    3.750    1.875    7.000    2.000 
#    0.000    0.625    0.000    0.000    0.000    0.000 
#    0.000    0.000    0.000    0.000    0.000    0.000 
#
# Total GULP energy -89315.321901 kJ/mol
# GULP energy per Si atom -5582.207619 kJ/mol
# Density = 2.181609 g / cm^3
# Si number density = 21.865854 Si / 1000 Ang^3
#
#
#
# Elastic Constant Matrix: (Units=GPa)
#
#
# Indices 1 2 3 4 5 6 
#
# 1 138.8898 -3.5751 -10.5764 1.8713 -4.4632 -17.2560
# 2 -3.5751 43.0664 -12.4287 3.1352 -6.9695 3.9522
# 3 -10.5764 -12.4287 29.2955 6.7839 1.1314 -2.5486
# 4 1.8713 3.1352 6.7839 34.8237 -1.2657 5.7055
# 5 -4.4632 -6.9695 1.1314 -1.2657 28.5647 8.7658
# 6 -17.2560 3.9522 -2.5486 5.7055 8.7658 37.7615
#
#
#
# Elastic Compliance Matrix: (Units=1/GPa)
#
#
# Indices 1 2 3 4 5 6 
#
# 1 0.008140 0.001795 0.004552 -0.002156 0.000168 0.004126
# 2 0.001795 0.029022 0.013570 -0.004712 0.007317 -0.002288
# 3 0.004552 0.013570 0.044539 -0.011005 0.000146 0.005295
# 4 -0.002156 -0.004712 -0.011005 0.032592 0.002459 -0.006730
# 5 0.000168 0.007317 0.000146 0.002459 0.040102 -0.010360
# 6 0.004126 -0.002288 0.005295 -0.006730 -0.010360 0.032386
#
#
# Mechanical properties :
#
#
# Convention : Reuss Voigt Hill
#
# Bulk Modulus (GPa) = 8.22810 17.56571 12.89691
# Shear Modulus (GPa) = 26.67248 36.08545 31.37897
#
# Velocity S-wave (km/s) = 3.49639 4.06681 3.79234
# Velocity P-wave (km/s) = 4.48004 5.48660 5.00867
#
# Compressibility (1/GPa) = 0.12153469
#
# Stress axis : x y z
#
# Youngs Moduli (GPa) = 122.85342 34.45603 22.45230
#
# Poissons Ratio (x) = -0.06184 -0.10220
# Poissons Ratio (y) = -0.22049 -0.30468
# Poissons Ratio (z) = -0.55919 -0.46758
#
# Static dielectric constant tensor:
#      x y z
#    x 1.847200 -0.025800 0.002200 
#    y -0.025800 1.792410 0.020480 
#    z 0.002200 0.020480 1.886120 
# 
# From -- ./inp_files/354547.got.cif
#   From: 2010.05.17/outbox.ucp.g08.bks.cvg/sg2_178_cif.got.tgz:354547.got - 2010.06.11 11:32:03.
