data_PCOD9073557
_publ_section_title
;
Structure prediction by ZEFSAII (Michael W. Deem and Ramdas Pophale) SiO2 
 PCOD9073557
Probable space group: P -1
;
_chemical_formula_sum "Si O2"
_cell_formula_units_Z 16
_cell_length_a 22.357270
_cell_length_b 9.833209
_cell_length_c 14.162636
_cell_angle_alpha 41.098274
_cell_angle_beta 157.923831
_cell_angle_gamma 131.422388
_cell_volume 760.685263
_symmetry_space_group_name_H-M "P -1"
_symmetry_group_IT_number 2
_symmetry_cell_setting 'triclinic'
loop_
_space_group_symop_operation_xyz
x,y,z
-x,-y,-z
loop_
_atom_site_type_symbol
_atom_site_label
_atom_site_fract_x
_atom_site_fract_y
_atom_site_fract_z
Si Si1 0.573013 0.709723 0.294994
Si Si2 0.285372 0.919505 0.638608
Si Si3 0.315917 0.553122 0.141216
Si Si4 0.580156 0.286775 0.435721
Si Si5 0.719830 0.741058 0.112663
Si Si6 0.322894 0.646572 0.654451
Si Si7 0.568907 0.174798 0.686082
Si Si8 0.043423 0.692553 0.524559
O O1 0.447593 0.660559 0.217401
O O2 0.637448 0.493373 0.453137
O O3 0.706709 0.836034 0.465386
O O4 0.458472 0.826668 0.985404
O O5 0.285911 0.823298 0.586346
O O6 0.146217 0.835290 0.539243
O O7 0.394346 0.308783 0.382788
O O8 0.314824 0.675758 0.174335
O O9 0.154434 0.599113 0.822630
O O10 0.682331 0.243521 0.512487
O O11 0.581863 0.150469 0.604013
O O12 0.396124 0.326289 0.105417
O O13 0.777347 0.539861 0.367895
O O14 0.876583 0.810695 0.259075
O O15 0.618252 0.936961 0.916456
O O16 0.500000 0.500000 0.000000
O O17 0.000000 0.500000 0.500000
#
# Coordination Sequence:
#
# PCOD9073557 Si02
#       8
#     2   2   2   2   2   2   2   2
#     4   9  17  31  53  81 112 151 197 242 284 346
#     4  10  18  31  55  83 115 155 190 245 301 336
#     4   9  21  37  59  86 120 158 199 250 295 356
#     4  10  20  37  58  90 119 153 200 250 298 342
#     4  11  21  35  62  92 120 154 193 256 301 353
#     4  10  19  32  54  91 116 146 203 249 289 339
#     4  10  21  38  58  88 123 159 199 242 303 358
#     4  11  20  37  59  88 126 150 199 251 303 354
#
# _framework density 21.033667000000001
#
# number of rings (size 3 to 8) (size 9 to 14) (size 15 to 20)
#    0.000    2.000    3.750    1.875    3.500    1.500 
#    0.000    0.000    0.000    9.000    0.000    2.625 
#    0.000    0.000    0.000    0.000    0.000    0.000 
#
# Total GULP energy -89115.280874 kJ/mol
# GULP energy per Si atom -5569.705055 kJ/mol
# Density = 2.098579 g / cm^3
# Si number density = 21.033667 Si / 1000 Ang^3
#
#
#
# Elastic Constant Matrix: (Units=GPa)
#
#
# Indices 1 2 3 4 5 6 
#
# 1 98.3042 15.5002 30.3369 15.6627 -5.2602 -15.2355
# 2 15.5002 113.5295 29.6279 12.8309 10.7050 -15.9927
# 3 30.3369 29.6279 65.0323 13.3409 -2.7101 -8.7555
# 4 15.6627 12.8309 13.3409 20.5092 0.9559 3.0824
# 5 -5.2602 10.7050 -2.7101 0.9559 30.6085 7.3149
# 6 -15.2355 -15.9927 -8.7555 3.0824 7.3149 23.3556
#
#
#
# Elastic Compliance Matrix: (Units=1/GPa)
#
#
# Indices 1 2 3 4 5 6 
#
# 1 0.014576 0.001975 -0.003870 -0.011492 -0.000844 0.011190
# 2 0.001975 0.012841 -0.003671 -0.008637 -0.007090 0.012065
# 3 -0.003870 -0.003671 0.021310 -0.009235 0.001943 0.003561
# 4 -0.011492 -0.008637 -0.009235 0.072930 0.004629 -0.027947
# 5 -0.000844 -0.007090 0.001943 0.004629 0.039233 -0.017576
# 6 0.011190 0.012065 0.003561 -0.027947 -0.017576 0.068905
#
#
# Mechanical properties :
#
#
# Convention : Reuss Voigt Hill
#
# Bulk Modulus (GPa) = 26.60021 47.53289 37.06655
# Shear Modulus (GPa) = 19.72716 28.32139 24.02427
#
# Velocity S-wave (km/s) = 3.06581 3.67342 3.38328
# Velocity P-wave (km/s) = 5.02058 6.37492 5.73785
#
# Compressibility (1/GPa) = 0.03759369
#
# Stress axis : x y z
#
# Youngs Moduli (GPa) = 68.60798 77.87624 46.92736
#
# Poissons Ratio (x) = -0.15378 0.18162
# Poissons Ratio (y) = -0.13548 0.17225
# Poissons Ratio (z) = 0.26552 0.28586
#
# Static dielectric constant tensor:
#      x y z
#    x 1.884500 0.074740 -0.032500 
#    y 0.074740 1.864110 -0.013200 
#    z -0.032500 -0.013200 1.752640 
# 
# From -- ./inp_files/542517.got.cif
#   From: 2010.05.17/outbox.cif.g08.bks.cpg/sg2_272_cif.got.tgz:542517.got - 2010.06.03 11:33:40.
