data_PCOD9073740
_publ_section_title
;
Structure prediction by ZEFSAII (Michael W. Deem and Ramdas Pophale) SiO2 
 PCOD9073740
Probable space group: P -1
;
_chemical_formula_sum "Si O2"
_cell_formula_units_Z 16
_cell_length_a 8.026252
_cell_length_b 11.182928
_cell_length_c 9.501185
_cell_angle_alpha 109.888327
_cell_angle_beta 103.413038
_cell_angle_gamma 118.960497
_cell_volume 614.716395
_symmetry_space_group_name_H-M "P -1"
_symmetry_group_IT_number 2
_symmetry_cell_setting 'triclinic'
loop_
_space_group_symop_operation_xyz
x,y,z
-x,-y,-z
loop_
_atom_site_type_symbol
_atom_site_label
_atom_site_fract_x
_atom_site_fract_y
_atom_site_fract_z
Si Si1 0.286536 0.123085 0.096874
Si Si2 0.833330 0.722035 0.343067
Si Si3 0.679969 0.254912 0.067307
Si Si4 0.336509 0.552698 0.117526
Si Si5 0.022107 0.229006 0.051195
Si Si6 0.222575 0.727376 0.364019
Si Si7 0.906304 0.004990 0.306590
Si Si8 0.487146 0.010979 0.701937
O O1 0.541496 0.236424 0.163949
O O2 0.205754 0.226636 0.158215
O O3 0.182754 0.044652 0.889381
O O4 0.162148 0.961251 0.100940
O O5 0.575526 0.602098 0.209605
O O6 0.980624 0.662304 0.332847
O O7 0.889434 0.812634 0.542006
O O8 0.925451 0.872677 0.316650
O O9 0.907443 0.287033 0.143696
O O10 0.550306 0.078715 0.897934
O O11 0.675075 0.362137 0.988552
O O12 0.150270 0.360670 0.005705
O O13 0.267024 0.612235 0.257033
O O14 0.320695 0.863577 0.315230
O O15 0.382719 0.830559 0.566405
O O16 0.713192 0.981250 0.352637
#
# Coordination Sequence:
#
# PCOD9073740 Si02
#       8
#     2   2   2   2   2   2   2   2
#     4  10  22  42  58  78 105 151 194 224 264 329
#     4  10  18  31  56  87 111 137 172 229 283 323
#     4  10  20  37  59  81 107 141 189 231 271 313
#     4  11  22  36  51  88 117 138 180 232 276 324
#     4  11  25  38  56  77 113 152 189 223 269 323
#     4   9  17  28  51  81 115 136 164 224 285 321
#     4   9  17  33  57  82 108 138 183 227 269 321
#     4   8  15  29  50  83 108 129 178 223 268 327
#
# _framework density 26.028264
#
# number of rings (size 3 to 8) (size 9 to 14) (size 15 to 20)
#    0.000    2.250    3.750    0.750    5.250    1.500 
#    0.000    0.625    0.000    6.750    0.000    0.000 
#    0.000    0.000    0.000    0.000    0.000    0.000 
#
# Total GULP energy -89296.565760 kJ/mol
# GULP energy per Si atom -5581.035360 kJ/mol
# Density = 2.596902 g / cm^3
# Si number density = 26.028264 Si / 1000 Ang^3
#
#
#
# Elastic Constant Matrix: (Units=GPa)
#
#
# Indices 1 2 3 4 5 6 
#
# 1 213.7000 50.1863 22.1217 19.7777 -17.8909 17.6740
# 2 50.1863 115.7319 18.0010 1.7918 5.2264 11.5043
# 3 22.1217 18.0010 102.7439 -3.8379 5.2584 6.2734
# 4 19.7777 1.7918 -3.8379 34.8453 2.8570 4.6750
# 5 -17.8909 5.2264 5.2584 2.8570 28.7525 0.3433
# 6 17.6740 11.5043 6.2734 4.6750 0.3433 23.9721
#
#
#
# Elastic Compliance Matrix: (Units=1/GPa)
#
#
# Indices 1 2 3 4 5 6 
#
# 1 0.006356 -0.002492 -0.001171 -0.003680 0.005018 -0.002538
# 2 -0.002492 0.010293 -0.000848 0.001487 -0.003377 -0.003122
# 3 -0.001171 -0.000848 0.010474 0.002337 -0.002700 -0.001888
# 4 -0.003680 0.001487 0.002337 0.032112 -0.006121 -0.004787
# 5 0.005018 -0.003377 -0.002700 -0.006121 0.039627 -0.000747
# 6 -0.002538 -0.003122 -0.001888 -0.004787 -0.000747 0.046523
#
#
# Mechanical properties :
#
#
# Convention : Reuss Voigt Hill
#
# Bulk Modulus (GPa) = 55.24200 68.08822 61.66511
# Shear Modulus (GPa) = 31.16404 40.30510 35.73457
#
# Velocity S-wave (km/s) = 3.46398 3.93938 3.70931
# Velocity P-wave (km/s) = 6.10482 6.84893 6.48755
#
# Compressibility (1/GPa) = 0.01810217
#
# Stress axis : x y z
#
# Youngs Moduli (GPa) = 157.32035 97.15507 95.47064
#
# Poissons Ratio (x) = 0.24207 0.11183
# Poissons Ratio (y) = 0.39197 0.08094
# Poissons Ratio (z) = 0.18428 0.08237
#
# Static dielectric constant tensor:
#      x y z
#    x 2.221810 -0.026250 0.029090 
#    y -0.026250 2.080260 -0.039690 
#    z 0.029090 -0.039690 2.132530 
# 
# From -- ./inp_files/503233.got.cif
#   From: 2010.05.17/outbox.cif.g08.bks.cpg/sg2_252_cif.got.tgz:503233.got - 2010.06.03 11:33:40.
