data_PCOD9073737
_publ_section_title
;
Structure prediction by ZEFSAII (Michael W. Deem and Ramdas Pophale) SiO2 
 PCOD9073737
Probable space group: P -1
;
_chemical_formula_sum "Si O2"
_cell_formula_units_Z 16
_cell_length_a 12.000000
_cell_length_b 12.000000
_cell_length_c 12.000000
_cell_angle_alpha 80.000000
_cell_angle_beta 110.000000
_cell_angle_gamma 40.000000
_cell_volume 722.981415
_symmetry_space_group_name_H-M "P -1"
_symmetry_group_IT_number 2
_symmetry_cell_setting 'triclinic'
loop_
_space_group_symop_operation_xyz
x,y,z
-x,-y,-z
loop_
_atom_site_type_symbol
_atom_site_label
_atom_site_fract_x
_atom_site_fract_y
_atom_site_fract_z
Si Si1 0.218989 0.603939 0.553103
Si Si2 0.769307 0.650200 0.319096
Si Si3 0.217184 0.154375 0.157570
Si Si4 0.348757 0.871959 0.835065
Si Si5 0.986011 0.092985 0.868015
Si Si6 0.532530 0.363106 0.309615
Si Si7 0.694398 0.149816 0.633514
Si Si8 0.841128 0.623272 0.088834
O O1 0.236794 0.482100 0.664145
O O2 0.322838 0.636081 0.632011
O O3 0.412582 0.409976 0.550088
O O4 0.924148 0.856971 0.361739
O O5 0.805275 0.666709 0.202431
O O6 0.000000 0.500000 0.500000
O O7 0.518000 0.898716 0.264355
O O8 0.092917 0.337453 0.181021
O O9 0.182030 0.059542 0.217148
O O10 0.113766 0.299042 0.980511
O O11 0.451649 0.696251 0.802569
O O12 0.243922 0.920582 0.916853
O O13 0.578563 0.771949 0.940339
O O14 0.765231 0.368023 0.791260
O O15 0.857049 0.123316 0.724247
O O16 0.000000 0.000000 0.000000
O O17 0.667890 0.168872 0.486402
#
# Coordination Sequence:
#
# PCOD9073737 Si02
#       8
#     2   2   2   2   2   2   2   2
#     4  10  21  43  67 102 139 175 232 288 333 414
#     4  11  25  47  75 101 128 186 236 286 351 405
#     4  10  25  49  68  99 141 182 227 291 351 403
#     4  12  25  41  71 102 140 185 229 280 350 414
#     4  11  25  42  66 101 146 182 230 285 346 417
#     4  11  23  43  67 104 141 187 228 281 350 406
#     4  10  21  45  70  95 137 189 231 284 348 400
#     4  11  27  47  68 103 143 178 235 289 345 417
#
# _framework density 22.130583000000001
#
# number of rings (size 3 to 8) (size 9 to 14) (size 15 to 20)
#    0.000    1.250    2.500    2.250    8.750    1.000 
#    9.000    0.000    0.000    0.000    0.000    0.000 
#    0.000    0.000    0.000    0.000    0.000    0.000 
#
# Total GULP energy -89217.924837 kJ/mol
# GULP energy per Si atom -5576.120302 kJ/mol
# Density = 2.208021 g / cm^3
# Si number density = 22.130583 Si / 1000 Ang^3
#
#
#
# Elastic Constant Matrix: (Units=GPa)
#
#
# Indices 1 2 3 4 5 6 
#
# 1 113.4636 39.8982 30.6810 5.1028 -24.6950 -7.0869
# 2 39.8982 105.9917 42.1954 -2.6914 9.8370 -20.7069
# 3 30.6810 42.1954 78.0734 13.0782 -6.8371 7.8871
# 4 5.1028 -2.6914 13.0782 40.5459 -0.3788 -10.6961
# 5 -24.6950 9.8370 -6.8371 -0.3788 34.9057 9.2966
# 6 -7.0869 -20.7069 7.8871 -10.6961 9.2966 38.5163
#
#
#
# Elastic Compliance Matrix: (Units=1/GPa)
#
#
# Indices 1 2 3 4 5 6 
#
# 1 0.014782 -0.010017 0.002823 -0.005573 0.016083 -0.008673
# 2 -0.010017 0.030699 -0.021215 0.017988 -0.027883 0.030731
# 3 0.002823 -0.021215 0.030957 -0.018822 0.021176 -0.027563
# 4 -0.005573 0.017988 -0.018822 0.039929 -0.019822 0.028372
# 5 0.016083 -0.027883 0.021176 -0.019822 0.061603 -0.036741
# 6 -0.008673 0.030731 -0.027563 0.028372 -0.036741 0.063280
#
#
# Mechanical properties :
#
#
# Convention : Reuss Voigt Hill
#
# Bulk Modulus (GPa) = 50.96673 58.11975 54.54324
# Shear Modulus (GPa) = 16.41463 35.11049 25.76256
#
# Velocity S-wave (km/s) = 2.72640 3.98743 3.41562
# Velocity P-wave (km/s) = 5.74378 6.89338 6.34467
#
# Compressibility (1/GPa) = 0.01962064
#
# Stress axis : x y z
#
# Youngs Moduli (GPa) = 67.65155 32.57438 32.30332
#
# Poissons Ratio (x) = 0.32628 -0.09119
# Poissons Ratio (y) = 0.67764 0.68530
# Poissons Ratio (z) = -0.19097 0.69105
#
# Static dielectric constant tensor:
#      x y z
#    x 1.837720 0.054050 -0.043550 
#    y 0.054050 1.828390 -0.057840 
#    z -0.043550 -0.057840 1.898520 
# 
# From -- ./inp_files/428187.got.cif
#   From: 2010.05.17/outbox.ucp.g08.bks.cvg/sg2_215_cif.got.tgz:428187.got - 2010.06.11 11:32:03.
