data_PCOD9073157
_publ_section_title
;
Structure prediction by ZEFSAII (Michael W. Deem and Ramdas Pophale) SiO2 
 PCOD9073157
Probable space group: P -1
;
_chemical_formula_sum "Si O2"
_cell_formula_units_Z 16
_cell_length_a 8.584220
_cell_length_b 9.561134
_cell_length_c 14.331986
_cell_angle_alpha 132.062955
_cell_angle_beta 78.604106
_cell_angle_gamma 74.129440
_cell_volume 710.612188
_symmetry_space_group_name_H-M "P -1"
_symmetry_group_IT_number 2
_symmetry_cell_setting 'triclinic'
loop_
_space_group_symop_operation_xyz
x,y,z
-x,-y,-z
loop_
_atom_site_type_symbol
_atom_site_label
_atom_site_fract_x
_atom_site_fract_y
_atom_site_fract_z
Si Si1 0.266000 0.338196 0.226821
Si Si2 0.931969 0.841430 0.701543
Si Si3 0.575119 0.088273 0.399817
Si Si4 0.922952 0.862948 0.496636
Si Si5 0.966021 0.831026 0.173257
Si Si6 0.716530 0.699308 0.330196
Si Si7 0.372444 0.424951 0.430946
Si Si8 0.125072 0.385225 0.074268
O O1 0.406917 0.359584 0.288409
O O2 0.286846 0.272055 0.085073
O O3 0.190317 0.212964 0.241724
O O4 0.094962 0.601067 0.356495
O O5 0.147877 0.608674 0.563798
O O6 0.866881 0.914833 0.634584
O O7 0.934320 0.055064 0.832954
O O8 0.785657 0.038064 0.343062
O O9 0.626781 0.839922 0.309640
O O10 0.447333 0.279621 0.578076
O O11 0.448852 0.189622 0.368950
O O12 0.764503 0.860254 0.453493
O O13 0.000000 0.000000 0.500000
O O14 0.087907 0.614243 0.130730
O O15 0.865870 0.767910 0.079056
O O16 0.918429 0.471112 0.185201
O O17 0.500000 0.500000 0.500000
#
# Coordination Sequence:
#
# PCOD9073157 Si02
#       8
#     2   2   2   2   2   2   2   2
#     4  10  21  34  53  79 112 148 183 236 277 330
#     4  11  20  34  53  83 113 146 187 229 284 328
#     4  10  18  33  49  82 110 140 174 223 288 323
#     4  10  18  31  53  78 106 138 191 232 273 322
#     4  10  20  35  59  83 107 149 188 237 270 338
#     4   9  18  31  56  80 105 137 178 237 277 323
#     4  11  20  31  51  77 116 144 177 218 282 338
#     4   9  19  38  56  82 108 146 197 231 276 320
#
# _framework density 22.515796000000002
#
# number of rings (size 3 to 8) (size 9 to 14) (size 15 to 20)
#    0.000    2.000    1.250    6.000    1.750    0.500 
#    0.000    0.625    0.000    0.000    0.000   18.375 
#    0.000    0.000    0.000    0.000    0.000    0.000 
#
# Total GULP energy -89103.491414 kJ/mol
# GULP energy per Si atom -5568.968213 kJ/mol
# Density = 2.246455 g / cm^3
# Si number density = 22.515796 Si / 1000 Ang^3
#
#
#
# Elastic Constant Matrix: (Units=GPa)
#
#
# Indices 1 2 3 4 5 6 
#
# 1 71.8732 40.4696 25.0747 -7.3458 21.6033 2.3392
# 2 40.4696 136.7308 25.5519 -13.4856 31.1416 -1.4968
# 3 25.0747 25.5519 47.6175 -14.5780 19.5356 -2.2660
# 4 -7.3458 -13.4856 -14.5780 30.1073 -6.0941 15.0815
# 5 21.6033 31.1416 19.5356 -6.0941 33.1108 -5.4573
# 6 2.3392 -1.4968 -2.2660 15.0815 -5.4573 42.9035
#
#
#
# Elastic Compliance Matrix: (Units=1/GPa)
#
#
# Indices 1 2 3 4 5 6 
#
# 1 0.019998 -0.003234 -0.005993 0.000419 -0.006810 -0.002533
# 2 -0.003234 0.010182 0.000055 0.003077 -0.007173 -0.001460
# 3 -0.005993 0.000055 0.034344 0.014695 -0.014502 -0.004868
# 4 0.000419 0.003077 0.014695 0.049280 -0.005598 -0.017175
# 5 -0.006810 -0.007173 -0.014502 -0.005598 0.050187 0.007707
# 6 -0.002533 -0.001460 -0.004868 -0.017175 0.007707 0.030156
#
#
# Mechanical properties :
#
#
# Convention : Reuss Voigt Hill
#
# Bulk Modulus (GPa) = 21.65540 48.71265 35.18403
# Shear Modulus (GPa) = 21.94089 32.23267 27.08678
#
# Velocity S-wave (km/s) = 3.12503 3.78770 3.47221
# Velocity P-wave (km/s) = 4.76024 6.38833 5.63341
#
# Compressibility (1/GPa) = 0.04617785
#
# Stress axis : x y z
#
# Youngs Moduli (GPa) = 50.00599 98.21403 29.11710
#
# Poissons Ratio (x) = 0.31765 0.17451
# Poissons Ratio (y) = 0.16173 -0.00160
# Poissons Ratio (z) = 0.29970 -0.00538
#
# Static dielectric constant tensor:
#      x y z
#    x 1.908690 0.007080 0.036370 
#    y 0.007080 1.928350 -0.067690 
#    z 0.036370 -0.067690 1.907200 
# 
# From -- ./inp_files/493861.got.cif
#   From: 2010.05.17/outbox.cif.g08.bks.cpg/sg2_247_cif.got.tgz:493861.got - 2010.06.03 11:33:40.
