data_PCOD9073600
_publ_section_title
;
Structure prediction by ZEFSAII (Michael W. Deem and Ramdas Pophale) SiO2 
 PCOD9073600
Probable space group: P -1
;
_chemical_formula_sum "Si O2"
_cell_formula_units_Z 16
_cell_length_a 27.000000
_cell_length_b 12.000000
_cell_length_c 9.000000
_cell_angle_alpha 140.000000
_cell_angle_beta 30.000000
_cell_angle_gamma 150.000000
_cell_volume 727.497153
_symmetry_space_group_name_H-M "P -1"
_symmetry_group_IT_number 2
_symmetry_cell_setting 'triclinic'
loop_
_space_group_symop_operation_xyz
x,y,z
-x,-y,-z
loop_
_atom_site_type_symbol
_atom_site_label
_atom_site_fract_x
_atom_site_fract_y
_atom_site_fract_z
Si Si1 0.745290 0.923897 0.870952
Si Si2 0.013381 0.243156 0.607239
Si Si3 0.403782 0.283211 0.658298
Si Si4 0.652400 0.538066 0.486524
Si Si5 0.010007 0.633418 0.890128
Si Si6 0.259104 0.722180 0.917284
Si Si7 0.727444 0.550528 0.992621
Si Si8 0.707383 0.125554 0.678987
O O1 0.676911 0.723370 0.724093
O O2 0.894385 0.040753 0.615706
O O3 0.721934 0.099015 0.064460
O O4 0.703986 0.859617 0.082690
O O5 0.015539 0.445726 0.753259
O O6 0.142624 0.293222 0.276415
O O7 0.005935 0.251483 0.813619
O O8 0.525301 0.411865 0.586038
O O9 0.385887 0.107311 0.405559
O O10 0.374519 0.432040 0.801168
O O11 0.661580 0.370107 0.386191
O O12 0.750885 0.628438 0.184210
O O13 0.889760 0.498623 0.951013
O O14 0.151787 0.804658 0.631561
O O15 0.299259 0.848889 0.101062
O O16 0.694811 0.307815 0.831254
#
# Coordination Sequence:
#
# PCOD9073600 Si02
#       8
#     2   2   2   2   2   2   2   2
#     4  11  24  42  63  94 128 161 207 259 311 368
#     4   9  19  37  64  95 122 161 201 254 318 370
#     4  12  25  41  66  90 125 172 211 253 300 368
#     4  11  26  44  60  93 127 167 215 252 303 364
#     4   9  17  36  64  94 128 153 202 257 312 374
#     4  10  23  39  66  92 127 164 199 260 315 367
#     4  10  24  41  66  93 123 163 208 261 307 367
#     4  10  21  41  65  95 124 163 208 250 316 369
#
# _framework density 21.993213000000001
#
# number of rings (size 3 to 8) (size 9 to 14) (size 15 to 20)
#    0.000    1.750    1.250    1.875    3.500    6.500 
#    0.000    0.000    0.000    0.000    0.000    0.000 
#    0.000    0.000    0.000    0.000    0.000    0.000 
#
# Total GULP energy -89293.430858 kJ/mol
# GULP energy per Si atom -5580.839429 kJ/mol
# Density = 2.194316 g / cm^3
# Si number density = 21.993213 Si / 1000 Ang^3
#
#
#
# Elastic Constant Matrix: (Units=GPa)
#
#
# Indices 1 2 3 4 5 6 
#
# 1 118.0122 49.8360 23.3417 22.8547 -21.2259 9.7442
# 2 49.8360 83.1594 6.9132 18.2995 -5.6119 13.5829
# 3 23.3417 6.9132 41.2740 8.7626 -10.5645 -2.5276
# 4 22.8547 18.2995 8.7626 22.0061 2.4395 -1.2313
# 5 -21.2259 -5.6119 -10.5645 2.4395 43.4255 6.0453
# 6 9.7442 13.5829 -2.5276 -1.2313 6.0453 50.1867
#
#
#
# Elastic Compliance Matrix: (Units=1/GPa)
#
#
# Indices 1 2 3 4 5 6 
#
# 1 0.014960 -0.005492 -0.003813 -0.010335 0.006626 -0.002662
# 2 -0.005492 0.018295 0.002476 -0.010894 0.001480 -0.004206
# 3 -0.003813 0.002476 0.029863 -0.010650 0.006241 0.000561
# 4 -0.010335 -0.010894 -0.010650 0.071487 -0.014163 0.007879
# 5 0.006626 0.001480 0.006241 -0.014163 0.029506 -0.005274
# 6 -0.002662 -0.004206 0.000561 0.007879 -0.005274 0.022438
#
#
# Mechanical properties :
#
#
# Convention : Reuss Voigt Hill
#
# Bulk Modulus (GPa) = 20.21892 44.73636 32.47764
# Shear Modulus (GPa) = 23.07391 33.94732 28.51062
#
# Velocity S-wave (km/s) = 3.24255 3.93305 3.60437
# Velocity P-wave (km/s) = 4.81997 6.40393 5.66756
#
# Compressibility (1/GPa) = 0.04945862
#
# Stress axis : x y z
#
# Youngs Moduli (GPa) = 66.84275 54.66013 33.48612
#
# Poissons Ratio (x) = 0.30021 0.12770
# Poissons Ratio (y) = 0.36712 -0.08290
# Poissons Ratio (z) = 0.25490 -0.13533
#
# Static dielectric constant tensor:
#      x y z
#    x 1.748440 -0.037960 -0.007040 
#    y -0.037960 1.884860 -0.086820 
#    z -0.007040 -0.086820 1.863360 
# 
# From -- ./inp_files/272310.got.cif
#   From: 2010.05.17/outbox.ucp.g08.bks.cvg/sg2_137_cif.got.tgz:272310.got - 2010.06.11 11:32:03.
