data_PCOD9073578
_publ_section_title
;
Structure prediction by ZEFSAII (Michael W. Deem and Ramdas Pophale) SiO2 
 PCOD9073578
Probable space group: P -1
;
_chemical_formula_sum "Si O2"
_cell_formula_units_Z 16
_cell_length_a 12.106337
_cell_length_b 9.987648
_cell_length_c 16.494732
_cell_angle_alpha 43.838307
_cell_angle_beta 65.627852
_cell_angle_gamma 103.390641
_cell_volume 684.942648
_symmetry_space_group_name_H-M "P -1"
_symmetry_group_IT_number 2
_symmetry_cell_setting 'triclinic'
loop_
_space_group_symop_operation_xyz
x,y,z
-x,-y,-z
loop_
_atom_site_type_symbol
_atom_site_label
_atom_site_fract_x
_atom_site_fract_y
_atom_site_fract_z
Si Si1 0.088563 0.397423 0.149892
Si Si2 0.511957 0.489199 0.373591
Si Si3 0.800094 0.463072 0.765754
Si Si4 0.835158 0.605455 0.198353
Si Si5 0.582169 0.802497 0.048620
Si Si6 0.839338 0.096465 0.149736
Si Si7 0.776405 0.111303 0.494527
Si Si8 0.645766 0.601745 0.984269
O O1 0.156414 0.275393 0.155484
O O2 0.149489 0.656286 0.959982
O O3 0.297666 0.835073 0.129865
O O4 0.843977 0.111124 0.387084
O O5 0.597011 0.383945 0.378978
O O6 0.562898 0.668196 0.197751
O O7 0.665852 0.799176 0.260609
O O8 0.263392 0.141627 0.636493
O O9 0.669241 0.482690 0.778801
O O10 0.065211 0.798852 0.532067
O O11 0.766166 0.375376 0.910068
O O12 0.851296 0.434757 0.322730
O O13 0.000000 0.000000 0.000000
O O14 0.921448 0.659179 0.060158
O O15 0.706728 0.850820 0.920295
O O16 0.472002 0.240665 0.247246
O O17 0.500000 0.500000 0.000000
#
# Coordination Sequence:
#
# PCOD9073578 Si02
#       8
#     2   2   2   2   2   2   2   2
#     4   9  18  38  61  81 112 154 200 237 287 355
#     4  10  18  31  55  84 115 144 188 243 293 339
#     4   9  19  39  64  79 117 159 196 247 297 336
#     4   9  16  32  57  86 112 146 198 245 281 342
#     4  11  21  37  59  90 123 152 191 256 302 336
#     4   9  17  32  57  84 105 152 197 230 287 352
#     4   9  20  39  62  85 116 159 203 240 293 355
#     4  12  23  37  61  87 119 162 203 233 297 367
#
# _framework density 23.359618999999999
#
# number of rings (size 3 to 8) (size 9 to 14) (size 15 to 20)
#    0.750    1.500    2.500    1.500    0.000    2.000 
#    0.000    5.625    2.750    3.000    0.000    0.000 
#    0.000    0.000    0.000    0.000    0.000    0.000 
#
# Total GULP energy -89299.322747 kJ/mol
# GULP energy per Si atom -5581.207672 kJ/mol
# Density = 2.330645 g / cm^3
# Si number density = 23.359619 Si / 1000 Ang^3
#
#
#
# Elastic Constant Matrix: (Units=GPa)
#
#
# Indices 1 2 3 4 5 6 
#
# 1 88.1266 29.9397 5.3164 10.3301 -2.7867 -17.8467
# 2 29.9397 102.0283 8.6151 7.2111 14.8763 -18.3157
# 3 5.3164 8.6151 63.8549 4.9161 2.6183 -10.5974
# 4 10.3301 7.2111 4.9161 27.9252 1.6975 2.0466
# 5 -2.7867 14.8763 2.6183 1.6975 25.9726 3.9573
# 6 -17.8467 -18.3157 -10.5974 2.0466 3.9573 43.5010
#
#
#
# Elastic Compliance Matrix: (Units=1/GPa)
#
#
# Indices 1 2 3 4 5 6 
#
# 1 0.014057 -0.003490 0.000259 -0.004851 0.003142 0.004303
# 2 -0.003490 0.013089 -0.000168 -0.001903 -0.008477 0.004899
# 3 0.000259 -0.000168 0.016729 -0.003200 -0.002031 0.004446
# 4 -0.004851 -0.001903 -0.003200 0.039102 -0.000851 -0.005333
# 5 0.003142 -0.008477 -0.002031 -0.000851 0.044995 -0.006828
# 6 0.004303 0.004899 0.004446 -0.005333 -0.006828 0.028771
#
#
# Mechanical properties :
#
#
# Convention : Reuss Voigt Hill
#
# Bulk Modulus (GPa) = 26.97014 37.97247 32.47130
# Shear Modulus (GPa) = 28.42527 33.48900 30.95714
#
# Velocity S-wave (km/s) = 3.49213 3.79044 3.64434
# Velocity P-wave (km/s) = 5.27548 5.95377 5.62486
#
# Compressibility (1/GPa) = 0.03707804
#
# Stress axis : x y z
#
# Youngs Moduli (GPa) = 71.14101 76.39780 59.77593
#
# Poissons Ratio (x) = 0.26659 -0.01550
# Poissons Ratio (y) = 0.24825 0.01006
# Poissons Ratio (z) = -0.01844 0.01285
#
# Static dielectric constant tensor:
#      x y z
#    x 1.911880 0.061050 -0.040610 
#    y 0.061050 1.940890 -0.021520 
#    z -0.040610 -0.021520 1.884910 
# 
# From -- ./inp_files/567263.got.cif
#   From: 2010.05.17/outbox.cif.g08.bks.cpg/sg2_284_cif.got.tgz:567263.got - 2010.06.03 11:33:40.
