data_PCOD9073437
_publ_section_title
;
Structure prediction by ZEFSAII (Michael W. Deem and Ramdas Pophale) SiO2 
 PCOD9073437
Probable space group: P -1
;
_chemical_formula_sum "Si O2"
_cell_formula_units_Z 14
_cell_length_a 21.000000
_cell_length_b 12.000000
_cell_length_c 6.000000
_cell_angle_alpha 120.000000
_cell_angle_beta 110.000000
_cell_angle_gamma 30.000000
_cell_volume 640.096506
_symmetry_space_group_name_H-M "P -1"
_symmetry_group_IT_number 2
_symmetry_cell_setting 'triclinic'
loop_
_space_group_symop_operation_xyz
x,y,z
-x,-y,-z
loop_
_atom_site_type_symbol
_atom_site_label
_atom_site_fract_x
_atom_site_fract_y
_atom_site_fract_z
Si Si1 0.437799 0.015002 0.254549
Si Si2 0.605381 0.655062 0.722873
Si Si3 0.594720 0.237895 0.458560
Si Si4 0.784463 0.808658 0.879195
Si Si5 0.858009 0.165376 0.313936
Si Si6 0.810851 0.005505 0.791748
Si Si7 0.031440 0.735929 0.433842
O O1 0.386489 0.210150 0.219666
O O2 0.326982 0.096701 0.280935
O O3 0.500000 0.000000 0.500000
O O4 0.550944 0.752938 0.004293
O O5 0.498444 0.732599 0.559707
O O6 0.746709 0.367925 0.568448
O O7 0.500000 0.500000 0.500000
O O8 0.677563 0.174174 0.685029
O O9 0.704379 0.003537 0.183306
O O10 0.841176 0.834566 0.824463
O O11 0.883681 0.530870 0.783037
O O12 0.899590 0.243497 0.363476
O O13 0.971997 0.897684 0.301254
O O14 0.799035 0.160878 0.061262
O O15 0.921695 0.858143 0.592916
#
# Coordination Sequence:
#
# PCOD9073437 Si02
#       7
#     2   2   2   2   2   2   2
#     4  10  21  39  65  98 129 169 220 275 336 400
#     4  10  21  41  65  95 130 172 217 275 342 388
#     4  11  25  44  68 102 137 178 221 283 352 402
#     4  11  24  44  68 101 138 175 226 288 337 403
#     4  11  25  46  71  97 139 183 228 285 332 407
#     4  12  25  43  70 100 136 184 230 275 337 414
#     4  11  25  47  66 100 136 185 231 279 340 392
#
# _framework density 21.871701999999999
#
# number of rings (size 3 to 8) (size 9 to 14) (size 15 to 20)
#    0.000    1.143    1.429    4.286    0.000    9.143 
#    5.143    0.000    0.000    0.000    0.000    0.000 
#    0.000    0.000    0.000    0.000    0.000    0.000 
#
# Total GULP energy -78149.945995 kJ/mol
# GULP energy per Si atom -5582.139000 kJ/mol
# Density = 2.182192 g / cm^3
# Si number density = 21.871702 Si / 1000 Ang^3
#
#
#
# Elastic Constant Matrix: (Units=GPa)
#
#
# Indices 1 2 3 4 5 6 
#
# 1 169.8780 16.5702 10.0479 4.9261 21.6342 -0.8739
# 2 16.5702 89.7055 40.0198 25.6252 9.3635 12.8883
# 3 10.0479 40.0198 71.5584 12.0530 33.8066 -6.3498
# 4 4.9261 25.6252 12.0530 36.7192 -6.3449 13.0240
# 5 21.6342 9.3635 33.8066 -6.3449 45.0352 -0.6849
# 6 -0.8739 12.8883 -6.3498 13.0240 -0.6849 41.3488
#
#
#
# Elastic Compliance Matrix: (Units=1/GPa)
#
#
# Indices 1 2 3 4 5 6 
#
# 1 0.006641 -0.001634 0.003148 -0.002372 -0.005520 0.001789
# 2 -0.001634 0.018965 -0.012324 -0.006000 0.005158 -0.005863
# 3 0.003148 -0.012324 0.037727 -0.014066 -0.029044 0.013651
# 4 -0.002372 -0.006000 -0.014066 0.044639 0.019021 -0.014085
# 5 -0.005520 0.005158 -0.029044 0.019021 0.048094 -0.011379
# 6 0.001789 -0.005863 0.013651 -0.014085 -0.011379 0.032394
#
#
# Mechanical properties :
#
#
# Convention : Reuss Voigt Hill
#
# Bulk Modulus (GPa) = 23.97373 51.60197 37.78785
# Shear Modulus (GPa) = 22.32301 42.25425 32.28863
#
# Velocity S-wave (km/s) = 3.19820 4.40012 3.84640
# Velocity P-wave (km/s) = 4.96214 7.03271 6.08613
#
# Compressibility (1/GPa) = 0.04171232
#
# Stress axis : x y z
#
# Youngs Moduli (GPa) = 150.58467 52.72818 26.50628
#
# Poissons Ratio (x) = 0.08616 -0.08343
# Poissons Ratio (y) = 0.24607 0.32666
# Poissons Ratio (z) = -0.47398 0.64981
#
# Static dielectric constant tensor:
#      x y z
#    x 1.818860 0.007160 -0.002210 
#    y 0.007160 1.884380 -0.039090 
#    z -0.002210 -0.039090 1.825140 
# 
# From -- ./inp_files/75397.got.cif
#   From: 2010.05.17/outbox.ucp.g08.bks.cvg/sg2_38_cif.got.tgz:75397.got - 2010.06.11 11:32:03.
