data_PCOD9073946
_publ_section_title
;
Structure prediction by ZEFSAII (Michael W. Deem and Ramdas Pophale) SiO2 
 PCOD9073946
Probable space group: P -1
;
_chemical_formula_sum "Si O2"
_cell_formula_units_Z 16
_cell_length_a 9.000000
_cell_length_b 21.000000
_cell_length_c 18.000000
_cell_angle_alpha 20.000000
_cell_angle_beta 40.000000
_cell_angle_gamma 40.000000
_cell_volume 731.217405
_symmetry_space_group_name_H-M "P -1"
_symmetry_group_IT_number 2
_symmetry_cell_setting 'triclinic'
loop_
_space_group_symop_operation_xyz
x,y,z
-x,-y,-z
loop_
_atom_site_type_symbol
_atom_site_label
_atom_site_fract_x
_atom_site_fract_y
_atom_site_fract_z
Si Si1 0.094513 0.170500 0.133480
Si Si2 0.629487 0.193743 0.946860
Si Si3 0.453312 0.191684 0.213619
Si Si4 0.070843 0.442053 0.274455
Si Si5 0.574860 0.223504 0.304594
Si Si6 0.584011 0.527582 0.701765
Si Si7 0.921392 0.809458 0.317516
Si Si8 0.074116 0.736663 0.623017
O O1 0.845736 0.235840 0.204496
O O2 0.082342 0.953177 0.357949
O O3 0.357051 0.173953 0.059894
O O4 0.043031 0.337617 0.908034
O O5 0.627424 0.408117 0.740048
O O6 0.823477 0.169920 0.833683
O O7 0.754331 0.018347 0.144024
O O8 0.544647 0.192067 0.262767
O O9 0.167234 0.257191 0.245701
O O10 0.482693 0.967900 0.427668
O O11 0.570276 0.347042 0.957787
O O12 0.358365 0.397402 0.215068
O O13 0.018312 0.286071 0.521558
O O14 0.966609 0.391161 0.291562
O O15 0.774758 0.658636 0.501104
O O16 0.319529 0.656570 0.658351
#
# Coordination Sequence:
#
# PCOD9073946 Si02
#       8
#     2   2   2   2   2   2   2   2
#     4  11  21  40  64  92 130 165 200 257 312 365
#     4  11  25  45  64  90 128 163 211 269 307 362
#     4   9  19  35  62  93 129 164 203 247 309 380
#     4  11  22  41  66  94 124 168 209 251 311 375
#     4   9  19  37  61  96 131 162 197 256 311 374
#     4  12  21  42  65  91 122 171 208 253 316 368
#     4  11  26  44  67  91 122 164 219 261 309 367
#     4  10  22  40  62  95 133 160 200 260 309 369
#
# _framework density 21.881316999999999
#
# number of rings (size 3 to 8) (size 9 to 14) (size 15 to 20)
#    0.000    1.500    2.500    3.375    0.000    2.500 
#    2.250    2.500    0.000    0.000    0.000    0.000 
#    0.000    0.000    0.000    0.000    0.000    0.000 
#
# Total GULP energy -89185.638826 kJ/mol
# GULP energy per Si atom -5574.102427 kJ/mol
# Density = 2.183151 g / cm^3
# Si number density = 21.881317 Si / 1000 Ang^3
#
#
#
# Elastic Constant Matrix: (Units=GPa)
#
#
# Indices 1 2 3 4 5 6 
#
# 1 41.0305 22.5904 2.9295 2.6665 -12.4159 -21.1451
# 2 22.5904 61.8612 18.8717 -2.5138 8.7774 -27.9528
# 3 2.9295 18.8717 117.4437 -10.5575 6.4835 -7.6404
# 4 2.6665 -2.5138 -10.5575 48.7478 0.4582 0.4276
# 5 -12.4159 8.7774 6.4835 0.4582 47.5497 -3.4453
# 6 -21.1451 -27.9528 -7.6404 0.4276 -3.4453 23.6370
#
#
#
# Elastic Compliance Matrix: (Units=1/GPa)
#
#
# Indices 1 2 3 4 5 6 
#
# 1 0.059651 0.001334 0.000663 -0.003743 0.019482 0.058062
# 2 0.001334 0.036331 -0.002853 0.000834 -0.002876 0.042801
# 3 0.000663 -0.002853 0.009154 0.001804 -0.000561 0.000064
# 4 -0.003743 0.000834 0.001804 0.021190 -0.001757 -0.002418
# 5 0.019482 -0.002876 -0.000561 -0.001757 0.028044 0.017965
# 6 0.058062 0.042801 0.000064 -0.002418 0.017965 0.147547
#
#
# Mechanical properties :
#
#
# Convention : Reuss Voigt Hill
#
# Bulk Modulus (GPa) = 9.66892 34.34649 22.00770
# Shear Modulus (GPa) = 14.78841 35.71647 25.25244
#
# Velocity S-wave (km/s) = 2.60252 4.04453 3.40084
# Velocity P-wave (km/s) = 3.66868 6.12714 5.04980
#
# Compressibility (1/GPa) = 0.10342416
#
# Stress axis : x y z
#
# Youngs Moduli (GPa) = 16.76413 27.52491 109.24320
#
# Poissons Ratio (x) = -0.03672 -0.07243
# Poissons Ratio (y) = -0.02237 0.31166
# Poissons Ratio (z) = -0.01111 0.07853
#
# Static dielectric constant tensor:
#      x y z
#    x 1.805750 0.046630 0.042020 
#    y 0.046630 1.877690 0.027970 
#    z 0.042020 0.027970 1.807820 
# 
# From -- ./inp_files/245895.got.cif
#   From: 2010.05.17/outbox.ucp.g08.bks.cvg/sg2_123_cif.got.tgz:245895.got - 2010.06.11 11:32:03.
