data_PCOD9073954
_publ_section_title
;
Structure prediction by ZEFSAII (Michael W. Deem and Ramdas Pophale) SiO2 
 PCOD9073954
Probable space group: P -1
;
_chemical_formula_sum "Si O2"
_cell_formula_units_Z 16
_cell_length_a 9.000000
_cell_length_b 9.000000
_cell_length_c 12.000000
_cell_angle_alpha 130.000000
_cell_angle_beta 90.000000
_cell_angle_gamma 90.000000
_cell_volume 744.595199
_symmetry_space_group_name_H-M "P -1"
_symmetry_group_IT_number 2
_symmetry_cell_setting 'triclinic'
loop_
_space_group_symop_operation_xyz
x,y,z
-x,-y,-z
loop_
_atom_site_type_symbol
_atom_site_label
_atom_site_fract_x
_atom_site_fract_y
_atom_site_fract_z
Si Si1 0.031049 0.258175 0.689709
Si Si2 0.557458 0.430092 0.727638
Si Si3 0.407205 0.870908 0.612455
Si Si4 0.573242 0.861452 0.840295
Si Si5 0.669324 0.703579 0.189840
Si Si6 0.049883 0.845942 0.600281
Si Si7 0.826954 0.553343 0.896004
Si Si8 0.093717 0.141167 0.148789
O O1 0.971772 0.425561 0.851313
O O2 0.206746 0.269511 0.703366
O O3 0.986417 0.282415 0.571666
O O4 0.994363 0.054062 0.651756
O O5 0.535492 0.269156 0.553845
O O6 0.575175 0.641095 0.776709
O O7 0.437264 0.457821 0.838962
O O8 0.711376 0.392711 0.773029
O O9 0.485202 0.841004 0.715677
O O10 0.228637 0.843667 0.609964
O O11 0.426284 0.100811 0.707363
O O12 0.741609 0.934962 0.858007
O O13 0.500000 0.000000 0.000000
O O14 0.747700 0.665367 0.052282
O O15 0.983272 0.811983 0.708370
O O16 0.872542 0.687953 0.857053
O O17 0.000000 0.000000 0.000000
#
# Coordination Sequence:
#
# PCOD9073954 Si02
#       8
#     2   2   2   2   2   2   2   2
#     4  10  22  40  63  95 128 166 215 263 319 377
#     4  11  24  42  64  96 130 172 215 265 324 383
#     4  11  22  44  65  95 134 170 213 269 317 387
#     4  11  25  43  65  95 133 171 217 265 321 386
#     4  11  24  40  68  94 133 169 219 265 322 380
#     4  10  22  41  65  92 132 167 211 266 318 377
#     4  11  23  44  63  97 129 167 216 269 318 385
#     4  11  24  42  67  95 127 171 215 260 327 381
#
# _framework density 21.488185999999999
#
# number of rings (size 3 to 8) (size 9 to 14) (size 15 to 20)
#    0.000    1.250    1.250    5.250    1.750    4.500 
#    0.000    0.000    0.000    0.000    0.000    0.000 
#    0.000    0.000    0.000    0.000    0.000    0.000 
#
# Total GULP energy -89103.511910 kJ/mol
# GULP energy per Si atom -5568.969494 kJ/mol
# Density = 2.143928 g / cm^3
# Si number density = 21.488186 Si / 1000 Ang^3
#
#
#
# Elastic Constant Matrix: (Units=GPa)
#
#
# Indices 1 2 3 4 5 6 
#
# 1 46.4243 55.2138 22.4559 -17.3051 -7.4541 12.2815
# 2 55.2138 58.4702 62.9189 -18.2909 6.6986 0.2331
# 3 22.4559 62.9189 132.2198 -28.6994 -32.7971 12.3328
# 4 -17.3051 -18.2909 -28.6994 37.3656 -3.9379 -11.1753
# 5 -7.4541 6.6986 -32.7971 -3.9379 28.7415 -2.0514
# 6 12.2815 0.2331 12.3328 -11.1753 -2.0514 25.1252
#
#
#
# Elastic Compliance Matrix: (Units=1/GPa)
#
#
# Indices 1 2 3 4 5 6 
#
# 1 -0.000510 0.019665 -0.016641 -0.004671 -0.024045 0.004194
# 2 0.019665 -0.012763 0.011537 0.011622 0.022249 -0.008171
# 3 -0.016641 0.011537 0.005029 0.003968 -0.000201 0.007307
# 4 -0.004671 0.011622 0.003968 0.039631 0.007355 0.018455
# 5 -0.024045 0.022249 -0.000201 0.007355 0.025362 0.016988
# 6 0.004194 -0.008171 0.007307 0.018455 0.016988 0.043835
#
#
# Mechanical properties :
#
#
# Convention : Reuss Voigt Hill
#
# Bulk Modulus (GPa) = 47.89336 57.58793 52.74065
# Shear Modulus (GPa) = 63.75818 24.68150 44.21984
#
# Velocity S-wave (km/s) = 5.45304 3.39279 4.54129
# Velocity P-wave (km/s) = 7.87300 6.49662 7.21769
#
# Compressibility (1/GPa) = 0.02087972
#
# Stress axis : x y z
#
# Youngs Moduli (GPa) = -1961.57162 -78.35249 198.84947
#
# Poissons Ratio (x) = 1.54080 3.30898
# Poissons Ratio (y) = 38.57426 -2.29420
# Poissons Ratio (z) = -32.64177 0.90398
#
# Static dielectric constant tensor:
#      x y z
#    x 1.848060 -0.000820 0.053330 
#    y -0.000820 1.861100 0.055530 
#    z 0.053330 0.055530 1.781870 
# 
# From -- ./inp_files/382123.got.cif
#   From: 2010.05.17/outbox.ucp.g08.bks.cvg/sg2_192_cif.got.tgz:382123.got - 2010.06.11 11:32:03.
