data_PCOD9073194
_publ_section_title
;
Structure prediction by ZEFSAII (Michael W. Deem and Ramdas Pophale) SiO2 
 PCOD9073194
Probable space group: P -1
;
_chemical_formula_sum "Si O2"
_cell_formula_units_Z 16
_cell_length_a 9.000000
_cell_length_b 12.000000
_cell_length_c 21.000000
_cell_angle_alpha 30.000000
_cell_angle_beta 120.000000
_cell_angle_gamma 130.000000
_cell_volume 859.133512
_symmetry_space_group_name_H-M "P -1"
_symmetry_group_IT_number 2
_symmetry_cell_setting 'triclinic'
loop_
_space_group_symop_operation_xyz
x,y,z
-x,-y,-z
loop_
_atom_site_type_symbol
_atom_site_label
_atom_site_fract_x
_atom_site_fract_y
_atom_site_fract_z
Si Si1 0.411385 0.704139 0.710872
Si Si2 0.610068 0.860383 0.226065
Si Si3 0.188094 0.834445 0.994131
Si Si4 0.776112 0.090893 0.522879
Si Si5 0.487834 0.228351 0.963317
Si Si6 0.262717 0.329977 0.382262
Si Si7 0.817585 0.859504 0.396429
Si Si8 0.903829 0.354985 0.230056
O O1 0.617678 0.944656 0.616416
O O2 0.447954 0.463643 0.848415
O O3 0.298044 0.729332 0.735031
O O4 0.271954 0.701770 0.623273
O O5 0.452762 0.605613 0.282673
O O6 0.670021 0.781794 0.343832
O O7 0.794436 0.011225 0.143006
O O8 0.516879 0.055244 0.110455
O O9 0.310294 0.686565 0.074854
O O10 0.983502 0.630634 0.079288
O O11 0.313571 0.031371 0.978380
O O12 0.740260 0.877291 0.565784
O O13 0.995091 0.185000 0.548628
O O14 0.069356 0.357305 0.312262
O O15 0.257243 0.242558 0.497523
O O16 0.887096 0.158583 0.269631
#
# Coordination Sequence:
#
# PCOD9073194 Si02
#       8
#     2   2   2   2   2   2   2   2
#     4  11  20  34  58  85 115 144 188 237 276 327
#     4  10  21  35  61  85 112 147 190 226 285 323
#     4   9  18  37  58  81 108 150 191 228 263 335
#     4  10  21  36  60  84 110 149 192 231 278 325
#     4   9  18  36  57  85 105 151 186 227 277 330
#     4  11  18  39  60  85 109 146 198 232 264 334
#     4  11  21  36  58  88 111 147 191 233 274 330
#     4  11  19  35  58  85 113 141 196 229 271 324
#
# _framework density 18.623415000000001
#
# number of rings (size 3 to 8) (size 9 to 14) (size 15 to 20)
#    0.750    1.000    3.750    3.375    0.000    1.000 
#    0.000    0.625    0.000    6.750    0.000    0.000 
#    0.000    0.000    0.000    0.000    0.000    0.000 
#
# Total GULP energy -89067.900893 kJ/mol
# GULP energy per Si atom -5566.743806 kJ/mol
# Density = 1.858103 g / cm^3
# Si number density = 18.623415 Si / 1000 Ang^3
#
#
#
# Elastic Constant Matrix: (Units=GPa)
#
#
# Indices 1 2 3 4 5 6 
#
# 1 58.6534 -2.1867 8.6871 0.2506 -5.7403 8.9101
# 2 -2.1867 50.8064 6.7325 12.1688 3.6286 4.2660
# 3 8.6871 6.7325 69.3831 4.8759 1.7287 4.5681
# 4 0.2506 12.1688 4.8759 24.7762 5.0387 -2.8337
# 5 -5.7403 3.6286 1.7287 5.0387 39.6486 3.8110
# 6 8.9101 4.2660 4.5681 -2.8337 3.8110 8.7539
#
#
#
# Elastic Compliance Matrix: (Units=1/GPa)
#
#
# Indices 1 2 3 4 5 6 
#
# 1 0.022651 0.004901 -0.000980 -0.007260 0.006699 -0.030199
# 2 0.004901 0.025490 -0.000513 -0.015677 0.002637 -0.023365
# 3 -0.000980 -0.000513 0.015383 -0.003811 0.000510 -0.008236
# 4 -0.007260 -0.015677 -0.003811 0.055492 -0.010295 0.039463
# 5 0.006699 0.002637 0.000510 -0.010295 0.029600 -0.024589
# 6 -0.030199 -0.023365 -0.008236 0.039463 -0.024589 0.184136
#
#
# Mechanical properties :
#
#
# Convention : Reuss Voigt Hill
#
# Bulk Modulus (GPa) = 14.21676 22.81209 18.51442
# Shear Modulus (GPa) = 14.31101 25.67643 19.99372
#
# Velocity S-wave (km/s) = 2.77509 3.71714 3.28011
# Velocity P-wave (km/s) = 4.23303 5.54063 4.93037
#
# Compressibility (1/GPa) = 0.07033951
#
# Stress axis : x y z
#
# Youngs Moduli (GPa) = 44.14762 39.23153 65.00886
#
# Poissons Ratio (x) = -0.19226 0.06371
# Poissons Ratio (y) = -0.21636 0.03333
# Poissons Ratio (z) = 0.04327 0.02011
#
# Static dielectric constant tensor:
#      x y z
#    x 1.662920 0.011220 -0.029250 
#    y 0.011220 1.646140 -0.006610 
#    z -0.029250 -0.006610 1.697610 
# 
# From -- ./inp_files/218936.got.cif
#   From: 2010.05.17/outbox.ucp.g08.bks.cvg/sg2_110_cif.got.tgz:218936.got - 2010.06.11 11:32:03.
