data_PCOD9073812
_publ_section_title
;
Structure prediction by ZEFSAII (Michael W. Deem and Ramdas Pophale) SiO2 
 PCOD9073812
Probable space group: P -1
;
_chemical_formula_sum "Si O2"
_cell_formula_units_Z 14
_cell_length_a 15.000000
_cell_length_b 12.000000
_cell_length_c 12.000000
_cell_angle_alpha 40.000000
_cell_angle_beta 50.000000
_cell_angle_gamma 30.000000
_cell_volume 692.779491
_symmetry_space_group_name_H-M "P -1"
_symmetry_group_IT_number 2
_symmetry_cell_setting 'triclinic'
loop_
_space_group_symop_operation_xyz
x,y,z
-x,-y,-z
loop_
_atom_site_type_symbol
_atom_site_label
_atom_site_fract_x
_atom_site_fract_y
_atom_site_fract_z
Si Si1 0.212551 0.750904 0.019737
Si Si2 0.838118 0.180445 0.742529
Si Si3 0.189184 0.014110 0.626771
Si Si4 0.764304 0.672738 0.752676
Si Si5 0.501155 0.499145 0.365972
Si Si6 0.941639 0.671222 0.027036
Si Si7 0.533757 0.070447 0.030658
O O1 0.258707 0.737723 0.121413
O O2 0.249646 0.507573 0.147198
O O3 0.258940 0.842450 0.817627
O O4 0.000000 0.000000 0.000000
O O5 0.679362 0.387262 0.623335
O O6 0.990718 0.156663 0.653111
O O7 0.933535 0.890746 0.853244
O O8 0.205602 0.205426 0.454374
O O9 0.322716 0.796318 0.591262
O O10 0.927645 0.505551 0.837999
O O11 0.588959 0.874038 0.817516
O O12 0.500000 0.500000 0.500000
O O13 0.507350 0.684081 0.162240
O O14 0.000000 0.500000 0.000000
O O15 0.738911 0.840364 0.080491
O O16 0.500000 0.000000 0.000000
#
# Coordination Sequence:
#
# PCOD9073812 Si02
#       7
#     2   2   2   2   2   2   2
#     4  10  21  46  71  95 138 175 226 279 329 402
#     4  10  24  46  67  99 133 181 221 277 342 385
#     4  11  24  42  70  99 134 177 223 278 331 401
#     4  12  23  43  67 100 135 176 223 275 338 393
#     4  11  24  42  66  98 136 175 227 274 334 403
#     4  11  22  40  68  96 131 180 221 271 339 395
#     4  11  22  39  65  95 136 178 220 276 334 397
#
# _framework density 20.208449999999999
#
# number of rings (size 3 to 8) (size 9 to 14) (size 15 to 20)
#    0.000    1.143    5.714    0.857    2.000    5.714 
#    0.000    0.714    0.000    0.000    0.000    0.000 
#    0.000    0.000    0.000    0.000    0.000    0.000 
#
# Total GULP energy -78138.467272 kJ/mol
# GULP energy per Si atom -5581.319091 kJ/mol
# Density = 2.016246 g / cm^3
# Si number density = 20.208450 Si / 1000 Ang^3
#
#
#
# Elastic Constant Matrix: (Units=GPa)
#
#
# Indices 1 2 3 4 5 6 
#
# 1 90.4446 24.0906 39.5325 -1.2187 9.4587 1.1140
# 2 24.0906 78.6082 30.7682 13.4841 4.0379 -3.4992
# 3 39.5325 30.7682 131.7654 18.4417 -7.6348 2.4193
# 4 -1.2187 13.4841 18.4417 26.5974 3.1602 -0.3741
# 5 9.4587 4.0379 -7.6348 3.1602 48.7495 1.7790
# 6 1.1140 -3.4992 2.4193 -0.3741 1.7790 49.5050
#
#
#
# Elastic Compliance Matrix: (Units=1/GPa)
#
#
# Indices 1 2 3 4 5 6 
#
# 1 0.014445 -0.003495 -0.004567 0.006028 -0.003613 -0.000174
# 2 -0.003495 0.015721 -0.001713 -0.006867 -0.000492 0.001239
# 3 -0.004567 -0.001713 0.010540 -0.007034 0.003160 -0.000700
# 4 0.006028 -0.006867 -0.007034 0.046800 -0.004745 0.000247
# 5 -0.003613 -0.000492 0.003160 -0.004745 0.022092 -0.000938
# 6 -0.000174 0.001239 -0.000700 0.000247 -0.000938 0.020361
#
#
# Mechanical properties :
#
#
# Convention : Reuss Voigt Hill
#
# Bulk Modulus (GPa) = 47.26842 54.40009 50.83425
# Shear Modulus (GPa) = 31.93638 38.73219 35.33428
#
# Velocity S-wave (km/s) = 3.97967 4.38269 4.18603
# Velocity P-wave (km/s) = 6.67520 7.25179 6.96946
#
# Compressibility (1/GPa) = 0.02115578
#
# Stress axis : x y z
#
# Youngs Moduli (GPa) = 69.22789 63.60845 94.87691
#
# Poissons Ratio (x) = 0.22233 0.43334
# Poissons Ratio (y) = 0.24197 0.16248
# Poissons Ratio (z) = 0.31619 0.10893
#
# Static dielectric constant tensor:
#      x y z
#    x 1.676730 0.003340 -0.001480 
#    y 0.003340 1.744790 -0.019790 
#    z -0.001480 -0.019790 1.755250 
# 
# From -- ./inp_files/425041.got.cif
#   From: 2010.05.17/outbox.ucp.g08.bks.cvg/sg2_213_cif.got.tgz:425041.got - 2010.06.11 11:32:03.
