data_PCOD9073610
_publ_section_title
;
Structure prediction by ZEFSAII (Michael W. Deem and Ramdas Pophale) SiO2 
 PCOD9073610
Probable space group: P -1
;
_chemical_formula_sum "Si O2"
_cell_formula_units_Z 16
_cell_length_a 18.000000
_cell_length_b 9.000000
_cell_length_c 6.000000
_cell_angle_alpha 130.000000
_cell_angle_beta 90.000000
_cell_angle_gamma 80.000000
_cell_volume 725.212580
_symmetry_space_group_name_H-M "P -1"
_symmetry_group_IT_number 2
_symmetry_cell_setting 'triclinic'
loop_
_space_group_symop_operation_xyz
x,y,z
-x,-y,-z
loop_
_atom_site_type_symbol
_atom_site_label
_atom_site_fract_x
_atom_site_fract_y
_atom_site_fract_z
Si Si1 0.282608 0.481379 0.910316
Si Si2 0.216930 0.202611 0.356479
Si Si3 0.951973 0.135023 0.321406
Si Si4 0.662922 0.130131 0.788028
Si Si5 0.583102 0.865352 0.292741
Si Si6 0.496306 0.605995 0.844098
Si Si7 0.911423 0.812843 0.326137
Si Si8 0.848352 0.540928 0.774390
O O1 0.292169 0.703262 0.107902
O O2 0.230711 0.467916 0.113056
O O3 0.237949 0.405473 0.636881
O O4 0.364696 0.323475 0.756300
O O5 0.163172 0.132293 0.468159
O O6 0.171711 0.266921 0.196952
O O7 0.292274 0.030857 0.194614
O O8 0.889727 0.336253 0.458358
O O9 0.014753 0.203806 0.539314
O O10 0.913205 0.989545 0.325659
O O11 0.000000 0.000000 0.000000
O O12 0.638843 0.017489 0.461413
O O13 0.585201 0.245777 0.008176
O O14 0.500000 0.000000 0.500000
O O15 0.559484 0.740769 0.969438
O O16 0.500000 0.500000 0.500000
O O17 0.500000 0.500000 0.000000
O O18 0.904962 0.605884 0.015139
#
# Coordination Sequence:
#
# PCOD9073610 Si02
#       8
#     2   2   2   2   2   2   2   2
#     4  10  21  41  66  94 135 174 225 275 342 404
#     4  10  23  41  63  99 133 174 223 276 339 410
#     4  11  24  41  67  97 127 169 223 276 340 405
#     4  10  21  44  68  97 137 179 230 282 347 420
#     4   9  20  41  66  99 134 176 227 286 344 413
#     4  11  23  45  72 103 141 188 237 296 357 420
#     4  10  23  43  65  93 130 171 217 274 340 405
#     4  11  24  42  65  94 131 174 221 276 338 408
#
# _framework density 22.062495999999999
#
# number of rings (size 3 to 8) (size 9 to 14) (size 15 to 20)
#    0.000    1.750    1.250    1.875    0.000    9.000 
#    9.000    3.125    0.000    0.000    0.000    0.000 
#    0.000    0.000    0.000    0.000    0.000    0.000 
#
# Total GULP energy -89077.659300 kJ/mol
# GULP energy per Si atom -5567.353706 kJ/mol
# Density = 2.201228 g / cm^3
# Si number density = 22.062496 Si / 1000 Ang^3
#
#
#
# Elastic Constant Matrix: (Units=GPa)
#
#
# Indices 1 2 3 4 5 6 
#
# 1 80.5280 47.0162 34.2211 10.8176 16.5423 -8.8901
# 2 47.0162 85.4253 51.3160 16.4296 -9.1888 -18.5903
# 3 34.2211 51.3160 98.8130 8.4410 5.5891 -8.7514
# 4 10.8176 16.4296 8.4410 28.1226 -1.3813 -2.4077
# 5 16.5423 -9.1888 5.5891 -1.3813 27.8201 17.2836
# 6 -8.8901 -18.5903 -8.7514 -2.4077 17.2836 35.1300
#
#
#
# Elastic Compliance Matrix: (Units=1/GPa)
#
#
# Indices 1 2 3 4 5 6 
#
# 1 0.031866 -0.018891 0.002428 -0.002328 -0.035814 0.016133
# 2 -0.018891 0.032367 -0.011489 -0.007240 0.026338 -0.003969
# 3 0.002428 -0.011489 0.016154 0.000734 -0.010921 0.003982
# 4 -0.002328 -0.007240 0.000734 0.040355 0.002540 -0.002721
# 5 -0.035814 0.026338 -0.010921 0.002540 0.096226 -0.045014
# 6 0.016133 -0.003969 0.003982 -0.002721 -0.045014 0.053400
#
#
# Mechanical properties :
#
#
# Convention : Reuss Voigt Hill
#
# Bulk Modulus (GPa) = 40.84571 58.87476 49.86023
# Shear Modulus (GPa) = 14.95068 27.02875 20.98971
#
# Velocity S-wave (km/s) = 2.60600 3.50394 3.08778
# Velocity P-wave (km/s) = 5.25441 6.56609 5.94652
#
# Compressibility (1/GPa) = 0.02448238
#
# Stress axis : x y z
#
# Youngs Moduli (GPa) = 31.38102 30.89594 61.90547
#
# Poissons Ratio (x) = 0.58365 -0.15029
# Poissons Ratio (y) = 0.59281 0.71125
# Poissons Ratio (z) = -0.07619 0.35497
#
# Static dielectric constant tensor:
#      x y z
#    x 1.859880 -0.019370 0.026810 
#    y -0.019370 1.854230 -0.025620 
#    z 0.026810 -0.025620 1.862220 
# 
# From -- ./inp_files/107788.got.cif
#   From: 2010.05.17/outbox.ucp.g08.bks.cvg/sg2_54_cif.got.tgz:107788.got - 2010.06.11 11:32:03.
