data_PCOD9073964
_publ_section_title
;
Structure prediction by ZEFSAII (Michael W. Deem and Ramdas Pophale) SiO2 
 PCOD9073964
Probable space group: P -1
;
_chemical_formula_sum "Si O2"
_cell_formula_units_Z 16
_cell_length_a 9.000000
_cell_length_b 15.000000
_cell_length_c 9.000000
_cell_angle_alpha 110.000000
_cell_angle_beta 40.000000
_cell_angle_gamma 100.000000
_cell_volume 725.993766
_symmetry_space_group_name_H-M "P -1"
_symmetry_group_IT_number 2
_symmetry_cell_setting 'triclinic'
loop_
_space_group_symop_operation_xyz
x,y,z
-x,-y,-z
loop_
_atom_site_type_symbol
_atom_site_label
_atom_site_fract_x
_atom_site_fract_y
_atom_site_fract_z
Si Si1 0.635852 0.006374 0.745675
Si Si2 0.952082 0.151873 0.712566
Si Si3 0.310223 0.156625 0.949723
Si Si4 0.382931 0.697192 0.353175
Si Si5 0.727765 0.547572 0.410023
Si Si6 0.908598 0.706023 0.545430
Si Si7 0.148807 0.394505 0.977816
Si Si8 0.890016 0.214526 0.116626
O O1 0.442827 0.050636 0.804315
O O2 0.802224 0.087223 0.693781
O O3 0.792153 0.911314 0.513536
O O4 0.500000 0.000000 0.000000
O O5 0.987284 0.247099 0.651661
O O6 0.838893 0.171410 0.972761
O O7 0.494718 0.219758 0.772146
O O8 0.236328 0.211596 0.193584
O O9 0.068188 0.147720 0.047067
O O10 0.597290 0.610212 0.144999
O O11 0.318801 0.734973 0.591549
O O12 0.144826 0.673478 0.445051
O O13 0.500000 0.500000 0.500000
O O14 0.740306 0.630806 0.572131
O O15 0.817609 0.585174 0.208230
O O16 0.939527 0.466477 0.250446
O O17 0.056171 0.293895 0.999608
#
# Coordination Sequence:
#
# PCOD9073964 Si02
#       8
#     2   2   2   2   2   2   2   2
#     4  11  23  40  64  98 136 162 219 279 324 390
#     4  11  23  40  67  97 124 175 223 268 327 389
#     4  10  22  40  65  95 132 172 214 271 332 389
#     4  10  22  42  65  93 133 176 218 271 323 397
#     4  11  24  40  66 102 135 166 219 280 324 390
#     4  11  22  42  68  96 129 176 222 264 335 393
#     4  10  22  42  63  95 133 170 217 273 329 385
#     4  10  22  41  66  93 131 172 220 266 330 392
#
# _framework density 22.038757
#
# number of rings (size 3 to 8) (size 9 to 14) (size 15 to 20)
#    0.000    1.500    3.750    0.750    0.000    7.000 
#    0.000   10.000    0.000    0.000    0.000    0.000 
#    0.000    0.000    0.000    0.000    0.000    0.000 
#
# Total GULP energy -89231.158876 kJ/mol
# GULP energy per Si atom -5576.947430 kJ/mol
# Density = 2.198860 g / cm^3
# Si number density = 22.038757 Si / 1000 Ang^3
#
#
#
# Elastic Constant Matrix: (Units=GPa)
#
#
# Indices 1 2 3 4 5 6 
#
# 1 67.5201 17.1909 26.9112 17.6231 -2.5820 -5.6828
# 2 17.1909 24.4630 2.5588 3.8910 -7.6091 -5.4414
# 3 26.9112 2.5588 90.8663 0.4572 -4.2062 -8.1907
# 4 17.6231 3.8910 0.4572 29.3647 -3.5050 -7.1901
# 5 -2.5820 -7.6091 -4.2062 -3.5050 43.8123 6.4432
# 6 -5.6828 -5.4414 -8.1907 -7.1901 6.4432 26.4849
#
#
#
# Elastic Compliance Matrix: (Units=1/GPa)
#
#
# Indices 1 2 3 4 5 6 
#
# 1 0.025132 -0.016250 -0.007341 -0.013955 -0.002669 -0.003356
# 2 -0.016250 0.055481 0.004393 0.005458 0.008250 0.008745
# 3 -0.007341 0.004393 0.013499 0.004876 0.001355 0.004496
# 4 -0.013955 0.005458 0.004876 0.044661 0.002528 0.011145
# 5 -0.002669 0.008250 0.001355 0.002528 0.024999 -0.003854
# 6 -0.003356 0.008745 0.004496 0.011145 -0.003854 0.044188
#
#
# Mechanical properties :
#
#
# Convention : Reuss Voigt Hill
#
# Bulk Modulus (GPa) = 17.94822 30.68567 24.31694
# Shear Modulus (GPa) = 18.87307 29.01163 23.94235
#
# Velocity S-wave (km/s) = 2.92953 3.63215 3.29960
# Velocity P-wave (km/s) = 4.42770 5.61638 5.05709
#
# Compressibility (1/GPa) = 0.05571584
#
# Stress axis : x y z
#
# Youngs Moduli (GPa) = 39.79065 18.02416 74.07873
#
# Poissons Ratio (x) = 0.29289 0.54383
# Poissons Ratio (y) = 0.64659 -0.32543
# Poissons Ratio (z) = 0.29211 -0.07918
#
# Static dielectric constant tensor:
#      x y z
#    x 1.886680 -0.095120 -0.036010 
#    y -0.095120 1.870000 0.032190 
#    z -0.036010 0.032190 1.797940 
# 
# From -- ./inp_files/52198.got.cif
#   From: 2010.05.17/outbox.ucp.g08.bks.cvg/sg2_27_cif.got.tgz:52198.got - 2010.06.11 11:32:03.
