data_PCOD9073085
_publ_section_title
;
Structure prediction by ZEFSAII (Michael W. Deem and Ramdas Pophale) SiO2 
 PCOD9073085
Probable space group: P -1
;
_chemical_formula_sum "Si O2"
_cell_formula_units_Z 13
_cell_length_a 7.720849
_cell_length_b 11.061983
_cell_length_c 7.963429
_cell_angle_alpha 103.526369
_cell_angle_beta 75.114266
_cell_angle_gamma 56.972647
_cell_volume 488.913581
_symmetry_space_group_name_H-M "P -1"
_symmetry_group_IT_number 2
_symmetry_cell_setting 'triclinic'
loop_
_space_group_symop_operation_xyz
x,y,z
-x,-y,-z
loop_
_atom_site_type_symbol
_atom_site_label
_atom_site_fract_x
_atom_site_fract_y
_atom_site_fract_z
Si Si1 0.372753 0.193858 0.512030
Si Si2 0.708174 0.217261 0.588437
Si Si3 0.573252 0.174771 0.974188
Si Si4 0.107271 0.315484 0.955098
Si Si5 0.606315 0.424212 0.136412
Si Si6 0.000000 0.500000 0.500000
Si Si7 0.135999 0.157048 0.305134
O O1 0.619372 0.144146 0.473309
O O2 0.241203 0.212592 0.720500
O O3 0.359702 0.094676 0.342909
O O4 0.201267 0.376141 0.542914
O O5 0.668190 0.190684 0.780747
O O6 0.536454 0.412287 0.667834
O O7 0.961099 0.151478 0.456521
O O8 0.309218 0.248322 0.022684
O O9 0.751348 0.983779 0.909056
O O10 0.558571 0.299844 0.141379
O O11 0.000000 0.500000 0.000000
O O12 0.881838 0.330027 0.045470
O O13 0.500000 0.500000 0.000000
O O14 0.995613 0.652539 0.612409
#
# Coordination Sequence:
#
# PCOD9073085 Si02
#       7
#     2   2   2   2   2   1   2
#     4   9  19  35  54  80 102 147 188 212 268 323
#     4  10  19  31  59  83 107 142 172 231 279 324
#     4  10  21  31  53  87 116 135 174 225 286 320
#     4  11  18  32  57  83 114 140 171 226 276 332
#     4  10  18  31  52  87 110 142 173 206 295 332
#     4   8  22  38  54  70 110 158 184 218 262 318
#     4  10  21  37  53  79 112 144 183 229 259 327
#
# _framework density 26.589566999999999
#
# number of rings (size 3 to 8) (size 9 to 14) (size 15 to 20)
#    0.923    1.231    4.615    2.308    0.000    4.308 
#    0.000    0.000    0.000    4.615    0.000    0.000 
#    0.000    0.000    0.000    0.000    0.000    0.000 
#
# Total GULP energy -72454.715215 kJ/mol
# GULP energy per Si atom -5573.439632 kJ/mol
# Density = 2.652905 g / cm^3
# Si number density = 26.589567 Si / 1000 Ang^3
#
#
#
# Elastic Constant Matrix: (Units=GPa)
#
#
# Indices 1 2 3 4 5 6 
#
# 1 150.5609 41.2975 40.1851 13.1852 -5.4828 13.9549
# 2 41.2975 132.6072 30.1397 46.4660 -14.4533 9.6885
# 3 40.1851 30.1397 53.5731 6.2149 -11.7572 20.2428
# 4 13.1852 46.4660 6.2149 48.4215 5.1130 6.3609
# 5 -5.4828 -14.4533 -11.7572 5.1130 35.2018 7.6709
# 6 13.9549 9.6885 20.2428 6.3609 7.6709 29.2280
#
#
#
# Elastic Compliance Matrix: (Units=1/GPa)
#
#
# Indices 1 2 3 4 5 6 
#
# 1 0.008598 -0.001440 -0.006511 -0.000122 -0.001704 0.001356
# 2 -0.001440 0.014316 -0.004055 -0.013492 0.006249 0.000047
# 3 -0.006511 -0.004055 0.039601 0.002517 0.016236 -0.027782
# 4 -0.000122 -0.013492 0.002517 0.034588 -0.009237 -0.002316
# 5 -0.001704 0.006249 0.016236 -0.009237 0.042170 -0.021560
# 6 0.001356 0.000047 -0.027782 -0.002316 -0.021560 0.058955
#
#
# Mechanical properties :
#
#
# Convention : Reuss Voigt Hill
#
# Bulk Modulus (GPa) = 25.97300 62.22066 44.09683
# Shear Modulus (GPa) = 21.26982 37.57819 29.42400
#
# Velocity S-wave (km/s) = 2.83137 3.76342 3.33017
# Velocity P-wave (km/s) = 4.52529 6.50659 5.60419
#
# Compressibility (1/GPa) = 0.03850152
#
# Stress axis : x y z
#
# Youngs Moduli (GPa) = 116.31223 69.85021 25.25218
#
# Poissons Ratio (x) = 0.10056 0.16442
# Poissons Ratio (y) = 0.16745 0.10241
# Poissons Ratio (z) = 0.75734 0.28328
#
# Static dielectric constant tensor:
#      x y z
#    x 2.022640 0.013360 0.045470 
#    y 0.013360 2.174770 -0.039750 
#    z 0.045470 -0.039750 2.109860 
# 
# From -- ./inp_files/385490.got.cif
#   From: 2010.05.17/outbox.cif.g08.bks.cpg/sg2_193_cif.got.tgz:385490.got - 2010.06.03 11:33:40.
