data_PCOD9073790
_publ_section_title
;
Structure prediction by ZEFSAII (Michael W. Deem and Ramdas Pophale) SiO2 
 PCOD9073790
Probable space group: P -1
;
_chemical_formula_sum "Si O2"
_cell_formula_units_Z 16
_cell_length_a 9.000000
_cell_length_b 15.000000
_cell_length_c 12.000000
_cell_angle_alpha 30.000000
_cell_angle_beta 70.000000
_cell_angle_gamma 80.000000
_cell_volume 734.803614
_symmetry_space_group_name_H-M "P -1"
_symmetry_group_IT_number 2
_symmetry_cell_setting 'triclinic'
loop_
_space_group_symop_operation_xyz
x,y,z
-x,-y,-z
loop_
_atom_site_type_symbol
_atom_site_label
_atom_site_fract_x
_atom_site_fract_y
_atom_site_fract_z
Si Si1 0.677517 0.042838 0.077017
Si Si2 0.894287 0.285030 0.587466
Si Si3 0.692204 0.957948 0.844640
Si Si4 0.490998 0.415315 0.972257
Si Si5 0.697021 0.565327 0.359962
Si Si6 0.656035 0.103073 0.274748
Si Si7 0.742786 0.659152 0.489637
Si Si8 0.192907 0.059146 0.405768
O O1 0.726859 0.857272 0.238086
O O2 0.497799 0.049799 0.073249
O O3 0.666815 0.040352 0.215227
O O4 0.818149 0.206298 0.812003
O O5 0.800604 0.439836 0.409477
O O6 0.091801 0.331774 0.492223
O O7 0.819005 0.113876 0.711067
O O8 0.722709 0.000858 0.659860
O O9 0.722985 0.760541 0.080008
O O10 0.568273 0.567116 0.694712
O O11 0.500000 0.500000 0.000000
O O12 0.630008 0.303736 0.054571
O O13 0.310716 0.270997 0.159927
O O14 0.500000 0.500000 0.500000
O O15 0.761075 0.566670 0.468245
O O16 0.500000 0.000000 0.500000
O O17 0.795537 0.057394 0.360876
O O18 0.000000 0.000000 0.500000
#
# Coordination Sequence:
#
# PCOD9073790 Si02
#       8
#     2   2   2   2   2   2   2   2
#     4  12  22  45  72  98 144 192 241 284 365 433
#     4  12  27  44  70 111 142 190 239 296 366 431
#     4  12  25  45  71 103 145 190 238 291 366 433
#     4  11  24  45  71 103 136 185 243 294 359 424
#     4  12  24  45  70 103 145 187 237 294 365 424
#     4  10  21  44  69  98 133 188 234 286 354 422
#     4  12  26  43  71 104 145 183 238 306 356 430
#     4  11  26  46  73 102 138 185 237 297 360 424
#
# _framework density 21.774525000000001
#
# number of rings (size 3 to 8) (size 9 to 14) (size 15 to 20)
#    0.000    0.500    5.000    4.875    3.500    1.000 
#    0.000    0.625    0.000    0.000    0.000    0.000 
#    0.000    0.000    0.000    0.000    0.000    0.000 
#
# Total GULP energy -89245.697604 kJ/mol
# GULP energy per Si atom -5577.856100 kJ/mol
# Density = 2.172497 g / cm^3
# Si number density = 21.774525 Si / 1000 Ang^3
#
#
#
# Elastic Constant Matrix: (Units=GPa)
#
#
# Indices 1 2 3 4 5 6 
#
# 1 110.6005 -22.6791 32.6056 -15.3277 -20.8929 6.0934
# 2 -22.6791 49.1784 29.4455 4.0547 -7.5663 12.3231
# 3 32.6056 29.4455 77.5697 -15.4416 4.8359 -1.5783
# 4 -15.3277 4.0547 -15.4416 40.7739 -5.6890 11.1710
# 5 -20.8929 -7.5663 4.8359 -5.6890 36.8326 3.7165
# 6 6.0934 12.3231 -1.5783 11.1710 3.7165 32.9027
#
#
#
# Elastic Compliance Matrix: (Units=1/GPa)
#
#
# Indices 1 2 3 4 5 6 
#
# 1 0.106674 0.157679 -0.108563 0.030036 0.122698 -0.108076
# 2 0.157679 0.267337 -0.175144 0.040424 0.191057 -0.173034
# 3 -0.108563 -0.175144 0.130785 -0.023383 -0.129905 0.114588
# 4 0.030036 0.040424 -0.023383 0.039110 0.038432 -0.039444
# 5 0.122698 0.191057 -0.129905 0.038432 0.172412 -0.133034
# 6 -0.108076 -0.173034 0.114588 -0.039444 -0.133034 0.149130
#
#
# Mechanical properties :
#
#
# Convention : Reuss Voigt Hill
#
# Bulk Modulus (GPa) = 3.95665 35.12140 19.53903
# Shear Modulus (GPa) = 4.16059 35.30027 19.73043
#
# Velocity S-wave (km/s) = 1.38380 4.03075 3.01346
# Velocity P-wave (km/s) = 2.09147 6.15038 4.59355
#
# Compressibility (1/GPa) = 0.25273902
#
# Stress axis : x y z
#
# Youngs Moduli (GPa) = 9.37434 3.74059 7.64614
#
# Poissons Ratio (x) = -0.58981 0.83009
# Poissons Ratio (y) = -1.47813 1.33918
# Poissons Ratio (z) = 1.01771 0.65514
#
# Static dielectric constant tensor:
#      x y z
#    x 1.541300 -0.235710 0.207760 
#    y -0.235710 1.641020 -0.011130 
#    z 0.207760 -0.011130 1.869360 
# 
# From -- ./inp_files/398101.got.cif
#   From: 2010.05.17/outbox.ucp.g08.bks.cvg/sg2_200_cif.got.tgz:398101.got - 2010.06.11 11:32:03.
