data_PCOD9073443
_publ_section_title
;
Structure prediction by ZEFSAII (Michael W. Deem and Ramdas Pophale) SiO2 
 PCOD9073443
Probable space group: P -1
;
_chemical_formula_sum "Si O2"
_cell_formula_units_Z 16
_cell_length_a 16.397321
_cell_length_b 19.280180
_cell_length_c 11.726238
_cell_angle_alpha 37.899833
_cell_angle_beta 155.698234
_cell_angle_gamma 153.700088
_cell_volume 667.976675
_symmetry_space_group_name_H-M "P -1"
_symmetry_group_IT_number 2
_symmetry_cell_setting 'triclinic'
loop_
_space_group_symop_operation_xyz
x,y,z
-x,-y,-z
loop_
_atom_site_type_symbol
_atom_site_label
_atom_site_fract_x
_atom_site_fract_y
_atom_site_fract_z
Si Si1 0.731978 0.962208 0.669897
Si Si2 0.618920 0.930417 0.821331
Si Si3 0.607003 0.844725 0.290086
Si Si4 0.970012 0.779492 0.866424
Si Si5 0.994635 0.139658 0.555831
Si Si6 0.515320 0.546049 0.327481
Si Si7 0.262355 0.671901 0.296968
Si Si8 0.235607 0.677214 0.822496
O O1 0.510256 0.791642 0.547473
O O2 0.621302 0.960137 0.652700
O O3 0.834347 0.088397 0.537754
O O4 0.000000 0.000000 0.000000
O O5 0.314748 0.778682 0.679537
O O6 0.806289 0.889791 0.129435
O O7 0.790183 0.082269 0.924603
O O8 0.395620 0.716327 0.284473
O O9 0.169212 0.165200 0.440496
O O10 0.418574 0.798953 0.002169
O O11 0.774632 0.013331 0.343537
O O12 0.704828 0.621193 0.800157
O O13 0.091488 0.722999 0.022219
O O14 0.184473 0.317624 0.522649
O O15 0.500000 0.500000 0.500000
O O16 0.381347 0.614867 0.068380
O O17 0.072430 0.488146 0.324099
#
# Coordination Sequence:
#
# PCOD9073443 Si02
#       8
#     2   2   2   2   2   2   2   2
#     4   9  18  39  61  81 114 155 196 248 292 337
#     4   9  19  34  58  83 111 158 202 236 288 344
#     4  10  19  37  59  83 125 158 188 236 292 353
#     4  10  21  36  58  90 117 158 192 235 297 348
#     4   8  18  32  57  85 113 154 198 234 288 348
#     4  10  18  31  54  87 120 155 189 233 288 349
#     4  10  22  37  58  88 119 150 198 245 290 347
#     4  10  20  34  56  88 118 155 194 236 290 355
#
# _framework density 23.952932000000001
#
# number of rings (size 3 to 8) (size 9 to 14) (size 15 to 20)
#    0.000    2.500    1.250    1.125    1.750    2.500 
#    0.000    3.750    0.000    3.000    0.000    0.000 
#    0.000    0.000    0.000    0.000    0.000    0.000 
#
# Total GULP energy -89398.443276 kJ/mol
# GULP energy per Si atom -5587.402705 kJ/mol
# Density = 2.389841 g / cm^3
# Si number density = 23.952932 Si / 1000 Ang^3
#
#
#
# Elastic Constant Matrix: (Units=GPa)
#
#
# Indices 1 2 3 4 5 6 
#
# 1 129.2612 68.0505 22.5096 -1.6448 1.0946 31.8020
# 2 68.0505 162.2263 39.4056 16.0466 -15.5710 55.0620
# 3 22.5096 39.4056 103.4765 8.6558 1.3962 0.8077
# 4 -1.6448 16.0466 8.6558 36.9690 -4.3763 11.1011
# 5 1.0946 -15.5710 1.3962 -4.3763 33.0937 -7.1962
# 6 31.8020 55.0620 0.8077 11.1011 -7.1962 37.6764
#
#
#
# Elastic Compliance Matrix: (Units=1/GPa)
#
#
# Indices 1 2 3 4 5 6 
#
# 1 0.011228 -0.002262 -0.001816 0.003943 -0.002529 -0.007779
# 2 -0.002262 0.015558 -0.005395 0.000912 0.003319 -0.020347
# 3 -0.001816 -0.005395 0.012371 -0.003801 -0.001324 0.010019
# 4 0.003943 0.000912 -0.003801 0.032033 0.001718 -0.013690
# 5 -0.002529 0.003319 -0.001324 0.001718 0.032814 0.003074
# 6 -0.007779 -0.020347 0.010019 -0.013690 0.003074 0.067250
#
#
# Mechanical properties :
#
#
# Convention : Reuss Voigt Hill
#
# Bulk Modulus (GPa) = 49.47587 72.76617 61.12102
# Shear Modulus (GPa) = 25.38872 39.21437 32.30154
#
# Velocity S-wave (km/s) = 3.25921 4.05055 3.67623
# Velocity P-wave (km/s) = 5.90454 7.23331 6.60243
#
# Compressibility (1/GPa) = 0.02021187
#
# Stress axis : x y z
#
# Youngs Moduli (GPa) = 89.05925 64.27639 80.83241
#
# Poissons Ratio (x) = 0.14536 0.14682
# Poissons Ratio (y) = 0.20141 0.43609
# Poissons Ratio (z) = 0.16176 0.34677
#
# Static dielectric constant tensor:
#      x y z
#    x 1.952820 0.006030 0.087020 
#    y 0.006030 1.967450 -0.015820 
#    z 0.087020 -0.015820 1.961980 
# 
# From -- ./inp_files/327753.got.cif
#   From: 2010.05.17/outbox.cif.g08.bks.cpg/sg2_164_cif.got.tgz:327753.got - 2010.06.03 11:33:40.
