data_PCOD9073976
_publ_section_title
;
Structure prediction by ZEFSAII (Michael W. Deem and Ramdas Pophale) SiO2 
 PCOD9073976
Probable space group: P -1
;
_chemical_formula_sum "Si O2"
_cell_formula_units_Z 16
_cell_length_a 12.000000
_cell_length_b 18.000000
_cell_length_c 9.000000
_cell_angle_alpha 120.000000
_cell_angle_beta 50.000000
_cell_angle_gamma 150.000000
_cell_volume 736.400153
_symmetry_space_group_name_H-M "P -1"
_symmetry_group_IT_number 2
_symmetry_cell_setting 'triclinic'
loop_
_space_group_symop_operation_xyz
x,y,z
-x,-y,-z
loop_
_atom_site_type_symbol
_atom_site_label
_atom_site_fract_x
_atom_site_fract_y
_atom_site_fract_z
Si Si1 0.497227 0.096450 0.655642
Si Si2 0.052273 0.862093 0.000532
Si Si3 0.634908 0.307730 0.250297
Si Si4 0.964250 0.618237 0.376274
Si Si5 0.283968 0.380734 0.191410
Si Si6 0.439411 0.641600 0.962504
Si Si7 0.608191 0.789585 0.303637
Si Si8 0.049661 0.704370 0.062420
O O1 0.782041 0.260702 0.622542
O O2 0.373461 0.101222 0.646632
O O3 0.500000 0.000000 0.500000
O O4 0.329738 0.025923 0.877435
O O5 0.853616 0.845363 0.158386
O O6 0.061804 0.802791 0.072476
O O7 0.960488 0.758816 0.837334
O O8 0.541632 0.295034 0.149508
O O9 0.490624 0.255003 0.481756
O O10 0.710897 0.244421 0.111096
O O11 0.884250 0.487266 0.249738
O O12 0.753623 0.557384 0.605356
O O13 0.999887 0.689828 0.266686
O O14 0.344293 0.327221 0.186401
O O15 0.500000 0.500000 0.000000
O O16 0.466283 0.689989 0.163589
O O17 0.181642 0.460952 0.981499
#
# Coordination Sequence:
#
# PCOD9073976 Si02
#       8
#     2   2   2   2   2   2   2   2
#     4  12  24  44  67  93 131 181 223 269 318 395
#     4  11  24  42  66  95 134 172 224 265 324 400
#     4  11  24  40  67 105 130 170 221 275 335 392
#     4  11  24  40  67  96 134 175 216 271 337 382
#     4  11  21  39  66 100 127 170 218 268 335 391
#     4  10  22  40  66  99 141 161 214 284 329 395
#     4  11  25  42  71  96 131 177 219 273 340 381
#     4  11  23  41  65 100 135 168 219 272 331 398
#
# _framework density 21.727318
#
# number of rings (size 3 to 8) (size 9 to 14) (size 15 to 20)
#    0.000    1.000    2.500    5.625    1.750    2.500 
#    0.000    1.250    0.000    3.750    0.000    0.000 
#    0.000    0.000    0.000    0.000    0.000    0.000 
#
# Total GULP energy -89174.665157 kJ/mol
# GULP energy per Si atom -5573.416572 kJ/mol
# Density = 2.167787 g / cm^3
# Si number density = 21.727318 Si / 1000 Ang^3
#
#
#
# Elastic Constant Matrix: (Units=GPa)
#
#
# Indices 1 2 3 4 5 6 
#
# 1 178.8290 21.0436 62.7724 -5.9136 0.1608 -33.7028
# 2 21.0436 30.4731 25.3086 0.8499 -10.6692 -9.4901
# 3 62.7724 25.3086 160.1532 -3.7908 9.5676 -5.7122
# 4 -5.9136 0.8499 -3.7908 32.9081 -3.0858 6.0372
# 5 0.1608 -10.6692 9.5676 -3.0858 31.9288 -0.2149
# 6 -33.7028 -9.4901 -5.7122 6.0372 -0.2149 33.3436
#
#
#
# Elastic Compliance Matrix: (Units=1/GPa)
#
#
# Indices 1 2 3 4 5 6 
#
# 1 0.008076 -0.000655 -0.002835 -0.000181 0.000623 0.007528
# 2 -0.000655 0.051515 -0.008657 -0.003027 0.019608 0.013191
# 3 -0.002835 -0.008657 0.008931 0.000964 -0.005488 -0.004009
# 4 -0.000181 -0.003027 0.000964 0.031927 0.001742 -0.006649
# 5 0.000623 0.019608 -0.005488 0.001742 0.039717 0.005211
# 6 0.007528 0.013191 -0.004009 -0.006649 0.005211 0.041905
#
#
# Mechanical properties :
#
#
# Convention : Reuss Voigt Hill
#
# Bulk Modulus (GPa) = 22.60951 65.30051 43.95501
# Shear Modulus (GPa) = 22.61338 36.99148 29.80243
#
# Velocity S-wave (km/s) = 3.22961 4.13065 3.70761
# Velocity P-wave (km/s) = 4.93314 7.27114 6.21311
#
# Compressibility (1/GPa) = 0.04422918
#
# Stress axis : x y z
#
# Youngs Moduli (GPa) = 123.81753 19.41171 111.97072
#
# Poissons Ratio (x) = 0.01272 0.31744
# Poissons Ratio (y) = 0.08110 0.96929
# Poissons Ratio (z) = 0.35103 0.16804
#
# Static dielectric constant tensor:
#      x y z
#    x 1.803770 -0.017670 -0.017570 
#    y -0.017670 1.904770 -0.049070 
#    z -0.017570 -0.049070 1.821370 
# 
# From -- ./inp_files/279683.got.cif
#   From: 2010.05.17/outbox.ucp.g08.bks.cvg/sg2_140_cif.got.tgz:279683.got - 2010.06.11 11:32:03.
