data_PCOD9073819
_publ_section_title
;
Structure prediction by ZEFSAII (Michael W. Deem and Ramdas Pophale) SiO2 
 PCOD9073819
Probable space group: P -1
;
_chemical_formula_sum "Si O2"
_cell_formula_units_Z 14
_cell_length_a 24.000000
_cell_length_b 24.000000
_cell_length_c 21.000000
_cell_angle_alpha 170.000000
_cell_angle_beta 160.000000
_cell_angle_gamma 20.000000
_cell_volume 697.332694
_symmetry_space_group_name_H-M "P -1"
_symmetry_group_IT_number 2
_symmetry_cell_setting 'triclinic'
loop_
_space_group_symop_operation_xyz
x,y,z
-x,-y,-z
loop_
_atom_site_type_symbol
_atom_site_label
_atom_site_fract_x
_atom_site_fract_y
_atom_site_fract_z
Si Si1 0.582984 0.303959 0.105957
Si Si2 0.787921 0.337975 0.592268
Si Si3 0.043983 0.869115 0.676996
Si Si4 0.985437 0.167526 0.812773
Si Si5 0.649233 0.073376 0.498982
Si Si6 0.379176 0.237807 0.216329
Si Si7 0.326044 0.509512 0.220843
O O1 0.775748 0.134184 0.100496
O O2 0.460821 0.559844 0.216997
O O3 0.610870 0.513556 0.435050
O O4 0.464028 0.066605 0.730173
O O5 0.764630 0.606865 0.814168
O O6 0.769886 0.475890 0.798951
O O7 0.954531 0.078252 0.457236
O O8 0.649269 0.111693 0.184565
O O9 0.042286 0.034837 0.793282
O O10 0.852262 0.013501 0.661418
O O11 0.054395 0.490701 0.245512
O O12 0.789336 0.301666 0.747302
O O13 0.632641 0.861460 0.178661
O O14 0.537715 0.275843 0.387477
#
# Coordination Sequence:
#
# PCOD9073819 Si02
#       7
#     2   2   2   2   2   2   2
#     4  11  19  35  49  59  75  85  97 113 123 133
#     4  12  21  34  44  57  66  80  92 102 121 137
#     4  11  20  35  49  60  75  85  98 112 123 134
#     4  11  21  35  45  57  70  82  95 105 124 133
#     4  10  22  33  47  63  70  87 101 107 124 140
#     4  11  21  33  44  56  69  77  96 104 121 132
#     4  10  23  33  45  57  69  79  92 111 116 134
#
# _framework density 20.076499999999999
#
# number of rings (size 3 to 8) (size 9 to 14) (size 15 to 20)
#    0.000    1.143    2.857    6.429    0.000    5.714 
#    0.000    5.000    0.000    0.000    0.000    0.000 
#    0.000    0.000    0.000    0.000    0.000    0.000 
#
# Total GULP energy -78049.698978 kJ/mol
# GULP energy per Si atom -5574.978498 kJ/mol
# Density = 2.003081 g / cm^3
# Si number density = 20.076500 Si / 1000 Ang^3
#
#
#
# Elastic Constant Matrix: (Units=GPa)
#
#
# Indices 1 2 3 4 5 6 
#
# 1 30.0376 22.3787 39.3074 0.5053 35.8633 -5.7309
# 2 22.3787 132.0682 24.3378 1.1352 21.6822 -22.5148
# 3 39.3074 24.3378 48.8548 7.4954 45.8005 4.0902
# 4 0.5053 1.1352 7.4954 22.1546 3.5508 19.8047
# 5 35.8633 21.6822 45.8005 3.5508 38.8517 -0.7296
# 6 -5.7309 -22.5148 4.0902 19.8047 -0.7296 21.0500
#
#
#
# Elastic Compliance Matrix: (Units=1/GPa)
#
#
# Indices 1 2 3 4 5 6 
#
# 1 0.039974 -0.068737 -0.133701 0.364294 0.118733 -0.375285
# 2 -0.068737 0.021252 0.048549 -0.072456 0.002160 0.062828
# 3 -0.133701 0.048549 -0.036737 -0.246775 0.167080 0.260632
# 4 0.364294 -0.072456 -0.246775 0.452468 -0.053000 -0.357906
# 5 0.118733 0.002160 0.167080 -0.053000 -0.276388 0.042455
# 6 -0.375285 0.062828 0.260632 -0.357906 0.042455 0.300094
#
#
# Mechanical properties :
#
#
# Convention : Reuss Voigt Hill
#
# Bulk Modulus (GPa) = -3.52994 42.55649 19.51328
# Shear Modulus (GPa) = 7.00268 24.74039 15.87154
#
# Velocity S-wave (km/s) = 1.86964 3.51423 2.81473
# Velocity P-wave (km/s) = 1.70256 6.14081 4.50601
#
# Compressibility (1/GPa) = -0.28329103
#
# Stress axis : x y z
#
# Youngs Moduli (GPa) = 25.01600 47.05542 -27.22029
#
# Poissons Ratio (x) = 3.23445 -3.63939
# Poissons Ratio (y) = 1.71953 1.32151
# Poissons Ratio (z) = 3.34468 -2.28448
#
# Static dielectric constant tensor:
#      x y z
#    x 1.711040 -0.064370 0.111690 
#    y -0.064370 1.888830 0.017480 
#    z 0.111690 0.017480 1.727860 
# 
# From -- ./inp_files/355636.got.cif
#   From: 2010.05.17/outbox.ucp.g08.bks.cvg/sg2_178_cif.got.tgz:355636.got - 2010.06.11 11:32:03.
