data_PCOD9073032
_publ_section_title
;
Structure prediction by ZEFSAII (Michael W. Deem and Ramdas Pophale) SiO2 
 PCOD9073032
Probable space group: P -1
;
_chemical_formula_sum "Si O2"
_cell_formula_units_Z 13
_cell_length_a 9.000000
_cell_length_b 21.000000
_cell_length_c 9.000000
_cell_angle_alpha 40.000000
_cell_angle_beta 70.000000
_cell_angle_gamma 40.000000
_cell_volume 566.168241
_symmetry_space_group_name_H-M "P -1"
_symmetry_group_IT_number 2
_symmetry_cell_setting 'triclinic'
loop_
_space_group_symop_operation_xyz
x,y,z
-x,-y,-z
loop_
_atom_site_type_symbol
_atom_site_label
_atom_site_fract_x
_atom_site_fract_y
_atom_site_fract_z
Si Si1 0.118749 0.797410 0.083478
Si Si2 0.000000 0.000000 0.500000
Si Si3 0.931817 0.210482 0.380233
Si Si4 0.677945 0.547350 0.761726
Si Si5 0.252062 0.274505 0.542478
Si Si6 0.260371 0.500555 0.501137
Si Si7 0.665675 0.973893 0.171769
O O1 0.206942 0.646998 0.247145
O O2 0.410521 0.691330 0.233134
O O3 0.914362 0.875543 0.148254
O O4 0.975590 0.951416 0.751260
O O5 0.954193 0.130474 0.371992
O O6 0.648928 0.321075 0.368607
O O7 0.222097 0.054300 0.656235
O O8 0.862494 0.361706 0.098135
O O9 0.679843 0.650162 0.664089
O O10 0.797138 0.509869 0.624373
O O11 0.354232 0.134893 0.645582
O O12 0.918699 0.441915 0.398753
O O13 0.393599 0.168356 0.842693
#
# Coordination Sequence:
#
# PCOD9073032 Si02
#       7
#     2   1   2   2   2   2   2
#     4  10  21  39  69  92 132 165 230 253 329 380
#     4  12  24  40  62 106 124 166 210 298 300 380
#     4  11  25  41  70  94 136 167 229 260 334 374
#     4  11  22  42  65 101 127 175 216 276 310 405
#     4  10  23  39  69  95 137 163 226 261 336 373
#     4  10  20  40  65  98 127 176 208 272 316 402
#     4  10  22  45  65  98 126 183 207 277 317 401
#
# _framework density 22.961372999999998
#
# number of rings (size 3 to 8) (size 9 to 14) (size 15 to 20)
#    0.000    1.538    3.077    1.385    2.154    1.846 
#    0.000    5.385    0.000    0.000    0.000    0.000 
#    0.000    0.000    0.000    0.000    0.000    0.000 
#
# Total GULP energy -72394.273674 kJ/mol
# GULP energy per Si atom -5568.790283 kJ/mol
# Density = 2.290911 g / cm^3
# Si number density = 22.961373 Si / 1000 Ang^3
#
#
#
# Elastic Constant Matrix: (Units=GPa)
#
#
# Indices 1 2 3 4 5 6 
#
# 1 68.1129 2.6866 49.6728 3.6805 -29.8583 -5.3639
# 2 2.6866 32.2277 17.0364 -4.2099 -0.1817 6.8980
# 3 49.6728 17.0364 46.6156 -4.8849 -29.3960 6.5214
# 4 3.6805 -4.2099 -4.8849 13.7444 -3.2935 0.6194
# 5 -29.8583 -0.1817 -29.3960 -3.2935 42.1602 -4.9065
# 6 -5.3639 6.8980 6.5214 0.6194 -4.9065 20.7725
#
#
#
# Elastic Compliance Matrix: (Units=1/GPa)
#
#
# Indices 1 2 3 4 5 6 
#
# 1 -0.101178 -0.066750 0.185476 0.088858 0.058380 -0.051050
# 2 -0.066750 0.005760 0.091383 0.057936 0.015656 -0.045868
# 3 0.185476 0.091383 -0.274821 -0.137890 -0.059719 0.093833
# 4 0.088858 0.057936 -0.137890 0.009284 -0.027558 0.040210
# 5 0.058380 0.015656 -0.059719 -0.027558 0.025467 0.035462
# 6 -0.051050 -0.045868 0.093833 0.040210 0.035462 0.027908
#
#
# Mechanical properties :
#
#
# Convention : Reuss Voigt Hill
#
# Bulk Modulus (GPa) = 20.00826 31.74975 25.87901
# Shear Modulus (GPa) = -7.03098 20.50613 6.73758
#
# Velocity S-wave (km/s) = -1.75178 2.99167 1.71484
# Velocity P-wave (km/s) = 2.15433 5.07848 3.90077
#
# Compressibility (1/GPa) = 0.04997935
#
# Stress axis : x y z
#
# Youngs Moduli (GPa) = -9.88354 173.59776 -3.63873
#
# Poissons Ratio (x) = 11.58757 0.67490
# Poissons Ratio (y) = -0.65972 0.33252
# Poissons Ratio (z) = 1.83316 -15.86380
#
# Static dielectric constant tensor:
#      x y z
#    x 1.893870 -0.027240 0.014160 
#    y -0.027240 1.787400 -0.020050 
#    z 0.014160 -0.020050 1.841730 
# 
# From -- ./inp_files/148400.got.cif
#   From: 2010.05.17/outbox.ucp.g08.bks.cvg/sg2_75_cif.got.tgz:148400.got - 2010.06.11 11:32:03.
