data_PCOD9073448
_publ_section_title
;
Structure prediction by ZEFSAII (Michael W. Deem and Ramdas Pophale) SiO2 
 PCOD9073448
Probable space group: P -1
;
_chemical_formula_sum "Si O2"
_cell_formula_units_Z 16
_cell_length_a 19.843559
_cell_length_b 14.703338
_cell_length_c 11.444837
_cell_angle_alpha 34.922016
_cell_angle_beta 25.679564
_cell_angle_gamma 26.819332
_cell_volume 650.767187
_symmetry_space_group_name_H-M "P -1"
_symmetry_group_IT_number 2
_symmetry_cell_setting 'triclinic'
loop_
_space_group_symop_operation_xyz
x,y,z
-x,-y,-z
loop_
_atom_site_type_symbol
_atom_site_label
_atom_site_fract_x
_atom_site_fract_y
_atom_site_fract_z
Si Si1 0.950545 0.301944 0.441007
Si Si2 0.679419 0.007228 0.243242
Si Si3 0.403708 0.386129 0.949917
Si Si4 0.837066 0.726008 0.478315
Si Si5 0.072155 0.798191 0.163191
Si Si6 0.769233 0.006907 0.852812
Si Si7 0.346590 0.241820 0.954710
Si Si8 0.621552 0.726813 0.383940
O O1 0.887535 0.248120 0.713815
O O2 0.781596 0.518749 0.420091
O O3 0.036553 0.136080 0.378808
O O4 0.130894 0.303116 0.200570
O O5 0.579609 0.162987 0.343056
O O6 0.500000 0.000000 0.500000
O O7 0.854233 0.796957 0.252561
O O8 0.757515 0.045960 0.967938
O O9 0.355974 0.257831 0.237071
O O10 0.260222 0.607592 0.997446
O O11 0.638730 0.228524 0.762235
O O12 0.348094 0.365789 0.928161
O O13 0.000000 0.500000 0.500000
O O14 0.868356 0.827639 0.425927
O O15 0.000000 0.000000 0.000000
O O16 0.695723 0.864744 0.117212
O O17 0.407807 0.291571 0.686895
O O18 0.500000 0.000000 0.000000
#
# Coordination Sequence:
#
# PCOD9073448 Si02
#       8
#     2   2   2   2   2   2   2   2
#     4  11  22  34  56  83 127 158 192 240 307 352
#     4  10  18  31  54  88 125 147 185 239 302 354
#     4  11  19  36  62  90 115 154 196 252 296 351
#     4  10  20  33  60  90 109 151 199 247 294 346
#     4  11  26  41  58  83 123 162 206 248 295 353
#     4  10  19  31  56  92 124 149 186 243 305 354
#     4  11  18  32  57  96 125 142 193 254 299 352
#     4  10  20  30  51  91 132 150 176 242 312 349
#
# _framework density 24.586366000000002
#
# number of rings (size 3 to 8) (size 9 to 14) (size 15 to 20)
#    0.000    1.500    6.250    2.250    5.250    2.000 
#    0.000    0.625    0.000    6.000    0.000    0.000 
#    0.000    0.000    0.000    0.000    0.000    0.000 
#
# Total GULP energy -89226.696990 kJ/mol
# GULP energy per Si atom -5576.668562 kJ/mol
# Density = 2.453041 g / cm^3
# Si number density = 24.586366 Si / 1000 Ang^3
#
#
#
# Elastic Constant Matrix: (Units=GPa)
#
#
# Indices 1 2 3 4 5 6 
#
# 1 116.2436 67.3531 57.4886 -3.0728 59.7010 2.1086
# 2 67.3531 213.4983 72.8349 -8.2995 45.7555 -12.4929
# 3 57.4886 72.8349 107.1144 -1.3676 45.5496 12.2817
# 4 -3.0728 -8.2995 -1.3676 28.7073 -1.9095 16.4196
# 5 59.7010 45.7555 45.5496 -1.9095 56.1102 2.5128
# 6 2.1086 -12.4929 12.2817 16.4196 2.5128 44.1702
#
#
#
# Elastic Compliance Matrix: (Units=1/GPa)
#
#
# Indices 1 2 3 4 5 6 
#
# 1 0.019881 -0.001765 -0.001649 0.000364 -0.018359 -0.000081
# 2 -0.001765 0.006876 -0.003741 -0.000278 -0.000845 0.003221
# 3 -0.001649 -0.003741 0.017276 0.002534 -0.008854 -0.006221
# 4 0.000364 -0.000278 0.002534 0.044935 0.000095 -0.017510
# 5 -0.018359 -0.000845 -0.008854 0.000095 0.045214 0.000492
# 6 -0.000081 0.003221 -0.006221 -0.017510 0.000492 0.031765
#
#
# Mechanical properties :
#
#
# Convention : Reuss Voigt Hill
#
# Bulk Modulus (GPa) = 33.64561 92.46770 63.05666
# Shear Modulus (GPa) = 26.29281 41.74283 34.01782
#
# Velocity S-wave (km/s) = 3.27373 4.12491 3.72372
# Velocity P-wave (km/s) = 5.29189 7.77030 6.64762
#
# Compressibility (1/GPa) = 0.02972156
#
# Stress axis : x y z
#
# Youngs Moduli (GPa) = 50.29906 145.43347 57.88524
#
# Poissons Ratio (x) = 0.25675 0.09543
# Poissons Ratio (y) = 0.08880 0.21657
# Poissons Ratio (z) = 0.08293 0.54413
#
# Static dielectric constant tensor:
#      x y z
#    x 2.047390 0.026520 -0.183600 
#    y 0.026520 2.014820 0.072690 
#    z -0.183600 0.072690 2.125370 
# 
# From -- ./inp_files/475332.got.cif
#   From: 2010.05.17/outbox.cif.g08.bks.cpg/sg2_238_cif.got.tgz:475332.got - 2010.06.03 11:33:40.
