data_PCOD9073588
_publ_section_title
;
Structure prediction by ZEFSAII (Michael W. Deem and Ramdas Pophale) SiO2 
 PCOD9073588
Probable space group: P -1
;
_chemical_formula_sum "Si O2"
_cell_formula_units_Z 16
_cell_length_a 21.047148
_cell_length_b 8.819054
_cell_length_c 9.641081
_cell_angle_alpha 78.051252
_cell_angle_beta 123.833976
_cell_angle_gamma 55.046159
_cell_volume 773.451208
_symmetry_space_group_name_H-M "P -1"
_symmetry_group_IT_number 2
_symmetry_cell_setting 'triclinic'
loop_
_space_group_symop_operation_xyz
x,y,z
-x,-y,-z
loop_
_atom_site_type_symbol
_atom_site_label
_atom_site_fract_x
_atom_site_fract_y
_atom_site_fract_z
Si Si1 0.402876 0.443212 0.430083
Si Si2 0.259800 0.428356 0.118710
Si Si3 0.024357 0.987398 0.192572
Si Si4 0.105482 0.367064 0.917957
Si Si5 0.217416 0.924381 0.350621
Si Si6 0.317950 0.878435 0.060501
Si Si7 0.156723 0.728802 0.666967
Si Si8 0.225235 0.966036 0.640607
O O1 0.386775 0.295388 0.382826
O O2 0.308489 0.658475 0.408685
O O3 0.357412 0.640046 0.214049
O O4 0.563169 0.212447 0.712567
O O5 0.201779 0.353262 0.075203
O O6 0.259520 0.462900 0.947558
O O7 0.127741 0.751276 0.966718
O O8 0.095813 0.032733 0.258365
O O9 0.128423 0.717143 0.477242
O O10 0.000000 0.000000 0.000000
O O11 0.937065 0.687546 0.632591
O O12 0.141566 0.182924 0.116710
O O13 0.167617 0.186922 0.886505
O O14 0.296901 0.855481 0.595955
O O15 0.310169 0.898754 0.882456
O O16 0.210373 0.812385 0.700347
O O17 0.000000 0.000000 0.500000
#
# Coordination Sequence:
#
# PCOD9073588 Si02
#       8
#     2   2   2   2   2   2   2   2
#     4  10  21  39  59  77 111 151 192 227 258 338
#     4  11  19  34  58  81 115 140 182 234 269 328
#     4  10  18  31  55  85 109 143 180 228 280 320
#     4  11  22  35  56  86 115 144 179 227 288 327
#     4  10  21  36  57  87 112 143 184 224 287 331
#     4  10  23  38  55  82 109 153 191 220 276 321
#     4   9  17  30  51  82 110 134 182 223 276 320
#     4  11  19  35  59  83 114 139 181 238 277 327
#
# _framework density 20.686502000000001
#
# number of rings (size 3 to 8) (size 9 to 14) (size 15 to 20)
#    0.000    1.750    6.250    0.750    0.000    1.000 
#    2.250    0.000    0.000    0.750    0.000    0.000 
#    0.000    0.000    0.000    0.000    0.000    0.000 
#
# Total GULP energy -89088.346410 kJ/mol
# GULP energy per Si atom -5568.021651 kJ/mol
# Density = 2.063942 g / cm^3
# Si number density = 20.686502 Si / 1000 Ang^3
#
#
#
# Elastic Constant Matrix: (Units=GPa)
#
#
# Indices 1 2 3 4 5 6 
#
# 1 51.9283 -2.4873 20.4702 6.9027 -12.6104 -3.2467
# 2 -2.4873 68.6248 51.3981 23.3591 -14.4625 -17.3716
# 3 20.4702 51.3981 68.4640 27.7259 -12.5148 -12.6819
# 4 6.9027 23.3591 27.7259 39.9354 -10.8911 -9.8510
# 5 -12.6104 -14.4625 -12.5148 -10.8911 22.8032 12.7862
# 6 -3.2467 -17.3716 -12.6819 -9.8510 12.7862 22.3318
#
#
#
# Elastic Compliance Matrix: (Units=1/GPa)
#
#
# Indices 1 2 3 4 5 6 
#
# 1 0.036309 0.024530 -0.027017 0.004026 0.024567 -0.003272
# 2 0.024530 0.053768 -0.043040 0.002056 0.018811 0.011086
# 3 -0.027017 -0.043040 0.057794 -0.015297 -0.016893 -0.001663
# 4 0.004026 0.002056 -0.015297 0.037707 0.010993 0.003837
# 5 0.024567 0.018811 -0.016893 0.010993 0.085133 -0.035283
# 6 -0.003272 0.011086 -0.001663 0.003837 -0.035283 0.073877
#
#
# Mechanical properties :
#
#
# Convention : Reuss Voigt Hill
#
# Bulk Modulus (GPa) = 17.60066 36.41989 27.01027
# Shear Modulus (GPa) = 10.99917 24.98984 17.99451
#
# Velocity S-wave (km/s) = 2.30838 3.47944 2.95255
# Velocity P-wave (km/s) = 3.95368 5.81256 4.97079
#
# Compressibility (1/GPa) = 0.05681605
#
# Stress axis : x y z
#
# Youngs Moduli (GPa) = 27.54176 18.59859 17.30269
#
# Poissons Ratio (x) = -0.45622 0.46747
# Poissons Ratio (y) = -0.67559 0.74470
# Poissons Ratio (z) = 0.74410 0.80048
#
# Static dielectric constant tensor:
#      x y z
#    x 1.735700 0.019140 0.032880 
#    y 0.019140 1.892050 0.095920 
#    z 0.032880 0.095920 1.855900 
# 
# From -- ./inp_files/218842.got.cif
#   From: 2010.05.17/outbox.cif.g08.bks.cpg/sg2_110_cif.got.tgz:218842.got - 2010.06.03 11:33:40.
