data_PCOD9073972
_publ_section_title
;
Structure prediction by ZEFSAII (Michael W. Deem and Ramdas Pophale) SiO2 
 PCOD9073972
Probable space group: P -1
;
_chemical_formula_sum "Si O2"
_cell_formula_units_Z 14
_cell_length_a 12.000000
_cell_length_b 6.000000
_cell_length_c 9.000000
_cell_angle_alpha 100.000000
_cell_angle_beta 90.000000
_cell_angle_gamma 100.000000
_cell_volume 628.156581
_symmetry_space_group_name_H-M "P -1"
_symmetry_group_IT_number 2
_symmetry_cell_setting 'triclinic'
loop_
_space_group_symop_operation_xyz
x,y,z
-x,-y,-z
loop_
_atom_site_type_symbol
_atom_site_label
_atom_site_fract_x
_atom_site_fract_y
_atom_site_fract_z
Si Si1 0.434422 0.747476 0.850737
Si Si2 0.379848 0.874898 0.192663
Si Si3 0.265235 0.985146 0.676429
Si Si4 0.881650 0.664179 0.184683
Si Si5 0.858274 0.403675 0.830816
Si Si6 0.461792 0.337000 0.621350
Si Si7 0.133900 0.529336 0.500056
O O1 0.418102 0.489534 0.767084
O O2 0.558570 0.864176 0.803980
O O3 0.345590 0.880045 0.781824
O O4 0.421082 0.763871 0.028168
O O5 0.245765 0.809314 0.189781
O O6 0.436352 0.771939 0.321999
O O7 0.177397 0.110390 0.783364
O O8 0.352677 0.139950 0.582096
O O9 0.194343 0.789674 0.553165
O O10 0.843066 0.570885 0.343989
O O11 0.018381 0.674290 0.185693
O O12 0.850147 0.534693 0.007714
O O13 0.842673 0.530007 0.683275
O O14 0.500000 0.500000 0.500000
O O15 0.000000 0.500000 0.500000
#
# Coordination Sequence:
#
# PCOD9073972 Si02
#       7
#     2   2   2   2   2   2   2
#     4  10  23  43  64  95 133 173 218 279 337 395
#     4  10  22  40  66  96 128 175 222 276 328 407
#     4  11  23  41  72  92 139 179 216 279 345 391
#     4  10  23  46  65  98 138 179 222 280 334 395
#     4  10  22  41  70  96 134 177 228 273 329 404
#     4  11  25  39  66  98 130 174 219 271 339 400
#     4  10  23  42  66  96 133 178 224 278 328 396
#
# _framework density 22.287437000000001
#
# number of rings (size 3 to 8) (size 9 to 14) (size 15 to 20)
#    0.000    1.714    0.000    3.000    6.000    5.714 
#    0.000   17.143    0.000    0.000    0.000    0.000 
#    0.000    0.000    0.000    0.000    0.000    0.000 
#
# Total GULP energy -78037.386151 kJ/mol
# GULP energy per Si atom -5574.099011 kJ/mol
# Density = 2.223671 g / cm^3
# Si number density = 22.287437 Si / 1000 Ang^3
#
#
#
# Elastic Constant Matrix: (Units=GPa)
#
#
# Indices 1 2 3 4 5 6 
#
# 1 117.7148 40.3512 21.2376 7.9968 10.3387 21.5433
# 2 40.3512 56.3353 24.9435 0.9970 7.3607 17.3281
# 3 21.2376 24.9435 143.4280 -8.8168 4.4015 6.7003
# 4 7.9968 0.9970 -8.8168 36.2394 6.0854 -8.5170
# 5 10.3387 7.3607 4.4015 6.0854 27.9394 11.7673
# 6 21.5433 17.3281 6.7003 -8.5170 11.7673 36.2109
#
#
#
# Elastic Compliance Matrix: (Units=1/GPa)
#
#
# Indices 1 2 3 4 5 6 
#
# 1 0.012066 -0.006880 -0.000609 -0.003783 0.000268 -0.004751
# 2 -0.006880 0.026864 -0.003381 -0.002098 0.000107 -0.008665
# 3 -0.000609 -0.003381 0.007785 0.002741 -0.001398 0.001638
# 4 -0.003783 -0.002098 0.002741 0.034731 -0.012329 0.014923
# 5 0.000268 0.000107 -0.001398 -0.012329 0.046077 -0.017826
# 6 -0.004751 -0.008665 0.001638 0.014923 -0.017826 0.043588
#
#
# Mechanical properties :
#
#
# Convention : Reuss Voigt Hill
#
# Bulk Modulus (GPa) = 40.03824 54.50475 47.27149
# Shear Modulus (GPa) = 24.85382 35.47432 30.16407
#
# Velocity S-wave (km/s) = 3.34301 3.99391 3.68286
# Velocity P-wave (km/s) = 5.73624 6.76586 6.27221
#
# Compressibility (1/GPa) = 0.02497612
#
# Stress axis : x y z
#
# Youngs Moduli (GPa) = 82.87639 37.22484 128.45038
#
# Poissons Ratio (x) = 0.25610 0.07823
# Poissons Ratio (y) = 0.57017 0.43424
# Poissons Ratio (z) = 0.05048 0.12584
#
# Static dielectric constant tensor:
#      x y z
#    x 1.819710 0.004460 0.006740 
#    y 0.004460 1.887040 -0.000320 
#    z 0.006740 -0.000320 1.871450 
# 
# From -- ./inp_files/46709.got.cif
#   From: 2010.05.17/outbox.ucp.g08.bks.cvg/sg2_24_cif.got.tgz:46709.got - 2010.06.11 11:32:03.
