data_PCOD9073564
_publ_section_title
;
Structure prediction by ZEFSAII (Michael W. Deem and Ramdas Pophale) SiO2 
 PCOD9073564
Probable space group: P -1
;
_chemical_formula_sum "Si O2"
_cell_formula_units_Z 14
_cell_length_a 15.000000
_cell_length_b 9.000000
_cell_length_c 9.000000
_cell_angle_alpha 60.000000
_cell_angle_beta 80.000000
_cell_angle_gamma 40.000000
_cell_volume 626.690879
_symmetry_space_group_name_H-M "P -1"
_symmetry_group_IT_number 2
_symmetry_cell_setting 'triclinic'
loop_
_space_group_symop_operation_xyz
x,y,z
-x,-y,-z
loop_
_atom_site_type_symbol
_atom_site_label
_atom_site_fract_x
_atom_site_fract_y
_atom_site_fract_z
Si Si1 0.299867 0.208998 0.839910
Si Si2 0.041324 0.799600 0.463320
Si Si3 0.632689 0.753601 0.880668
Si Si4 0.137869 0.254156 0.471939
Si Si5 0.056736 0.306942 0.935948
Si Si6 0.790469 0.295396 0.805332
Si Si7 0.535131 0.138268 0.480278
O O1 0.196357 0.476188 0.628884
O O2 0.203329 0.185231 0.898318
O O3 0.467462 0.924198 0.875792
O O4 0.300299 0.309048 0.946555
O O5 0.091294 0.778650 0.294262
O O6 0.898462 0.890030 0.470087
O O7 0.000000 0.000000 0.500000
O O8 0.736495 0.477387 0.881388
O O9 0.590125 0.004269 0.696245
O O10 0.000000 0.500000 0.500000
O O11 0.084577 0.451217 0.251585
O O12 0.314379 0.017324 0.565202
O O13 0.000000 0.500000 0.000000
O O14 0.118857 0.020257 0.058998
O O15 0.624305 0.525332 0.659374
O O16 0.500000 0.000000 0.500000
#
# Coordination Sequence:
#
# PCOD9073564 Si02
#       7
#     2   2   2   2   2   2   2
#     4  10  22  42  64  95 138 173 218 284 336 399
#     4  11  24  44  66  98 136 180 225 282 338 405
#     4  10  21  40  69  96 130 176 224 276 341 394
#     4  11  24  43  70  97 135 178 222 278 342 402
#     4  11  25  45  65  97 140 177 223 284 344 400
#     4  11  23  43  74  98 133 182 231 277 338 411
#     4  10  21  41  69 101 134 171 228 283 333 401
#
# _framework density 22.339562000000001
#
# number of rings (size 3 to 8) (size 9 to 14) (size 15 to 20)
#    0.000    1.429    1.429    4.286    6.000    1.714 
#    5.143   11.429    0.000    0.000    0.000    0.000 
#    0.000    0.000    0.000    0.000    0.000    0.000 
#
# Total GULP energy -78034.019726 kJ/mol
# GULP energy per Si atom -5573.858552 kJ/mol
# Density = 2.228872 g / cm^3
# Si number density = 22.339562 Si / 1000 Ang^3
#
#
#
# Elastic Constant Matrix: (Units=GPa)
#
#
# Indices 1 2 3 4 5 6 
#
# 1 142.5268 50.0033 32.9691 -11.4584 -3.9462 -18.1965
# 2 50.0033 143.3896 37.6712 0.5298 -12.3860 0.4593
# 3 32.9691 37.6712 78.1875 -3.5401 -8.0813 4.2408
# 4 -11.4584 0.5298 -3.5401 31.7461 -0.8047 10.7487
# 5 -3.9462 -12.3860 -8.0813 -0.8047 25.0856 -8.2545
# 6 -18.1965 0.4593 4.2408 10.7487 -8.2545 45.6355
#
#
#
# Elastic Compliance Matrix: (Units=1/GPa)
#
#
# Indices 1 2 3 4 5 6 
#
# 1 0.009122 -0.002432 -0.002725 0.001828 0.000597 0.003592
# 2 -0.002432 0.008876 -0.003003 -0.001309 0.003015 0.000074
# 3 -0.002725 -0.003003 0.015851 0.001742 0.002428 -0.002501
# 4 0.001828 -0.001309 0.001742 0.035018 -0.001273 -0.007898
# 5 0.000597 0.003015 0.002428 -0.001273 0.044956 0.008414
# 6 0.003592 0.000074 -0.002501 -0.007898 0.008414 0.026959
#
#
# Mechanical properties :
#
#
# Convention : Reuss Voigt Hill
#
# Bulk Modulus (GPa) = 57.04625 67.26566 62.15595
# Shear Modulus (GPa) = 30.68541 36.72412 33.70477
#
# Velocity S-wave (km/s) = 3.71022 4.05891 3.88847
# Velocity P-wave (km/s) = 6.62916 7.22096 6.93138
#
# Compressibility (1/GPa) = 0.01752964
#
# Stress axis : x y z
#
# Youngs Moduli (GPa) = 109.62666 112.66445 63.08709
#
# Poissons Ratio (x) = 0.27397 0.17192
# Poissons Ratio (y) = 0.26658 0.18943
# Poissons Ratio (z) = 0.29875 0.33830
#
# Static dielectric constant tensor:
#      x y z
#    x 1.870090 0.054700 0.017870 
#    y 0.054700 1.801180 0.057360 
#    z 0.017870 0.057360 1.990860 
# 
# From -- ./inp_files/297621.got.cif
#   From: 2010.05.17/outbox.ucp.g08.bks.cvg/sg2_149_cif.got.tgz:297621.got - 2010.06.11 11:32:03.
