data_PCOD9073369
_publ_section_title
;
Structure prediction by ZEFSAII (Michael W. Deem and Ramdas Pophale) SiO2 
 PCOD9073369
Probable space group: P -1
;
_chemical_formula_sum "Si O2"
_cell_formula_units_Z 16
_cell_length_a 15.000000
_cell_length_b 9.000000
_cell_length_c 12.000000
_cell_angle_alpha 70.000000
_cell_angle_beta 60.000000
_cell_angle_gamma 120.000000
_cell_volume 745.925389
_symmetry_space_group_name_H-M "P -1"
_symmetry_group_IT_number 2
_symmetry_cell_setting 'triclinic'
loop_
_space_group_symop_operation_xyz
x,y,z
-x,-y,-z
loop_
_atom_site_type_symbol
_atom_site_label
_atom_site_fract_x
_atom_site_fract_y
_atom_site_fract_z
Si Si1 0.568907 0.998636 0.803704
Si Si2 0.114726 0.696108 0.986181
Si Si3 0.005064 0.975048 0.318004
Si Si4 0.238896 0.534151 0.274101
Si Si5 0.472570 0.889606 0.424578
Si Si6 0.037829 0.749110 0.645054
Si Si7 0.309146 0.172019 0.206047
Si Si8 0.075093 0.240236 0.823561
O O1 0.651314 0.254939 0.747059
O O2 0.570959 0.034786 0.662709
O O3 0.670082 0.982372 0.805276
O O4 0.364688 0.707161 0.044261
O O5 0.019154 0.475185 0.198829
O O6 0.057803 0.795477 0.035259
O O7 0.000000 0.500000 0.000000
O O8 0.331609 0.941228 0.773805
O O9 0.839483 0.731282 0.570255
O O10 0.956064 0.836399 0.267327
O O11 0.178366 0.109415 0.227604
O O12 0.031541 0.194667 0.249768
O O13 0.056963 0.386483 0.382163
O O14 0.289058 0.550912 0.628494
O O15 0.500000 0.000000 0.500000
O O16 0.241140 0.049196 0.405892
O O17 0.500000 0.500000 0.000000
O O18 0.000000 0.000000 0.000000
#
# Coordination Sequence:
#
# PCOD9073369 Si02
#       8
#     2   2   2   2   2   2   2   2
#     4  11  22  40  65 107 135 179 235 296 350 435
#     4  12  26  48  76 105 138 194 250 298 370 434
#     4  11  24  43  65 100 147 185 232 296 362 424
#     4  10  21  38  69  93 141 179 220 284 359 414
#     4  12  26  48  79 104 147 193 249 304 365 441
#     4  11  23  42  68  96 142 187 231 293 361 430
#     4  11  24  38  65 100 144 186 241 282 366 433
#     4  12  28  50  73 108 147 188 245 313 364 433
#
# _framework density 21.449866
#
# number of rings (size 3 to 8) (size 9 to 14) (size 15 to 20)
#    0.000    0.750    3.750    4.500    1.750    1.500 
#    2.250    0.000    0.000    0.000    0.000    0.000 
#    0.000    0.000    0.000    0.000    0.000    0.000 
#
# Total GULP energy -89077.554672 kJ/mol
# GULP energy per Si atom -5567.347167 kJ/mol
# Density = 2.140105 g / cm^3
# Si number density = 21.449866 Si / 1000 Ang^3
#
#
#
# Elastic Constant Matrix: (Units=GPa)
#
#
# Indices 1 2 3 4 5 6 
#
# 1 78.9829 51.9126 50.3371 -4.0325 6.9643 -32.5857
# 2 51.9126 107.1717 46.9386 -9.5989 4.2555 11.7732
# 3 50.3371 46.9386 141.7800 -4.0772 -4.1647 -13.1193
# 4 -4.0325 -9.5989 -4.0772 10.5012 11.6650 18.6339
# 5 6.9643 4.2555 -4.1647 11.6650 34.7592 -3.9189
# 6 -32.5857 11.7732 -13.1193 18.6339 -3.9189 26.0002
#
#
#
# Elastic Compliance Matrix: (Units=1/GPa)
#
#
# Indices 1 2 3 4 5 6 
#
# 1 0.017574 -0.001416 -0.005938 0.034099 -0.016317 -0.007227
# 2 -0.001416 0.007314 -0.001349 -0.020862 0.007389 0.010298
# 3 -0.005938 -0.001349 0.009560 -0.000669 0.002597 -0.001137
# 4 0.034099 -0.020862 -0.000669 0.005947 -0.001006 0.047431
# 5 -0.016317 0.007389 0.002597 -0.001006 0.029836 -0.017267
# 6 -0.007227 0.010298 -0.001137 0.047431 -0.017267 -0.012428
#
#
# Mechanical properties :
#
#
# Convention : Reuss Voigt Hill
#
# Bulk Modulus (GPa) = 58.67709 69.59015 64.13362
# Shear Modulus (GPa) = 61.81240 26.16854 43.99047
#
# Velocity S-wave (km/s) = 5.37398 3.49662 4.53354
# Velocity P-wave (km/s) = 8.11918 6.98680 7.57418
#
# Compressibility (1/GPa) = 0.01704243
#
# Stress axis : x y z
#
# Youngs Moduli (GPa) = 56.90176 136.71765 104.60402
#
# Poissons Ratio (x) = 0.19359 0.62115
# Poissons Ratio (y) = 0.08057 0.14109
# Poissons Ratio (z) = 0.33789 0.18441
#
# Static dielectric constant tensor:
#      x y z
#    x 1.835050 -0.055800 -0.055390 
#    y -0.055800 1.743350 0.081550 
#    z -0.055390 0.081550 1.746510 
# 
# From -- ./inp_files/346224.got.cif
#   From: 2010.05.17/outbox.ucp.g08.bks.cvg/sg2_174_cif.got.tgz:346224.got - 2010.06.11 11:32:03.
