data_PCOD9073501
_publ_section_title
;
Structure prediction by ZEFSAII (Michael W. Deem and Ramdas Pophale) SiO2 
 PCOD9073501
Probable space group: P -1
;
_chemical_formula_sum "Si O2"
_cell_formula_units_Z 16
_cell_length_a 21.000000
_cell_length_b 9.000000
_cell_length_c 15.000000
_cell_angle_alpha 130.000000
_cell_angle_beta 160.000000
_cell_angle_gamma 50.000000
_cell_volume 734.602417
_symmetry_space_group_name_H-M "P -1"
_symmetry_group_IT_number 2
_symmetry_cell_setting 'triclinic'
loop_
_space_group_symop_operation_xyz
x,y,z
-x,-y,-z
loop_
_atom_site_type_symbol
_atom_site_label
_atom_site_fract_x
_atom_site_fract_y
_atom_site_fract_z
Si Si1 0.795912 0.939460 0.692696
Si Si2 0.186366 0.622702 0.582744
Si Si3 0.595158 0.500475 0.007420
Si Si4 0.887707 0.252144 0.663918
Si Si5 0.207015 0.144551 0.544224
Si Si6 0.762387 0.700476 0.734848
Si Si7 0.144642 0.586923 0.851946
Si Si8 0.580972 0.321937 0.601610
O O1 0.797205 0.834834 0.560162
O O2 0.754174 0.824505 0.681569
O O3 0.646533 0.132122 0.556654
O O4 0.000000 0.000000 0.000000
O O5 0.295756 0.646964 0.831184
O O6 0.107596 0.749267 0.439260
O O7 0.997470 0.556423 0.352214
O O8 0.373363 0.503425 0.732389
O O9 0.642462 0.720846 0.174268
O O10 0.683359 0.468506 0.012541
O O11 0.806559 0.471126 0.676721
O O12 0.778152 0.076432 0.485765
O O13 0.084984 0.229062 0.969193
O O14 0.996620 0.254886 0.330008
O O15 0.571847 0.725543 0.548019
O O16 0.240119 0.647299 0.091384
O O17 0.500000 0.500000 0.500000
#
# Coordination Sequence:
#
# PCOD9073501 Si02
#       8
#     2   2   2   2   2   2   2   2
#     4  12  23  43  66  97 132 179 216 263 341 401
#     4  10  21  40  64  89 122 168 220 272 331 389
#     4  10  23  42  65  94 122 176 230 268 328 399
#     4  11  22  38  64  95 130 174 216 274 340 384
#     4  11  22  40  66  93 133 174 218 275 328 398
#     4  11  23  39  64  95 134 173 221 268 331 410
#     4  11  22  44  67  93 134 175 219 273 335 393
#     4  12  25  40  66 103 137 169 221 277 327 399
#
# _framework density 21.780488999999999
#
# number of rings (size 3 to 8) (size 9 to 14) (size 15 to 20)
#    0.000    1.000    2.500    5.625    1.750    1.500 
#    0.000    3.750    0.000    0.000    0.000    0.000 
#    0.000    0.000    0.000    0.000    0.000    0.000 
#
# Total GULP energy -89112.628740 kJ/mol
# GULP energy per Si atom -5569.539296 kJ/mol
# Density = 2.173092 g / cm^3
# Si number density = 21.780489 Si / 1000 Ang^3
#
#
#
# Elastic Constant Matrix: (Units=GPa)
#
#
# Indices 1 2 3 4 5 6 
#
# 1 136.7144 23.9987 17.7356 -1.4717 8.3500 18.8831
# 2 23.9987 78.9345 6.1119 4.3809 8.9492 26.9257
# 3 17.7356 6.1119 54.0586 3.7856 2.0472 1.1306
# 4 -1.4717 4.3809 3.7856 23.9796 0.6374 -1.1672
# 5 8.3500 8.9492 2.0472 0.6374 45.7930 -7.6870
# 6 18.8831 26.9257 1.1306 -1.1672 -7.6870 34.5348
#
#
#
# Elastic Compliance Matrix: (Units=1/GPa)
#
#
# Indices 1 2 3 4 5 6 
#
# 1 0.008527 -0.000677 -0.002612 0.000896 -0.002070 -0.004479
# 2 -0.000677 0.019465 -0.001115 -0.004048 -0.006313 -0.016312
# 3 -0.002612 -0.001115 0.019653 -0.002985 0.000122 0.001580
# 4 0.000896 -0.004048 -0.002985 0.043159 0.000903 0.004423
# 5 -0.002070 -0.006313 0.000122 0.000903 0.025400 0.011734
# 6 -0.004479 -0.016312 0.001580 0.004423 0.011734 0.046833
#
#
# Mechanical properties :
#
#
# Convention : Reuss Voigt Hill
#
# Bulk Modulus (GPa) = 25.74841 40.59999 33.17420
# Shear Modulus (GPa) = 27.05761 35.65223 31.35492
#
# Velocity S-wave (km/s) = 3.52843 4.05024 3.79831
# Velocity P-wave (km/s) = 5.33359 6.36817 5.87370
#
# Compressibility (1/GPa) = 0.03883736
#
# Stress axis : x y z
#
# Youngs Moduli (GPa) = 117.27466 51.37301 50.88353
#
# Poissons Ratio (x) = 0.03480 0.13289
# Poissons Ratio (y) = 0.07944 0.05673
# Poissons Ratio (z) = 0.30628 0.05727
#
# Static dielectric constant tensor:
#      x y z
#    x 1.776770 -0.047560 -0.023560 
#    y -0.047560 1.874740 0.006270 
#    z -0.023560 0.006270 1.795230 
# 
# From -- ./inp_files/447149.got.cif
#   From: 2010.05.17/outbox.ucp.g08.bks.cvg/sg2_224_cif.got.tgz:447149.got - 2010.06.11 11:32:03.
