data_PCOD9073053
_publ_section_title
;
Structure prediction by ZEFSAII (Michael W. Deem and Ramdas Pophale) SiO2 
 PCOD9073053
Probable space group: P -1
;
_chemical_formula_sum "Si O2"
_cell_formula_units_Z 16
_cell_length_a 14.852796
_cell_length_b 21.836663
_cell_length_c 5.813162
_cell_angle_alpha 88.292211
_cell_angle_beta 104.711642
_cell_angle_gamma 155.691495
_cell_volume 647.302085
_symmetry_space_group_name_H-M "P -1"
_symmetry_group_IT_number 2
_symmetry_cell_setting 'triclinic'
loop_
_space_group_symop_operation_xyz
x,y,z
-x,-y,-z
loop_
_atom_site_type_symbol
_atom_site_label
_atom_site_fract_x
_atom_site_fract_y
_atom_site_fract_z
Si Si1 0.776532 0.751253 0.354210
Si Si2 0.205938 0.989953 0.293080
Si Si3 0.968429 0.759812 0.772369
Si Si4 0.709233 0.296491 0.341505
Si Si5 0.688276 0.473377 0.139203
Si Si6 0.509624 0.909185 0.153719
Si Si7 0.758919 0.198970 0.650385
Si Si8 0.600501 0.413859 0.603619
O O1 0.694663 0.744146 0.515646
O O2 0.830712 0.717485 0.494172
O O3 0.528470 0.607998 0.039799
O O4 0.029657 0.923727 0.348485
O O5 0.468247 0.179803 0.331796
O O6 0.327708 0.013060 0.532047
O O7 0.028460 0.844413 0.009335
O O8 0.781662 0.587321 0.712623
O O9 0.265272 0.922288 0.875490
O O10 0.739873 0.246951 0.472690
O O11 0.000000 0.500000 0.500000
O O12 0.594817 0.215187 0.025077
O O13 0.642447 0.417776 0.369174
O O14 0.986792 0.679035 0.289476
O O15 0.664628 0.419131 0.889479
O O16 0.254220 0.786568 0.095031
O O17 0.500000 0.000000 0.500000
#
# Coordination Sequence:
#
# PCOD9073053 Si02
#       8
#     2   2   2   2   2   2   2   2
#     4   9  20  31  54  76 120 159 210 256 318 374
#     4   9  19  35  55  87 115 154 207 263 321 371
#     4  10  18  31  52  81 117 158 207 261 313 379
#     4  10  23  41  65  92 124 164 218 267 319 383
#     4  10  24  36  53  85 123 169 208 259 317 388
#     4   9  21  36  60  87 121 165 207 265 318 385
#     4  11  24  39  61  90 131 170 212 261 326 387
#     4  10  22  32  51  80 122 165 211 252 317 376
#
# _framework density 24.717980000000001
#
# number of rings (size 3 to 8) (size 9 to 14) (size 15 to 20)
#    0.750    1.500    0.000    1.875   10.500    3.500 
#    0.000    0.000    0.000    0.750    0.000    9.625 
#    0.000    0.000    0.000    0.000    0.000    0.000 
#
# Total GULP energy -89127.362426 kJ/mol
# GULP energy per Si atom -5570.460152 kJ/mol
# Density = 2.466172 g / cm^3
# Si number density = 24.717980 Si / 1000 Ang^3
#
#
#
# Elastic Constant Matrix: (Units=GPa)
#
#
# Indices 1 2 3 4 5 6 
#
# 1 45.5019 73.7215 20.7717 6.5989 9.6575 17.8200
# 2 73.7215 156.3043 51.1587 1.7898 -14.4165 43.3162
# 3 20.7717 51.1587 101.3564 -21.7387 10.8516 2.8952
# 4 6.5989 1.7898 -21.7387 37.5878 21.1372 -3.8982
# 5 9.6575 -14.4165 10.8516 21.1372 6.8352 -4.1649
# 6 17.8200 43.3162 2.8952 -3.8982 -4.1649 57.3767
#
#
#
# Elastic Compliance Matrix: (Units=1/GPa)
#
#
# Indices 1 2 3 4 5 6 
#
# 1 0.051830 -0.014390 -0.015356 -0.038293 0.036526 -0.004409
# 2 -0.014390 0.010238 0.004622 0.018625 -0.025493 -0.004078
# 3 -0.015356 0.004622 0.009752 0.001732 0.011675 0.001753
# 4 -0.038293 0.018625 0.001732 0.023913 0.017056 0.000608
# 5 0.036526 -0.025493 0.011675 0.017056 -0.026360 0.006558
# 6 -0.004409 -0.004078 0.001753 0.000608 0.006558 0.022305
#
#
# Mechanical properties :
#
#
# Convention : Reuss Voigt Hill
#
# Bulk Modulus (GPa) = 46.35928 66.05183 56.20555
# Shear Modulus (GPa) = 33.53061 30.86066 32.19564
#
# Velocity S-wave (km/s) = 3.68710 3.53726 3.61296
# Velocity P-wave (km/s) = 6.07637 6.59266 6.33977
#
# Compressibility (1/GPa) = 0.02157065
#
# Stress axis : x y z
#
# Youngs Moduli (GPa) = 19.29394 97.67701 102.54584
#
# Poissons Ratio (x) = 1.40562 1.57469
# Poissons Ratio (y) = 0.27765 -0.47398
# Poissons Ratio (z) = 0.29628 -0.45148
#
# Static dielectric constant tensor:
#      x y z
#    x 2.025260 0.068190 -0.041060 
#    y 0.068190 2.032910 -0.062790 
#    z -0.041060 -0.062790 2.057790 
# 
# From -- ./inp_files/113256.got.cif
#   From: 2010.05.17/outbox.cif.g08.bks.cpg/sg2_57_cif.got.tgz:113256.got - 2010.06.03 11:33:40.
