data_PCOD9073361
_publ_section_title
;
Structure prediction by ZEFSAII (Michael W. Deem and Ramdas Pophale) SiO2 
 PCOD9073361
Probable space group: P -1
;
_chemical_formula_sum "Si O2"
_cell_formula_units_Z 15
_cell_length_a 30.000000
_cell_length_b 30.000000
_cell_length_c 9.000000
_cell_angle_alpha 30.000000
_cell_angle_beta 150.000000
_cell_angle_gamma 170.000000
_cell_volume 695.153643
_symmetry_space_group_name_H-M "P -1"
_symmetry_group_IT_number 2
_symmetry_cell_setting 'triclinic'
loop_
_space_group_symop_operation_xyz
x,y,z
-x,-y,-z
loop_
_atom_site_type_symbol
_atom_site_label
_atom_site_fract_x
_atom_site_fract_y
_atom_site_fract_z
Si Si1 0.569443 0.704122 0.187029
Si Si2 0.755730 0.241853 0.942740
Si Si3 0.559942 0.397293 0.227016
Si Si4 0.480584 0.814055 0.745738
Si Si5 0.083114 0.176350 0.495083
Si Si6 0.884215 0.169884 0.385811
Si Si7 0.006731 0.714618 0.969790
Si Si8 0.500000 0.500000 0.000000
O O1 0.317081 0.426000 0.341430
O O2 0.546308 0.662988 0.063321
O O3 0.545614 0.790612 0.891154
O O4 0.829000 0.911339 0.425257
O O5 0.681304 0.252744 0.585190
O O6 0.809388 0.191395 0.189333
O O7 0.000000 0.500000 0.000000
O O8 0.500000 0.000000 0.000000
O O9 0.849559 0.627600 0.372802
O O10 0.353016 0.123795 0.453344
O O11 0.577301 0.485382 0.157469
O O12 0.282492 0.585214 0.953564
O O13 0.758493 0.104363 0.776206
O O14 0.231325 0.260380 0.809450
O O15 0.973947 0.161536 0.304248
O O16 0.944435 0.257142 0.141019
#
# Coordination Sequence:
#
# PCOD9073361 Si02
#       8
#     2   2   2   2   2   2   2   1
#     4  10  22  43  67  97 138 179 224 277 348 411
#     4  12  25  42  67 102 139 182 233 285 335 407
#     4  12  27  45  72 103 137 189 233 288 353 414
#     4  10  21  38  66  95 135 178 225 275 333 409
#     4  10  23  42  68  99 135 177 223 289 342 408
#     4  12  25  44  70 100 144 179 231 287 349 410
#     4  10  21  40  64  98 133 179 221 274 351 399
#     4  12  28  46  74 104 138 180 238 292 352 420
#
# _framework density 21.577964000000001
#
# number of rings (size 3 to 8) (size 9 to 14) (size 15 to 20)
#    0.000    1.067    1.333    4.800    3.733    6.400 
#    0.000    0.000    0.000    0.000    0.000    0.000 
#    0.000    0.000    0.000    0.000    0.000    0.000 
#
# Total GULP energy -83560.983929 kJ/mol
# GULP energy per Si atom -5570.732262 kJ/mol
# Density = 2.152885 g / cm^3
# Si number density = 21.577964 Si / 1000 Ang^3
#
#
#
# Elastic Constant Matrix: (Units=GPa)
#
#
# Indices 1 2 3 4 5 6 
#
# 1 137.3158 36.2571 28.1282 0.5328 7.5071 -11.2221
# 2 36.2571 136.3298 17.5094 27.8240 -0.5713 -4.6881
# 3 28.1282 17.5094 61.0314 39.2691 11.3585 -1.6224
# 4 0.5328 27.8240 39.2691 51.9527 4.7105 -4.3957
# 5 7.5071 -0.5713 11.3585 4.7105 29.9002 6.8903
# 6 -11.2221 -4.6881 -1.6224 -4.3957 6.8903 30.1240
#
#
#
# Elastic Compliance Matrix: (Units=1/GPa)
#
#
# Indices 1 2 3 4 5 6 
#
# 1 0.010561 -0.003358 -0.009561 0.009460 -0.001647 0.004654
# 2 -0.003358 0.009349 0.003808 -0.008033 0.001073 -0.001009
# 3 -0.009561 0.003808 0.042874 -0.033992 -0.007562 -0.003890
# 4 0.009460 -0.008033 -0.033992 0.049707 0.000823 0.007508
# 5 -0.001647 0.001073 -0.007562 0.000823 0.038838 -0.009617
# 6 0.004654 -0.001009 -0.003890 0.007508 -0.009617 0.037859
#
#
# Mechanical properties :
#
#
# Convention : Reuss Voigt Hill
#
# Bulk Modulus (GPa) = 22.44056 55.38517 38.91287
# Shear Modulus (GPa) = 22.49583 39.24753 30.87168
#
# Velocity S-wave (km/s) = 3.23234 4.26945 3.78657
# Velocity P-wave (km/s) = 4.93488 7.07301 6.09838
#
# Compressibility (1/GPa) = 0.04456216
#
# Stress axis : x y z
#
# Youngs Moduli (GPa) = 94.68510 106.96771 23.32424
#
# Poissons Ratio (x) = 0.35925 0.22299
# Poissons Ratio (y) = 0.31800 -0.08882
# Poissons Ratio (z) = 0.90524 -0.40735
#
# Static dielectric constant tensor:
#      x y z
#    x 1.751810 -0.028260 -0.027510 
#    y -0.028260 1.754370 -0.029460 
#    z -0.027510 -0.029460 1.894680 
# 
# From -- ./inp_files/359100.got.cif
#   From: 2010.05.17/outbox.ucp.g08.bks.cvg/sg2_180_cif.got.tgz:359100.got - 2010.06.11 11:32:03.
