data_PCOD9073696
_publ_section_title
;
Structure prediction by ZEFSAII (Michael W. Deem and Ramdas Pophale) SiO2 
 PCOD9073696
Probable space group: P -1
;
_chemical_formula_sum "Si O2"
_cell_formula_units_Z 14
_cell_length_a 12.000000
_cell_length_b 9.000000
_cell_length_c 9.000000
_cell_angle_alpha 100.000000
_cell_angle_beta 60.000000
_cell_angle_gamma 130.000000
_cell_volume 628.643806
_symmetry_space_group_name_H-M "P -1"
_symmetry_group_IT_number 2
_symmetry_cell_setting 'triclinic'
loop_
_space_group_symop_operation_xyz
x,y,z
-x,-y,-z
loop_
_atom_site_type_symbol
_atom_site_label
_atom_site_fract_x
_atom_site_fract_y
_atom_site_fract_z
Si Si1 0.033339 0.992843 0.150341
Si Si2 0.647786 0.965504 0.068194
Si Si3 0.664259 0.317081 0.995325
Si Si4 0.654424 0.004605 0.416210
Si Si5 0.461653 0.358388 0.364493
Si Si6 0.122342 0.230829 0.509249
Si Si7 0.021412 0.325147 0.329142
O O1 0.044325 0.170227 0.233981
O O2 0.200161 0.024905 0.084044
O O3 0.893742 0.792044 0.303998
O O4 0.000000 0.000000 0.000000
O O5 0.672026 0.162203 0.049381
O O6 0.659951 0.946225 0.234167
O O7 0.478526 0.796791 0.059515
O O8 0.607162 0.404053 0.165734
O O9 0.841059 0.477791 0.820975
O O10 0.828973 0.215480 0.391505
O O11 0.500000 0.000000 0.500000
O O12 0.615824 0.848790 0.538293
O O13 0.500000 0.500000 0.500000
O O14 0.315555 0.332428 0.363722
O O15 0.062040 0.335073 0.480136
O O16 0.000000 0.000000 0.500000
#
# Coordination Sequence:
#
# PCOD9073696 Si02
#       7
#     2   2   2   2   2   2   2
#     4  11  21  40  72 100 134 183 230 281 343 409
#     4  11  25  46  70 100 148 185 227 286 363 414
#     4  11  27  46  70 104 142 185 231 291 353 420
#     4  12  25  49  71  99 143 189 231 290 354 420
#     4  12  26  44  73 106 139 184 235 288 349 414
#     4  10  21  42  68  99 139 177 230 284 342 406
#     4  11  25  44  71 102 136 183 241 287 346 411
#
# _framework density 22.270163
#
# number of rings (size 3 to 8) (size 9 to 14) (size 15 to 20)
#    0.000    0.857    5.714    1.714    6.000    1.714 
#    2.571    1.429    0.000    0.000    0.000    0.000 
#    0.000    0.000    0.000    0.000    0.000    0.000 
#
# Total GULP energy -78173.447066 kJ/mol
# GULP energy per Si atom -5583.817648 kJ/mol
# Density = 2.221948 g / cm^3
# Si number density = 22.270163 Si / 1000 Ang^3
#
#
#
# Elastic Constant Matrix: (Units=GPa)
#
#
# Indices 1 2 3 4 5 6 
#
# 1 146.9194 16.5090 29.1641 -5.9312 -15.7670 24.0995
# 2 16.5090 60.5296 28.1704 -4.8591 -9.9569 16.1041
# 3 29.1641 28.1704 92.9403 -15.7971 13.8136 5.8879
# 4 -5.9312 -4.8591 -15.7971 30.1393 1.6859 -2.4945
# 5 -15.7670 -9.9569 13.8136 1.6859 57.3499 -1.2213
# 6 24.0995 16.1041 5.8879 -2.4945 -1.2213 19.1621
#
#
#
# Elastic Compliance Matrix: (Units=1/GPa)
#
#
# Indices 1 2 3 4 5 6 
#
# 1 0.009913 0.003502 -0.004053 -0.000997 0.004040 -0.014037
# 2 0.003502 0.027498 -0.009388 -0.002243 0.007543 -0.024440
# 3 -0.004053 -0.009388 0.016623 0.007479 -0.006789 0.008419
# 4 -0.000997 -0.002243 0.007479 0.037186 -0.003441 0.005462
# 5 0.004040 0.007543 -0.006789 -0.003441 0.021414 -0.008418
# 6 -0.014037 -0.024440 0.008419 0.005462 -0.008418 0.087968
#
#
# Mechanical properties :
#
#
# Convention : Reuss Voigt Hill
#
# Bulk Modulus (GPa) = 29.27608 49.78626 39.53117
# Shear Modulus (GPa) = 21.56417 36.43331 28.99874
#
# Velocity S-wave (km/s) = 3.11513 4.04910 3.61242
# Velocity P-wave (km/s) = 5.11010 6.65315 5.93201
#
# Compressibility (1/GPa) = 0.03415758
#
# Stress axis : x y z
#
# Youngs Moduli (GPa) = 100.87394 36.36634 60.15623
#
# Poissons Ratio (x) = -0.12734 0.24379
# Poissons Ratio (y) = -0.35321 0.56472
# Poissons Ratio (z) = 0.40880 0.34139
#
# Static dielectric constant tensor:
#      x y z
#    x 1.838680 0.052520 0.022120 
#    y 0.052520 1.856430 0.085880 
#    z 0.022120 0.085880 2.132220 
# 
# From -- ./inp_files/158585.got.cif
#   From: 2010.05.17/outbox.ucp.g08.bks.cvg/sg2_80_cif.got.tgz:158585.got - 2010.06.11 11:32:03.
