data_PCOD9073829
_publ_section_title
;
Structure prediction by ZEFSAII (Michael W. Deem and Ramdas Pophale) SiO2 
 PCOD9073829
Probable space group: P -1
;
_chemical_formula_sum "Si O2"
_cell_formula_units_Z 16
_cell_length_a 18.000000
_cell_length_b 21.000000
_cell_length_c 12.000000
_cell_angle_alpha 40.000000
_cell_angle_beta 30.000000
_cell_angle_gamma 20.000000
_cell_volume 744.844803
_symmetry_space_group_name_H-M "P -1"
_symmetry_group_IT_number 2
_symmetry_cell_setting 'triclinic'
loop_
_space_group_symop_operation_xyz
x,y,z
-x,-y,-z
loop_
_atom_site_type_symbol
_atom_site_label
_atom_site_fract_x
_atom_site_fract_y
_atom_site_fract_z
Si Si1 0.795210 0.622604 0.209687
Si Si2 0.082691 0.259264 0.401995
Si Si3 0.775779 0.272410 0.931753
Si Si4 0.697367 0.542648 0.167314
Si Si5 0.426011 0.887057 0.940877
Si Si6 0.871243 0.937210 0.565650
Si Si7 0.811316 0.080781 0.975274
Si Si8 0.184460 0.738127 0.667856
O O1 0.466978 0.836981 0.314205
O O2 0.860055 0.480789 0.379295
O O3 0.000000 0.500000 0.000000
O O4 0.964733 0.617848 0.052582
O O5 0.379439 0.136357 0.230898
O O6 0.988625 0.224374 0.652548
O O7 0.108726 0.184436 0.351862
O O8 0.698982 0.217885 0.034393
O O9 0.500000 0.500000 0.000000
O O10 0.939809 0.133277 0.011502
O O11 0.473327 0.641096 0.427269
O O12 0.696276 0.441392 0.236718
O O13 0.538295 0.727518 0.075278
O O14 0.438243 0.844939 0.853476
O O15 0.080673 0.096344 0.126193
O O16 0.053767 0.916238 0.290324
O O17 0.015524 0.849479 0.618728
#
# Coordination Sequence:
#
# PCOD9073829 Si02
#       8
#     2   2   2   2   2   2   2   2
#     4  11  22  34  56  86 124 161 202 240 289 347
#     4  10  23  39  62  88 121 158 201 248 303 354
#     4  10  22  45  64  86 114 151 201 257 305 364
#     4  10  22  36  50  86 125 162 199 241 281 347
#     4  11  22  39  59  91 124 157 196 248 301 353
#     4  11  21  39  60  88 121 170 203 239 289 359
#     4  10  23  39  65  89 114 153 205 250 302 360
#     4  11  22  36  60  84 130 166 200 239 291 354
#
# _framework density 21.480985
#
# number of rings (size 3 to 8) (size 9 to 14) (size 15 to 20)
#    0.000    1.500    1.250    4.125    1.750    3.000 
#    2.250    0.625    0.000    0.000    0.000    0.000 
#    0.000    0.000    0.000    0.000    0.000    0.000 
#
# Total GULP energy -89236.820754 kJ/mol
# GULP energy per Si atom -5577.301297 kJ/mol
# Density = 2.143209 g / cm^3
# Si number density = 21.480985 Si / 1000 Ang^3
#
#
#
# Elastic Constant Matrix: (Units=GPa)
#
#
# Indices 1 2 3 4 5 6 
#
# 1 96.7573 6.8308 26.1446 -8.3513 -23.1647 6.1652
# 2 6.8308 90.8737 20.4994 0.0085 -13.5928 19.0870
# 3 26.1446 20.4994 32.3199 -11.7937 -12.6999 -0.0048
# 4 -8.3513 0.0085 -11.7937 40.1125 -2.1887 -6.7982
# 5 -23.1647 -13.5928 -12.6999 -2.1887 27.6172 -2.8508
# 6 6.1652 19.0870 -0.0048 -6.7982 -2.8508 12.4667
#
#
#
# Elastic Compliance Matrix: (Units=1/GPa)
#
#
# Indices 1 2 3 4 5 6 
#
# 1 0.017816 0.009329 -0.019436 -0.005742 0.007614 -0.024491
# 2 0.009329 0.031176 -0.034483 -0.018884 -0.000668 -0.062808
# 3 -0.019436 -0.034483 0.090812 0.038754 0.020672 0.088301
# 4 -0.005742 -0.018884 0.038754 0.046035 0.013549 0.059968
# 5 0.007614 -0.000668 0.020672 0.013549 0.054617 0.017143
# 6 -0.024491 -0.062808 0.088301 0.059968 0.017143 0.225141
#
#
# Mechanical properties :
#
#
# Convention : Reuss Voigt Hill
#
# Bulk Modulus (GPa) = 19.75347 36.32227 28.03787
# Shear Modulus (GPa) = 8.74658 27.13770 17.94214
#
# Velocity S-wave (km/s) = 2.02005 3.55820 2.89322
# Velocity P-wave (km/s) = 3.82839 5.81608 4.92358
#
# Compressibility (1/GPa) = 0.05062403
#
# Stress axis : x y z
#
# Youngs Moduli (GPa) = 56.12877 32.07639 11.01173
#
# Poissons Ratio (x) = -0.29923 0.21403
# Poissons Ratio (y) = -0.52361 0.37971
# Poissons Ratio (z) = 1.09093 1.10608
#
# Static dielectric constant tensor:
#      x y z
#    x 2.132660 0.015240 -0.013500 
#    y 0.015240 1.757990 0.035440 
#    z -0.013500 0.035440 1.834000 
# 
# From -- ./inp_files/329554.got.cif
#   From: 2010.05.17/outbox.ucp.g08.bks.cvg/sg2_165_cif.got.tgz:329554.got - 2010.06.11 11:32:03.
