data_PCOD9073054
_publ_section_title
;
Structure prediction by ZEFSAII (Michael W. Deem and Ramdas Pophale) SiO2 
 PCOD9073054
Probable space group: P -1
;
_chemical_formula_sum "Si O2"
_cell_formula_units_Z 16
_cell_length_a 12.000000
_cell_length_b 9.000000
_cell_length_c 12.000000
_cell_angle_alpha 50.000000
_cell_angle_beta 70.000000
_cell_angle_gamma 50.000000
_cell_volume 754.912344
_symmetry_space_group_name_H-M "P -1"
_symmetry_group_IT_number 2
_symmetry_cell_setting 'triclinic'
loop_
_space_group_symop_operation_xyz
x,y,z
-x,-y,-z
loop_
_atom_site_type_symbol
_atom_site_label
_atom_site_fract_x
_atom_site_fract_y
_atom_site_fract_z
Si Si1 0.291119 0.269175 0.787215
Si Si2 0.700316 0.343133 0.135568
Si Si3 0.624386 0.227403 0.994627
Si Si4 0.160194 0.435472 0.981332
Si Si5 0.835216 0.609945 0.473115
Si Si6 0.663034 0.438339 0.683403
Si Si7 0.655386 0.086133 0.453245
Si Si8 0.373703 0.918250 0.273420
O O1 0.214058 0.441633 0.835299
O O2 0.201971 0.340197 0.668967
O O3 0.454207 0.188883 0.741787
O O4 0.308833 0.035262 0.939754
O O5 0.548297 0.610588 0.051960
O O6 0.828213 0.370248 0.052404
O O7 0.718031 0.215432 0.306992
O O8 0.664912 0.219056 0.112816
O O9 0.682366 0.350294 0.845054
O O10 0.000000 0.500000 0.000000
O O11 0.271246 0.177131 0.125515
O O12 0.801783 0.420742 0.604511
O O13 0.000000 0.500000 0.500000
O O14 0.728297 0.842493 0.475784
O O15 0.519414 0.712877 0.597007
O O16 0.637752 0.275614 0.693057
O O17 0.675723 0.051606 0.595326
#
# Coordination Sequence:
#
# PCOD9073054 Si02
#       8
#     2   2   2   2   2   2   2   2
#     4  12  23  48  70  97 135 179 235 283 333 401
#     4  10  22  40  68 103 131 172 228 279 337 393
#     4  10  20  40  72  96 129 171 231 290 320 390
#     4  12  28  44  67 102 143 183 219 278 352 414
#     4  12  29  45  66 101 146 183 223 283 348 410
#     4  11  24  43  70 102 131 182 235 283 339 395
#     4  11  24  43  71 101 132 179 233 286 331 401
#     4  12  25  44  74 104 135 178 235 288 330 406
#
# _framework density 21.194514000000002
#
# number of rings (size 3 to 8) (size 9 to 14) (size 15 to 20)
#    0.000    0.750    5.000    2.625    5.250    1.000 
#    0.000    2.500    0.000    0.000    0.000    0.000 
#    0.000    0.000    0.000    0.000    0.000    0.000 
#
# Total GULP energy -89319.164666 kJ/mol
# GULP energy per Si atom -5582.447792 kJ/mol
# Density = 2.114627 g / cm^3
# Si number density = 21.194514 Si / 1000 Ang^3
#
#
#
# Elastic Constant Matrix: (Units=GPa)
#
#
# Indices 1 2 3 4 5 6 
#
# 1 113.1821 18.0245 76.1744 -14.6566 -2.3587 -0.1608
# 2 18.0245 54.9687 39.3973 8.3295 5.2415 16.1752
# 3 76.1744 39.3973 113.5054 29.0116 3.7088 -3.5886
# 4 -14.6566 8.3295 29.0116 25.2806 12.6280 7.1076
# 5 -2.3587 5.2415 3.7088 12.6280 15.4593 8.4531
# 6 -0.1608 16.1752 -3.5886 7.1076 8.4531 -2.4194
#
#
#
# Elastic Compliance Matrix: (Units=1/GPa)
#
#
# Indices 1 2 3 4 5 6 
#
# 1 -0.033930 -0.000978 0.045969 -0.107769 0.097888 -0.047056
# 2 -0.000978 0.013941 -0.002502 -0.000640 -0.019155 0.028169
# 3 0.045969 -0.002502 -0.047451 0.121565 -0.104107 0.043987
# 4 -0.107769 -0.000640 0.121565 -0.234077 0.212628 -0.122188
# 5 0.097888 -0.019155 -0.104107 0.212628 -0.142590 0.146299
# 6 -0.047056 0.028169 0.043987 -0.122188 0.146299 -0.134917
#
#
# Mechanical properties :
#
#
# Convention : Reuss Voigt Hill
#
# Bulk Modulus (GPa) = 57.01985 60.98318 59.00151
# Shear Modulus (GPa) = -7.59699 17.53477 4.96889
#
# Velocity S-wave (km/s) = -1.89531 2.87945 1.53281
# Velocity P-wave (km/s) = 4.70871 6.31589 5.57057
#
# Compressibility (1/GPa) = 0.01753775
#
# Stress axis : x y z
#
# Youngs Moduli (GPa) = -29.47262 71.73285 -21.07442
#
# Poissons Ratio (x) = 0.07017 0.96877
# Poissons Ratio (y) = -0.02883 -0.05273
# Poissons Ratio (z) = 1.35483 0.17948
#
# Static dielectric constant tensor:
#      x y z
#    x 1.751870 -0.002390 -0.012840 
#    y -0.002390 1.256490 0.101820 
#    z -0.012840 0.101820 1.745900 
# 
# From -- ./inp_files/186635.got.cif
#   From: 2010.05.17/outbox.ucp.g08.bks.cvg/sg2_94_cif.got.tgz:186635.got - 2010.06.11 11:32:03.
