data_PCOD9073591
_publ_section_title
;
Structure prediction by ZEFSAII (Michael W. Deem and Ramdas Pophale) SiO2 
 PCOD9073591
Probable space group: P -1
;
_chemical_formula_sum "Si O2"
_cell_formula_units_Z 16
_cell_length_a 6.000000
_cell_length_b 15.000000
_cell_length_c 12.000000
_cell_angle_alpha 130.000000
_cell_angle_beta 90.000000
_cell_angle_gamma 110.000000
_cell_volume 740.289630
_symmetry_space_group_name_H-M "P -1"
_symmetry_group_IT_number 2
_symmetry_cell_setting 'triclinic'
loop_
_space_group_symop_operation_xyz
x,y,z
-x,-y,-z
loop_
_atom_site_type_symbol
_atom_site_label
_atom_site_fract_x
_atom_site_fract_y
_atom_site_fract_z
Si Si1 0.817632 0.300616 0.214032
Si Si2 0.661531 0.903072 0.019116
Si Si3 0.176565 0.490224 0.198271
Si Si4 0.458282 0.609605 0.522780
Si Si5 0.249734 0.247232 0.904463
Si Si6 0.181685 0.969408 0.392755
Si Si7 0.081761 0.169004 0.235883
Si Si8 0.588387 0.225321 0.680317
O O1 0.628675 0.155861 0.054928
O O2 0.703444 0.350297 0.356145
O O3 0.030656 0.271962 0.245499
O O4 0.913829 0.400438 0.189903
O O5 0.782383 0.890295 0.892837
O O6 0.663135 0.795528 0.017719
O O7 0.825028 0.049535 0.179689
O O8 0.344904 0.549232 0.355519
O O9 0.230407 0.625971 0.241909
O O10 0.229857 0.383015 0.039361
O O11 0.500000 0.500000 0.500000
O O12 0.713651 0.739645 0.604261
O O13 0.427014 0.248459 0.800563
O O14 0.988224 0.117918 0.777938
O O15 0.276297 0.863657 0.351524
O O16 0.403726 0.117740 0.503211
O O17 0.000000 0.000000 0.500000
#
# Coordination Sequence:
#
# PCOD9073591 Si02
#       8
#     2   2   2   2   2   2   2   2
#     4  11  22  43  61  96 136 172 220 277 325 398
#     4  10  22  39  66  95 130 174 218 274 331 387
#     4  12  24  42  68 102 137 181 219 275 339 393
#     4  11  23  43  62  93 139 174 223 272 326 396
#     4  11  23  44  67  99 137 173 222 280 329 393
#     4   9  22  49  68  90 133 167 223 285 326 392
#     4  10  21  41  64  93 130 177 223 269 327 392
#     4  10  24  46  70  99 130 175 226 272 337 404
#
# _framework density 21.613161999999999
#
# number of rings (size 3 to 8) (size 9 to 14) (size 15 to 20)
#    0.000    1.500    2.500    1.875    3.500    0.500 
#   15.750    0.000    0.000    0.000    0.000    0.000 
#    0.000    0.000    0.000    0.000    0.000    0.000 
#
# Total GULP energy -89074.483815 kJ/mol
# GULP energy per Si atom -5567.155238 kJ/mol
# Density = 2.156397 g / cm^3
# Si number density = 21.613162 Si / 1000 Ang^3
#
#
#
# Elastic Constant Matrix: (Units=GPa)
#
#
# Indices 1 2 3 4 5 6 
#
# 1 58.6486 13.8231 37.9532 11.2570 0.3884 4.0337
# 2 13.8231 97.4486 27.4572 31.8914 1.9023 4.3527
# 3 37.9532 27.4572 142.8646 32.7486 -0.1441 13.8079
# 4 11.2570 31.8914 32.7486 43.9801 2.2093 3.5317
# 5 0.3884 1.9023 -0.1441 2.2093 45.0139 13.6105
# 6 4.0337 4.3527 13.8079 3.5317 13.6105 28.1894
#
#
#
# Elastic Compliance Matrix: (Units=1/GPa)
#
#
# Indices 1 2 3 4 5 6 
#
# 1 0.020798 -0.001323 -0.005135 -0.000524 -0.000066 -0.000159
# 2 -0.001323 0.013575 -0.000019 -0.009435 0.000137 -0.000782
# 3 -0.005135 -0.000019 0.010153 -0.005971 0.001669 -0.004293
# 4 -0.000524 -0.009435 -0.005971 0.034163 -0.001576 0.000937
# 5 -0.000066 0.000137 0.001669 -0.001576 0.026327 -0.013343
# 6 -0.000159 -0.000782 -0.004293 0.000937 -0.013343 0.044045
#
#
# Mechanical properties :
#
#
# Convention : Reuss Voigt Hill
#
# Bulk Modulus (GPa) = 31.67603 50.82542 41.25072
# Shear Modulus (GPa) = 28.97875 38.08523 33.53199
#
# Velocity S-wave (km/s) = 3.66566 4.20233 3.94313
# Velocity P-wave (km/s) = 5.70997 6.86390 6.31335
#
# Compressibility (1/GPa) = 0.03156961
#
# Stress axis : x y z
#
# Youngs Moduli (GPa) = 48.08202 73.66594 98.49425
#
# Poissons Ratio (x) = 0.09750 0.50581
# Poissons Ratio (y) = 0.06364 0.00187
# Poissons Ratio (z) = 0.24692 0.00140
#
# Static dielectric constant tensor:
#      x y z
#    x 1.884960 0.020250 0.091010 
#    y 0.020250 1.809690 -0.006970 
#    z 0.091010 -0.006970 1.818760 
# 
# From -- ./inp_files/368076.got.cif
#   From: 2010.05.17/outbox.ucp.g08.bks.cvg/sg2_185_cif.got.tgz:368076.got - 2010.06.11 11:32:03.
