data_PCOD9073622
_publ_section_title
;
Structure prediction by ZEFSAII (Michael W. Deem and Ramdas Pophale) SiO2 
 PCOD9073622
Probable space group: P -1
;
_chemical_formula_sum "Si O2"
_cell_formula_units_Z 16
_cell_length_a 15.000000
_cell_length_b 9.000000
_cell_length_c 15.000000
_cell_angle_alpha 130.000000
_cell_angle_beta 40.000000
_cell_angle_gamma 100.000000
_cell_volume 759.999475
_symmetry_space_group_name_H-M "P -1"
_symmetry_group_IT_number 2
_symmetry_cell_setting 'triclinic'
loop_
_space_group_symop_operation_xyz
x,y,z
-x,-y,-z
loop_
_atom_site_type_symbol
_atom_site_label
_atom_site_fract_x
_atom_site_fract_y
_atom_site_fract_z
Si Si1 0.573346 0.154340 0.505296
Si Si2 0.471154 0.198128 0.169256
Si Si3 0.168464 0.061732 0.944273
Si Si4 0.867745 0.911225 0.341381
Si Si5 0.805846 0.774035 0.845906
Si Si6 0.794627 0.597314 0.382646
Si Si7 0.181380 0.609465 0.427281
Si Si8 0.757836 0.384965 0.162825
O O1 0.402969 0.449506 0.723654
O O2 0.500000 0.000000 0.500000
O O3 0.716748 0.063618 0.280924
O O4 0.691942 0.061450 0.468889
O O5 0.343298 0.261045 0.375132
O O6 0.355033 0.457580 0.301854
O O7 0.500000 0.000000 0.000000
O O8 0.671405 0.036798 0.994926
O O9 0.199338 0.851821 0.906467
O O10 0.236367 0.176799 0.998647
O O11 0.962109 0.304200 0.169248
O O12 0.861151 0.747154 0.356016
O O13 0.868388 0.129602 0.463060
O O14 0.052185 0.722728 0.069238
O O15 0.784527 0.576858 0.748671
O O16 0.010544 0.666631 0.632227
O O17 0.704029 0.580885 0.359138
#
# Coordination Sequence:
#
# PCOD9073622 Si02
#       8
#     2   2   2   2   2   2   2   2
#     4  12  26  43  65  97 138 174 209 267 334 392
#     4  10  22  41  67  91 122 169 222 275 317 373
#     4  12  24  41  71  95 129 174 222 269 319 390
#     4  12  25  43  64  98 140 174 211 266 336 394
#     4  10  21  41  67  94 122 163 225 271 316 370
#     4  12  23  42  66  94 141 172 209 273 334 387
#     4  10  22  42  68  91 128 168 216 274 320 383
#     4  12  24  43  66 101 130 173 222 266 324 396
#
# _framework density 21.052645999999999
#
# number of rings (size 3 to 8) (size 9 to 14) (size 15 to 20)
#    0.000    0.750    5.000    2.625    3.500    0.000 
#    0.000    3.125    0.000    0.000    0.000    0.000 
#    0.000    0.000    0.000    0.000    0.000    0.000 
#
# Total GULP energy -89381.427192 kJ/mol
# GULP energy per Si atom -5586.339200 kJ/mol
# Density = 2.100473 g / cm^3
# Si number density = 21.052646 Si / 1000 Ang^3
#
#
#
# Elastic Constant Matrix: (Units=GPa)
#
#
# Indices 1 2 3 4 5 6 
#
# 1 78.1620 -4.3452 17.1665 15.6914 -10.3603 -0.5155
# 2 -4.3452 72.5044 21.0500 16.7923 16.9069 1.0221
# 3 17.1665 21.0500 91.0067 16.2871 -5.9774 -2.1705
# 4 15.6914 16.7923 16.2871 23.9442 -8.5017 -5.4949
# 5 -10.3603 16.9069 -5.9774 -8.5017 41.6925 10.8247
# 6 -0.5155 1.0221 -2.1705 -5.4949 10.8247 25.7106
#
#
#
# Elastic Compliance Matrix: (Units=1/GPa)
#
#
# Indices 1 2 3 4 5 6 
#
# 1 0.016067 0.004612 -0.001806 -0.013213 -0.000106 -0.002793
# 2 0.004612 0.023062 -0.003179 -0.021715 -0.013025 -0.000250
# 3 -0.001806 -0.003179 0.013058 -0.004954 0.001872 -0.000655
# 4 -0.013213 -0.021715 -0.004954 0.077593 0.018280 0.009067
# 5 -0.000106 -0.013025 0.001872 0.018280 0.035980 -0.010568
# 6 -0.002793 -0.000250 -0.000655 0.009067 -0.010568 0.045180
#
#
# Mechanical properties :
#
#
# Convention : Reuss Voigt Hill
#
# Bulk Modulus (GPa) = 19.44035 34.37953 26.90994
# Shear Modulus (GPa) = 21.84974 32.12290 26.98632
#
# Velocity S-wave (km/s) = 3.22508 3.91043 3.58418
# Velocity P-wave (km/s) = 4.80858 6.06254 5.47160
#
# Compressibility (1/GPa) = 0.05143941
#
# Stress axis : x y z
#
# Youngs Moduli (GPa) = 62.23836 43.36205 76.57952
#
# Poissons Ratio (x) = -0.19997 0.13832
# Poissons Ratio (y) = -0.28702 0.24347
# Poissons Ratio (z) = 0.11242 0.13786
#
# Static dielectric constant tensor:
#      x y z
#    x 1.820650 0.026890 0.007710 
#    y 0.026890 1.731780 0.036820 
#    z 0.007710 0.036820 1.778050 
# 
# From -- ./inp_files/530121.got.cif
#   From: 2010.05.17/outbox.ucp.g08.bks.cvg/sg2_266_cif.got.tgz:530121.got - 2010.06.11 11:32:03.
