data_PCOD9073134
_publ_section_title
;
Structure prediction by ZEFSAII (Michael W. Deem and Ramdas Pophale) SiO2 
 PCOD9073134
Probable space group: P -1
;
_chemical_formula_sum "Si O2"
_cell_formula_units_Z 12
_cell_length_a 6.696981
_cell_length_b 12.751565
_cell_length_c 6.791461
_cell_angle_alpha 102.958107
_cell_angle_beta 64.911279
_cell_angle_gamma 122.040824
_cell_volume 445.239860
_symmetry_space_group_name_H-M "P -1"
_symmetry_group_IT_number 2
_symmetry_cell_setting 'triclinic'
loop_
_space_group_symop_operation_xyz
x,y,z
-x,-y,-z
loop_
_atom_site_type_symbol
_atom_site_label
_atom_site_fract_x
_atom_site_fract_y
_atom_site_fract_z
Si Si1 0.029245 0.230228 0.735549
Si Si2 0.476864 0.178855 0.816152
Si Si3 0.349628 0.549771 0.211339
Si Si4 0.307733 0.927296 0.866801
Si Si5 0.184008 0.492893 0.691566
Si Si6 0.427459 0.222231 0.300882
O O1 0.180051 0.378419 0.754054
O O2 0.176155 0.186303 0.511543
O O3 0.765888 0.205089 0.733195
O O4 0.951644 0.160452 0.947464
O O5 0.508811 0.301246 0.747861
O O6 0.317743 0.033412 0.767773
O O7 0.376077 0.184980 0.078964
O O8 0.246625 0.480477 0.432083
O O9 0.093603 0.521980 0.190669
O O10 0.500000 0.500000 0.000000
O O11 0.416717 0.841676 0.702339
O O12 0.500000 0.000000 0.000000
O O13 0.388393 0.630799 0.720095
#
# Coordination Sequence:
#
# PCOD9073134 Si02
#       6
#     2   2   2   2   2   2
#     4   9  17  30  51  76 102 126 159 207 248 286
#     4   9  20  34  50  76 102 129 168 203 240 296
#     4  10  21  37  53  69 102 137 161 203 253 293
#     4   8  18  31  47  76 104 127 163 203 243 292
#     4  10  21  33  50  80 100 125 172 204 241 299
#     4  10  18  31  53  77 101 129 162 205 250 289
#
# _framework density 26.951765000000002
#
# number of rings (size 3 to 8) (size 9 to 14) (size 15 to 20)
#    0.000    3.000    0.000    1.500    0.000   14.667 
#    0.000    0.833    0.000    2.000    0.000    0.000 
#    0.000    0.000    0.000    0.000    0.000    0.000 
#
# Total GULP energy -67271.800305 kJ/mol
# GULP energy per Si atom -5605.983359 kJ/mol
# Density = 2.689042 g / cm^3
# Si number density = 26.951765 Si / 1000 Ang^3
#
#
#
# Elastic Constant Matrix: (Units=GPa)
#
#
# Indices 1 2 3 4 5 6 
#
# 1 98.6907 51.6923 58.3433 -4.3200 -18.8340 -26.7270
# 2 51.6923 177.4493 57.2565 -25.1676 -15.1700 -50.7042
# 3 58.3433 57.2565 190.4701 -10.3419 -55.6307 -25.0112
# 4 -4.3200 -25.1676 -10.3419 44.5397 -9.8773 6.7373
# 5 -18.8340 -15.1700 -55.6307 -9.8773 54.7761 3.3414
# 6 -26.7270 -50.7042 -25.0112 6.7373 3.3414 45.2116
#
#
#
# Elastic Compliance Matrix: (Units=1/GPa)
#
#
# Indices 1 2 3 4 5 6 
#
# 1 0.014305 -0.001900 -0.002962 -0.000885 0.000935 0.004750
# 2 -0.001900 0.009517 -0.000394 0.004209 0.001819 0.008571
# 3 -0.002962 -0.000394 0.009245 0.003307 0.008749 0.001782
# 4 -0.000885 0.004209 0.003307 0.027330 0.009070 0.001284
# 5 0.000935 0.001819 0.008749 0.009070 0.029364 0.003911
# 6 0.004750 0.008571 0.001782 0.001284 0.003911 0.035044
#
#
# Mechanical properties :
#
#
# Convention : Reuss Voigt Hill
#
# Bulk Modulus (GPa) = 44.33370 89.02159 66.67764
# Shear Modulus (GPa) = 35.00549 48.85999 41.93274
#
# Velocity S-wave (km/s) = 3.60782 4.26240 3.94870
# Velocity P-wave (km/s) = 5.81723 7.57137 6.75151
#
# Compressibility (1/GPa) = 0.02255621
#
# Stress axis : x y z
#
# Youngs Moduli (GPa) = 69.90677 105.06994 108.16848
#
# Poissons Ratio (x) = 0.19960 0.32038
# Poissons Ratio (y) = 0.13280 0.04260
# Poissons Ratio (z) = 0.20706 0.04138
#
# Static dielectric constant tensor:
#      x y z
#    x 2.230440 0.016060 0.007090 
#    y 0.016060 2.106040 -0.009340 
#    z 0.007090 -0.009340 2.074510 
# 
# From -- ./inp_files/202900.got.cif
#   From: 2010.05.17/outbox.cif.g08.bks.cpg/sg2_102_cif.got.tgz:202900.got - 2010.06.03 11:33:40.
