data_PCOD9073374
_publ_section_title
;
Structure prediction by ZEFSAII (Michael W. Deem and Ramdas Pophale) SiO2 
 PCOD9073374
Probable space group: P -1
;
_chemical_formula_sum "Si O2"
_cell_formula_units_Z 16
_cell_length_a 15.000000
_cell_length_b 9.000000
_cell_length_c 27.000000
_cell_angle_alpha 50.000000
_cell_angle_beta 20.000000
_cell_angle_gamma 40.000000
_cell_volume 750.501489
_symmetry_space_group_name_H-M "P -1"
_symmetry_group_IT_number 2
_symmetry_cell_setting 'triclinic'
loop_
_space_group_symop_operation_xyz
x,y,z
-x,-y,-z
loop_
_atom_site_type_symbol
_atom_site_label
_atom_site_fract_x
_atom_site_fract_y
_atom_site_fract_z
Si Si1 0.352814 0.060562 0.393956
Si Si2 0.778051 0.640899 0.455520
Si Si3 0.352224 0.876967 0.534556
Si Si4 0.401922 0.762812 0.979738
Si Si5 0.688216 0.238910 0.243879
Si Si6 0.573898 0.911947 0.763131
Si Si7 0.689612 0.953676 0.858857
Si Si8 0.594598 0.267015 0.750510
O O1 0.480963 0.200318 0.322156
O O2 0.502043 0.989422 0.275422
O O3 0.951968 0.212964 0.570000
O O4 0.450373 0.860947 0.429122
O O5 0.664539 0.701506 0.444915
O O6 0.504167 0.656858 0.626773
O O7 0.092503 0.363899 0.358087
O O8 0.798975 0.848253 0.423783
O O9 0.070740 0.841774 0.693401
O O10 0.500000 0.500000 0.000000
O O11 0.395389 0.838224 0.909140
O O12 0.630207 0.797907 0.886890
O O13 0.020456 0.981529 0.143124
O O14 0.696743 0.446464 0.170436
O O15 0.599052 0.092299 0.745243
O O16 0.563859 0.188642 0.838290
O O17 0.500000 0.000000 0.000000
#
# Coordination Sequence:
#
# PCOD9073374 Si02
#       8
#     2   2   2   2   2   2   2   2
#     4  10  21  39  68 101 126 167 221 275 321 382
#     4  10  21  38  72 100 127 175 219 267 338 383
#     4   9  21  38  65  98 130 169 227 268 313 402
#     4  11  28  46  62  95 140 176 216 274 333 389
#     4  11  23  42  70  94 129 180 220 261 329 402
#     4  11  24  40  68  98 135 172 208 280 335 379
#     4  10  22  41  66  93 130 180 219 266 324 392
#     4  10  22  42  66  98 133 165 221 276 325 390
#
# _framework density 21.319078000000001
#
# number of rings (size 3 to 8) (size 9 to 14) (size 15 to 20)
#    0.000    1.750    1.250    1.500   10.500    2.500 
#    2.250    3.125    0.000    0.000    0.000    0.000 
#    0.000    0.000    0.000    0.000    0.000    0.000 
#
# Total GULP energy -89213.771598 kJ/mol
# GULP energy per Si atom -5575.860725 kJ/mol
# Density = 2.127056 g / cm^3
# Si number density = 21.319078 Si / 1000 Ang^3
#
#
#
# Elastic Constant Matrix: (Units=GPa)
#
#
# Indices 1 2 3 4 5 6 
#
# 1 91.8825 -38.9201 -43.0402 -30.0977 3.0350 3.5722
# 2 -38.9201 17.5287 -56.6499 -30.8245 -33.0130 29.5781
# 3 -43.0402 -56.6499 -47.5882 -32.6881 -6.1395 28.1288
# 4 -30.0977 -30.8245 -32.6881 30.4675 -6.6732 7.6339
# 5 3.0350 -33.0130 -6.1395 -6.6732 34.4363 -2.6615
# 6 3.5722 29.5781 28.1288 7.6339 -2.6615 7.0922
#
#
#
# Elastic Compliance Matrix: (Units=1/GPa)
#
#
# Indices 1 2 3 4 5 6 
#
# 1 0.009449 -0.001703 -0.002487 0.002281 -0.001764 0.009088
# 2 -0.001703 0.016192 -0.016331 -0.001007 0.012877 0.004016
# 3 -0.002487 -0.016331 0.015424 -0.008427 -0.013374 0.012238
# 4 0.002281 -0.001007 -0.008427 0.022198 0.002683 0.013587
# 5 -0.001764 0.012877 -0.013374 0.002683 0.040648 0.012597
# 6 0.009088 0.004016 0.012238 0.013587 0.012597 0.061237
#
#
# Mechanical properties :
#
#
# Convention : Reuss Voigt Hill
#
# Bulk Modulus (GPa) = 40694.00069 -23.93304 20335.03383
# Shear Modulus (GPa) = 24.24847 27.76141 26.00494
#
# Velocity S-wave (km/s) = 3.37621 3.61250 3.49635
# Velocity P-wave (km/s) = 138.36439 2.47986 97.85411
#
# Compressibility (1/GPa) = 0.00002457
#
# Stress axis : x y z
#
# Youngs Moduli (GPa) = 105.82690 61.75764 64.83289
#
# Poissons Ratio (x) = 0.10515 0.16123
# Poissons Ratio (y) = 0.18018 1.05880
# Poissons Ratio (z) = 0.26318 1.00858
#
# Static dielectric constant tensor:
#      x y z
#    x 1.743240 -0.029580 -0.053780 
#    y -0.029580 1.779790 -0.020630 
#    z -0.053780 -0.020630 1.701650 
# 
# From -- ./inp_files/619253.got.cif
#   From: 2010.05.17/outbox.ucp.g08.bks.cvg/sg2_310_cif.got.tgz:619253.got - 2010.06.11 11:32:03.
