data_PCOD9073768
_publ_section_title
;
Structure prediction by ZEFSAII (Michael W. Deem and Ramdas Pophale) SiO2 
 PCOD9073768
Probable space group: P -1
;
_chemical_formula_sum "Si O2"
_cell_formula_units_Z 16
_cell_length_a 6.000000
_cell_length_b 9.000000
_cell_length_c 15.000000
_cell_angle_alpha 100.000000
_cell_angle_beta 100.000000
_cell_angle_gamma 110.000000
_cell_volume 725.431091
_symmetry_space_group_name_H-M "P -1"
_symmetry_group_IT_number 2
_symmetry_cell_setting 'triclinic'
loop_
_space_group_symop_operation_xyz
x,y,z
-x,-y,-z
loop_
_atom_site_type_symbol
_atom_site_label
_atom_site_fract_x
_atom_site_fract_y
_atom_site_fract_z
Si Si1 0.005162 0.405815 0.135225
Si Si2 0.234258 0.259961 0.406829
Si Si3 0.349604 0.038041 0.267933
Si Si4 0.540951 0.328808 0.986180
Si Si5 0.172347 0.644272 0.683106
Si Si6 0.470286 0.732216 0.216375
Si Si7 0.368015 0.407689 0.615112
Si Si8 0.806900 0.877737 0.909757
O O1 0.214870 0.583642 0.163298
O O2 0.115274 0.266853 0.133185
O O3 0.889422 0.399230 0.223326
O O4 0.823209 0.371034 0.035661
O O5 0.224661 0.090224 0.347441
O O6 0.318503 0.283710 0.517186
O O7 0.406008 0.426700 0.382990
O O8 0.977857 0.273091 0.374358
O O9 0.565209 0.211165 0.281268
O O10 0.206592 0.013634 0.163086
O O11 0.434881 0.889753 0.269205
O O12 0.430938 0.238577 0.875651
O O13 0.500000 0.500000 0.000000
O O14 0.418893 0.214674 0.050387
O O15 0.157043 0.478713 0.617623
O O16 0.594561 0.662742 0.294666
O O17 0.000000 0.000000 0.000000
#
# Coordination Sequence:
#
# PCOD9073768 Si02
#       8
#     2   2   2   2   2   2   2   2
#     4  12  23  44  66  92 131 173 217 262 319 385
#     4  10  21  43  71  92 127 171 217 266 323 387
#     4  11  25  42  63  97 134 167 213 269 322 385
#     4  12  26  42  66  95 131 171 217 267 314 383
#     4  11  20  42  70  93 126 169 219 265 319 386
#     4  12  25  43  64  98 137 170 213 272 325 380
#     4  10  22  42  68  99 124 167 220 269 321 384
#     4  12  26  43  66  95 130 176 218 261 321 385
#
# _framework density 22.055851000000001
#
# number of rings (size 3 to 8) (size 9 to 14) (size 15 to 20)
#    0.000    0.750    5.000    3.000    3.500    1.500 
#    2.250    0.625    0.000    0.000    0.000    0.000 
#    0.000    0.000    0.000    0.000    0.000    0.000 
#
# Total GULP energy -89227.197460 kJ/mol
# GULP energy per Si atom -5576.699841 kJ/mol
# Density = 2.200565 g / cm^3
# Si number density = 22.055851 Si / 1000 Ang^3
#
#
#
# Elastic Constant Matrix: (Units=GPa)
#
#
# Indices 1 2 3 4 5 6 
#
# 1 17.2965 -21.8306 3.2818 4.1239 -20.8601 -14.9018
# 2 -21.8306 -2.5022 -14.9887 15.6174 -42.1042 -20.2974
# 3 3.2818 -14.9887 81.8180 7.2718 -3.1675 -23.2314
# 4 4.1239 15.6174 7.2718 26.7887 -3.5249 -3.0303
# 5 -20.8601 -42.1042 -3.1675 -3.5249 4.3331 9.8730
# 6 -14.9018 -20.2974 -23.2314 -3.0303 9.8730 26.8956
#
#
#
# Elastic Compliance Matrix: (Units=1/GPa)
#
#
# Indices 1 2 3 4 5 6 
#
# 1 0.028551 -0.013436 -0.001274 0.002705 -0.018107 0.011531
# 2 -0.013436 0.006389 0.003798 -0.004907 -0.024771 0.009199
# 3 -0.001274 0.003798 0.020551 -0.007503 -0.022910 0.027476
# 4 0.002705 -0.004907 -0.007503 0.043519 0.023723 -0.012490
# 5 -0.018107 -0.024771 -0.022910 0.023723 0.060646 -0.068104
# 6 0.011531 0.009199 0.027476 -0.012490 -0.068104 0.097837
#
#
# Mechanical properties :
#
#
# Convention : Reuss Voigt Hill
#
# Bulk Modulus (GPa) = 29.70115 3.28193 16.49154
# Shear Modulus (GPa) = 17.20945 20.28013 18.74479
#
# Velocity S-wave (km/s) = 2.79636 3.03560 2.91843
# Velocity P-wave (km/s) = 4.89098 3.71183 4.34163
#
# Compressibility (1/GPa) = 0.03366873
#
# Stress axis : x y z
#
# Youngs Moduli (GPa) = 35.02481 156.51041 48.66031
#
# Poissons Ratio (x) = 2.10282 0.06199
# Poissons Ratio (y) = 0.47058 -0.18483
# Poissons Ratio (z) = 0.04462 -0.59449
#
# Static dielectric constant tensor:
#      x y z
#    x 2.033550 0.068770 -0.103370 
#    y 0.068770 1.784990 -0.103230 
#    z -0.103370 -0.103230 2.081070 
# 
# From -- ./inp_files/38094.got.cif
#   From: 2010.05.17/outbox.ucp.g08.bks.cvg/sg2_20_cif.got.tgz:38094.got - 2010.06.11 11:32:03.
