data_PCOD9073910
_publ_section_title
;
Structure prediction by ZEFSAII (Michael W. Deem and Ramdas Pophale) SiO2 
 PCOD9073910
Probable space group: P -1
;
_chemical_formula_sum "Si O2"
_cell_formula_units_Z 13
_cell_length_a 15.801757
_cell_length_b 10.460842
_cell_length_c 11.865070
_cell_angle_alpha 35.098364
_cell_angle_beta 36.549110
_cell_angle_gamma 24.559571
_cell_volume 454.110655
_symmetry_space_group_name_H-M "P -1"
_symmetry_group_IT_number 2
_symmetry_cell_setting 'triclinic'
loop_
_space_group_symop_operation_xyz
x,y,z
-x,-y,-z
loop_
_atom_site_type_symbol
_atom_site_label
_atom_site_fract_x
_atom_site_fract_y
_atom_site_fract_z
Si Si1 0.073976 0.521675 0.022619
Si Si2 0.500000 0.000000 0.000000
Si Si3 0.341519 0.282309 0.200752
Si Si4 0.763751 0.460286 0.645338
Si Si5 0.854647 0.032473 0.543442
Si Si6 0.135091 0.145355 0.782666
Si Si7 0.465879 0.660901 0.618824
O O1 0.899061 0.842979 0.054353
O O2 0.147407 0.224063 0.234458
O O3 0.298686 0.377746 0.885447
O O4 0.000000 0.500000 0.000000
O O5 0.529084 0.834124 0.967330
O O6 0.352723 0.427941 0.191934
O O7 0.095629 0.571317 0.227033
O O8 0.401466 0.965562 0.406904
O O9 0.764040 0.725826 0.428905
O O10 0.630547 0.506835 0.655823
O O11 0.008914 0.110322 0.613831
O O12 0.615885 0.371021 0.576147
O O13 0.000000 0.000000 0.500000
O O14 0.261460 0.837468 0.786375
#
# Coordination Sequence:
#
# PCOD9073910 Si02
#       7
#     2   1   2   2   2   2   2
#     4  10  22  39  64  81 123 162 194 245 287 363
#     4  10  24  36  58  90 116 156 210 222 298 360
#     4  10  19  34  54  81 116 150 194 246 275 357
#     4   9  17  30  55  81 110 145 193 238 285 339
#     4   9  20  36  58  94 115 146 204 242 302 343
#     4   9  18  33  51  86 106 150 200 231 291 345
#     4  10  18  31  60  82 113 145 195 250 289 333
#
# _framework density 28.627382999999998
#
# number of rings (size 3 to 8) (size 9 to 14) (size 15 to 20)
#    0.000    2.462    0.000    3.692    8.615    0.000 
#    0.000   13.077    0.000    2.769    0.000    0.000 
#    0.000    0.000    0.000    0.000    0.000    0.000 
#
# Total GULP energy -72482.782510 kJ/mol
# GULP energy per Si atom -5575.598655 kJ/mol
# Density = 2.856223 g / cm^3
# Si number density = 28.627383 Si / 1000 Ang^3
#
#
#
# Elastic Constant Matrix: (Units=GPa)
#
#
# Indices 1 2 3 4 5 6 
#
# 1 121.9153 43.6001 40.6872 11.1492 38.7867 2.3446
# 2 43.6001 256.7706 60.0596 43.6047 23.2530 36.1167
# 3 40.6872 60.0596 130.5670 31.1449 30.4176 23.0676
# 4 11.1492 43.6047 31.1449 39.2625 17.7018 8.6993
# 5 38.7867 23.2530 30.4176 17.7018 50.2464 5.4220
# 6 2.3446 36.1167 23.0676 8.6993 5.4220 51.0125
#
#
#
# Elastic Compliance Matrix: (Units=1/GPa)
#
#
# Indices 1 2 3 4 5 6 
#
# 1 0.011854 -0.001603 -0.002139 0.003562 -0.008570 0.001861
# 2 -0.001603 0.005444 -0.000579 -0.005030 0.001141 -0.002783
# 3 -0.002139 -0.000579 0.011105 -0.005737 -0.002429 -0.003277
# 4 0.003562 -0.005030 -0.005737 0.039404 -0.010877 0.000428
# 5 -0.008570 0.001141 -0.002429 -0.010877 0.031378 -0.000796
# 6 0.001861 -0.002783 -0.003277 0.000428 -0.000796 0.022981
#
#
# Mechanical properties :
#
#
# Convention : Reuss Voigt Hill
#
# Bulk Modulus (GPa) = 50.60224 88.66074 69.63149
# Shear Modulus (GPa) = 36.39108 52.43136 44.41122
#
# Velocity S-wave (km/s) = 3.56925 4.28426 3.94300
# Velocity P-wave (km/s) = 5.89073 7.45057 6.71609
#
# Compressibility (1/GPa) = 0.01976197
#
# Stress axis : x y z
#
# Youngs Moduli (GPa) = 84.35664 183.67294 90.04883
#
# Poissons Ratio (x) = 0.29448 0.19257
# Poissons Ratio (y) = 0.13525 0.05216
# Poissons Ratio (z) = 0.18040 0.10638
#
# Static dielectric constant tensor:
#      x y z
#    x 2.074620 0.148990 0.189500 
#    y 0.148990 2.227610 -0.139000 
#    z 0.189500 -0.139000 2.094640 
# 
# From -- ./inp_files/239507.got.cif
#   From: 2010.05.17/outbox.cif.g08.bks.cpg/sg2_120_cif.got.tgz:239507.got - 2010.06.03 11:33:40.
