data_PCOD9073719
_publ_section_title
;
Structure prediction by ZEFSAII (Michael W. Deem and Ramdas Pophale) SiO2 
 PCOD9073719
Probable space group: P -1
;
_chemical_formula_sum "Si O2"
_cell_formula_units_Z 14
_cell_length_a 10.275646
_cell_length_b 6.673951
_cell_length_c 13.348153
_cell_angle_alpha 94.072002
_cell_angle_beta 32.173946
_cell_angle_gamma 89.990793
_cell_volume 483.074939
_symmetry_space_group_name_H-M "P -1"
_symmetry_group_IT_number 2
_symmetry_cell_setting 'triclinic'
loop_
_space_group_symop_operation_xyz
x,y,z
-x,-y,-z
loop_
_atom_site_type_symbol
_atom_site_label
_atom_site_fract_x
_atom_site_fract_y
_atom_site_fract_z
Si Si1 0.046782 0.317436 0.554326
Si Si2 0.897890 0.907549 0.685992
Si Si3 0.310309 0.892316 0.764777
Si Si4 0.637095 0.991406 0.044423
Si Si5 0.720895 0.765485 0.329282
Si Si6 0.206994 0.566416 0.091954
Si Si7 0.446623 0.488222 0.742700
O O1 0.009442 0.267009 0.459652
O O2 0.300715 0.412700 0.406121
O O3 0.828010 0.439867 0.765812
O O4 0.066523 0.089160 0.579700
O O5 0.641158 0.013866 0.810981
O O6 0.829266 0.854945 0.842519
O O7 0.541481 0.840305 0.538431
O O8 0.252581 0.672660 0.831777
O O9 0.353016 0.008583 0.843165
O O10 0.153810 0.052678 0.800032
O O11 0.683857 0.220597 0.990504
O O12 0.555788 0.675962 0.348079
O O13 0.929256 0.602365 0.231784
O O14 0.363172 0.424744 0.905218
#
# Coordination Sequence:
#
# PCOD9073719 Si02
#       7
#     2   2   2   2   2   2   2
#     4  10  18  31  56  85 113 142 192 227 281 331
#     4   9  16  30  54  86 107 144 186 238 273 331
#     4  10  21  37  57  84 111 154 188 229 270 345
#     4   9  17  31  54  81 112 141 192 228 279 325
#     4  11  22  36  57  82 121 149 186 227 282 324
#     4  10  19  33  54  87 114 146 188 227 271 348
#     4  11  21  37  57  84 118 149 184 232 273 337
#
# _framework density 28.981013999999998
#
# number of rings (size 3 to 8) (size 9 to 14) (size 15 to 20)
#    0.000    2.000    4.286    0.857    0.000    2.286 
#    0.000    0.000    0.000    1.714    0.000    0.000 
#    0.000    0.000    0.000    0.000    0.000    0.000 
#
# Total GULP energy -78385.286181 kJ/mol
# GULP energy per Si atom -5598.949013 kJ/mol
# Density = 2.891505 g / cm^3
# Si number density = 28.981014 Si / 1000 Ang^3
#
#
#
# Elastic Constant Matrix: (Units=GPa)
#
#
# Indices 1 2 3 4 5 6 
#
# 1 118.4986 50.2394 83.9883 9.4344 48.4948 22.6836
# 2 50.2394 113.2030 63.6874 20.5230 19.7890 41.5446
# 3 83.9883 63.6874 210.8822 13.8690 56.1300 29.8358
# 4 9.4344 20.5230 13.8690 52.3306 9.7812 13.5007
# 5 48.4948 19.7890 56.1300 9.7812 75.2287 0.8186
# 6 22.6836 41.5446 29.8358 13.5007 0.8186 66.9819
#
#
#
# Elastic Compliance Matrix: (Units=1/GPa)
#
#
# Indices 1 2 3 4 5 6 
#
# 1 0.014954 -0.003324 -0.002998 0.001113 -0.006653 -0.001810
# 2 -0.003324 0.014161 -0.001974 -0.002894 0.000335 -0.006198
# 3 -0.002998 -0.001974 0.007521 0.000202 -0.003174 -0.001112
# 4 0.001113 -0.002894 0.000202 0.021276 -0.002841 -0.002925
# 5 -0.006653 0.000335 -0.003174 -0.002841 0.020190 0.003785
# 6 -0.001810 -0.006198 -0.001112 -0.002925 0.003785 0.020426
#
#
# Mechanical properties :
#
#
# Convention : Reuss Voigt Hill
#
# Bulk Modulus (GPa) = 49.89427 93.15711 71.52569
# Shear Modulus (GPa) = 41.05033 55.21951 48.13492
#
# Velocity S-wave (km/s) = 3.76767 4.36979 4.07985
# Velocity P-wave (km/s) = 6.01504 7.59434 6.85035
#
# Compressibility (1/GPa) = 0.02004238
#
# Stress axis : x y z
#
# Youngs Moduli (GPa) = 66.87212 70.61734 132.95868
#
# Poissons Ratio (x) = 0.23476 0.39860
# Poissons Ratio (y) = 0.22231 0.26252
# Poissons Ratio (z) = 0.20048 0.13943
#
# Static dielectric constant tensor:
#      x y z
#    x 2.239050 -0.065730 0.003880 
#    y -0.065730 2.325750 0.052170 
#    z 0.003880 0.052170 2.260950 
# 
# From -- ./inp_files/515834.got.cif
#   From: 2010.05.17/outbox.cif.g08.bks.cpg/sg2_258_cif.got.tgz:515834.got - 2010.06.03 11:33:40.
