data_PCOD9073527
_publ_section_title
;
Structure prediction by ZEFSAII (Michael W. Deem and Ramdas Pophale) SiO2 
 PCOD9073527
Probable space group: P -1
;
_chemical_formula_sum "Si O2"
_cell_formula_units_Z 16
_cell_length_a 7.816031
_cell_length_b 14.795364
_cell_length_c 7.928358
_cell_angle_alpha 64.097772
_cell_angle_beta 63.451259
_cell_angle_gamma 50.932910
_cell_volume 620.692810
_symmetry_space_group_name_H-M "P -1"
_symmetry_group_IT_number 2
_symmetry_cell_setting 'triclinic'
loop_
_space_group_symop_operation_xyz
x,y,z
-x,-y,-z
loop_
_atom_site_type_symbol
_atom_site_label
_atom_site_fract_x
_atom_site_fract_y
_atom_site_fract_z
Si Si1 0.904497 0.430504 0.317421
Si Si2 0.904227 0.761460 0.320580
Si Si3 0.740708 0.022124 0.292747
Si Si4 0.765297 0.275310 0.372566
Si Si5 0.700854 0.883669 0.818954
Si Si6 0.389425 0.883249 0.351754
Si Si7 0.270002 0.752640 0.963530
Si Si8 0.699032 0.666049 0.062118
O O1 0.726192 0.398476 0.352769
O O2 0.788632 0.571989 0.250600
O O3 0.998434 0.350930 0.507311
O O4 0.110829 0.383675 0.130068
O O5 0.649696 0.805999 0.352480
O O6 0.072455 0.731796 0.115266
O O7 0.880171 0.881401 0.311245
O O8 0.486954 0.073892 0.283446
O O9 0.735524 0.050842 0.469235
O O10 0.812603 0.107813 0.109040
O O11 0.694021 0.204118 0.582697
O O12 0.037590 0.193440 0.290786
O O13 0.653842 0.289265 0.227670
O O14 0.670505 0.000733 0.823926
O O15 0.657617 0.794485 0.015227
O O16 0.475780 0.684853 0.057990
#
# Coordination Sequence:
#
# PCOD9073527 Si02
#       8
#     2   2   2   2   2   2   2   2
#     4  10  20  36  61  78  98 138 191 220 246 308
#     4  11  20  34  54  80 106 142 179 214 259 316
#     4   9  17  33  54  76 106 143 178 213 257 317
#     4  10  19  33  52  81 110 137 168 217 270 313
#     4   9  16  30  54  79 101 131 175 219 255 298
#     4  10  18  31  55  82 110 135 172 219 263 312
#     4  10  21  34  52  78 114 139 167 217 277 315
#     4   9  19  37  57  78 101 140 183 220 254 307
#
# _framework density 25.777647999999999
#
# number of rings (size 3 to 8) (size 9 to 14) (size 15 to 20)
#    0.000    2.250    0.000    6.750    0.000    2.000 
#    0.000    7.500    0.000    7.500    0.000    0.000 
#    0.000    0.000    0.000    0.000    0.000    0.000 
#
# Total GULP energy -89568.759686 kJ/mol
# GULP energy per Si atom -5598.047480 kJ/mol
# Density = 2.571898 g / cm^3
# Si number density = 25.777648 Si / 1000 Ang^3
#
#
#
# Elastic Constant Matrix: (Units=GPa)
#
#
# Indices 1 2 3 4 5 6 
#
# 1 95.2907 16.7802 24.3862 -15.4200 -16.0987 -9.7981
# 2 16.7802 97.9308 39.5488 -39.5856 -2.8573 7.2621
# 3 24.3862 39.5488 121.5788 -41.5675 -14.5543 -6.3403
# 4 -15.4200 -39.5856 -41.5675 49.5965 5.8458 3.9275
# 5 -16.0987 -2.8573 -14.5543 5.8458 50.0031 -3.8014
# 6 -9.7981 7.2621 -6.3403 3.9275 -3.8014 20.9653
#
#
#
# Elastic Compliance Matrix: (Units=1/GPa)
#
#
# Indices 1 2 3 4 5 6 
#
# 1 0.012564 -0.001972 -0.000809 0.000615 0.004153 0.006948
# 2 -0.001972 0.017012 -0.001610 0.012698 -0.002385 -0.010112
# 3 -0.000809 -0.001610 0.012122 0.008117 0.002437 0.002767
# 4 0.000615 0.012698 0.008117 0.038239 -0.001881 -0.009161
# 5 0.004153 -0.002385 0.002437 -0.001881 0.022736 0.007979
# 6 0.006948 -0.010112 0.002767 -0.009161 0.007979 0.058447
#
#
# Mechanical properties :
#
#
# Convention : Reuss Voigt Hill
#
# Bulk Modulus (GPa) = 30.37884 52.91452 41.64668
# Shear Modulus (GPa) = 27.64353 39.71864 33.68108
#
# Velocity S-wave (km/s) = 3.27828 3.92958 3.61861
# Velocity P-wave (km/s) = 5.11273 6.41566 5.80089
#
# Compressibility (1/GPa) = 0.03291765
#
# Stress axis : x y z
#
# Youngs Moduli (GPa) = 79.59259 58.78061 82.49230
#
# Poissons Ratio (x) = 0.11589 0.06674
# Poissons Ratio (y) = 0.15692 0.13281
# Poissons Ratio (z) = 0.06439 0.09463
#
# Static dielectric constant tensor:
#      x y z
#    x 1.982500 0.034720 -0.005740 
#    y 0.034720 2.067120 0.026100 
#    z -0.005740 0.026100 2.098820 
# 
# From -- ./inp_files/216628.got.cif
#   From: 2010.05.17/outbox.cif.g08.bks.cpg/sg2_109_cif.got.tgz:216628.got - 2010.06.03 11:33:40.
