data_PCOD9073894
_publ_section_title
;
Structure prediction by ZEFSAII (Michael W. Deem and Ramdas Pophale) SiO2 
 PCOD9073894
Probable space group: P -1
;
_chemical_formula_sum "Si O2"
_cell_formula_units_Z 14
_cell_length_a 14.178038
_cell_length_b 7.677111
_cell_length_c 5.675730
_cell_angle_alpha 122.143856
_cell_angle_beta 70.244379
_cell_angle_gamma 109.127044
_cell_volume 483.753521
_symmetry_space_group_name_H-M "P -1"
_symmetry_group_IT_number 2
_symmetry_cell_setting 'triclinic'
loop_
_space_group_symop_operation_xyz
x,y,z
-x,-y,-z
loop_
_atom_site_type_symbol
_atom_site_label
_atom_site_fract_x
_atom_site_fract_y
_atom_site_fract_z
Si Si1 0.973578 0.233782 0.701136
Si Si2 0.277400 0.269270 0.563778
Si Si3 0.579065 0.959871 0.203575
Si Si4 0.204553 0.177809 0.047298
Si Si5 0.759229 0.215453 0.674198
Si Si6 0.062364 0.746555 0.759633
Si Si7 0.423358 0.654825 0.866928
O O1 0.851596 0.233475 0.797423
O O2 0.003682 0.308127 0.462291
O O3 0.000000 0.000000 0.500000
O O4 0.997888 0.328144 0.007118
O O5 0.212725 0.300307 0.877431
O O6 0.384007 0.430124 0.621950
O O7 0.288726 0.028846 0.409405
O O8 0.219361 0.278313 0.370034
O O9 0.693777 0.929006 0.125753
O O10 0.500000 0.000000 0.500000
O O11 0.583834 0.162623 0.182176
O O12 0.527660 0.737451 0.971870
O O13 0.106053 0.995164 0.955354
O O14 0.827246 0.298627 0.448325
O O15 0.664843 0.327519 0.856920
#
# Coordination Sequence:
#
# PCOD9073894 Si02
#       7
#     2   2   2   2   2   2   2
#     4  10  18  31  59  91 116 152 195 237 292 356
#     4  11  23  40  63  86 115 163 203 241 304 348
#     4  11  24  39  61  85 124 156 206 250 300 347
#     4  11  21  42  59  85 123 158 198 254 288 351
#     4   9  20  39  60  83 124 149 199 246 295 348
#     4   9  17  33  58  81 119 153 185 241 291 341
#     4  11  24  41  59  90 115 163 199 252 298 355
#
# _framework density 28.940356000000001
#
# number of rings (size 3 to 8) (size 9 to 14) (size 15 to 20)
#    0.857    0.857    2.857    2.143    4.000    1.143 
#    0.000    0.000    0.000    0.857    0.000    4.000 
#    0.000    0.000    0.000    0.000    0.000    0.000 
#
# Total GULP energy -78119.739402 kJ/mol
# GULP energy per Si atom -5579.981386 kJ/mol
# Density = 2.887449 g / cm^3
# Si number density = 28.940356 Si / 1000 Ang^3
#
#
#
# Elastic Constant Matrix: (Units=GPa)
#
#
# Indices 1 2 3 4 5 6 
#
# 1 135.4758 25.0840 34.8772 11.1212 16.6908 21.8167
# 2 25.0840 141.6667 68.1452 -8.3402 6.8999 19.4450
# 3 34.8772 68.1452 228.8646 -40.8788 22.8537 -0.0167
# 4 11.1212 -8.3402 -40.8788 69.1834 9.9940 16.0410
# 5 16.6908 6.8999 22.8537 9.9940 39.9955 3.7625
# 6 21.8167 19.4450 -0.0167 16.0410 3.7625 38.5070
#
#
#
# Elastic Compliance Matrix: (Units=1/GPa)
#
#
# Indices 1 2 3 4 5 6 
#
# 1 0.008778 -0.000358 -0.001141 -0.000809 -0.002349 -0.004226
# 2 -0.000358 0.009007 -0.002538 0.000679 0.000315 -0.004660
# 3 -0.001141 -0.002538 0.006409 0.004076 -0.003824 0.000607
# 4 -0.000809 0.000679 0.004076 0.019724 -0.006333 -0.007480
# 5 -0.002349 0.000315 -0.003824 -0.006333 0.029610 0.000916
# 6 -0.004226 -0.004660 0.000607 -0.007480 0.000916 0.033744
#
#
# Mechanical properties :
#
#
# Convention : Reuss Voigt Hill
#
# Bulk Modulus (GPa) = 62.03773 84.69110 73.36442
# Shear Modulus (GPa) = 41.41808 54.73055 48.07432
#
# Velocity S-wave (km/s) = 3.78716 4.35345 4.08014
# Velocity P-wave (km/s) = 6.37232 7.38902 6.89942
#
# Compressibility (1/GPa) = 0.01611922
#
# Stress axis : x y z
#
# Youngs Moduli (GPa) = 113.92095 111.02069 156.03418
#
# Poissons Ratio (x) = 0.03980 0.17807
# Poissons Ratio (y) = 0.04084 0.39598
# Poissons Ratio (z) = 0.13001 0.28175
#
# Static dielectric constant tensor:
#      x y z
#    x 2.259150 -0.083450 -0.012540 
#    y -0.083450 2.323880 0.043740 
#    z -0.012540 0.043740 2.589560 
# 
# From -- ./inp_files/107574.got.cif
#   From: 2010.05.17/outbox.cif.g08.bks.cpg/sg2_54_cif.got.tgz:107574.got - 2010.06.03 11:33:40.
