data_PCOD9073227
_publ_section_title
;
Structure prediction by ZEFSAII (Michael W. Deem and Ramdas Pophale) SiO2 
 PCOD9073227
Probable space group: P -1
;
_chemical_formula_sum "Si O2"
_cell_formula_units_Z 16
_cell_length_a 8.634777
_cell_length_b 7.310192
_cell_length_c 16.802256
_cell_angle_alpha 128.271270
_cell_angle_beta 71.069363
_cell_angle_gamma 78.303301
_cell_volume 661.094476
_symmetry_space_group_name_H-M "P -1"
_symmetry_group_IT_number 2
_symmetry_cell_setting 'triclinic'
loop_
_space_group_symop_operation_xyz
x,y,z
-x,-y,-z
loop_
_atom_site_type_symbol
_atom_site_label
_atom_site_fract_x
_atom_site_fract_y
_atom_site_fract_z
Si Si1 0.722366 0.570082 0.280032
Si Si2 0.195716 0.668982 0.161578
Si Si3 0.839229 0.843936 0.955826
Si Si4 0.922592 0.821100 0.112876
Si Si5 0.111698 0.140958 0.596251
Si Si6 0.239769 0.544123 0.354797
Si Si7 0.452967 0.672382 0.634987
Si Si8 0.468088 0.554166 0.856264
O O1 0.721401 0.829066 0.385825
O O2 0.629153 0.463715 0.328797
O O3 0.626580 0.582761 0.214731
O O4 0.954404 0.353868 0.173379
O O5 0.239828 0.356037 0.070229
O O6 0.396439 0.632009 0.144261
O O7 0.090279 0.809444 0.134791
O O8 0.033524 0.830508 0.301338
O O9 0.876345 0.929079 0.059504
O O10 0.693617 0.128222 0.012566
O O11 0.724965 0.006525 0.246649
O O12 0.000000 0.500000 0.000000
O O13 0.969846 0.382369 0.621343
O O14 0.200449 0.847443 0.460757
O O15 0.354355 0.368783 0.366228
O O16 0.388201 0.423140 0.223661
O O17 0.500000 0.500000 0.500000
#
# Coordination Sequence:
#
# PCOD9073227 Si02
#       8
#     2   2   2   2   2   2   2   2
#     4  10  21  35  59  83 114 152 189 245 293 345
#     4   9  19  32  54  82 111 151 191 237 283 341
#     4  10  18  35  58  80 111 149 196 234 291 341
#     4  10  20  36  57  83 120 156 193 238 293 342
#     4   9  18  35  56  86 116 146 192 240 293 337
#     4   9  18  34  58  84 113 148 190 240 279 353
#     4  11  22  37  60  84 114 155 202 239 292 354
#     4  10  18  31  53  85 109 144 194 235 276 339
#
# _framework density 24.202286999999998
#
# number of rings (size 3 to 8) (size 9 to 14) (size 15 to 20)
#    0.000    2.250    2.500    1.500    0.000    2.000 
#    0.000    1.250    0.000    3.000    0.000    0.000 
#    0.000    0.000    0.000    0.000    0.000    0.000 
#
# Total GULP energy -89394.636717 kJ/mol
# GULP energy per Si atom -5587.164795 kJ/mol
# Density = 2.414720 g / cm^3
# Si number density = 24.202287 Si / 1000 Ang^3
#
#
#
# Elastic Constant Matrix: (Units=GPa)
#
#
# Indices 1 2 3 4 5 6 
#
# 1 109.8374 28.4972 28.8552 9.9458 6.1246 -35.9856
# 2 28.4972 48.6862 35.3713 -1.4779 -10.3321 -23.0313
# 3 28.8552 35.3713 127.7543 -4.1795 -2.3047 -21.3014
# 4 9.9458 -1.4779 -4.1795 26.5184 -6.4783 -2.4936
# 5 6.1246 -10.3321 -2.3047 -6.4783 33.4415 4.3105
# 6 -35.9856 -23.0313 -21.3014 -2.4936 4.3105 47.2921
#
#
#
# Elastic Compliance Matrix: (Units=1/GPa)
#
#
# Indices 1 2 3 4 5 6 
#
# 1 0.014433 -0.005780 -0.000645 -0.006739 -0.006829 0.008144
# 2 -0.005780 0.035895 -0.006630 0.006893 0.011818 0.009383
# 3 -0.000645 -0.006630 0.009988 0.001262 -0.001119 0.000948
# 4 -0.006739 0.006893 0.001262 0.043734 0.011921 0.000017
# 5 -0.006829 0.011818 -0.001119 0.011921 0.037388 -0.002724
# 6 0.008144 0.009383 0.000948 0.000017 -0.002724 0.032587
#
#
# Mechanical properties :
#
#
# Convention : Reuss Voigt Hill
#
# Bulk Modulus (GPa) = 29.23514 52.41391 40.82453
# Shear Modulus (GPa) = 23.63641 34.35401 28.99521
#
# Velocity S-wave (km/s) = 3.12848 3.77165 3.46502
# Velocity P-wave (km/s) = 5.01553 6.37736 5.73700
#
# Compressibility (1/GPa) = 0.03420541
#
# Stress axis : x y z
#
# Youngs Moduli (GPa) = 69.28722 27.85871 100.12084
#
# Poissons Ratio (x) = 0.16104 0.06460
# Poissons Ratio (y) = 0.40051 0.66376
# Poissons Ratio (z) = 0.04471 0.18469
#
# Static dielectric constant tensor:
#      x y z
#    x 2.006190 -0.040160 0.004940 
#    y -0.040160 1.988670 0.020930 
#    z 0.004940 0.020930 1.968910 
# 
# From -- ./inp_files/216567.got.cif
#   From: 2010.05.17/outbox.cif.g08.bks.cpg/sg2_109_cif.got.tgz:216567.got - 2010.06.03 11:33:40.
