data_PCOD9073660
_publ_section_title
;
Structure prediction by ZEFSAII (Michael W. Deem and Ramdas Pophale) SiO2 
 PCOD9073660
Probable space group: P -1
;
_chemical_formula_sum "Si O2"
_cell_formula_units_Z 16
_cell_length_a 8.435238
_cell_length_b 21.986927
_cell_length_c 12.588559
_cell_angle_alpha 29.876755
_cell_angle_beta 106.449212
_cell_angle_gamma 86.576801
_cell_volume 858.058682
_symmetry_space_group_name_H-M "P -1"
_symmetry_group_IT_number 2
_symmetry_cell_setting 'triclinic'
loop_
_space_group_symop_operation_xyz
x,y,z
-x,-y,-z
loop_
_atom_site_type_symbol
_atom_site_label
_atom_site_fract_x
_atom_site_fract_y
_atom_site_fract_z
Si Si1 0.915886 0.203186 0.243978
Si Si2 0.751059 0.519075 0.832853
Si Si3 0.307332 0.945189 0.577306
Si Si4 0.385450 0.052026 0.227222
Si Si5 0.957418 0.829349 0.183919
Si Si6 0.022971 0.620814 0.699531
Si Si7 0.685651 0.139166 0.814035
Si Si8 0.261337 0.072545 0.681755
O O1 0.099384 0.121333 0.311704
O O2 0.062172 0.115221 0.510686
O O3 0.764390 0.159439 0.261893
O O4 0.778479 0.387687 0.963426
O O5 0.940334 0.521644 0.826596
O O6 0.527386 0.693476 0.517528
O O7 0.792471 0.464794 0.046332
O O8 0.351597 0.957490 0.445455
O O9 0.514796 0.886718 0.774079
O O10 0.573388 0.943646 0.341857
O O11 0.172081 0.169795 0.938938
O O12 0.055182 0.680796 0.506722
O O13 0.137723 0.839234 0.165331
O O14 0.791110 0.993612 0.971101
O O15 0.829522 0.784767 0.471874
O O16 0.637707 0.083768 0.994406
#
# Coordination Sequence:
#
# PCOD9073660 Si02
#       8
#     2   2   2   2   2   2   2   2
#     4   9  18  35  56  76 104 136 171 219 263 299
#     4  10  19  33  54  79 107 137 167 209 262 310
#     4   9  19  34  54  79 100 132 183 221 253 302
#     4  10  18  31  56  79  98 130 178 221 250 291
#     4  10  20  34  53  78 109 141 170 207 252 312
#     4   9  19  34  52  80 110 135 167 203 258 323
#     4  10  20  33  53  82 109 136 171 204 254 321
#     4   9  17  32  56  80 105 137 167 206 258 315
#
# _framework density 18.646743000000001
#
# number of rings (size 3 to 8) (size 9 to 14) (size 15 to 20)
#    0.000    2.500    0.000    2.250    0.000    4.500 
#    0.000    6.250    0.000   22.500    0.000    0.000 
#    0.000    0.000    0.000    0.000    0.000    0.000 
#
# Total GULP energy -89170.249135 kJ/mol
# GULP energy per Si atom -5573.140571 kJ/mol
# Density = 1.860430 g / cm^3
# Si number density = 18.646743 Si / 1000 Ang^3
#
#
#
# Elastic Constant Matrix: (Units=GPa)
#
#
# Indices 1 2 3 4 5 6 
#
# 1 71.2289 23.7499 20.7591 12.0933 -5.6223 -1.6460
# 2 23.7499 33.6737 17.9974 10.1530 -7.2631 -2.4465
# 3 20.7591 17.9974 99.4948 6.5927 -1.3875 -5.9119
# 4 12.0933 10.1530 6.5927 20.4897 -2.7764 -3.3328
# 5 -5.6223 -7.2631 -1.3875 -2.7764 19.9301 5.6116
# 6 -1.6460 -2.4465 -5.9119 -3.3328 5.6116 25.0052
#
#
#
# Elastic Compliance Matrix: (Units=1/GPa)
#
#
# Indices 1 2 3 4 5 6 
#
# 1 0.019113 -0.010809 -0.001728 -0.005432 0.000895 -0.001133
# 2 -0.010809 0.046775 -0.005239 -0.013770 0.012266 -0.001962
# 3 -0.001728 -0.005239 0.011480 0.000032 -0.002329 0.002615
# 4 -0.005432 -0.013770 0.000032 0.059848 0.000022 0.006275
# 5 0.000895 0.012266 -0.002329 0.000022 0.058217 -0.012354
# 6 -0.001133 -0.001962 0.002615 0.006275 -0.012354 0.043952
#
#
# Mechanical properties :
#
#
# Convention : Reuss Voigt Hill
#
# Bulk Modulus (GPa) = 23.91340 36.60114 30.25727
# Shear Modulus (GPa) = 17.30853 22.54439 19.92646
#
# Velocity S-wave (km/s) = 3.05000 3.48088 3.27254
# Velocity P-wave (km/s) = 5.02549 5.98554 5.52640
#
# Compressibility (1/GPa) = 0.04181756
#
# Stress axis : x y z
#
# Youngs Moduli (GPa) = 52.31916 21.37897 87.11042
#
# Poissons Ratio (x) = 0.23108 0.15050
# Poissons Ratio (y) = 0.56550 0.45637
# Poissons Ratio (z) = 0.09039 0.11200
#
# Static dielectric constant tensor:
#      x y z
#    x 1.660310 0.015670 0.007020 
#    y 0.015670 1.667780 0.015350 
#    z 0.007020 0.015350 1.634270 
# 
# From -- ./inp_files/176368.got.cif
#   From: 2010.05.17/outbox.cif.g08.bks.cpg/sg2_89_cif.got.tgz:176368.got - 2010.06.03 11:33:40.
