data_PCOD9073525
_publ_section_title
;
Structure prediction by ZEFSAII (Michael W. Deem and Ramdas Pophale) SiO2 
 PCOD9073525
Probable space group: P -1
;
_chemical_formula_sum "Si O2"
_cell_formula_units_Z 14
_cell_length_a 21.000000
_cell_length_b 12.000000
_cell_length_c 6.000000
_cell_angle_alpha 70.000000
_cell_angle_beta 60.000000
_cell_angle_gamma 30.000000
_cell_volume 640.096506
_symmetry_space_group_name_H-M "P -1"
_symmetry_group_IT_number 2
_symmetry_cell_setting 'triclinic'
loop_
_space_group_symop_operation_xyz
x,y,z
-x,-y,-z
loop_
_atom_site_type_symbol
_atom_site_label
_atom_site_fract_x
_atom_site_fract_y
_atom_site_fract_z
Si Si1 0.878147 0.266321 0.957649
Si Si2 0.568814 0.260080 0.659227
Si Si3 0.297791 0.674359 0.083864
Si Si4 0.809663 0.941936 0.129576
Si Si5 0.344919 0.039120 0.903896
Si Si6 0.068257 0.532951 0.243563
Si Si7 0.386225 0.384608 0.515712
O O1 0.762712 0.451392 0.230089
O O2 0.787563 0.312871 0.905107
O O3 0.928133 0.333224 0.751779
O O4 0.000000 0.000000 0.000000
O O5 0.481156 0.308006 0.597283
O O6 0.713915 0.105260 0.402952
O O7 0.614152 0.107204 0.873637
O O8 0.446363 0.507497 0.817703
O O9 0.343282 0.552390 0.316759
O O10 0.205021 0.920914 0.089928
O O11 0.965480 0.696447 0.102753
O O12 0.741271 0.920962 0.151227
O O13 0.228716 0.285014 0.052088
O O14 0.500091 0.856352 0.650265
O O15 0.000000 0.500000 0.500000
#
# Coordination Sequence:
#
# PCOD9073525 Si02
#       7
#     2   2   2   2   2   2   2
#     4  11  24  46  68  97 135 172 220 274 330 390
#     4   9  19  38  65  97 135 171 216 274 325 388
#     4  10  21  40  66 101 129 173 220 273 330 385
#     4  11  21  38  65  99 135 172 221 269 328 391
#     4  10  22  41  65  97 133 174 220 266 328 393
#     4  12  25  45  68  96 137 180 216 270 331 392
#     4   9  22  42  67  96 133 172 218 274 327 389
#
# _framework density 21.871701999999999
#
# number of rings (size 3 to 8) (size 9 to 14) (size 15 to 20)
#    0.000    1.714    2.857    0.857    0.000    9.714 
#    5.143    6.429    0.000    0.000    0.000    0.000 
#    0.000    0.000    0.000    0.000    0.000    0.000 
#
# Total GULP energy -77944.320151 kJ/mol
# GULP energy per Si atom -5567.451439 kJ/mol
# Density = 2.182192 g / cm^3
# Si number density = 21.871702 Si / 1000 Ang^3
#
#
#
# Elastic Constant Matrix: (Units=GPa)
#
#
# Indices 1 2 3 4 5 6 
#
# 1 39.9337 -7.4461 -19.7327 8.1852 -16.6912 7.9303
# 2 -7.4461 143.3053 2.7174 18.0827 -6.1604 1.9985
# 3 -19.7327 2.7174 44.8411 22.1467 -13.2372 0.1656
# 4 8.1852 18.0827 22.1467 22.2033 -1.9359 -3.5438
# 5 -16.6912 -6.1604 -13.2372 -1.9359 24.4709 -10.2530
# 6 7.9303 1.9985 0.1656 -3.5438 -10.2530 44.7619
#
#
#
# Elastic Compliance Matrix: (Units=1/GPa)
#
#
# Indices 1 2 3 4 5 6 
#
# 1 -0.014319 -0.006803 -0.035696 0.044089 -0.027204 0.000232
# 2 -0.006803 0.005840 -0.007934 0.004996 -0.007183 -0.000276
# 3 -0.035696 -0.007934 -0.022712 0.039563 -0.034684 0.001950
# 4 0.044089 0.004996 0.039563 -0.009571 0.053349 0.003282
# 5 -0.027204 -0.007183 -0.034684 0.053349 0.010992 0.012010
# 6 0.000232 -0.000276 0.001950 0.003282 0.012010 0.025315
#
#
# Mechanical properties :
#
#
# Convention : Reuss Voigt Hill
#
# Bulk Modulus (GPa) = -7.57237 19.90637 6.16700
# Shear Modulus (GPa) = 95.43482 35.12333 65.27907
#
# Velocity S-wave (km/s) = 6.61276 4.01169 5.46911
# Velocity P-wave (km/s) = 7.40508 5.52986 6.53508
#
# Compressibility (1/GPa) = -0.13205907
#
# Stress axis : x y z
#
# Youngs Moduli (GPa) = -69.83621 171.23996 -44.02875
#
# Poissons Ratio (x) = 1.16497 -1.57165
# Poissons Ratio (y) = -0.47511 -0.34934
# Poissons Ratio (z) = -2.49287 1.35869
#
# Static dielectric constant tensor:
#      x y z
#    x 1.846730 0.037800 -0.003930 
#    y 0.037800 1.821160 0.027240 
#    z -0.003930 0.027240 1.882260 
# 
# From -- ./inp_files/67656.got.cif
#   From: 2010.05.17/outbox.ucp.g08.bks.cvg/sg2_34_cif.got.tgz:67656.got - 2010.06.11 11:32:03.
