data_PCOD9073379
_publ_section_title
;
Structure prediction by ZEFSAII (Michael W. Deem and Ramdas Pophale) SiO2 
 PCOD9073379
Probable space group: P -1
;
_chemical_formula_sum "Si O2"
_cell_formula_units_Z 12
_cell_length_a 5.306814
_cell_length_b 8.516114
_cell_length_c 13.185586
_cell_angle_alpha 60.472981
_cell_angle_beta 104.697648
_cell_angle_gamma 121.725562
_cell_volume 441.019008
_symmetry_space_group_name_H-M "P -1"
_symmetry_group_IT_number 2
_symmetry_cell_setting 'triclinic'
loop_
_space_group_symop_operation_xyz
x,y,z
-x,-y,-z
loop_
_atom_site_type_symbol
_atom_site_label
_atom_site_fract_x
_atom_site_fract_y
_atom_site_fract_z
Si Si1 0.372112 0.754701 0.545094
Si Si2 0.552383 0.699152 0.156031
Si Si3 0.041242 0.200964 0.378467
Si Si4 0.489387 0.111247 0.703654
Si Si5 0.110986 0.440399 0.908074
Si Si6 0.679452 0.839722 0.916131
O O1 0.607244 0.690870 0.634812
O O2 0.068078 0.672675 0.601511
O O3 0.373238 0.745032 0.426699
O O4 0.500000 0.000000 0.500000
O O5 0.589448 0.784677 0.245067
O O6 0.746583 0.597633 0.166849
O O7 0.656647 0.875347 0.022042
O O8 0.198360 0.567917 0.143426
O O9 0.811324 0.089551 0.300258
O O10 0.000000 0.000000 0.500000
O O11 0.709848 0.027716 0.793171
O O12 0.362746 0.648859 0.914504
O O13 0.101500 0.259359 0.037390
#
# Coordination Sequence:
#
# PCOD9073379 Si02
#       6
#     2   2   2   2   2   2
#     4   8  16  31  44  70 100 123 151 199 251 289
#     4  10  20  35  48  75 101 131 163 205 245 280
#     4   8  16  31  44  70 100 123 151 199 251 289
#     4  10  18  31  54  82  94 126 166 215 237 280
#     4   9  21  37  49  62 110 141 158 194 242 298
#     4   9  20  36  50  72 101 136 168 193 240 297
#
# _framework density 27.209710999999999
#
# number of rings (size 3 to 8) (size 9 to 14) (size 15 to 20)
#    1.000    2.333    0.000    1.000    0.000    6.000 
#   12.000    0.000    0.000    0.000    0.000   63.000 
#    0.000    0.000    0.000    0.000    0.000    0.000 
#
# Total GULP energy -67057.312564 kJ/mol
# GULP energy per Si atom -5588.109380 kJ/mol
# Density = 2.714778 g / cm^3
# Si number density = 27.209711 Si / 1000 Ang^3
#
#
#
# Elastic Constant Matrix: (Units=GPa)
#
#
# Indices 1 2 3 4 5 6 
#
# 1 160.4935 57.0588 37.3926 6.5242 -0.5662 -38.1677
# 2 57.0588 120.7540 48.5081 47.6222 -17.2283 -20.9199
# 3 37.3926 48.5081 117.0427 16.1909 8.3521 -20.5516
# 4 6.5242 47.6222 16.1909 50.2703 -12.2509 1.2169
# 5 -0.5662 -17.2283 8.3521 -12.2509 -23.6217 -21.7876
# 6 -38.1677 -20.9199 -20.5516 1.2169 -21.7876 50.8136
#
#
#
# Elastic Compliance Matrix: (Units=1/GPa)
#
#
# Indices 1 2 3 4 5 6 
#
# 1 0.008763 -0.004767 -0.000484 0.003014 -0.001778 0.003589
# 2 -0.004767 0.017436 -0.002981 -0.016305 -0.005566 0.000396
# 3 -0.000484 -0.002981 0.010396 0.000048 0.002456 0.003666
# 4 0.003014 -0.016305 0.000048 0.034829 -0.000984 -0.005685
# 5 -0.001778 -0.005566 0.002456 -0.000984 -0.024684 -0.013194
# 6 0.003589 0.000396 0.003666 -0.005685 -0.013194 0.018500
#
#
# Mechanical properties :
#
#
# Convention : Reuss Voigt Hill
#
# Bulk Modulus (GPa) = 49.67473 76.02324 62.84898
# Shear Modulus (GPa) = 56.55182 32.51451 44.53316
#
# Velocity S-wave (km/s) = 4.56386 3.46057 4.04996
# Velocity P-wave (km/s) = 6.78731 6.63082 6.70952
#
# Compressibility (1/GPa) = 0.02013096
#
# Stress axis : x y z
#
# Youngs Moduli (GPa) = 114.11562 57.35260 96.19362
#
# Poissons Ratio (x) = 0.27340 0.04653
# Poissons Ratio (y) = 0.54398 0.28677
# Poissons Ratio (z) = 0.05520 0.17098
#
# Static dielectric constant tensor:
#      x y z
#    x 2.472820 0.106570 -0.137770 
#    y 0.106570 2.093650 -0.053490 
#    z -0.137770 -0.053490 2.221770 
# 
# From -- ./inp_files/155600.got.cif
#   From: 2010.05.17/outbox.cif.g08.bks.cpg/sg2_78_cif.got.tgz:155600.got - 2010.06.03 11:33:40.
