data_PCOD9073251
_publ_section_title
;
Structure prediction by ZEFSAII (Michael W. Deem and Ramdas Pophale) SiO2 
 PCOD9073251
Probable space group: P -1
;
_chemical_formula_sum "Si O2"
_cell_formula_units_Z 16
_cell_length_a 12.153956
_cell_length_b 10.848385
_cell_length_c 9.581393
_cell_angle_alpha 113.071423
_cell_angle_beta 64.212835
_cell_angle_gamma 145.075498
_cell_volume 649.700225
_symmetry_space_group_name_H-M "P -1"
_symmetry_group_IT_number 2
_symmetry_cell_setting 'triclinic'
loop_
_space_group_symop_operation_xyz
x,y,z
-x,-y,-z
loop_
_atom_site_type_symbol
_atom_site_label
_atom_site_fract_x
_atom_site_fract_y
_atom_site_fract_z
Si Si1 0.025765 0.184191 0.303425
Si Si2 0.129612 0.860611 0.913823
Si Si3 0.579025 0.804671 0.713994
Si Si4 0.516203 0.019935 0.329931
Si Si5 0.921117 0.353160 0.608810
Si Si6 0.813865 0.807732 0.415503
Si Si7 0.622875 0.683593 0.896836
Si Si8 0.994308 0.697535 0.208912
O O1 0.242993 0.310373 0.257149
O O2 0.951178 0.227445 0.477264
O O3 0.008428 0.233018 0.183350
O O4 0.872523 0.930456 0.293392
O O5 0.313436 0.930459 0.792418
O O6 0.223069 0.082400 0.011076
O O7 0.014964 0.697363 0.034026
O O8 0.634367 0.731016 0.547762
O O9 0.509190 0.676374 0.841014
O O10 0.473442 0.828534 0.690766
O O11 0.788667 0.054428 0.758230
O O12 0.298044 0.785701 0.304750
O O13 0.500000 0.000000 0.500000
O O14 0.030233 0.446859 0.737110
O O15 0.000000 0.500000 0.500000
O O16 0.826487 0.661492 0.320191
O O17 0.000000 0.000000 0.500000
O O18 0.500000 0.500000 0.000000
#
# Coordination Sequence:
#
# PCOD9073251 Si02
#       8
#     2   2   2   2   2   2   2   2
#     4  12  20  40  64  86 117 154 202 242 290 354
#     4  11  23  38  63  89 117 158 199 245 290 349
#     4   9  17  34  60  82 113 156 199 235 285 354
#     4  11  21  40  62  86 119 156 205 241 287 357
#     4  11  23  38  61  88 119 160 197 241 294 353
#     4  10  13  31  61  84 102 145 206 240 266 340
#     4  11  24  38  58  92 123 152 190 250 305 345
#     4   9  18  34  57  88 112 151 205 237 283 352
#
# _framework density 24.626743999999999
#
# number of rings (size 3 to 8) (size 9 to 14) (size 15 to 20)
#    0.000    1.500    8.750    0.375    1.750    4.500 
#    0.000    1.875    0.000    1.500    0.000    0.000 
#    0.000    0.000    0.000    0.000    0.000    0.000 
#
# Total GULP energy -89401.589596 kJ/mol
# GULP energy per Si atom -5587.599350 kJ/mol
# Density = 2.457069 g / cm^3
# Si number density = 24.626744 Si / 1000 Ang^3
#
#
#
# Elastic Constant Matrix: (Units=GPa)
#
#
# Indices 1 2 3 4 5 6 
#
# 1 138.9220 20.5498 47.9351 -11.6253 21.8627 -20.2555
# 2 20.5498 59.6511 10.2016 -12.0898 7.2110 -11.0880
# 3 47.9351 10.2016 122.1254 -18.6067 25.5711 -18.0660
# 4 -11.6253 -12.0898 -18.6067 37.8622 -14.5755 12.0000
# 5 21.8627 7.2110 25.5711 -14.5755 62.0657 -13.5909
# 6 -20.2555 -11.0880 -18.0660 12.0000 -13.5909 36.9055
#
#
#
# Elastic Compliance Matrix: (Units=1/GPa)
#
#
# Indices 1 2 3 4 5 6 
#
# 1 0.009017 -0.002100 -0.002784 -0.000634 -0.001351 0.002664
# 2 -0.002100 0.018948 0.000396 0.004626 0.000184 0.003297
# 3 -0.002784 0.000396 0.010452 0.002928 -0.002263 0.001922
# 4 -0.000634 0.004626 0.002928 0.033046 0.004818 -0.006496
# 5 -0.001351 0.000184 -0.002263 0.004818 0.019464 0.003807
# 6 0.002664 0.003297 0.001922 -0.006496 0.003807 0.034004
#
#
# Mechanical properties :
#
#
# Convention : Reuss Voigt Hill
#
# Bulk Modulus (GPa) = 33.96615 53.11904 43.54259
# Shear Modulus (GPa) = 34.78915 43.50082 39.14498
#
# Velocity S-wave (km/s) = 3.76261 4.20742 3.99122
# Velocity P-wave (km/s) = 5.71827 6.72456 6.24173
#
# Compressibility (1/GPa) = 0.02944108
#
# Stress axis : x y z
#
# Youngs Moduli (GPa) = 110.89572 52.77527 95.67422
#
# Poissons Ratio (x) = 0.11085 0.26632
# Poissons Ratio (y) = 0.23293 -0.03786
# Poissons Ratio (z) = 0.30869 -0.02088
#
# Static dielectric constant tensor:
#      x y z
#    x 1.979400 -0.034170 0.046390 
#    y -0.034170 2.097140 -0.002320 
#    z 0.046390 -0.002320 1.914970 
# 
# From -- ./inp_files/258917.got.cif
#   From: 2010.05.17/outbox.cif.g08.bks.cpg/sg2_130_cif.got.tgz:258917.got - 2010.06.03 11:33:40.
