data_PCOD9073182
_publ_section_title
;
Structure prediction by ZEFSAII (Michael W. Deem and Ramdas Pophale) SiO2 
 PCOD9073182
Probable space group: P -1
;
_chemical_formula_sum "Si O2"
_cell_formula_units_Z 16
_cell_length_a 14.391021
_cell_length_b 22.439879
_cell_length_c 12.021692
_cell_angle_alpha 149.818957
_cell_angle_beta 151.332754
_cell_angle_gamma 27.916645
_cell_volume 800.348577
_symmetry_space_group_name_H-M "P -1"
_symmetry_group_IT_number 2
_symmetry_cell_setting 'triclinic'
loop_
_space_group_symop_operation_xyz
x,y,z
-x,-y,-z
loop_
_atom_site_type_symbol
_atom_site_label
_atom_site_fract_x
_atom_site_fract_y
_atom_site_fract_z
Si Si1 0.118068 0.808921 0.358647
Si Si2 0.108905 0.913560 0.296971
Si Si3 0.583164 0.867405 0.719776
Si Si4 0.422844 0.186066 0.129192
Si Si5 0.836276 0.316920 0.575521
Si Si6 0.659659 0.632082 0.870330
Si Si7 0.750914 0.922241 0.780236
Si Si8 0.237593 0.176224 0.607585
O O1 0.073009 0.819031 0.196610
O O2 0.355081 0.804110 0.604569
O O3 0.127333 0.699468 0.279131
O O4 0.947670 0.952574 0.473010
O O5 0.368384 0.852381 0.440573
O O6 0.932257 0.954158 0.077143
O O7 0.679317 0.796547 0.826645
O O8 0.730708 0.826878 0.698539
O O9 0.500836 0.030467 0.919720
O O10 0.300566 0.297274 0.082312
O O11 0.781777 0.467877 0.725396
O O12 0.607690 0.312659 0.309459
O O13 0.046569 0.201844 0.538669
O O14 0.743528 0.687279 0.148007
O O15 0.823312 0.854844 0.626808
O O16 0.493486 0.052754 0.706694
#
# Coordination Sequence:
#
# PCOD9073182 Si02
#       8
#     2   2   2   2   2   2   2   2
#     4   9  17  31  53  82 109 132 176 233 274 319
#     4  10  19  31  52  81 109 138 177 226 277 325
#     4  10  18  31  53  80 110 141 170 228 281 314
#     4   9  17  31  54  82 108 133 178 229 276 319
#     4  10  21  37  60  81 107 144 181 231 279 313
#     4  10  20  38  59  83 108 137 188 232 267 328
#     4  11  22  36  52  78 115 149 182 218 269 341
#     4  11  23  37  53  77 113 150 184 220 268 331
#
# _framework density 19.991289999999999
#
# number of rings (size 3 to 8) (size 9 to 14) (size 15 to 20)
#    0.000    2.000    2.500    1.875    1.750    1.000 
#    0.000    3.125    0.000    3.000    0.000    7.000 
#    0.000    0.000    0.000    0.000    0.000    0.000 
#
# Total GULP energy -89203.167041 kJ/mol
# GULP energy per Si atom -5575.197940 kJ/mol
# Density = 1.994579 g / cm^3
# Si number density = 19.991290 Si / 1000 Ang^3
#
#
#
# Elastic Constant Matrix: (Units=GPa)
#
#
# Indices 1 2 3 4 5 6 
#
# 1 111.7127 37.7180 48.6668 -0.2694 1.6425 18.7474
# 2 37.7180 56.5026 28.8531 -7.8147 -2.0059 13.6945
# 3 48.6668 28.8531 92.0328 -20.4907 -8.5989 5.6903
# 4 -0.2694 -7.8147 -20.4907 24.9100 7.7812 5.1925
# 5 1.6425 -2.0059 -8.5989 7.7812 33.6073 -4.0399
# 6 18.7474 13.6945 5.6903 5.1925 -4.0399 31.9292
#
#
#
# Elastic Compliance Matrix: (Units=1/GPa)
#
#
# Indices 1 2 3 4 5 6 
#
# 1 0.014906 -0.006203 -0.007281 -0.006317 -0.001982 -0.004017
# 2 -0.006203 0.026490 -0.002790 0.008354 -0.001823 -0.008812
# 3 -0.007281 -0.002790 0.018871 0.014000 0.001783 0.000058
# 4 -0.006317 0.008354 0.014000 0.060581 -0.011278 -0.013648
# 5 -0.001982 -0.001823 0.001783 -0.011278 0.033740 0.007731
# 6 -0.004017 -0.008812 0.000058 -0.013648 0.007731 0.040645
#
#
# Mechanical properties :
#
#
# Convention : Reuss Voigt Hill
#
# Bulk Modulus (GPa) = 36.07666 54.52487 45.30076
# Shear Modulus (GPa) = 21.09525 27.75664 24.42595
#
# Velocity S-wave (km/s) = 3.25194 3.73022 3.49926
# Velocity P-wave (km/s) = 5.67323 6.77394 6.24787
#
# Compressibility (1/GPa) = 0.02771875
#
# Stress axis : x y z
#
# Youngs Moduli (GPa) = 67.08844 37.74973 52.99252
#
# Poissons Ratio (x) = 0.23415 0.38583
# Poissons Ratio (y) = 0.41612 0.14787
# Poissons Ratio (z) = 0.48846 0.10534
#
# Static dielectric constant tensor:
#      x y z
#    x 1.763440 0.028190 0.025600 
#    y 0.028190 1.783220 -0.068330 
#    z 0.025600 -0.068330 1.749320 
# 
# From -- ./inp_files/458161.got.cif
#   From: 2010.05.17/outbox.cif.g08.bks.cpg/sg2_230_cif.got.tgz:458161.got - 2010.06.03 11:33:40.
