data_PCOD9073879
_publ_section_title
;
Structure prediction by ZEFSAII (Michael W. Deem and Ramdas Pophale) SiO2 
 PCOD9073879
Probable space group: P -1
;
_chemical_formula_sum "Si O2"
_cell_formula_units_Z 14
_cell_length_a 10.477867
_cell_length_b 7.965589
_cell_length_c 20.798448
_cell_angle_alpha 145.438979
_cell_angle_beta 147.927632
_cell_angle_gamma 45.188262
_cell_volume 522.748535
_symmetry_space_group_name_H-M "P -1"
_symmetry_group_IT_number 2
_symmetry_cell_setting 'triclinic'
loop_
_space_group_symop_operation_xyz
x,y,z
-x,-y,-z
loop_
_atom_site_type_symbol
_atom_site_label
_atom_site_fract_x
_atom_site_fract_y
_atom_site_fract_z
Si Si1 0.145950 0.664762 0.945406
Si Si2 0.859651 0.120168 0.659917
Si Si3 0.295127 0.755546 0.685408
Si Si4 0.455163 0.119823 0.293692
Si Si5 0.607280 0.583645 0.266171
Si Si6 0.336780 0.058363 0.354689
Si Si7 0.598796 0.224424 0.030886
O O1 0.175073 0.704325 0.894064
O O2 0.926724 0.462155 0.807578
O O3 0.231428 0.958510 0.111665
O O4 0.377675 0.451024 0.993705
O O5 0.850436 0.946536 0.669267
O O6 0.070849 0.982719 0.662842
O O7 0.598021 0.107320 0.513090
O O8 0.394282 0.706482 0.640577
O O9 0.251109 0.482860 0.628324
O O10 0.507396 0.918279 0.866723
O O11 0.643487 0.863373 0.321489
O O12 0.339726 0.247988 0.350566
O O13 0.351284 0.716876 0.225569
O O14 0.639758 0.295183 0.144800
#
# Coordination Sequence:
#
# PCOD9073879 Si02
#       7
#     2   2   2   2   2   2   2
#     4   8  14  28  53  74  98 130 173 199 252 297
#     4  10  19  33  53  75 100 145 163 205 258 303
#     4  10  18  31  59  76  99 132 176 203 253 296
#     4   8  18  35  52  80 100 129 168 217 243 302
#     4   9  17  32  52  76 104 133 164 212 251 293
#     4   9  21  35  49  72 114 131 166 209 258 294
#     4   8  14  28  48  80 104 122 161 223 244 293
#
# _framework density 26.781518999999999
#
# number of rings (size 3 to 8) (size 9 to 14) (size 15 to 20)
#    0.857    2.286    0.000    3.000    0.000    1.714 
#    0.000    0.000    6.286    3.429    0.000    0.000 
#    0.000    0.000    0.000    0.000    0.000    0.000 
#
# Total GULP energy -78019.311249 kJ/mol
# GULP energy per Si atom -5572.807946 kJ/mol
# Density = 2.672056 g / cm^3
# Si number density = 26.781519 Si / 1000 Ang^3
#
#
#
# Elastic Constant Matrix: (Units=GPa)
#
#
# Indices 1 2 3 4 5 6 
#
# 1 202.3437 23.2153 55.3923 -7.4848 -18.1717 25.2257
# 2 23.2153 71.1417 27.3351 4.5978 5.3996 2.5219
# 3 55.3923 27.3351 94.8225 5.6502 11.6077 15.8592
# 4 -7.4848 4.5978 5.6502 31.5447 2.9067 2.3566
# 5 -18.1717 5.3996 11.6077 2.9067 32.6623 -5.8050
# 6 25.2257 2.5219 15.8592 2.3566 -5.8050 41.3399
#
#
#
# Elastic Compliance Matrix: (Units=1/GPa)
#
#
# Indices 1 2 3 4 5 6 
#
# 1 0.007000 -0.001136 -0.004169 0.002264 0.005002 -0.002029
# 2 -0.001136 0.016111 -0.003858 -0.001863 -0.001567 0.001077
# 3 -0.004169 -0.003858 0.015915 -0.002227 -0.007905 -0.004309
# 4 0.002264 -0.001863 -0.002227 0.033187 -0.001030 -0.002450
# 5 0.005002 -0.001567 -0.007905 -0.001030 0.037520 0.005404
# 6 -0.002029 0.001077 -0.004309 -0.002450 0.005404 0.027914
#
#
# Mechanical properties :
#
#
# Convention : Reuss Voigt Hill
#
# Bulk Modulus (GPa) = 48.31214 64.46591 56.38903
# Shear Modulus (GPa) = 30.69909 38.60039 34.64974
#
# Velocity S-wave (km/s) = 3.38935 3.80057 3.60084
# Velocity P-wave (km/s) = 5.77888 6.58654 6.19588
#
# Compressibility (1/GPa) = 0.02069873
#
# Stress axis : x y z
#
# Youngs Moduli (GPa) = 142.86336 62.07046 62.83449
#
# Poissons Ratio (x) = 0.07053 0.26197
# Poissons Ratio (y) = 0.16232 0.24240
# Poissons Ratio (z) = 0.59563 0.23945
#
# Static dielectric constant tensor:
#      x y z
#    x 2.089360 0.017320 -0.061420 
#    y 0.017320 2.265010 0.083360 
#    z -0.061420 0.083360 2.166730 
# 
# From -- ./inp_files/180581.got.cif
#   From: 2010.05.17/outbox.cif.g08.bks.cpg/sg2_91_cif.got.tgz:180581.got - 2010.06.03 11:33:40.
