data_PCOD9073996
_publ_section_title
;
Structure prediction by ZEFSAII (Michael W. Deem and Ramdas Pophale) SiO2 
 PCOD9073996
Probable space group: P -1
;
_chemical_formula_sum "Si O2"
_cell_formula_units_Z 16
_cell_length_a 9.000000
_cell_length_b 15.000000
_cell_length_c 12.000000
_cell_angle_alpha 30.000000
_cell_angle_beta 80.000000
_cell_angle_gamma 70.000000
_cell_volume 734.803614
_symmetry_space_group_name_H-M "P -1"
_symmetry_group_IT_number 2
_symmetry_cell_setting 'triclinic'
loop_
_space_group_symop_operation_xyz
x,y,z
-x,-y,-z
loop_
_atom_site_type_symbol
_atom_site_label
_atom_site_fract_x
_atom_site_fract_y
_atom_site_fract_z
Si Si1 0.991257 0.217850 0.770951
Si Si2 0.939304 0.786156 0.475268
Si Si3 0.221617 0.471405 0.127802
Si Si4 0.015905 0.174954 0.073137
Si Si5 0.631414 0.838993 0.937953
Si Si6 0.475888 0.278591 0.475581
Si Si7 0.278491 0.534608 0.795462
Si Si8 0.645328 0.569947 0.432056
O O1 0.814479 0.387144 0.591613
O O2 0.096992 0.222854 0.642492
O O3 0.024314 0.240301 0.872526
O O4 0.000000 0.000000 0.000000
O O5 0.827101 0.715291 0.645991
O O6 0.111816 0.610555 0.665592
O O7 0.961461 0.988998 0.278799
O O8 0.393012 0.397892 0.248029
O O9 0.103724 0.654203 0.018056
O O10 0.234410 0.529161 0.936691
O O11 0.198060 0.136063 0.133485
O O12 0.500414 0.055751 0.709311
O O13 0.614109 0.682418 0.024620
O O14 0.630726 0.744862 0.161346
O O15 0.641989 0.316231 0.414107
O O16 0.377340 0.367318 0.504478
O O17 0.500000 0.500000 0.500000
#
# Coordination Sequence:
#
# PCOD9073996 Si02
#       8
#     2   2   2   2   2   2   2   2
#     4  10  22  40  70 102 134 168 216 279 340 391
#     4  11  23  44  70 102 135 172 227 281 333 403
#     4  12  27  43  72 101 130 180 234 284 327 394
#     4  11  24  43  71 102 133 177 222 279 344 402
#     4  12  26  43  72  98 137 183 221 273 346 408
#     4  12  27  47  67 102 139 179 224 277 344 400
#     4  12  25  48  68  96 140 179 230 280 333 395
#     4  12  23  43  70 100 138 177 218 277 339 410
#
# _framework density 21.774525000000001
#
# number of rings (size 3 to 8) (size 9 to 14) (size 15 to 20)
#    0.000    0.500    6.250    1.125    3.500    6.000 
#    0.000    0.000    0.000    0.000    0.000    0.000 
#    0.000    0.000    0.000    0.000    0.000    0.000 
#
# Total GULP energy -89346.337648 kJ/mol
# GULP energy per Si atom -5584.146103 kJ/mol
# Density = 2.172497 g / cm^3
# Si number density = 21.774525 Si / 1000 Ang^3
#
#
#
# Elastic Constant Matrix: (Units=GPa)
#
#
# Indices 1 2 3 4 5 6 
#
# 1 35.5119 2.1189 -1.2276 -14.1904 -10.6868 -3.3148
# 2 2.1189 130.0737 67.5623 17.2102 -4.8515 7.0312
# 3 -1.2276 67.5623 112.8756 -8.7032 -10.3331 -1.7340
# 4 -14.1904 17.2102 -8.7032 41.6227 1.1133 -4.5000
# 5 -10.6868 -4.8515 -10.3331 1.1133 39.9464 -0.5140
# 6 -3.3148 7.0312 -1.7340 -4.5000 -0.5140 18.4498
#
#
#
# Elastic Compliance Matrix: (Units=1/GPa)
#
#
# Indices 1 2 3 4 5 6 
#
# 1 0.042838 -0.008467 0.008577 0.021441 0.012276 0.017301
# 2 -0.008467 0.015755 -0.010970 -0.012889 -0.002982 -0.011783
# 3 0.008577 -0.010970 0.017079 0.012017 0.005179 0.010402
# 4 0.021441 -0.012889 0.012017 0.041181 0.006390 0.020116
# 5 0.012276 -0.002982 0.005179 0.006390 0.029197 0.006201
# 6 0.017301 -0.011783 0.010402 0.020116 0.006201 0.067857
#
#
# Mechanical properties :
#
#
# Convention : Reuss Voigt Hill
#
# Bulk Modulus (GPa) = 18.53514 46.15204 32.34359
# Shear Modulus (GPa) = 19.71512 34.00428 26.85970
#
# Velocity S-wave (km/s) = 3.01229 3.95606 3.51599
# Velocity P-wave (km/s) = 4.54195 6.48912 5.60080
#
# Compressibility (1/GPa) = 0.05395158
#
# Stress axis : x y z
#
# Youngs Moduli (GPa) = 23.34367 63.47185 58.55042
#
# Poissons Ratio (x) = 0.53741 -0.50216
# Poissons Ratio (y) = 0.19765 0.64230
# Poissons Ratio (z) = -0.20021 0.69629
#
# Static dielectric constant tensor:
#      x y z
#    x 1.869500 0.013920 0.012250 
#    y 0.013920 1.780360 -0.011020 
#    z 0.012250 -0.011020 1.746840 
# 
# From -- ./inp_files/188873.got.cif
#   From: 2010.05.17/outbox.ucp.g08.bks.cvg/sg2_95_cif.got.tgz:188873.got - 2010.06.11 11:32:03.
