data_PCOD9073943
_publ_section_title
;
Structure prediction by ZEFSAII (Michael W. Deem and Ramdas Pophale) SiO2 
 PCOD9073943
Probable space group: P -1
;
_chemical_formula_sum "Si O2"
_cell_formula_units_Z 14
_cell_length_a 15.000000
_cell_length_b 6.000000
_cell_length_c 9.000000
_cell_angle_alpha 90.000000
_cell_angle_beta 90.000000
_cell_angle_gamma 50.000000
_cell_volume 620.495999
_symmetry_space_group_name_H-M "P -1"
_symmetry_group_IT_number 2
_symmetry_cell_setting 'triclinic'
loop_
_space_group_symop_operation_xyz
x,y,z
-x,-y,-z
loop_
_atom_site_type_symbol
_atom_site_label
_atom_site_fract_x
_atom_site_fract_y
_atom_site_fract_z
Si Si1 0.512219 0.741989 0.066857
Si Si2 0.321529 0.823580 0.873060
Si Si3 0.223833 0.016570 0.550208
Si Si4 0.002702 0.344852 0.750660
Si Si5 0.592594 0.957865 0.620417
Si Si6 0.199355 0.666216 0.309185
Si Si7 0.885443 0.900091 0.954599
O O1 0.649990 0.475684 0.084673
O O2 0.461949 0.823393 0.237351
O O3 0.440743 0.729535 0.935177
O O4 0.500000 0.000000 0.000000
O O5 0.298217 0.865604 0.700713
O O6 0.218905 0.080364 0.974756
O O7 0.198162 0.847096 0.443733
O O8 0.097855 0.265349 0.628213
O O9 0.307801 0.050584 0.459818
O O10 0.897617 0.374510 0.677702
O O11 0.960568 0.626502 0.844380
O O12 0.056583 0.113692 0.889617
O O13 0.670328 0.636517 0.689724
O O14 0.500000 0.000000 0.500000
O O15 0.168121 0.833698 0.154808
#
# Coordination Sequence:
#
# PCOD9073943 Si02
#       7
#     2   2   2   2   2   2   2
#     4  11  22  39  64  90 122 165 218 267 316 376
#     4  10  22  40  62  90 123 169 214 263 320 373
#     4  11  25  42  63  94 135 170 212 265 319 388
#     4  10  23  43  67  97 130 170 214 265 324 382
#     4  12  27  44  65  97 132 172 216 266 324 382
#     4  12  23  40  67  95 130 172 213 263 325 382
#     4  10  22  42  67  95 129 165 216 270 316 382
#
# _framework density 22.562595000000002
#
# number of rings (size 3 to 8) (size 9 to 14) (size 15 to 20)
#    0.000    1.143    0.000    6.000    0.000    8.000 
#    0.000    7.143    0.000    0.000    0.000    0.000 
#    0.000    0.000    0.000    0.000    0.000    0.000 
#
# Total GULP energy -77954.794796 kJ/mol
# GULP energy per Si atom -5568.199628 kJ/mol
# Density = 2.251124 g / cm^3
# Si number density = 22.562595 Si / 1000 Ang^3
#
#
#
# Elastic Constant Matrix: (Units=GPa)
#
#
# Indices 1 2 3 4 5 6 
#
# 1 95.0765 10.6990 58.8972 -6.6121 20.4287 -18.4204
# 2 10.6990 76.4996 50.2265 -3.8871 -2.5351 -30.1897
# 3 58.8972 50.2265 148.2310 12.8740 5.9296 -20.4436
# 4 -6.6121 -3.8871 12.8740 46.0476 -10.4431 1.3638
# 5 20.4287 -2.5351 5.9296 -10.4431 48.0244 -1.3853
# 6 -18.4204 -30.1897 -20.4436 1.3638 -1.3853 17.7963
#
#
#
# Elastic Compliance Matrix: (Units=1/GPa)
#
#
# Indices 1 2 3 4 5 6 
#
# 1 0.031541 0.033855 -0.014467 0.007920 -0.006033 0.072382
# 2 0.033855 0.081332 -0.021926 0.013455 -0.000241 0.146777
# 3 -0.014467 -0.021926 0.015953 -0.007294 0.000482 -0.033248
# 4 0.007920 0.013455 -0.007294 0.026451 0.004599 0.020974
# 5 -0.006033 -0.000241 0.000482 0.004599 0.024185 -0.004570
# 6 0.072382 0.146777 -0.033248 0.020974 -0.004570 0.339948
#
#
# Mechanical properties :
#
#
# Convention : Reuss Voigt Hill
#
# Bulk Modulus (GPa) = 8.08091 62.16138 35.12115
# Shear Modulus (GPa) = 8.83802 35.70595 22.27199
#
# Velocity S-wave (km/s) = 1.98132 3.98242 3.14525
# Velocity P-wave (km/s) = 2.97043 6.98260 5.36564
#
# Compressibility (1/GPa) = 0.12374842
#
# Stress axis : x y z
#
# Youngs Moduli (GPa) = 31.70493 12.29521 62.68473
#
# Poissons Ratio (x) = -0.41625 0.90688
# Poissons Ratio (y) = -1.07336 1.37444
# Poissons Ratio (z) = 0.45868 0.26959
#
# Static dielectric constant tensor:
#      x y z
#    x 1.797920 -0.185080 -0.067160 
#    y -0.185080 1.521740 -0.126990 
#    z -0.067160 -0.126990 1.775100 
# 
# From -- ./inp_files/28427.got.cif
#   From: 2010.05.17/outbox.ucp.g08.bks.cvg/sg2_15_cif.got.tgz:28427.got - 2010.06.11 11:32:03.
