data_PCOD9073512
_publ_section_title
;
Structure prediction by ZEFSAII (Michael W. Deem and Ramdas Pophale) SiO2 
 PCOD9073512
Probable space group: P -1
;
_chemical_formula_sum "Si O2"
_cell_formula_units_Z 16
_cell_length_a 17.860243
_cell_length_b 8.938793
_cell_length_c 8.509145
_cell_angle_alpha 65.118906
_cell_angle_beta 125.349087
_cell_angle_gamma 134.955216
_cell_volume 783.940110
_symmetry_space_group_name_H-M "P -1"
_symmetry_group_IT_number 2
_symmetry_cell_setting 'triclinic'
loop_
_space_group_symop_operation_xyz
x,y,z
-x,-y,-z
loop_
_atom_site_type_symbol
_atom_site_label
_atom_site_fract_x
_atom_site_fract_y
_atom_site_fract_z
Si Si1 0.242051 0.995437 0.050080
Si Si2 0.575904 0.555670 0.832772
Si Si3 0.871293 0.282910 0.419182
Si Si4 0.495428 0.179891 0.712032
Si Si5 0.294178 0.817891 0.445267
Si Si6 0.881648 0.971749 0.369388
Si Si7 0.660466 0.087930 0.054225
Si Si8 0.356933 0.509143 0.724723
O O1 0.236766 0.819136 0.214976
O O2 0.306066 0.203214 0.141597
O O3 0.330397 0.057691 0.984586
O O4 0.129625 0.939816 0.848293
O O5 0.547247 0.415549 0.707989
O O6 0.462545 0.539367 0.745433
O O7 0.604515 0.465715 0.055901
O O8 0.798875 0.235216 0.510420
O O9 0.791156 0.277270 0.188867
O O10 0.000000 0.500000 0.500000
O O11 0.878036 0.101275 0.448546
O O12 0.414044 0.055221 0.519515
O O13 0.412533 0.042842 0.822371
O O14 0.598724 0.163974 0.853707
O O15 0.331790 0.669849 0.574881
O O16 0.765913 0.726475 0.343144
O O17 0.000000 0.000000 0.500000
#
# Coordination Sequence:
#
# PCOD9073512 Si02
#       8
#     2   2   2   2   2   2   2   2
#     4  10  22  37  55  82 115 142 179 231 282 326
#     4  10  18  32  54  81 112 150 185 221 264 323
#     4  10  20  37  60  81 107 144 187 226 270 330
#     4  10  18  31  55  81 112 150 189 221 263 326
#     4  11  22  36  56  84 113 143 180 231 282 323
#     4  10  21  40  62  81 104 144 190 226 268 331
#     4   9  18  34  53  80 111 148 188 222 262 329
#     4  10  19  33  56  81 110 148 190 222 262 325
#
# _framework density 20.409721999999999
#
# number of rings (size 3 to 8) (size 9 to 14) (size 15 to 20)
#    0.000    2.000    0.000    7.500    0.000    3.500 
#    0.000    7.500    0.000    0.000    0.000    0.000 
#    0.000    0.000    0.000    0.000    0.000    0.000 
#
# Total GULP energy -89312.448781 kJ/mol
# GULP energy per Si atom -5582.028049 kJ/mol
# Density = 2.036327 g / cm^3
# Si number density = 20.409722 Si / 1000 Ang^3
#
#
#
# Elastic Constant Matrix: (Units=GPa)
#
#
# Indices 1 2 3 4 5 6 
#
# 1 72.6338 21.7660 40.0347 1.1078 31.9565 -9.5365
# 2 21.7660 80.6754 44.0748 16.4338 8.4216 -13.7691
# 3 40.0347 44.0748 124.8575 -12.4655 35.2672 -6.6678
# 4 1.1078 16.4338 -12.4655 42.2935 0.0864 8.0658
# 5 31.9565 8.4216 35.2672 0.0864 29.4247 0.5719
# 6 -9.5365 -13.7691 -6.6678 8.0658 0.5719 27.3184
#
#
#
# Elastic Compliance Matrix: (Units=1/GPa)
#
#
# Indices 1 2 3 4 5 6 
#
# 1 0.030212 -0.003647 0.001649 -0.000734 -0.033937 0.010038
# 2 -0.003647 0.022985 -0.010495 -0.014187 0.009774 0.011735
# 3 0.001649 -0.010495 0.017629 0.009824 -0.019889 -0.002896
# 4 -0.000734 -0.014187 0.009824 0.034984 -0.006725 -0.015197
# 5 -0.033937 0.009774 -0.019889 -0.006725 0.092130 -0.011718
# 6 0.010038 0.011735 -0.002896 -0.015197 -0.011718 0.050049
#
#
# Mechanical properties :
#
#
# Convention : Reuss Voigt Hill
#
# Bulk Modulus (GPa) = 21.81491 54.43531 38.12511
# Shear Modulus (GPa) = 17.34568 31.29341 24.31954
#
# Velocity S-wave (km/s) = 2.91842 3.91993 3.45565
# Velocity P-wave (km/s) = 4.69765 6.87146 5.88579
#
# Compressibility (1/GPa) = 0.04584021
#
# Stress axis : x y z
#
# Youngs Moduli (GPa) = 33.09951 43.50587 56.72346
#
# Poissons Ratio (x) = 0.15864 -0.09351
# Poissons Ratio (y) = 0.12070 0.59533
# Poissons Ratio (z) = -0.05457 0.45661
#
# Static dielectric constant tensor:
#      x y z
#    x 1.722470 -0.020840 -0.022630 
#    y -0.020840 1.758910 -0.010430 
#    z -0.022630 -0.010430 1.760150 
# 
# From -- ./inp_files/203270.got.cif
#   From: 2010.05.17/outbox.cif.g08.bks.cpg/sg2_102_cif.got.tgz:203270.got - 2010.06.03 11:33:40.
