data_PCOD9073109
_publ_section_title
;
Structure prediction by ZEFSAII (Michael W. Deem and Ramdas Pophale) SiO2 
 PCOD9073109
Probable space group: P -1
;
_chemical_formula_sum "Si O2"
_cell_formula_units_Z 16
_cell_length_a 18.000000
_cell_length_b 15.000000
_cell_length_c 24.000000
_cell_angle_alpha 30.000000
_cell_angle_beta 160.000000
_cell_angle_gamma 160.000000
_cell_volume 749.971719
_symmetry_space_group_name_H-M "P -1"
_symmetry_group_IT_number 2
_symmetry_cell_setting 'triclinic'
loop_
_space_group_symop_operation_xyz
x,y,z
-x,-y,-z
loop_
_atom_site_type_symbol
_atom_site_label
_atom_site_fract_x
_atom_site_fract_y
_atom_site_fract_z
Si Si1 0.961285 0.941026 0.795006
Si Si2 0.636313 0.610730 0.363898
Si Si3 0.529522 0.389491 0.634462
Si Si4 0.222446 0.935304 0.303700
Si Si5 0.233830 0.787747 0.539418
Si Si6 0.594761 0.099726 0.166563
Si Si7 0.885812 0.393229 0.327120
Si Si8 0.798513 0.106874 0.185425
O O1 0.726125 0.639455 0.774464
O O2 0.889653 0.961126 0.797331
O O3 0.887520 0.085222 0.632435
O O4 0.304935 0.056487 0.968482
O O5 0.665021 0.648831 0.429969
O O6 0.786010 0.517765 0.498299
O O7 0.787718 0.884834 0.299519
O O8 0.500000 0.500000 0.500000
O O9 0.901346 0.638931 0.774074
O O10 0.471271 0.141868 0.725082
O O11 0.939989 0.625966 0.260384
O O12 0.500000 0.000000 0.500000
O O13 0.416711 0.067401 0.312406
O O14 0.000000 0.500000 0.500000
O O15 0.254913 0.792653 0.618136
O O16 0.785085 0.173522 0.203330
O O17 0.735956 0.285329 0.219350
O O18 0.500000 0.000000 0.000000
#
# Coordination Sequence:
#
# PCOD9073109 Si02
#       8
#     2   2   2   2   2   2   2   2
#     4  11  22  43  65  92 133 165 213 271 316 373
#     4  11  23  39  68  93 120 172 222 261 308 387
#     4  11  24  44  63  91 132 169 213 264 321 384
#     4  10  20  42  63  94 127 161 217 267 303 381
#     4  11  21  40  68  92 120 171 223 252 308 388
#     4  11  27  42  61 102 135 162 212 275 326 372
#     4  12  23  40  67  95 127 166 217 264 319 379
#     4  11  24  43  65  92 130 170 214 264 322 383
#
# _framework density 21.334137999999999
#
# number of rings (size 3 to 8) (size 9 to 14) (size 15 to 20)
#    0.000    1.000    5.000    3.000    5.250    5.500 
#    2.250    0.625    0.000    0.000    0.000    0.000 
#    0.000    0.000    0.000    0.000    0.000    0.000 
#
# Total GULP energy -89158.010968 kJ/mol
# GULP energy per Si atom -5572.375686 kJ/mol
# Density = 2.128558 g / cm^3
# Si number density = 21.334138 Si / 1000 Ang^3
#
#
#
# Elastic Constant Matrix: (Units=GPa)
#
#
# Indices 1 2 3 4 5 6 
#
# 1 98.5123 19.8752 11.6966 -4.0825 -1.3288 -10.9155
# 2 19.8752 58.9945 -0.5991 -2.9139 1.4228 -12.8440
# 3 11.6966 -0.5991 36.3984 1.4217 10.1833 1.9585
# 4 -4.0825 -2.9139 1.4217 24.7280 -8.2080 1.7474
# 5 -1.3288 1.4228 10.1833 -8.2080 30.2610 -1.8704
# 6 -10.9155 -12.8440 1.9585 1.7474 -1.8704 36.3545
#
#
#
# Elastic Compliance Matrix: (Units=1/GPa)
#
#
# Indices 1 2 3 4 5 6 
#
# 1 0.011896 -0.003421 -0.005053 0.002757 0.003296 0.002673
# 2 -0.003421 0.019420 0.001330 0.000947 -0.000903 0.005670
# 3 -0.005053 0.001330 0.033358 -0.006874 -0.013573 -0.003212
# 4 0.002757 0.000947 -0.006874 0.046366 0.014970 0.000074
# 5 0.003296 -0.000903 -0.013573 0.014970 0.042037 0.002845
# 6 0.002673 0.005670 -0.003212 0.000074 0.002845 0.030629
#
#
# Mechanical properties :
#
#
# Convention : Reuss Voigt Hill
#
# Bulk Modulus (GPa) = 19.84682 28.42785 24.13734
# Shear Modulus (GPa) = 23.27880 29.13086 26.20483
#
# Velocity S-wave (km/s) = 3.30684 3.69922 3.50852
# Velocity P-wave (km/s) = 4.88910 5.62135 5.26797
#
# Compressibility (1/GPa) = 0.05038591
#
# Stress axis : x y z
#
# Youngs Moduli (GPa) = 84.06266 51.49421 29.97785
#
# Poissons Ratio (x) = 0.17614 0.15147
# Poissons Ratio (y) = 0.28754 -0.03986
# Poissons Ratio (z) = 0.42475 -0.06846
#
# Static dielectric constant tensor:
#      x y z
#    x 1.800590 0.017260 -0.040990 
#    y 0.017260 1.799010 0.045740 
#    z -0.040990 0.045740 1.831840 
# 
# From -- ./inp_files/214957.got.cif
#   From: 2010.05.17/outbox.ucp.g08.bks.cvg/sg2_108_cif.got.tgz:214957.got - 2010.06.11 11:32:03.
