data_PCOD9073139
_publ_section_title
;
Structure prediction by ZEFSAII (Michael W. Deem and Ramdas Pophale) SiO2 
 PCOD9073139
Probable space group: P -1
;
_chemical_formula_sum "Si O2"
_cell_formula_units_Z 14
_cell_length_a 16.116688
_cell_length_b 13.431784
_cell_length_c 6.433579
_cell_angle_alpha 49.081588
_cell_angle_beta 120.377477
_cell_angle_gamma 134.697558
_cell_volume 745.443243
_symmetry_space_group_name_H-M "P -1"
_symmetry_group_IT_number 2
_symmetry_cell_setting 'triclinic'
loop_
_space_group_symop_operation_xyz
x,y,z
-x,-y,-z
loop_
_atom_site_type_symbol
_atom_site_label
_atom_site_fract_x
_atom_site_fract_y
_atom_site_fract_z
Si Si1 0.921280 0.395528 0.235506
Si Si2 0.073357 0.977926 0.953005
Si Si3 0.421121 0.253411 0.096721
Si Si4 0.735066 0.816510 0.391559
Si Si5 0.908182 0.623858 0.205007
Si Si6 0.247537 0.969366 0.501970
Si Si7 0.331032 0.433211 0.001763
O O1 0.882937 0.494723 0.177330
O O2 0.809181 0.217756 0.281390
O O3 0.009491 0.380533 0.513639
O O4 0.000000 0.500000 0.000000
O O5 0.148885 0.115356 0.692557
O O6 0.167532 0.972827 0.217163
O O7 0.985374 0.806101 0.970180
O O8 0.000000 0.000000 0.000000
O O9 0.367048 0.341587 0.020570
O O10 0.375751 0.094091 0.393545
O O11 0.366646 0.214203 0.851151
O O12 0.559670 0.383273 0.095122
O O13 0.695524 0.658039 0.686770
O O14 0.760694 0.950576 0.409422
O O15 0.787711 0.588438 0.187896
#
# Coordination Sequence:
#
# PCOD9073139 Si02
#       7
#     2   2   2   2   2   2   2
#     4  10  21  37  54  73 100 137 179 218 255 301
#     4  10  19  31  49  79 109 131 163 211 262 314
#     4   9  19  35  54  79 109 134 168 212 258 309
#     4  10  18  31  53  77 105 139 168 202 258 315
#     4  10  21  35  52  76 104 136 172 212 260 302
#     4   9  19  33  51  73 100 136 173 213 256 300
#     4  10  20  34  54  80 107 137 169 210 258 311
#
# _framework density 18.780773
#
# number of rings (size 3 to 8) (size 9 to 14) (size 15 to 20)
#    0.000    2.286    0.000    3.857    0.000    6.857 
#    0.000    0.714    0.000    1.714    0.000    0.000 
#    0.000    0.000    0.000    0.000    0.000    0.000 
#
# Total GULP energy -78071.699799 kJ/mol
# GULP energy per Si atom -5576.549986 kJ/mol
# Density = 1.873803 g / cm^3
# Si number density = 18.780773 Si / 1000 Ang^3
#
#
#
# Elastic Constant Matrix: (Units=GPa)
#
#
# Indices 1 2 3 4 5 6 
#
# 1 49.9868 30.0399 11.7729 -7.5209 -14.5817 15.5250
# 2 30.0399 133.6444 31.5254 -24.6851 -22.4293 17.8513
# 3 11.7729 31.5254 47.9892 -12.7929 -26.0764 -1.4847
# 4 -7.5209 -24.6851 -12.7929 30.7732 7.9511 -5.9365
# 5 -14.5817 -22.4293 -26.0764 7.9511 25.8211 -0.8118
# 6 15.5250 17.8513 -1.4847 -5.9365 -0.8118 23.5622
#
#
#
# Elastic Compliance Matrix: (Units=1/GPa)
#
#
# Indices 1 2 3 4 5 6 
#
# 1 0.031813 -0.002507 0.003086 -0.001379 0.018745 -0.018569
# 2 -0.002507 0.011098 -0.004448 0.004794 0.002075 -0.005757
# 3 0.003086 -0.004448 0.050991 0.007745 0.047245 0.008129
# 4 -0.001379 0.004794 0.007745 0.041090 -0.001191 0.008076
# 5 0.018745 0.002075 0.047245 -0.001191 0.098950 -0.007837
# 6 -0.018569 -0.005757 0.008129 0.008076 -0.007837 0.061315
#
#
# Mechanical properties :
#
#
# Convention : Reuss Voigt Hill
#
# Bulk Modulus (GPa) = 11.60570 42.03297 26.81934
# Shear Modulus (GPa) = 15.07313 26.58344 20.82829
#
# Velocity S-wave (km/s) = 2.83606 3.76634 3.33381
# Velocity P-wave (km/s) = 4.11307 6.42987 5.39725
#
# Compressibility (1/GPa) = 0.08616453
#
# Stress axis : x y z
#
# Youngs Moduli (GPa) = 31.43369 90.10569 19.61113
#
# Poissons Ratio (x) = 0.22591 -0.06053
# Poissons Ratio (y) = 0.07881 0.08723
# Poissons Ratio (z) = -0.09701 0.40081
#
# Static dielectric constant tensor:
#      x y z
#    x 1.644630 0.011760 -0.014370 
#    y 0.011760 1.691520 -0.021890 
#    z -0.014370 -0.021890 1.657150 
# 
# From -- ./inp_files/62309.got.cif
#   From: 2010.05.17/outbox.cif.g08.bks.cpg/sg2_32_cif.got.tgz:62309.got - 2010.06.03 11:33:40.
