data_PCOD9073738
_publ_section_title
;
Structure prediction by ZEFSAII (Michael W. Deem and Ramdas Pophale) SiO2 
 PCOD9073738
Probable space group: P -1
;
_chemical_formula_sum "Si O2"
_cell_formula_units_Z 16
_cell_length_a 21.000000
_cell_length_b 18.000000
_cell_length_c 12.000000
_cell_angle_alpha 140.000000
_cell_angle_beta 30.000000
_cell_angle_gamma 160.000000
_cell_volume 744.844803
_symmetry_space_group_name_H-M "P -1"
_symmetry_group_IT_number 2
_symmetry_cell_setting 'triclinic'
loop_
_space_group_symop_operation_xyz
x,y,z
-x,-y,-z
loop_
_atom_site_type_symbol
_atom_site_label
_atom_site_fract_x
_atom_site_fract_y
_atom_site_fract_z
Si Si1 0.014472 0.058906 0.418185
Si Si2 0.707183 0.105275 0.163347
Si Si3 0.946565 0.113252 0.168278
Si Si4 0.384197 0.191743 0.891188
Si Si5 0.146595 0.537283 0.593598
Si Si6 0.179389 0.721167 0.409202
Si Si7 0.843181 0.577332 0.319264
Si Si8 0.712237 0.789012 0.343891
O O1 0.041259 0.216033 0.567494
O O2 0.267231 0.205787 0.151092
O O3 0.000000 0.000000 0.500000
O O4 0.797336 0.858153 0.425006
O O5 0.716383 0.232488 0.362486
O O6 0.697794 0.985810 0.118692
O O7 0.464570 0.917553 0.235554
O O8 0.963177 0.307278 0.937298
O O9 0.894413 0.207287 0.361794
O O10 0.741551 0.907384 0.153740
O O11 0.888381 0.012635 0.261300
O O12 0.206332 0.271064 0.902525
O O13 0.678223 0.417060 0.684898
O O14 0.155337 0.510553 0.679960
O O15 0.889610 0.344278 0.692711
O O16 0.000000 0.500000 0.500000
O O17 0.570988 0.394267 0.467719
#
# Coordination Sequence:
#
# PCOD9073738 Si02
#       8
#     2   2   2   2   2   2   2   2
#     4  11  25  45  65 100 141 174 222 279 338 404
#     4  12  25  45  64  99 146 174 223 281 332 403
#     4  10  21  43  67 103 133 167 229 286 324 390
#     4  11  21  44  70  94 140 174 218 288 324 391
#     4  12  25  42  70 101 130 182 231 273 335 398
#     4  12  24  39  67  99 133 179 225 275 334 393
#     4  12  26  44  70  99 138 182 220 275 347 405
#     4  10  23  43  71  97 134 176 221 279 339 394
#
# _framework density 21.480985
#
# number of rings (size 3 to 8) (size 9 to 14) (size 15 to 20)
#    0.000    0.750    5.000    2.250    1.750    2.500 
#    0.000    0.000    0.000    0.000    0.000    0.000 
#    0.000    0.000    0.000    0.000    0.000    0.000 
#
# Total GULP energy -89439.842318 kJ/mol
# GULP energy per Si atom -5589.990145 kJ/mol
# Density = 2.143209 g / cm^3
# Si number density = 21.480985 Si / 1000 Ang^3
#
#
#
# Elastic Constant Matrix: (Units=GPa)
#
#
# Indices 1 2 3 4 5 6 
#
# 1 128.1689 8.2318 14.2815 -11.3123 -0.7794 20.3543
# 2 8.2318 35.5792 6.3774 -9.0972 -6.0139 16.1348
# 3 14.2815 6.3774 88.1242 -17.5092 -3.3540 8.2485
# 4 -11.3123 -9.0972 -17.5092 34.5753 2.9783 -14.9072
# 5 -0.7794 -6.0139 -3.3540 2.9783 38.2576 -1.6575
# 6 20.3543 16.1348 8.2485 -14.9072 -1.6575 50.8925
#
#
#
# Elastic Compliance Matrix: (Units=1/GPa)
#
#
# Indices 1 2 3 4 5 6 
#
# 1 0.008462 -0.000264 -0.000886 0.001031 -0.000151 -0.002860
# 2 -0.000264 0.034352 -0.000549 0.004269 0.004611 -0.009296
# 3 -0.000886 -0.000549 0.012735 0.006081 0.000550 0.000263
# 4 0.001031 0.004269 0.006081 0.037050 -0.001310 0.008059
# 5 -0.000151 0.004611 0.000550 -0.001310 0.026967 -0.000996
# 6 -0.002860 -0.009296 0.000263 0.008059 -0.000996 0.026026
#
#
# Mechanical properties :
#
#
# Convention : Reuss Voigt Hill
#
# Bulk Modulus (GPa) = 19.17484 34.40596 26.79040
# Shear Modulus (GPa) = 30.05269 39.61053 34.83161
#
# Velocity S-wave (km/s) = 3.74443 4.29882 4.03117
# Velocity P-wave (km/s) = 5.25739 6.37899 5.84515
#
# Compressibility (1/GPa) = 0.05215167
#
# Stress axis : x y z
#
# Youngs Moduli (GPa) = 118.17393 29.11018 78.52102
#
# Poissons Ratio (x) = 0.00769 0.06953
# Poissons Ratio (y) = 0.03120 0.04315
# Poissons Ratio (z) = 0.10465 0.01600
#
# Static dielectric constant tensor:
#      x y z
#    x 1.788890 -0.004470 0.009580 
#    y -0.004470 1.781850 -0.001110 
#    z 0.009580 -0.001110 1.806360 
# 
# From -- ./inp_files/307032.got.cif
#   From: 2010.05.17/outbox.ucp.g08.bks.cvg/sg2_154_cif.got.tgz:307032.got - 2010.06.11 11:32:03.
