data_PCOD9073237
_publ_section_title
;
Structure prediction by ZEFSAII (Michael W. Deem and Ramdas Pophale) SiO2 
 PCOD9073237
Probable space group: P -1
;
_chemical_formula_sum "Si O2"
_cell_formula_units_Z 16
_cell_length_a 12.000000
_cell_length_b 15.000000
_cell_length_c 15.000000
_cell_angle_alpha 20.000000
_cell_angle_beta 110.000000
_cell_angle_gamma 110.000000
_cell_volume 865.974363
_symmetry_space_group_name_H-M "P -1"
_symmetry_group_IT_number 2
_symmetry_cell_setting 'triclinic'
loop_
_space_group_symop_operation_xyz
x,y,z
-x,-y,-z
loop_
_atom_site_type_symbol
_atom_site_label
_atom_site_fract_x
_atom_site_fract_y
_atom_site_fract_z
Si Si1 0.623169 0.832751 0.412604
Si Si2 0.326806 0.468005 0.564521
Si Si3 0.633704 0.219276 0.532834
Si Si4 0.888210 0.735516 0.647502
Si Si5 0.042479 0.238853 0.148386
Si Si6 0.916767 0.729352 0.232334
Si Si7 0.419221 0.726095 0.166310
Si Si8 0.220081 0.298903 0.966628
O O1 0.509664 0.856337 0.426902
O O2 0.754596 0.815848 0.509045
O O3 0.602830 0.544031 0.638616
O O4 0.613448 0.043015 0.129376
O O5 0.338488 0.653869 0.480709
O O6 0.199963 0.304275 0.701672
O O7 0.347548 0.655233 0.306398
O O8 0.437516 0.274895 0.773878
O O9 0.687240 0.443403 0.266696
O O10 0.704213 0.959036 0.780115
O O11 0.899153 0.730696 0.764156
O O12 0.973407 0.953542 0.412770
O O13 0.943346 0.455305 0.903019
O O14 0.139349 0.274592 0.059231
O O15 0.866159 0.695833 0.148879
O O16 0.000000 0.500000 0.500000
O O17 0.000000 0.000000 0.000000
#
# Coordination Sequence:
#
# PCOD9073237 Si02
#       8
#     2   2   2   2   2   2   2   2
#     4  11  21  37  58  90 114 144 189 241 292 325
#     4   9  21  39  54  81 116 154 195 228 279 336
#     4  10  21  37  59  81 115 151 184 232 280 332
#     4  10  22  40  62  86 116 142 183 243 285 335
#     4  10  22  41  62  84 112 154 187 223 288 344
#     4  11  23  35  52  78 112 149 184 230 270 316
#     4  10  22  35  60  82 112 153 191 236 281 334
#     4  11  22  40  59  80 112 154 192 222 275 350
#
# _framework density 18.476298
#
# number of rings (size 3 to 8) (size 9 to 14) (size 15 to 20)
#    0.000    1.750    0.000    5.250    0.000   11.500 
#    0.000    1.250    0.000    0.000    0.000    0.000 
#    0.000    0.000    0.000    0.000    0.000    0.000 
#
# Total GULP energy -89132.652874 kJ/mol
# GULP energy per Si atom -5570.790805 kJ/mol
# Density = 1.843424 g / cm^3
# Si number density = 18.476298 Si / 1000 Ang^3
#
#
#
# Elastic Constant Matrix: (Units=GPa)
#
#
# Indices 1 2 3 4 5 6 
#
# 1 178.8654 44.8633 66.8465 19.0819 -15.8852 -7.4351
# 2 44.8633 48.2855 31.9219 18.5278 -2.9830 -5.6731
# 3 66.8465 31.9219 185.9329 15.2261 -5.6433 2.5450
# 4 19.0819 18.5278 15.2261 33.7252 -2.6576 -2.7146
# 5 -15.8852 -2.9830 -5.6433 -2.6576 48.6901 7.4456
# 6 -7.4351 -5.6731 2.5450 -2.7146 7.4456 40.8357
#
#
#
# Elastic Compliance Matrix: (Units=1/GPa)
#
#
# Indices 1 2 3 4 5 6 
#
# 1 0.007964 -0.005978 -0.001762 -0.000243 0.001960 0.000356
# 2 -0.005978 0.033500 -0.002563 -0.013729 -0.001414 0.003070
# 3 -0.001762 -0.002563 0.006523 -0.000620 0.000167 -0.001155
# 4 -0.000243 -0.013729 -0.000620 0.037723 0.001004 0.000412
# 5 0.001960 -0.001414 0.000167 0.001004 0.021738 -0.003747
# 6 0.000356 0.003070 -0.001155 0.000412 -0.003747 0.025762
#
#
# Mechanical properties :
#
#
# Convention : Reuss Voigt Hill
#
# Bulk Modulus (GPa) = 36.52174 77.81633 57.16903
# Shear Modulus (GPa) = 30.68536 42.61368 36.64952
#
# Velocity S-wave (km/s) = 4.07971 4.80771 4.45859
# Velocity P-wave (km/s) = 6.48087 8.54558 7.58382
#
# Compressibility (1/GPa) = 0.02738095
#
# Stress axis : x y z
#
# Youngs Moduli (GPa) = 125.57184 29.85055 153.29207
#
# Poissons Ratio (x) = 0.17845 0.27013
# Poissons Ratio (y) = 0.75067 0.39288
# Poissons Ratio (z) = 0.22128 0.07651
#
# Static dielectric constant tensor:
#      x y z
#    x 1.676880 0.026220 -0.005130 
#    y 0.026220 1.685600 -0.029610 
#    z -0.005130 -0.029610 1.647640 
# 
# From -- ./inp_files/522083.got.cif
#   From: 2010.05.17/outbox.ucp.g08.bks.cvg/sg2_262_cif.got.tgz:522083.got - 2010.06.11 11:32:03.
