data_PCOD9073027
_publ_section_title
;
Structure prediction by ZEFSAII (Michael W. Deem and Ramdas Pophale) SiO2 
 PCOD9073027
Probable space group: P -1
;
_chemical_formula_sum "Si O2"
_cell_formula_units_Z 16
_cell_length_a 18.000000
_cell_length_b 12.000000
_cell_length_c 6.000000
_cell_angle_alpha 130.000000
_cell_angle_beta 60.000000
_cell_angle_gamma 130.000000
_cell_volume 752.153660
_symmetry_space_group_name_H-M "P -1"
_symmetry_group_IT_number 2
_symmetry_cell_setting 'triclinic'
loop_
_space_group_symop_operation_xyz
x,y,z
-x,-y,-z
loop_
_atom_site_type_symbol
_atom_site_label
_atom_site_fract_x
_atom_site_fract_y
_atom_site_fract_z
Si Si1 0.633789 0.327856 0.202667
Si Si2 0.961979 0.591641 0.499647
Si Si3 0.222914 0.729568 0.797329
Si Si4 0.571449 0.490525 0.200088
Si Si5 0.546484 0.737843 0.291447
Si Si6 0.048892 0.133252 0.895556
Si Si7 0.605136 0.081287 0.566199
Si Si8 0.095645 0.882034 0.311790
O O1 0.726078 0.328976 0.172452
O O2 0.654472 0.475898 0.191375
O O3 0.549691 0.307129 0.473374
O O4 0.589823 0.165515 0.911092
O O5 0.878874 0.433750 0.299846
O O6 0.000000 0.500000 0.500000
O O7 0.038146 0.733535 0.393837
O O8 0.912165 0.686888 0.824036
O O9 0.302724 0.796335 0.564055
O O10 0.191149 0.867465 0.084414
O O11 0.500000 0.500000 0.500000
O O12 0.598103 0.635512 0.170978
O O13 0.500736 0.324827 0.958495
O O14 0.620749 0.929869 0.425186
O O15 0.973860 0.135726 0.821366
O O16 0.116878 0.062948 0.600484
O O17 0.000000 0.000000 0.000000
O O18 0.500000 0.000000 0.500000
#
# Coordination Sequence:
#
# PCOD9073027 Si02
#       8
#     2   2   2   2   2   2   2   2
#     4  11  22  39  66  92 129 170 227 286 333 396
#     4  11  23  42  72 101 134 178 225 285 345 415
#     4  12  26  37  70 102 134 171 236 279 340 414
#     4   9  19  36  68  86 122 172 224 274 344 392
#     4  10  20  40  65  90 123 180 223 274 339 398
#     4   9  20  41  75  93 136 176 219 274 356 412
#     4  12  24  41  66  93 134 176 229 278 339 397
#     4  10  22  43  70  99 132 179 219 281 351 419
#
# _framework density 21.272248999999999
#
# number of rings (size 3 to 8) (size 9 to 14) (size 15 to 20)
#    0.000    1.500    3.750    0.750    1.750    0.000 
#    0.000    0.000   66.000    0.000    0.000    0.000 
#    0.000    0.000    0.000    0.000    0.000    0.000 
#
# Total GULP energy -89081.740206 kJ/mol
# GULP energy per Si atom -5567.608763 kJ/mol
# Density = 2.122383 g / cm^3
# Si number density = 21.272249 Si / 1000 Ang^3
#
#
#
# Elastic Constant Matrix: (Units=GPa)
#
#
# Indices 1 2 3 4 5 6 
#
# 1 122.9308 27.3107 28.3858 4.9934 -0.6114 -41.0912
# 2 27.3107 50.8797 6.8158 6.6201 -5.0352 -26.4454
# 3 28.3858 6.8158 120.3314 8.3389 -12.9289 -5.7517
# 4 4.9934 6.6201 8.3389 27.2925 -9.6310 -11.7587
# 5 -0.6114 -5.0352 -12.9289 -9.6310 27.1416 1.2443
# 6 -41.0912 -26.4454 -5.7517 -11.7587 1.2443 37.0639
#
#
#
# Elastic Compliance Matrix: (Units=1/GPa)
#
#
# Indices 1 2 3 4 5 6 
#
# 1 0.014435 0.001557 -0.002973 0.006062 0.000498 0.018560
# 2 0.001557 0.032563 -0.000636 0.005739 0.006596 0.026461
# 3 -0.002973 -0.000636 0.009448 -0.002238 0.003664 -0.003117
# 4 0.006062 0.005739 -0.002238 0.052430 0.017524 0.026513
# 5 0.000498 0.006596 0.003664 0.017524 0.045591 0.009856
# 6 0.018560 0.026461 -0.003117 0.026513 0.009856 0.074034
#
#
# Mechanical properties :
#
#
# Convention : Reuss Voigt Hill
#
# Bulk Modulus (GPa) = 19.10498 46.57407 32.83953
# Shear Modulus (GPa) = 19.99598 33.74158 26.86878
#
# Velocity S-wave (km/s) = 3.06927 3.98701 3.55785
# Velocity P-wave (km/s) = 4.64341 6.56786 5.68762
#
# Compressibility (1/GPa) = 0.05234237
#
# Stress axis : x y z
#
# Youngs Moduli (GPa) = 69.27460 30.70973 105.84808
#
# Poissons Ratio (x) = -0.04782 0.31467
# Poissons Ratio (y) = -0.10787 0.06731
# Poissons Ratio (z) = 0.20594 0.01953
#
# Static dielectric constant tensor:
#      x y z
#    x 1.712660 -0.105590 0.055350 
#    y -0.105590 1.706450 -0.004800 
#    z 0.055350 -0.004800 1.842710 
# 
# From -- ./inp_files/109903.got.cif
#   From: 2010.05.17/outbox.ucp.g08.bks.cvg/sg2_55_cif.got.tgz:109903.got - 2010.06.11 11:32:03.
