data_PCOD9073087
_publ_section_title
;
Structure prediction by ZEFSAII (Michael W. Deem and Ramdas Pophale) SiO2 
 PCOD9073087
Probable space group: P -1
;
_chemical_formula_sum "Si O2"
_cell_formula_units_Z 16
_cell_length_a 9.000000
_cell_length_b 18.000000
_cell_length_c 9.000000
_cell_angle_alpha 90.000000
_cell_angle_beta 90.000000
_cell_angle_gamma 30.000000
_cell_volume 729.000000
_symmetry_space_group_name_H-M "P -1"
_symmetry_group_IT_number 2
_symmetry_cell_setting 'triclinic'
loop_
_space_group_symop_operation_xyz
x,y,z
-x,-y,-z
loop_
_atom_site_type_symbol
_atom_site_label
_atom_site_fract_x
_atom_site_fract_y
_atom_site_fract_z
Si Si1 0.234364 0.581890 0.828371
Si Si2 0.442876 0.946200 0.076737
Si Si3 0.382624 0.441011 0.128001
Si Si4 0.303350 0.721861 0.339949
Si Si5 0.308651 0.080722 0.648608
Si Si6 0.849164 0.144465 0.974038
Si Si7 0.603062 0.811599 0.781335
Si Si8 0.700976 0.618172 0.596649
O O1 0.377787 0.600356 0.827870
O O2 0.441154 0.437173 0.736780
O O3 0.916278 0.715637 0.756500
O O4 0.210775 0.559706 0.997283
O O5 0.591249 0.896192 0.238155
O O6 0.558931 0.832332 0.961715
O O7 0.089065 0.091141 0.062807
O O8 0.500000 0.000000 0.000000
O O9 0.541124 0.302260 0.048671
O O10 0.238660 0.470522 0.276668
O O11 0.440776 0.704846 0.482246
O O12 0.042243 0.776260 0.379438
O O13 0.197397 0.820245 0.201773
O O14 0.500000 0.000000 0.500000
O O15 0.377033 0.970623 0.721278
O O16 0.000000 0.000000 0.000000
O O17 0.607854 0.733178 0.688516
O O18 0.000000 0.500000 0.500000
#
# Coordination Sequence:
#
# PCOD9073087 Si02
#       8
#     2   2   2   2   2   2   2   2
#     4  10  23  45  72 102 132 183 254 294 346 417
#     4  10  20  41  67  95 139 168 234 279 337 407
#     4  10  24  41  74  98 134 186 243 297 353 419
#     4  11  25  46  69 102 146 184 237 295 355 420
#     4  11  26  43  71 110 142 182 234 293 360 421
#     4  11  22  43  69 105 135 188 233 290 350 426
#     4  11  23  45  69 100 142 188 231 295 350 426
#     4  12  27  48  64 103 151 190 232 290 371 430
#
# _framework density 21.947873999999999
#
# number of rings (size 3 to 8) (size 9 to 14) (size 15 to 20)
#    0.000    1.250    3.750    2.250    7.000    3.500 
#    2.250    0.000    0.000    0.000    0.000    0.000 
#    0.000    0.000    0.000    0.000    0.000    0.000 
#
# Total GULP energy -89204.195359 kJ/mol
# GULP energy per Si atom -5575.262210 kJ/mol
# Density = 2.189792 g / cm^3
# Si number density = 21.947874 Si / 1000 Ang^3
#
#
#
# Elastic Constant Matrix: (Units=GPa)
#
#
# Indices 1 2 3 4 5 6 
#
# 1 78.3659 15.8807 46.9356 6.6879 16.8663 3.7741
# 2 15.8807 55.2840 8.4679 17.7151 1.2207 -5.1320
# 3 46.9356 8.4679 137.8229 34.0529 17.8051 -7.6244
# 4 6.6879 17.7151 34.0529 15.4076 -0.7580 6.9078
# 5 16.8663 1.2207 17.8051 -0.7580 53.1498 3.2212
# 6 3.7741 -5.1320 -7.6244 6.9078 3.2212 46.1550
#
#
#
# Elastic Compliance Matrix: (Units=1/GPa)
#
#
# Indices 1 2 3 4 5 6 
#
# 1 0.004326 0.024466 0.020155 -0.083605 -0.011029 0.018979
# 2 0.024466 -0.042328 -0.054491 0.178867 0.016659 -0.043641
# 3 0.020155 -0.054491 -0.039229 0.158624 0.012611 -0.038808
# 4 -0.083605 0.178867 0.158624 -0.517196 -0.046187 0.133558
# 5 -0.011029 0.016659 0.012611 -0.046187 0.016406 0.010605
# 6 0.018979 -0.043641 -0.038808 0.133558 0.010605 -0.011878
#
#
# Mechanical properties :
#
#
# Convention : Reuss Voigt Hill
#
# Bulk Modulus (GPa) = -10.31228 46.00458 17.84615
# Shear Modulus (GPa) = -8.29901 36.28838 13.99469
#
# Velocity S-wave (km/s) = -1.94665 4.07060 2.52788
# Velocity P-wave (km/s) = 3.12431 6.56501 4.08277
#
# Compressibility (1/GPa) = -0.09697180
#
# Stress axis : x y z
#
# Youngs Moduli (GPa) = 231.16425 -23.62506 -25.49148
#
# Poissons Ratio (x) = 0.57800 0.51379
# Poissons Ratio (y) = -5.65560 -1.38907
# Poissons Ratio (z) = -4.65917 -1.28736
#
# Static dielectric constant tensor:
#      x y z
#    x 1.828180 -0.028830 -0.037530 
#    y -0.028830 1.825990 0.025800 
#    z -0.037530 0.025800 1.808060 
# 
# From -- ./inp_files/217682.got.cif
#   From: 2010.05.17/outbox.ucp.g08.bks.cvg/sg2_109_cif.got.tgz:217682.got - 2010.06.11 11:32:03.
