data_PCOD9073411
_publ_section_title
;
Structure prediction by ZEFSAII (Michael W. Deem and Ramdas Pophale) SiO2 
 PCOD9073411
Probable space group: P -1
;
_chemical_formula_sum "Si O2"
_cell_formula_units_Z 16
_cell_length_a 11.322803
_cell_length_b 16.076728
_cell_length_c 10.443184
_cell_angle_alpha 32.661788
_cell_angle_beta 109.666672
_cell_angle_gamma 131.142938
_cell_volume 652.830414
_symmetry_space_group_name_H-M "P -1"
_symmetry_group_IT_number 2
_symmetry_cell_setting 'triclinic'
loop_
_space_group_symop_operation_xyz
x,y,z
-x,-y,-z
loop_
_atom_site_type_symbol
_atom_site_label
_atom_site_fract_x
_atom_site_fract_y
_atom_site_fract_z
Si Si1 0.916810 0.265249 0.997124
Si Si2 0.588218 0.239953 0.322105
Si Si3 0.210203 0.814709 0.658784
Si Si4 0.993648 0.893074 0.424006
Si Si5 0.381135 0.973578 0.159495
Si Si6 0.913143 0.088954 0.976208
Si Si7 0.767835 0.675438 0.882780
Si Si8 0.235571 0.605334 0.365714
O O1 0.820113 0.189674 0.195772
O O2 0.107548 0.353760 0.979905
O O3 0.915534 0.430936 0.720076
O O4 0.830255 0.081591 0.091102
O O5 0.766523 0.340280 0.175482
O O6 0.585012 0.108936 0.601962
O O7 0.414922 0.068891 0.386218
O O8 0.579869 0.408596 0.150467
O O9 0.058006 0.776789 0.579387
O O10 0.841476 0.773202 0.638454
O O11 0.172246 0.136580 0.243015
O O12 0.936570 0.931031 0.225526
O O13 0.306929 0.779496 0.281028
O O14 0.227656 0.971257 0.102354
O O15 0.576964 0.232480 0.859548
O O16 0.117856 0.350348 0.695054
#
# Coordination Sequence:
#
# PCOD9073411 Si02
#       8
#     2   2   2   2   2   2   2   2
#     4   9  16  33  53  80 111 138 184 236 278 325
#     4  11  21  37  55  86 112 145 191 236 278 329
#     4  10  22  36  57  78 119 149 180 236 281 334
#     4   9  19  37  52  82 113 147 184 226 282 342
#     4  10  19  32  55  83 111 143 192 234 274 338
#     4  10  19  34  55  81 116 145 181 236 281 333
#     4   9  18  33  58  79 110 146 184 235 281 330
#     4  10  18  31  54  85 111 147 182 236 289 317
#
# _framework density 24.508662000000001
#
# number of rings (size 3 to 8) (size 9 to 14) (size 15 to 20)
#    0.000    2.250    1.250    4.500    0.000    2.500 
#    2.250    0.625    0.000    0.750    0.000    0.000 
#    0.000    0.000    0.000    0.000    0.000    0.000 
#
# Total GULP energy -89187.961645 kJ/mol
# GULP energy per Si atom -5574.247603 kJ/mol
# Density = 2.445288 g / cm^3
# Si number density = 24.508662 Si / 1000 Ang^3
#
#
#
# Elastic Constant Matrix: (Units=GPa)
#
#
# Indices 1 2 3 4 5 6 
#
# 1 60.2733 1.1513 30.1396 2.3126 1.7166 1.6348
# 2 1.1513 43.4891 33.5022 6.3128 6.3982 6.3761
# 3 30.1396 33.5022 115.2265 17.5872 -2.3376 22.6717
# 4 2.3126 6.3128 17.5872 32.7510 1.7568 4.4186
# 5 1.7166 6.3982 -2.3376 1.7568 24.3402 4.7195
# 6 1.6348 6.3761 22.6717 4.4186 4.7195 34.0938
#
#
#
# Elastic Compliance Matrix: (Units=1/GPa)
#
#
# Indices 1 2 3 4 5 6 
#
# 1 0.020465 0.005530 -0.008023 0.001534 -0.004504 0.003744
# 2 0.005530 0.033171 -0.011852 -0.000237 -0.010800 0.002938
# 3 -0.008023 -0.011852 0.016980 -0.005451 0.007454 -0.009016
# 4 0.001534 -0.000237 -0.005451 0.033603 -0.002926 -0.000355
# 5 -0.004504 -0.010800 0.007454 -0.002926 0.046880 -0.008831
# 6 0.003744 0.002938 -0.009016 -0.000355 -0.008831 0.035865
#
#
# Mechanical properties :
#
#
# Convention : Reuss Voigt Hill
#
# Bulk Modulus (GPa) = 23.85164 38.73056 31.29110
# Shear Modulus (GPa) = 21.77416 28.51672 25.14544
#
# Velocity S-wave (km/s) = 2.98388 3.41477 3.20657
# Velocity P-wave (km/s) = 4.65021 5.60220 5.14826
#
# Compressibility (1/GPa) = 0.04192583
#
# Stress axis : x y z
#
# Youngs Moduli (GPa) = 48.86310 30.14714 58.89208
#
# Poissons Ratio (x) = -0.16671 0.47250
# Poissons Ratio (y) = -0.27021 0.69799
# Poissons Ratio (z) = 0.39204 0.35730
#
# Static dielectric constant tensor:
#      x y z
#    x 2.042230 -0.001870 -0.072890 
#    y -0.001870 2.033430 -0.070120 
#    z -0.072890 -0.070120 2.060210 
# 
# From -- ./inp_files/332062.got.cif
#   From: 2010.05.17/outbox.cif.g08.bks.cpg/sg2_167_cif.got.tgz:332062.got - 2010.06.03 11:33:40.
