data_PCOD9073803
_publ_section_title
;
Structure prediction by ZEFSAII (Michael W. Deem and Ramdas Pophale) SiO2 
 PCOD9073803
Probable space group: P -1
;
_chemical_formula_sum "Si O2"
_cell_formula_units_Z 16
_cell_length_a 9.000000
_cell_length_b 12.000000
_cell_length_c 15.000000
_cell_angle_alpha 110.000000
_cell_angle_beta 40.000000
_cell_angle_gamma 130.000000
_cell_volume 759.581896
_symmetry_space_group_name_H-M "P -1"
_symmetry_group_IT_number 2
_symmetry_cell_setting 'triclinic'
loop_
_space_group_symop_operation_xyz
x,y,z
-x,-y,-z
loop_
_atom_site_type_symbol
_atom_site_label
_atom_site_fract_x
_atom_site_fract_y
_atom_site_fract_z
Si Si1 0.994664 0.079506 0.662384
Si Si2 0.351517 0.603951 0.357718
Si Si3 0.615632 0.118204 0.559445
Si Si4 0.694900 0.582876 0.344379
Si Si5 0.756312 0.776703 0.739522
Si Si6 0.476278 0.499878 0.904684
Si Si7 0.464030 0.086697 0.332711
Si Si8 0.840749 0.385733 0.150782
O O1 0.083207 0.236495 0.695674
O O2 0.274531 0.107534 0.493072
O O3 0.874867 0.946295 0.752147
O O4 0.742607 0.001870 0.681502
O O5 0.455528 0.767809 0.384307
O O6 0.481380 0.550751 0.352378
O O7 0.436056 0.589059 0.215540
O O8 0.000000 0.500000 0.500000
O O9 0.969725 0.201295 0.431441
O O10 0.500000 0.000000 0.500000
O O11 0.460691 0.014031 0.688112
O O12 0.500000 0.500000 0.500000
O O13 0.867438 0.520048 0.222810
O O14 0.700960 0.675796 0.820225
O O15 0.449845 0.695259 0.801961
O O16 0.500000 0.500000 0.000000
O O17 0.162003 0.443042 0.990667
O O18 0.746851 0.254632 0.226838
#
# Coordination Sequence:
#
# PCOD9073803 Si02
#       8
#     2   2   2   2   2   2   2   2
#     4   9  19  35  64  98 126 168 228 278 334 393
#     4  12  26  45  67 102 138 177 237 289 337 413
#     4  11  23  39  73 100 139 174 229 289 353 401
#     4  12  24  37  71 107 132 169 233 290 339 405
#     4  10  21  45  68  94 133 186 224 284 339 406
#     4  12  28  44  70 100 141 192 229 282 357 412
#     4   9  19  36  62  94 130 173 214 275 342 404
#     4  11  23  43  69  94 141 176 228 281 349 407
#
# _framework density 21.064219999999999
#
# number of rings (size 3 to 8) (size 9 to 14) (size 15 to 20)
#    0.000    1.250    3.750    2.625    5.250    0.000 
#    0.000    1.250    5.500    0.000    0.000    0.000 
#    0.000    0.000    0.000    0.000    0.000    0.000 
#
# Total GULP energy -89208.209258 kJ/mol
# GULP energy per Si atom -5575.513079 kJ/mol
# Density = 2.101628 g / cm^3
# Si number density = 21.064220 Si / 1000 Ang^3
#
#
#
# Elastic Constant Matrix: (Units=GPa)
#
#
# Indices 1 2 3 4 5 6 
#
# 1 56.6798 23.6709 28.2772 4.0733 8.9349 -7.9081
# 2 23.6709 139.1316 60.7223 -14.9629 11.2740 -6.2332
# 3 28.2772 60.7223 65.5506 17.2395 -7.1257 -4.5274
# 4 4.0733 -14.9629 17.2395 21.3071 -5.6511 10.0350
# 5 8.9349 11.2740 -7.1257 -5.6511 34.4816 -3.6955
# 6 -7.9081 -6.2332 -4.5274 10.0350 -3.6955 30.9089
#
#
#
# Elastic Compliance Matrix: (Units=1/GPa)
#
#
# Indices 1 2 3 4 5 6 
#
# 1 0.041999 0.067065 -0.129252 0.156940 -0.039191 -0.050300
# 2 0.067065 0.269327 -0.471583 0.626828 -0.123294 -0.215852
# 3 -0.129252 -0.471583 0.853372 -1.120378 0.221901 0.387103
# 4 0.156940 0.626828 -1.120378 1.538882 -0.281831 -0.530860
# 5 -0.039191 -0.123294 0.221901 -0.281831 0.089837 0.099853
# 6 -0.050300 -0.215852 0.387103 -0.530860 0.099853 0.216944
#
#
# Mechanical properties :
#
#
# Convention : Reuss Voigt Hill
#
# Bulk Modulus (GPa) = 10.29254 54.07809 32.18532
# Shear Modulus (GPa) = 1.21646 27.25229 14.23438
#
# Velocity S-wave (km/s) = 0.76076 3.60081 2.60236
# Velocity P-wave (km/s) = 2.38087 6.55869 4.93381
#
# Compressibility (1/GPa) = 0.09715772
#
# Stress axis : x y z
#
# Youngs Moduli (GPa) = 23.80985 3.71296 1.17182
#
# Poissons Ratio (x) = -0.24901 0.15146
# Poissons Ratio (y) = -1.59682 0.55261
# Poissons Ratio (z) = 3.07748 1.75097
#
# Static dielectric constant tensor:
#      x y z
#    x 1.804010 -0.007640 0.009610 
#    y -0.007640 1.553840 0.230520 
#    z 0.009610 0.230520 1.406700 
# 
# From -- ./inp_files/500519.got.cif
#   From: 2010.05.17/outbox.ucp.g08.bks.cvg/sg2_251_cif.got.tgz:500519.got - 2010.06.11 11:32:03.
