data_PCOD9073949
_publ_section_title
;
Structure prediction by ZEFSAII (Michael W. Deem and Ramdas Pophale) SiO2 
 PCOD9073949
Probable space group: P -1
;
_chemical_formula_sum "Si O2"
_cell_formula_units_Z 14
_cell_length_a 12.000000
_cell_length_b 12.000000
_cell_length_c 15.000000
_cell_angle_alpha 30.000000
_cell_angle_beta 40.000000
_cell_angle_gamma 50.000000
_cell_volume 692.779491
_symmetry_space_group_name_H-M "P -1"
_symmetry_group_IT_number 2
_symmetry_cell_setting 'triclinic'
loop_
_space_group_symop_operation_xyz
x,y,z
-x,-y,-z
loop_
_atom_site_type_symbol
_atom_site_label
_atom_site_fract_x
_atom_site_fract_y
_atom_site_fract_z
Si Si1 0.131749 0.800886 0.573133
Si Si2 0.891806 0.955371 0.412355
Si Si3 0.767536 0.791610 0.246433
Si Si4 0.086455 0.529039 0.173716
Si Si5 0.744347 0.979427 0.939387
Si Si6 0.396581 0.689754 0.332528
Si Si7 0.684567 0.042723 0.306777
O O1 0.286733 0.791294 0.412006
O O2 0.018893 0.569214 0.781522
O O3 0.190516 0.871655 0.587820
O O4 0.000000 0.000000 0.500000
O O5 0.880204 0.701962 0.634695
O O6 0.810263 0.953151 0.366638
O O7 0.088718 0.045719 0.207499
O O8 0.632792 0.576441 0.461757
O O9 0.952823 0.674704 0.210675
O O10 0.713487 0.913410 0.285473
O O11 0.776397 0.957113 0.040831
O O12 0.250396 0.696744 0.932181
O O13 0.677942 0.212333 0.781836
O O14 0.593547 0.787360 0.147067
O O15 0.500000 0.000000 0.500000
#
# Coordination Sequence:
#
# PCOD9073949 Si02
#       7
#     2   2   2   2   2   2   2
#     4   9  18  39  64  95 130 156 202 260 313 377
#     4  11  23  43  67  94 128 169 205 259 323 369
#     4  11  23  44  63  93 130 166 215 259 298 383
#     4  10  22  44  67  93 123 166 214 257 316 373
#     4  11  21  38  68  97 127 163 205 258 321 369
#     4  10  22  40  63 103 127 161 209 256 319 371
#     4  12  29  45  60  93 126 171 220 257 312 373
#
# _framework density 20.208449999999999
#
# number of rings (size 3 to 8) (size 9 to 14) (size 15 to 20)
#    0.000    1.429    5.714    0.857    2.000    4.000 
#    2.571    0.000    0.000    0.000    0.000    0.000 
#    0.000    0.000    0.000    0.000    0.000    0.000 
#
# Total GULP energy -78081.345030 kJ/mol
# GULP energy per Si atom -5577.238931 kJ/mol
# Density = 2.016246 g / cm^3
# Si number density = 20.208450 Si / 1000 Ang^3
#
#
#
# Elastic Constant Matrix: (Units=GPa)
#
#
# Indices 1 2 3 4 5 6 
#
# 1 72.6411 45.6227 40.8330 5.6452 24.2100 17.7769
# 2 45.6227 119.6910 65.9023 10.0536 0.0341 30.8793
# 3 40.8330 65.9023 178.3199 14.4285 -1.1036 6.3737
# 4 5.6452 10.0536 14.4285 29.7782 -5.2722 1.0716
# 5 24.2100 0.0341 -1.1036 -5.2722 42.5742 13.7035
# 6 17.7769 30.8793 6.3737 1.0716 13.7035 31.4717
#
#
#
# Elastic Compliance Matrix: (Units=1/GPa)
#
#
# Indices 1 2 3 4 5 6 
#
# 1 0.025597 -0.008246 -0.002658 -0.003538 -0.015373 0.000985
# 2 -0.008246 0.018024 -0.004107 -0.000195 0.009847 -0.016476
# 3 -0.002658 -0.004107 0.007755 -0.001972 0.000204 0.003939
# 4 -0.003538 -0.000195 -0.001972 0.036584 0.007046 -0.001724
# 5 -0.015373 0.009847 0.000204 0.007046 0.038967 -0.018226
# 6 0.000985 -0.016476 0.003939 -0.001724 -0.018226 0.054581
#
#
# Mechanical properties :
#
#
# Convention : Reuss Voigt Hill
#
# Bulk Modulus (GPa) = 46.83184 75.04087 60.93636
# Shear Modulus (GPa) = 22.86802 35.31775 29.09289
#
# Velocity S-wave (km/s) = 3.36759 4.18505 3.79837
# Velocity P-wave (km/s) = 6.19238 7.78247 7.03251
#
# Compressibility (1/GPa) = 0.02135299
#
# Stress axis : x y z
#
# Youngs Moduli (GPa) = 39.06749 55.48295 128.95690
#
# Poissons Ratio (x) = 0.45749 0.34277
# Poissons Ratio (y) = 0.32214 0.52965
# Poissons Ratio (z) = 0.10384 0.22788
#
# Static dielectric constant tensor:
#      x y z
#    x 1.852800 -0.044480 -0.017490 
#    y -0.044480 1.706730 0.007550 
#    z -0.017490 0.007550 1.707640 
# 
# From -- ./inp_files/518513.got.cif
#   From: 2010.05.17/outbox.ucp.g08.bks.cvg/sg2_260_cif.got.tgz:518513.got - 2010.06.11 11:32:03.
