data_PCOD9073420
_publ_section_title
;
Structure prediction by ZEFSAII (Michael W. Deem and Ramdas Pophale) SiO2 
 PCOD9073420
Probable space group: P -1
;
_chemical_formula_sum "Si O2"
_cell_formula_units_Z 16
_cell_length_a 15.000000
_cell_length_b 15.000000
_cell_length_c 9.000000
_cell_angle_alpha 100.000000
_cell_angle_beta 130.000000
_cell_angle_gamma 40.000000
_cell_volume 759.999475
_symmetry_space_group_name_H-M "P -1"
_symmetry_group_IT_number 2
_symmetry_cell_setting 'triclinic'
loop_
_space_group_symop_operation_xyz
x,y,z
-x,-y,-z
loop_
_atom_site_type_symbol
_atom_site_label
_atom_site_fract_x
_atom_site_fract_y
_atom_site_fract_z
Si Si1 0.846574 0.760099 0.729928
Si Si2 0.802832 0.121139 0.032347
Si Si3 0.645092 0.913067 0.857906
Si Si4 0.845874 0.519712 0.275463
Si Si5 0.351023 0.519106 0.767159
Si Si6 0.550885 0.126805 0.215267
Si Si7 0.903597 0.900024 0.292309
Si Si8 0.829250 0.986045 0.728109
O O1 0.822275 0.757138 0.877026
O O2 0.039898 0.580219 0.789722
O O3 0.597478 0.901366 0.431299
O O4 0.877649 0.846995 0.763519
O O5 0.543814 0.332147 0.833833
O O6 0.809035 0.045908 0.883039
O O7 0.874512 0.018889 0.227824
O O8 0.973387 0.088780 0.165629
O O9 0.574537 0.883731 0.891126
O O10 0.754019 0.928245 0.048600
O O11 0.799516 0.456789 0.296574
O O12 0.000000 0.500000 0.500000
O O13 0.591231 0.727908 0.022412
O O14 0.171025 0.690800 0.517133
O O15 0.500000 0.500000 0.000000
O O16 0.591965 0.148076 0.422491
O O17 0.809616 0.948537 0.372516
#
# Coordination Sequence:
#
# PCOD9073420 Si02
#       8
#     2   2   2   2   2   2   2   2
#     4  10  21  40  66  91 139 172 219 275 338 389
#     4  11  24  45  71  96 138 174 227 270 335 404
#     4  10  21  39  64  95 126 180 217 269 338 395
#     4  12  25  41  64 102 138 175 230 283 328 402
#     4  12  27  44  69 102 136 178 226 281 332 400
#     4  11  23  39  67  95 136 175 221 276 335 396
#     4  12  23  43  70  99 133 177 222 274 335 395
#     4  10  23  45  65  99 132 177 218 282 332 396
#
# _framework density 21.052645999999999
#
# number of rings (size 3 to 8) (size 9 to 14) (size 15 to 20)
#    0.000    1.000    2.500    4.875    1.750    2.500 
#    0.000    1.250    0.000    0.000    0.000    0.000 
#    0.000    0.000    0.000    0.000    0.000    0.000 
#
# Total GULP energy -89289.053639 kJ/mol
# GULP energy per Si atom -5580.565852 kJ/mol
# Density = 2.100473 g / cm^3
# Si number density = 21.052646 Si / 1000 Ang^3
#
#
#
# Elastic Constant Matrix: (Units=GPa)
#
#
# Indices 1 2 3 4 5 6 
#
# 1 107.0488 25.7231 21.4481 2.0027 6.0388 -8.5301
# 2 25.7231 82.3681 30.9462 1.0059 6.8217 -11.8397
# 3 21.4481 30.9462 63.4302 2.2412 11.6741 16.9976
# 4 2.0027 1.0059 2.2412 37.1207 5.4641 2.4995
# 5 6.0388 6.8217 11.6741 5.4641 20.9031 0.1162
# 6 -8.5301 -11.8397 16.9976 2.4995 0.1162 23.0523
#
#
#
# Elastic Compliance Matrix: (Units=1/GPa)
#
#
# Indices 1 2 3 4 5 6 
#
# 1 0.011293 0.000129 -0.006345 -0.000899 0.000424 0.009019
# 2 0.000129 0.022268 -0.018125 -0.001658 0.003112 0.025013
# 3 -0.006345 -0.018125 0.040784 0.003514 -0.015715 -0.042031
# 4 -0.000899 -0.001658 0.003514 0.028544 -0.008585 -0.006827
# 5 0.000424 0.003112 -0.015715 -0.008585 0.057644 0.013983
# 6 0.009019 0.025013 -0.042031 -0.006827 0.013983 0.091225
#
#
# Mechanical properties :
#
#
# Convention : Reuss Voigt Hill
#
# Bulk Modulus (GPa) = 38.96318 45.45353 42.20836
# Shear Modulus (GPa) = 16.18159 27.86389 22.02274
#
# Velocity S-wave (km/s) = 2.77542 3.64199 3.23782
# Velocity P-wave (km/s) = 5.36826 6.27078 5.83699
#
# Compressibility (1/GPa) = 0.02566526
#
# Stress axis : x y z
#
# Youngs Moduli (GPa) = 88.54816 44.90825 24.51915
#
# Poissons Ratio (x) = -0.00580 0.15557
# Poissons Ratio (y) = -0.01144 0.44440
# Poissons Ratio (z) = 0.56181 0.81394
#
# Static dielectric constant tensor:
#      x y z
#    x 1.767910 -0.020370 -0.028230 
#    y -0.020370 1.838620 -0.025550 
#    z -0.028230 -0.025550 1.775720 
# 
# From -- ./inp_files/272906.got.cif
#   From: 2010.05.17/outbox.ucp.g08.bks.cvg/sg2_137_cif.got.tgz:272906.got - 2010.06.11 11:32:03.
