data_PCOD9073249
_publ_section_title
;
Structure prediction by ZEFSAII (Michael W. Deem and Ramdas Pophale) SiO2 
 PCOD9073249
Probable space group: P -1
;
_chemical_formula_sum "Si O2"
_cell_formula_units_Z 16
_cell_length_a 21.000000
_cell_length_b 9.000000
_cell_length_c 21.000000
_cell_angle_alpha 130.000000
_cell_angle_beta 160.000000
_cell_angle_gamma 40.000000
_cell_volume 817.212732
_symmetry_space_group_name_H-M "P -1"
_symmetry_group_IT_number 2
_symmetry_cell_setting 'triclinic'
loop_
_space_group_symop_operation_xyz
x,y,z
-x,-y,-z
loop_
_atom_site_type_symbol
_atom_site_label
_atom_site_fract_x
_atom_site_fract_y
_atom_site_fract_z
Si Si1 0.734707 0.097234 0.798771
Si Si2 0.636160 0.701111 0.745712
Si Si3 0.324333 0.630253 0.506083
Si Si4 0.929251 0.512149 0.335129
Si Si5 0.464249 0.582238 0.914838
Si Si6 0.449061 0.246340 0.706148
Si Si7 0.116945 0.420072 0.190683
Si Si8 0.055117 0.129754 0.463142
O O1 0.544980 0.349589 0.653072
O O2 0.614516 0.185003 0.782115
O O3 0.755053 0.853499 0.736938
O O4 0.000000 0.000000 0.000000
O O5 0.420349 0.697808 0.556671
O O6 0.741586 0.614450 0.750270
O O7 0.548333 0.976476 0.747991
O O8 0.854263 0.529343 0.951832
O O9 0.121711 0.607115 0.290480
O O10 0.236758 0.842426 0.534859
O O11 0.879859 0.746638 0.390173
O O12 0.158288 0.401550 0.473214
O O13 0.008243 0.294198 0.400997
O O14 0.672875 0.596567 0.094776
O O15 0.483038 0.388103 0.830972
O O16 0.185076 0.815300 0.719894
O O17 0.500000 0.500000 0.000000
#
# Coordination Sequence:
#
# PCOD9073249 Si02
#       8
#     2   2   2   2   2   2   2   2
#     4  11  24  46  58  84 128 170 199 252 301 359
#     4  10  21  37  60  91 120 149 205 265 297 346
#     4  12  22  38  63  87 117 165 205 239 305 370
#     4   9  17  36  56  89 122 149 186 254 302 351
#     4   9  19  34  59  93 123 151 194 250 309 359
#     4  10  21  38  62  90 125 159 200 245 310 354
#     4  10  23  40  59  85 120 158 206 258 301 350
#     4   9  19  32  57  91 118 145 197 247 302 352
#
# _framework density 19.578745000000001
#
# number of rings (size 3 to 8) (size 9 to 14) (size 15 to 20)
#    0.000    2.000    2.500    1.500    3.500    0.000 
#    6.750    2.500    0.000    1.500    0.000    0.000 
#    0.000    0.000    0.000    0.000    0.000    0.000 
#
# Total GULP energy -89080.872047 kJ/mol
# GULP energy per Si atom -5567.554503 kJ/mol
# Density = 1.953418 g / cm^3
# Si number density = 19.578745 Si / 1000 Ang^3
#
#
#
# Elastic Constant Matrix: (Units=GPa)
#
#
# Indices 1 2 3 4 5 6 
#
# 1 59.1829 9.0269 16.4432 10.5172 29.4064 -4.5073
# 2 9.0269 104.6464 29.6594 8.1240 4.5662 -8.9171
# 3 16.4432 29.6594 87.5860 15.9242 29.2792 0.0107
# 4 10.5172 8.1240 15.9242 28.6323 1.8174 4.2986
# 5 29.4064 4.5662 29.2792 1.8174 28.7687 -6.8428
# 6 -4.5073 -8.9171 0.0107 4.2986 -6.8428 28.4932
#
#
#
# Elastic Compliance Matrix: (Units=1/GPa)
#
#
# Indices 1 2 3 4 5 6 
#
# 1 0.053307 -0.006356 0.022021 -0.023933 -0.076351 -0.008290
# 2 -0.006356 0.012095 -0.007787 0.001475 0.013807 0.005876
# 3 0.022021 -0.007787 0.031440 -0.018537 -0.054290 -0.009207
# 4 -0.023933 0.001475 -0.018537 0.051340 0.039476 -0.001582
# 5 -0.076351 0.013807 -0.054290 0.039476 0.169815 0.027090
# 6 -0.008290 0.005876 -0.009207 -0.001582 0.027090 0.042371
#
#
# Mechanical properties :
#
#
# Convention : Reuss Voigt Hill
#
# Bulk Modulus (GPa) = 8.88131 40.18603 24.53367
# Shear Modulus (GPa) = 13.08404 30.26455 21.67429
#
# Velocity S-wave (km/s) = 2.58791 3.93591 3.33082
# Velocity P-wave (km/s) = 3.67093 6.42068 5.22976
#
# Compressibility (1/GPa) = 0.11259598
#
# Stress axis : x y z
#
# Youngs Moduli (GPa) = 18.75939 82.67855 31.80659
#
# Poissons Ratio (x) = 0.52554 -0.70040
# Poissons Ratio (y) = 0.11924 0.24768
# Poissons Ratio (z) = -0.41309 0.64382
#
# Static dielectric constant tensor:
#      x y z
#    x 1.702580 0.014270 -0.010060 
#    y 0.014270 1.667610 -0.002490 
#    z -0.010060 -0.002490 1.739840 
# 
# From -- ./inp_files/416087.got.cif
#   From: 2010.05.17/outbox.ucp.g08.bks.cvg/sg2_209_cif.got.tgz:416087.got - 2010.06.11 11:32:03.
