data_PCOD9073892
_publ_section_title
;
Structure prediction by ZEFSAII (Michael W. Deem and Ramdas Pophale) SiO2 
 PCOD9073892
Probable space group: P -1
;
_chemical_formula_sum "Si O2"
_cell_formula_units_Z 14
_cell_length_a 22.533832
_cell_length_b 13.397482
_cell_length_c 8.103563
_cell_angle_alpha 30.690803
_cell_angle_beta 43.198418
_cell_angle_gamma 28.376123
_cell_volume 589.581608
_symmetry_space_group_name_H-M "P -1"
_symmetry_group_IT_number 2
_symmetry_cell_setting 'triclinic'
loop_
_space_group_symop_operation_xyz
x,y,z
-x,-y,-z
loop_
_atom_site_type_symbol
_atom_site_label
_atom_site_fract_x
_atom_site_fract_y
_atom_site_fract_z
Si Si1 0.997856 0.529443 0.220133
Si Si2 0.616635 0.491704 0.088699
Si Si3 0.382854 0.116246 0.290784
Si Si4 0.140811 0.473041 0.722578
Si Si5 0.670652 0.582273 0.378458
Si Si6 0.339439 0.801021 0.235995
Si Si7 0.791848 0.955101 0.281211
O O1 0.903583 0.798652 0.147085
O O2 0.032193 0.605751 0.886713
O O3 0.129077 0.267172 0.412469
O O4 0.933526 0.427712 0.440751
O O5 0.470571 0.683793 0.080659
O O6 0.643015 0.327009 0.437792
O O7 0.707732 0.264199 0.086533
O O8 0.636949 0.683844 0.818293
O O9 0.304392 0.051690 0.577012
O O10 0.530923 0.830551 0.383654
O O11 0.338530 0.274066 0.977117
O O12 0.235295 0.135125 0.994173
O O13 0.224925 0.504884 0.585753
O O14 0.691683 0.325849 0.642986
#
# Coordination Sequence:
#
# PCOD9073892 Si02
#       7
#     2   2   2   2   2   2   2
#     4  10  24  38  62  74 120 160 188 218 286 330
#     4  10  18  31  59  91 112 140 187 239 283 327
#     4  10  18  31  59  91 112 140 187 239 283 327
#     4  11  20  42  56  86 112 153 187 236 271 347
#     4  10  18  31  59  91 112 140 187 239 283 327
#     4  10  18  31  59  91 112 140 187 239 283 327
#     4  11  20  42  56  86 112 153 187 236 271 347
#
# _framework density 23.745650999999999
#
# number of rings (size 3 to 8) (size 9 to 14) (size 15 to 20)
#    0.000    1.714    5.714    0.000    0.000    0.000 
#    0.000   11.429    0.000    0.000    0.000    0.000 
#    0.000    0.000    0.000    0.000    0.000    0.000 
#
# Total GULP energy -78373.484955 kJ/mol
# GULP energy per Si atom -5598.106068 kJ/mol
# Density = 2.369161 g / cm^3
# Si number density = 23.745651 Si / 1000 Ang^3
#
#
#
# Elastic Constant Matrix: (Units=GPa)
#
#
# Indices 1 2 3 4 5 6 
#
# 1 164.5063 50.3066 33.7103 -6.2237 -38.8186 -5.8692
# 2 50.3066 162.3055 31.3078 -5.2088 -34.6413 22.9570
# 3 33.7103 31.3078 55.9325 -9.1939 -25.5769 6.2853
# 4 -6.2237 -5.2088 -9.1939 19.8201 7.5569 -3.7587
# 5 -38.8186 -34.6413 -25.5769 7.5569 42.6836 -4.2332
# 6 -5.8692 22.9570 6.2853 -3.7587 -4.2332 44.6119
#
#
#
# Elastic Compliance Matrix: (Units=1/GPa)
#
#
# Indices 1 2 3 4 5 6 
#
# 1 0.008302 -0.001376 -0.002055 -0.000320 0.005516 0.002586
# 2 -0.001376 0.008357 -0.001615 -0.001421 0.004423 -0.003954
# 3 -0.002055 -0.001615 0.026474 0.006586 0.011366 -0.001535
# 4 -0.000320 -0.001421 0.006586 0.056477 -0.007116 0.003844
# 5 0.005516 0.004423 0.011366 -0.007116 0.040110 0.000055
# 6 0.002586 -0.003954 -0.001535 0.003844 0.000055 0.025336
#
#
# Mechanical properties :
#
#
# Convention : Reuss Voigt Hill
#
# Bulk Modulus (GPa) = 30.26532 68.15487 49.21009
# Shear Modulus (GPa) = 26.85854 39.25109 33.05481
#
# Velocity S-wave (km/s) = 3.36682 4.07010 3.73505
# Velocity P-wave (km/s) = 5.28084 7.13105 6.27452
#
# Compressibility (1/GPa) = 0.03304112
#
# Stress axis : x y z
#
# Youngs Moduli (GPa) = 120.44865 119.66315 37.77350
#
# Poissons Ratio (x) = 0.16463 0.07761
# Poissons Ratio (y) = 0.16571 0.06102
# Poissons Ratio (z) = 0.24747 0.19331
#
# Static dielectric constant tensor:
#      x y z
#    x 1.959050 0.013110 0.062840 
#    y 0.013110 1.827640 0.044950 
#    z 0.062840 0.044950 1.942240 
# 
# From -- ./inp_files/214153.got.cif
#   From: 2010.05.17/outbox.cif.g08.bks.cpg/sg2_108_cif.got.tgz:214153.got - 2010.06.03 11:33:40.
