data_PCOD9073316
_publ_section_title
;
Structure prediction by ZEFSAII (Michael W. Deem and Ramdas Pophale) SiO2 
 PCOD9073316
Probable space group: P -1
;
_chemical_formula_sum "Si O2"
_cell_formula_units_Z 16
_cell_length_a 9.000000
_cell_length_b 24.000000
_cell_length_c 21.000000
_cell_angle_alpha 160.000000
_cell_angle_beta 150.000000
_cell_angle_gamma 40.000000
_cell_volume 744.844803
_symmetry_space_group_name_H-M "P -1"
_symmetry_group_IT_number 2
_symmetry_cell_setting 'triclinic'
loop_
_space_group_symop_operation_xyz
x,y,z
-x,-y,-z
loop_
_atom_site_type_symbol
_atom_site_label
_atom_site_fract_x
_atom_site_fract_y
_atom_site_fract_z
Si Si1 0.591402 0.466666 0.143817
Si Si2 0.409893 0.684774 0.802363
Si Si3 0.067368 0.194105 0.713166
Si Si4 0.318338 0.355310 0.502676
Si Si5 0.725348 0.336204 0.846463
Si Si6 0.932033 0.653894 0.879185
Si Si7 0.304868 0.906179 0.656882
Si Si8 0.229523 0.034128 0.390783
O O1 0.586736 0.601514 0.342058
O O2 0.394732 0.508627 0.056773
O O3 0.928996 0.462456 0.240604
O O4 0.411529 0.287159 0.916367
O O5 0.427386 0.532580 0.693876
O O6 0.578139 0.633605 0.746994
O O7 0.052969 0.684249 0.672887
O O8 0.577735 0.888531 0.092497
O O9 0.957300 0.295149 0.836957
O O10 0.858661 0.185627 0.565043
O O11 0.000000 0.000000 0.500000
O O12 0.444365 0.202575 0.355772
O O13 0.422777 0.173660 0.563842
O O14 0.892827 0.354979 0.997426
O O15 0.052084 0.844371 0.099744
O O16 0.030082 0.894822 0.594138
O O17 0.500000 0.000000 0.500000
#
# Coordination Sequence:
#
# PCOD9073316 Si02
#       8
#     2   2   2   2   2   2   2   2
#     4  12  24  37  59  96 125 156 202 256 309 375
#     4  10  24  44  67  88 120 168 215 262 303 364
#     4  12  22  36  59  91 128 160 194 254 316 375
#     4  11  24  43  64  93 123 162 217 259 309 361
#     4  11  21  35  56  92 125 156 199 247 309 378
#     4  10  21  38  61  83 125 164 200 249 308 369
#     4  11  22  40  67  89 124 164 209 257 308 371
#     4   9  19  37  56  87 120 163 199 241 307 371
#
# _framework density 21.480985
#
# number of rings (size 3 to 8) (size 9 to 14) (size 15 to 20)
#    0.000    1.250    1.250    7.125    3.500    0.500 
#    0.000    0.000    0.000    1.500    0.000    0.000 
#    0.000    0.000    0.000    0.000    0.000    0.000 
#
# Total GULP energy -89241.803410 kJ/mol
# GULP energy per Si atom -5577.612713 kJ/mol
# Density = 2.143209 g / cm^3
# Si number density = 21.480985 Si / 1000 Ang^3
#
#
#
# Elastic Constant Matrix: (Units=GPa)
#
#
# Indices 1 2 3 4 5 6 
#
# 1 129.9114 42.7567 32.4549 6.1922 21.1373 -38.8674
# 2 42.7567 97.9603 15.8061 17.8374 6.4967 -36.7524
# 3 32.4549 15.8061 54.9677 4.9288 21.2071 -6.5130
# 4 6.1922 17.8374 4.9288 27.8027 -8.7755 0.8774
# 5 21.1373 6.4967 21.2071 -8.7755 36.7106 5.6178
# 6 -38.8674 -36.7524 -6.5130 0.8774 5.6178 51.2222
#
#
#
# Elastic Compliance Matrix: (Units=1/GPa)
#
#
# Indices 1 2 3 4 5 6 
#
# 1 0.013430 0.000688 -0.002406 -0.006457 -0.009777 0.011561
# 2 0.000688 0.019718 0.001940 -0.017355 -0.011679 0.016495
# 3 -0.002406 0.001940 0.027986 -0.011761 -0.018760 0.005384
# 4 -0.006457 -0.017355 -0.011761 0.061414 0.031844 -0.023391
# 5 -0.009777 -0.011679 -0.018760 0.031844 0.057212 -0.025004
# 6 0.011561 0.016495 0.005384 -0.023391 -0.025004 0.043958
#
#
# Mechanical properties :
#
#
# Convention : Reuss Voigt Hill
#
# Bulk Modulus (GPa) = 16.23965 51.65276 33.94621
# Shear Modulus (GPa) = 20.50863 35.93520 28.22191
#
# Velocity S-wave (km/s) = 3.09323 4.09453 3.62858
# Velocity P-wave (km/s) = 4.50931 6.81554 5.77864
#
# Compressibility (1/GPa) = 0.06157767
#
# Stress axis : x y z
#
# Youngs Moduli (GPa) = 74.46241 50.71516 35.73240
#
# Poissons Ratio (x) = -0.03490 0.08599
# Poissons Ratio (y) = -0.05124 -0.06934
# Poissons Ratio (z) = 0.17919 -0.09841
#
# Static dielectric constant tensor:
#      x y z
#    x 1.791440 0.005210 0.002080 
#    y 0.005210 1.813610 -0.036190 
#    z 0.002080 -0.036190 1.835730 
# 
# From -- ./inp_files/274191.got.cif
#   From: 2010.05.17/outbox.ucp.g08.bks.cvg/sg2_138_cif.got.tgz:274191.got - 2010.06.11 11:32:03.
