data_PCOD9073989
_publ_section_title
;
Structure prediction by ZEFSAII (Michael W. Deem and Ramdas Pophale) SiO2 
 PCOD9073989
Probable space group: P -1
;
_chemical_formula_sum "Si O2"
_cell_formula_units_Z 16
_cell_length_a 18.000000
_cell_length_b 12.000000
_cell_length_c 21.000000
_cell_angle_alpha 150.000000
_cell_angle_beta 160.000000
_cell_angle_gamma 30.000000
_cell_volume 738.640068
_symmetry_space_group_name_H-M "P -1"
_symmetry_group_IT_number 2
_symmetry_cell_setting 'triclinic'
loop_
_space_group_symop_operation_xyz
x,y,z
-x,-y,-z
loop_
_atom_site_type_symbol
_atom_site_label
_atom_site_fract_x
_atom_site_fract_y
_atom_site_fract_z
Si Si1 0.555573 0.900919 0.344000
Si Si2 0.895980 0.751661 0.074826
Si Si3 0.979671 0.192549 0.390440
Si Si4 0.058568 0.575060 0.731485
Si Si5 0.593508 0.775342 0.509829
Si Si6 0.268478 0.502058 0.078497
Si Si7 0.540130 0.547211 0.919730
Si Si8 0.140874 0.034141 0.981767
O O1 0.473574 0.716621 0.228183
O O2 0.814566 0.781438 0.474313
O O3 0.521802 0.135229 0.471871
O O4 0.375829 0.969155 0.176604
O O5 0.806734 0.901169 0.014378
O O6 0.034390 0.910283 0.299216
O O7 0.745354 0.693679 0.979953
O O8 0.000000 0.500000 0.000000
O O9 0.988374 0.364738 0.540125
O O10 0.716646 0.291131 0.206955
O O11 0.866783 0.690306 0.687209
O O12 0.055660 0.804598 0.801889
O O13 0.316456 0.462499 0.906141
O O14 0.494917 0.572482 0.308692
O O15 0.500000 0.000000 0.500000
O O16 0.303950 0.408371 0.989201
O O17 0.053961 0.739830 0.033598
#
# Coordination Sequence:
#
# PCOD9073989 Si02
#       8
#     2   2   2   2   2   2   2   2
#     4  11  23  38  67 105 131 170 221 275 333 387
#     4  10  25  44  66  91 131 186 219 266 327 392
#     4  12  26  43  69  98 136 176 219 270 338 397
#     4  11  24  41  68 109 131 166 221 278 341 383
#     4  12  20  39  69 101 133 172 221 273 325 394
#     4  11  21  43  66  95 135 179 222 264 327 392
#     4  11  24  40  68  99 142 168 210 284 339 387
#     4  10  22  40  68  98 138 168 222 279 322 390
#
# _framework density 21.661429999999999
#
# number of rings (size 3 to 8) (size 9 to 14) (size 15 to 20)
#    0.000    1.000    3.750    2.625    5.250    3.500 
#    0.000    7.500    0.000    0.000    0.000    0.000 
#    0.000    0.000    0.000    0.000    0.000    0.000 
#
# Total GULP energy -89137.863732 kJ/mol
# GULP energy per Si atom -5571.116483 kJ/mol
# Density = 2.161213 g / cm^3
# Si number density = 21.661430 Si / 1000 Ang^3
#
#
#
# Elastic Constant Matrix: (Units=GPa)
#
#
# Indices 1 2 3 4 5 6 
#
# 1 102.7137 38.9530 21.3808 -7.1892 19.7220 6.2591
# 2 38.9530 56.1569 41.4238 10.4799 -1.0222 -18.0025
# 3 21.3808 41.4238 70.6651 -9.3796 12.3061 -8.3267
# 4 -7.1892 10.4799 -9.3796 26.5013 -13.6020 19.2144
# 5 19.7220 -1.0222 12.3061 -13.6020 15.3976 21.7055
# 6 6.2591 -18.0025 -8.3267 19.2144 21.7055 22.2943
#
#
#
# Elastic Compliance Matrix: (Units=1/GPa)
#
#
# Indices 1 2 3 4 5 6 
#
# 1 0.034416 -0.051943 0.030901 0.016761 -0.052147 -0.003741
# 2 -0.051943 0.117574 -0.076625 -0.029934 0.110845 -0.001214
# 3 0.030901 -0.076625 0.065264 0.027492 -0.069679 -0.002030
# 4 0.016761 -0.029934 0.027492 0.019351 -0.057485 0.020679
# 5 -0.052147 0.110845 -0.069679 -0.057485 0.096559 0.033657
# 6 -0.003741 -0.001214 -0.002030 0.020679 0.033657 -0.006424
#
#
# Mechanical properties :
#
#
# Convention : Reuss Voigt Hill
#
# Bulk Modulus (GPa) = 45.62147 48.11680 46.86914
# Shear Modulus (GPa) = 9.44500 21.35720 15.40110
#
# Velocity S-wave (km/s) = 2.09039 3.14340 2.66934
# Velocity P-wave (km/s) = 5.18972 5.95281 5.58432
#
# Compressibility (1/GPa) = 0.02191950
#
# Stress axis : x y z
#
# Youngs Moduli (GPa) = 29.05618 8.50525 15.32246
#
# Poissons Ratio (x) = 0.44179 -0.47348
# Poissons Ratio (y) = 1.50926 1.17409
# Poissons Ratio (z) = -0.89787 0.65172
#
# Static dielectric constant tensor:
#      x y z
#    x 1.962400 0.024880 -0.120840 
#    y 0.024880 1.807230 0.023170 
#    z -0.120840 0.023170 1.861440 
# 
# From -- ./inp_files/346509.got.cif
#   From: 2010.05.17/outbox.ucp.g08.bks.cvg/sg2_174_cif.got.tgz:346509.got - 2010.06.11 11:32:03.
