data_PCOD9073543
_publ_section_title
;
Structure prediction by ZEFSAII (Michael W. Deem and Ramdas Pophale) SiO2 
 PCOD9073543
Probable space group: P -1
;
_chemical_formula_sum "Si O2"
_cell_formula_units_Z 16
_cell_length_a 9.000000
_cell_length_b 15.000000
_cell_length_c 21.000000
_cell_angle_alpha 160.000000
_cell_angle_beta 120.000000
_cell_angle_gamma 70.000000
_cell_volume 757.501203
_symmetry_space_group_name_H-M "P -1"
_symmetry_group_IT_number 2
_symmetry_cell_setting 'triclinic'
loop_
_space_group_symop_operation_xyz
x,y,z
-x,-y,-z
loop_
_atom_site_type_symbol
_atom_site_label
_atom_site_fract_x
_atom_site_fract_y
_atom_site_fract_z
Si Si1 0.862005 0.098233 0.252890
Si Si2 0.810665 0.457405 0.829307
Si Si3 0.156076 0.664453 0.380167
Si Si4 0.527552 0.433919 0.864517
Si Si5 0.171946 0.278632 0.772239
Si Si6 0.426650 0.928266 0.729505
Si Si7 0.085089 0.736624 0.767542
Si Si8 0.823759 0.053096 0.937920
O O1 0.680486 0.120325 0.259423
O O2 0.843518 0.107225 0.179381
O O3 0.029079 0.399149 0.516354
O O4 0.882448 0.807532 0.081852
O O5 0.732889 0.351221 0.670238
O O6 0.640264 0.347886 0.773366
O O7 0.991601 0.365154 0.802341
O O8 0.288212 0.720810 0.507610
O O9 0.106144 0.942379 0.553012
O O10 0.973502 0.356769 0.142842
O O11 0.305704 0.284477 0.742102
O O12 0.667402 0.490973 0.993082
O O13 0.543567 0.748446 0.062469
O O14 0.627818 0.923094 0.771374
O O15 0.210870 0.860945 0.940467
O O16 0.910089 0.820108 0.801133
#
# Coordination Sequence:
#
# PCOD9073543 Si02
#       8
#     2   2   2   2   2   2   2   2
#     4  10  21  41  63  94 133 163 217 277 318 391
#     4  11  21  38  68  93 135 177 212 270 331 384
#     4  11  22  41  65  98 132 169 219 266 320 398
#     4   9  21  39  62  98 131 168 225 267 312 407
#     4  10  21  40  67  94 134 177 212 268 332 384
#     4  10  22  40  66  92 132 169 210 278 322 381
#     4  10  22  41  66  95 125 169 222 271 324 401
#     4  11  22  42  69  92 125 176 217 265 338 387
#
# _framework density 21.122078999999999
#
# number of rings (size 3 to 8) (size 9 to 14) (size 15 to 20)
#    0.000    1.750    2.500    1.500    0.000    1.500 
#    0.000    6.250    0.000    0.000    0.000    0.000 
#    0.000    0.000    0.000    0.000    0.000    0.000 
#
# Total GULP energy -89069.624967 kJ/mol
# GULP energy per Si atom -5566.851560 kJ/mol
# Density = 2.107400 g / cm^3
# Si number density = 21.122079 Si / 1000 Ang^3
#
#
#
# Elastic Constant Matrix: (Units=GPa)
#
#
# Indices 1 2 3 4 5 6 
#
# 1 121.2110 58.9609 38.8411 -23.3196 -16.8706 4.4985
# 2 58.9609 53.4829 27.8471 -2.4761 1.6274 12.7080
# 3 38.8411 27.8471 77.0985 15.2365 -9.5152 -0.0889
# 4 -23.3196 -2.4761 15.2365 30.4629 -2.3635 -12.6287
# 5 -16.8706 1.6274 -9.5152 -2.3635 32.0475 -7.9656
# 6 4.4985 12.7080 -0.0889 -12.6287 -7.9656 42.7525
#
#
#
# Elastic Compliance Matrix: (Units=1/GPa)
#
#
# Indices 1 2 3 4 5 6 
#
# 1 0.104425 -0.117360 -0.023698 0.119312 0.081140 0.074210
# 2 -0.117360 0.158764 0.015336 -0.130079 -0.097607 -0.091422
# 3 -0.023698 0.015336 0.025084 -0.036665 -0.012271 -0.015130
# 4 0.119312 -0.130079 -0.036665 0.179549 0.095863 0.096934
# 5 0.081140 -0.097607 -0.012271 0.095863 0.099008 0.067215
# 6 0.074210 -0.091422 -0.015130 0.096934 0.067215 0.083882
#
#
# Mechanical properties :
#
#
# Convention : Reuss Voigt Hill
#
# Bulk Modulus (GPa) = 27.15319 55.89895 41.52607
# Shear Modulus (GPa) = 5.46786 29.46214 17.46500
#
# Velocity S-wave (km/s) = 1.61069 3.73882 2.87864
# Velocity P-wave (km/s) = 4.04257 6.72016 5.54540
#
# Compressibility (1/GPa) = 0.03682808
#
# Stress axis : x y z
#
# Youngs Moduli (GPa) = 9.57622 6.29864 39.86585
#
# Poissons Ratio (x) = 0.73921 0.94474
# Poissons Ratio (y) = 1.12387 -0.61137
# Poissons Ratio (z) = 0.22694 -0.09659
#
# Static dielectric constant tensor:
#      x y z
#    x 1.770850 0.044260 0.039880 
#    y 0.044260 1.850580 0.003000 
#    z 0.039880 0.003000 1.785430 
# 
# From -- ./inp_files/590561.got.cif
#   From: 2010.05.17/outbox.ucp.g08.bks.cvg/sg2_296_cif.got.tgz:590561.got - 2010.06.11 11:32:03.
