data_PCOD9073805
_publ_section_title
;
Structure prediction by ZEFSAII (Michael W. Deem and Ramdas Pophale) SiO2 
 PCOD9073805
Probable space group: P -1
;
_chemical_formula_sum "Si O2"
_cell_formula_units_Z 14
_cell_length_a 18.000000
_cell_length_b 6.000000
_cell_length_c 9.000000
_cell_angle_alpha 70.000000
_cell_angle_beta 120.000000
_cell_angle_gamma 70.000000
_cell_volume 614.029152
_symmetry_space_group_name_H-M "P -1"
_symmetry_group_IT_number 2
_symmetry_cell_setting 'triclinic'
loop_
_space_group_symop_operation_xyz
x,y,z
-x,-y,-z
loop_
_atom_site_type_symbol
_atom_site_label
_atom_site_fract_x
_atom_site_fract_y
_atom_site_fract_z
Si Si1 0.254722 0.989234 0.815034
Si Si2 0.535482 0.078821 0.868167
Si Si3 0.832323 0.660091 0.918709
Si Si4 0.675313 0.387380 0.593045
Si Si5 0.149683 0.521419 0.352887
Si Si6 0.655782 0.598992 0.863439
Si Si7 0.049293 0.283228 0.739709
O O1 0.197680 0.220737 0.568279
O O2 0.171465 0.039056 0.849640
O O3 0.346589 0.006612 0.965255
O O4 0.317627 0.637866 0.926345
O O5 0.437201 0.432245 0.653301
O O6 0.552695 0.908771 0.767780
O O7 0.500000 0.000000 0.000000
O O8 0.871515 0.515288 0.829084
O O9 0.761107 0.585830 0.948230
O O10 0.746634 0.026380 0.737026
O O11 0.933486 0.569177 0.140490
O O12 0.755619 0.445312 0.583164
O O13 0.643757 0.509497 0.705392
O O14 0.033726 0.773401 0.267750
O O15 0.000000 0.500000 0.500000
#
# Coordination Sequence:
#
# PCOD9073805 Si02
#       7
#     2   2   2   2   2   2   2
#     4  11  23  45  65 101 131 172 219 270 319 390
#     4  12  25  42  69  96 134 171 218 270 326 384
#     4  11  23  45  67 101 132 171 217 267 328 386
#     4  11  24  44  66  99 133 173 215 270 322 387
#     4  10  24  41  69  97 134 170 221 265 324 380
#     4  11  24  43  69  94 136 168 222 262 331 385
#     4  10  21  45  69  93 133 171 217 270 320 388
#
# _framework density 22.800219999999999
#
# number of rings (size 3 to 8) (size 9 to 14) (size 15 to 20)
#    0.000    1.143    4.286    0.857    2.000    5.714 
#    2.571    1.429    0.000    0.000    0.000    0.000 
#    0.000    0.000    0.000    0.000    0.000    0.000 
#
# Total GULP energy -78068.673235 kJ/mol
# GULP energy per Si atom -5576.333803 kJ/mol
# Density = 2.274833 g / cm^3
# Si number density = 22.800220 Si / 1000 Ang^3
#
#
#
# Elastic Constant Matrix: (Units=GPa)
#
#
# Indices 1 2 3 4 5 6 
#
# 1 98.4622 35.4950 22.1901 -13.8324 -26.4442 -32.0585
# 2 35.4950 27.0958 17.9368 -13.9689 -7.5330 -3.5417
# 3 22.1901 17.9368 118.5281 -4.9684 -1.6196 5.6443
# 4 -13.8324 -13.9689 -4.9684 16.4268 1.1325 -11.3148
# 5 -26.4442 -7.5330 -1.6196 1.1325 30.2833 -10.1863
# 6 -32.0585 -3.5417 5.6443 -11.3148 -10.1863 26.8155
#
#
#
# Elastic Compliance Matrix: (Units=1/GPa)
#
#
# Indices 1 2 3 4 5 6 
#
# 1 0.003355 -0.041427 0.004730 -0.050157 -0.015125 -0.029366
# 2 -0.041427 0.120110 -0.007595 0.056839 -0.013239 -0.013111
# 3 0.004730 -0.007595 0.008637 0.004222 0.004699 0.006401
# 4 -0.050157 0.056839 0.004222 0.030657 -0.050644 -0.059648
# 5 -0.015125 -0.013239 0.004699 -0.050644 0.005131 -0.040240
# 6 -0.029366 -0.013111 0.006401 -0.059648 -0.040240 -0.041349
#
#
# Mechanical properties :
#
#
# Convention : Reuss Voigt Hill
#
# Bulk Modulus (GPa) = 22.97840 43.92558 33.45199
# Shear Modulus (GPa) = 21.77427 25.93606 23.85516
#
# Velocity S-wave (km/s) = 3.09366 3.37640 3.23812
# Velocity P-wave (km/s) = 4.78132 5.87429 5.35576
#
# Compressibility (1/GPa) = 0.04351914
#
# Stress axis : x y z
#
# Youngs Moduli (GPa) = 298.09798 8.32572 115.78244
#
# Poissons Ratio (x) = 0.34491 -0.54769
# Poissons Ratio (y) = 12.34928 0.87931
# Poissons Ratio (z) = -1.41011 0.06323
#
# Static dielectric constant tensor:
#      x y z
#    x 1.841410 0.012190 0.067640 
#    y 0.012190 1.924220 -0.047320 
#    z 0.067640 -0.047320 1.890810 
# 
# From -- ./inp_files/36857.got.cif
#   From: 2010.05.17/outbox.ucp.g08.bks.cvg/sg2_19_cif.got.tgz:36857.got - 2010.06.11 11:32:03.
