data_PCOD9073864
_publ_section_title
;
Structure prediction by ZEFSAII (Michael W. Deem and Ramdas Pophale) SiO2 
 PCOD9073864
Probable space group: P -1
;
_chemical_formula_sum "Si O2"
_cell_formula_units_Z 16
_cell_length_a 11.610778
_cell_length_b 12.031851
_cell_length_c 15.900397
_cell_angle_alpha 72.185086
_cell_angle_beta 28.108146
_cell_angle_gamma 51.859995
_cell_volume 629.372916
_symmetry_space_group_name_H-M "P -1"
_symmetry_group_IT_number 2
_symmetry_cell_setting 'triclinic'
loop_
_space_group_symop_operation_xyz
x,y,z
-x,-y,-z
loop_
_atom_site_type_symbol
_atom_site_label
_atom_site_fract_x
_atom_site_fract_y
_atom_site_fract_z
Si Si1 0.280583 0.599239 0.940188
Si Si2 0.074959 0.886375 0.738717
Si Si3 0.038760 0.302389 0.053878
Si Si4 0.918876 0.612350 0.319265
Si Si5 0.115255 0.176574 0.460563
Si Si6 0.132675 0.120237 0.646915
Si Si7 0.644497 0.259895 0.597344
Si Si8 0.673310 0.661229 0.742189
O O1 0.078038 0.704593 0.959994
O O2 0.692551 0.388776 0.704002
O O3 0.330051 0.698701 0.938101
O O4 0.054194 0.588546 0.143544
O O5 0.885793 0.834148 0.901309
O O6 0.469286 0.750531 0.571191
O O7 0.190547 0.833026 0.578623
O O8 0.912753 0.078631 0.812247
O O9 0.662575 0.519724 0.271111
O O10 0.387474 0.261070 0.815170
O O11 0.038304 0.685815 0.277067
O O12 0.125512 0.433078 0.276408
O O13 0.005775 0.153216 0.450735
O O14 0.243335 0.068805 0.489058
O O15 0.406611 0.174979 0.259214
O O16 0.500000 0.000000 0.500000
O O17 0.000000 0.500000 0.500000
#
# Coordination Sequence:
#
# PCOD9073864 Si02
#       8
#     2   2   2   2   2   2   2   2
#     4  10  19  33  61  89 123 147 192 260 292 342
#     4  11  22  39  61  84 124 163 196 233 296 360
#     4  10  21  38  62  94 118 152 197 249 296 344
#     4  11  19  36  58  90 122 154 198 241 306 340
#     4  10  21  39  58  89 119 153 199 247 298 340
#     4  10  23  37  58  84 121 162 194 239 290 363
#     4  10  21  40  62  88 117 154 200 251 289 345
#     4  10  18  31  58  88 117 148 189 255 296 344
#
# _framework density 25.422129999999999
#
# number of rings (size 3 to 8) (size 9 to 14) (size 15 to 20)
#    0.000    1.750    3.750    3.000    1.750    0.500 
#    0.000    2.500    0.000    0.000    0.000    0.000 
#    0.000    0.000    0.000    0.000    0.000    0.000 
#
# Total GULP energy -89450.318474 kJ/mol
# GULP energy per Si atom -5590.644905 kJ/mol
# Density = 2.536427 g / cm^3
# Si number density = 25.422130 Si / 1000 Ang^3
#
#
#
# Elastic Constant Matrix: (Units=GPa)
#
#
# Indices 1 2 3 4 5 6 
#
# 1 125.6286 29.8076 14.4666 -9.7299 12.4180 -1.5027
# 2 29.8076 103.7958 37.6200 -19.0343 13.8404 3.9773
# 3 14.4666 37.6200 94.3859 -26.9773 4.2176 0.9833
# 4 -9.7299 -19.0343 -26.9773 56.5513 -0.5280 6.9547
# 5 12.4180 13.8404 4.2176 -0.5280 35.1913 -5.4136
# 6 -1.5027 3.9773 0.9833 6.9547 -5.4136 29.6098
#
#
#
# Elastic Compliance Matrix: (Units=1/GPa)
#
#
# Indices 1 2 3 4 5 6 
#
# 1 0.008739 -0.002004 -0.000251 0.000669 -0.002231 0.000156
# 2 -0.002004 0.012739 -0.003850 0.002440 -0.004272 -0.003039
# 3 -0.000251 -0.003850 0.013718 0.005356 -0.000151 -0.001237
# 4 0.000669 0.002440 0.005356 0.021897 -0.002442 -0.006061
# 5 -0.002231 -0.004272 -0.000151 -0.002442 0.031923 0.006876
# 6 0.000156 -0.003039 -0.001237 -0.006061 0.006876 0.036911
#
#
# Mechanical properties :
#
#
# Convention : Reuss Voigt Hill
#
# Bulk Modulus (GPa) = 43.50758 54.17765 48.84261
# Shear Modulus (GPa) = 34.29367 40.39821 37.34594
#
# Velocity S-wave (km/s) = 3.67682 3.99067 3.83695
# Velocity P-wave (km/s) = 5.93098 6.52621 6.23570
#
# Compressibility (1/GPa) = 0.02298450
#
# Stress axis : x y z
#
# Youngs Moduli (GPa) = 114.43375 78.49922 72.89506
#
# Poissons Ratio (x) = 0.15733 0.01831
# Poissons Ratio (y) = 0.22935 0.28067
# Poissons Ratio (z) = 0.02875 0.30224
#
# Static dielectric constant tensor:
#      x y z
#    x 1.965800 0.072750 0.004280 
#    y 0.072750 2.086850 0.017740 
#    z 0.004280 0.017740 2.090410 
# 
# From -- ./inp_files/432760.got.cif
#   From: 2010.05.17/outbox.cif.g08.bks.cpg/sg2_217_cif.got.tgz:432760.got - 2010.06.03 11:33:40.
