data_PCOD9073635
_publ_section_title
;
Structure prediction by ZEFSAII (Michael W. Deem and Ramdas Pophale) SiO2 
 PCOD9073635
Probable space group: P -1
;
_chemical_formula_sum "Si O2"
_cell_formula_units_Z 16
_cell_length_a 9.000000
_cell_length_b 9.000000
_cell_length_c 12.000000
_cell_angle_alpha 100.000000
_cell_angle_beta 80.000000
_cell_angle_gamma 130.000000
_cell_volume 730.800219
_symmetry_space_group_name_H-M "P -1"
_symmetry_group_IT_number 2
_symmetry_cell_setting 'triclinic'
loop_
_space_group_symop_operation_xyz
x,y,z
-x,-y,-z
loop_
_atom_site_type_symbol
_atom_site_label
_atom_site_fract_x
_atom_site_fract_y
_atom_site_fract_z
Si Si1 0.203937 0.798129 0.823122
Si Si2 0.141818 0.469027 0.320634
Si Si3 0.230633 0.077589 0.405132
Si Si4 0.719403 0.740777 0.807316
Si Si5 0.264419 0.490844 0.796450
Si Si6 0.361764 0.889094 0.240441
Si Si7 0.173728 0.336262 0.537713
Si Si8 0.095229 0.866210 0.075862
O O1 0.223575 0.639694 0.842971
O O2 0.080046 0.700980 0.712595
O O3 0.415502 0.007384 0.804178
O O4 0.100164 0.813390 0.942057
O O5 0.248287 0.415085 0.221018
O O6 0.231487 0.684343 0.296701
O O7 0.177008 0.448044 0.443555
O O8 0.180531 0.132517 0.303518
O O9 0.298937 0.260772 0.494526
O O10 0.378794 0.044591 0.340890
O O11 0.045012 0.871591 0.450462
O O12 0.489004 0.613738 0.813831
O O13 0.821838 0.911332 0.905388
O O14 0.229928 0.440469 0.662491
O O15 0.114097 0.293221 0.860063
O O16 0.244382 0.868877 0.141594
#
# Coordination Sequence:
#
# PCOD9073635 Si02
#       8
#     2   2   2   2   2   2   2   2
#     4  12  25  42  70  98 128 179 219 267 333 382
#     4  11  26  43  63 101 145 163 209 279 337 379
#     4   9  18  40  66  89 127 173 216 259 310 384
#     4  10  23  43  65 101 130 168 224 270 314 395
#     4  12  22  41  75  97 119 181 228 255 329 386
#     4  11  22  43  64  99 132 170 220 270 322 391
#     4  10  21  41  68  94 136 171 212 274 319 389
#     4  11  23  44  73  93 129 170 232 271 308 396
#
# _framework density 21.893808
#
# number of rings (size 3 to 8) (size 9 to 14) (size 15 to 20)
#    0.000    1.250    6.250    0.750    0.000    5.500 
#    2.250    2.500    0.000    0.000    0.000    0.000 
#    0.000    0.000    0.000    0.000    0.000    0.000 
#
# Total GULP energy -89317.659879 kJ/mol
# GULP energy per Si atom -5582.353742 kJ/mol
# Density = 2.184398 g / cm^3
# Si number density = 21.893808 Si / 1000 Ang^3
#
#
#
# Elastic Constant Matrix: (Units=GPa)
#
#
# Indices 1 2 3 4 5 6 
#
# 1 63.8656 21.6330 13.7822 3.2984 -7.5194 1.7213
# 2 21.6330 101.4838 31.4077 0.4267 -1.9877 11.7512
# 3 13.7822 31.4077 95.3777 4.1322 -16.4787 1.3114
# 4 3.2984 0.4267 4.1322 30.1269 -5.7115 -9.3804
# 5 -7.5194 -1.9877 -16.4787 -5.7115 16.3208 6.7466
# 6 1.7213 11.7512 1.3114 -9.3804 6.7466 37.4544
#
#
#
# Elastic Compliance Matrix: (Units=1/GPa)
#
#
# Indices 1 2 3 4 5 6 
#
# 1 0.017872 -0.003494 0.000027 -0.000803 0.008130 -0.001391
# 2 -0.003494 0.012127 -0.003945 -0.000817 -0.003099 -0.003153
# 3 0.000027 -0.003945 0.014371 0.000329 0.014932 -0.001874
# 4 -0.000803 -0.000817 0.000329 0.037563 0.009727 0.007937
# 5 0.008130 -0.003099 0.014932 0.009727 0.088685 -0.013463
# 6 -0.001391 -0.003153 -0.001874 0.007937 -0.013463 0.032231
#
#
# Mechanical properties :
#
#
# Convention : Reuss Voigt Hill
#
# Bulk Modulus (GPa) = 33.84696 43.81921 38.83309
# Shear Modulus (GPa) = 21.97585 29.70737 25.84161
#
# Velocity S-wave (km/s) = 3.17163 3.68759 3.43930
# Velocity P-wave (km/s) = 5.37638 6.17972 5.79200
#
# Compressibility (1/GPa) = 0.02954475
#
# Stress axis : x y z
#
# Youngs Moduli (GPa) = 55.95393 82.45756 69.58328
#
# Poissons Ratio (x) = 0.28812 -0.00185
# Poissons Ratio (y) = 0.19551 0.27453
# Poissons Ratio (z) = -0.00149 0.32532
#
# Static dielectric constant tensor:
#      x y z
#    x 1.922880 -0.020440 -0.053050 
#    y -0.020440 1.767450 0.035620 
#    z -0.053050 0.035620 1.819200 
# 
# From -- ./inp_files/382608.got.cif
#   From: 2010.05.17/outbox.ucp.g08.bks.cvg/sg2_192_cif.got.tgz:382608.got - 2010.06.11 11:32:03.
