data_PCOD9073920
_publ_section_title
;
Structure prediction by ZEFSAII (Michael W. Deem and Ramdas Pophale) SiO2 
 PCOD9073920
Probable space group: P -1
;
_chemical_formula_sum "Si O2"
_cell_formula_units_Z 16
_cell_length_a 13.952579
_cell_length_b 13.924347
_cell_length_c 11.497658
_cell_angle_alpha 32.595734
_cell_angle_beta 54.380904
_cell_angle_gamma 38.707144
_cell_volume 733.592905
_symmetry_space_group_name_H-M "P -1"
_symmetry_group_IT_number 2
_symmetry_cell_setting 'triclinic'
loop_
_space_group_symop_operation_xyz
x,y,z
-x,-y,-z
loop_
_atom_site_type_symbol
_atom_site_label
_atom_site_fract_x
_atom_site_fract_y
_atom_site_fract_z
Si Si1 0.014448 0.183830 0.748779
Si Si2 0.180390 0.285927 0.663742
Si Si3 0.582294 0.742364 0.334850
Si Si4 0.709628 0.552830 0.183024
Si Si5 0.583937 0.356476 0.707978
Si Si6 0.219859 0.150653 0.221242
Si Si7 0.008904 0.105948 0.561824
Si Si8 0.093689 0.167912 0.054176
O O1 0.886132 0.460503 0.595323
O O2 0.996699 0.185508 0.621262
O O3 0.171209 0.131047 0.738100
O O4 0.000000 0.000000 0.000000
O O5 0.342054 0.180232 0.719239
O O6 0.068251 0.333416 0.801314
O O7 0.634759 0.711833 0.194039
O O8 0.636069 0.489707 0.592163
O O9 0.397174 0.921686 0.298887
O O10 0.564589 0.596543 0.180342
O O11 0.853552 0.294279 0.398566
O O12 0.772035 0.648743 0.960424
O O13 0.500000 0.500000 0.500000
O O14 0.739755 0.090298 0.840449
O O15 0.145112 0.084280 0.428594
O O16 0.121361 0.237414 0.084011
O O17 0.024351 0.877524 0.796017
#
# Coordination Sequence:
#
# PCOD9073920 Si02
#       8
#     2   2   2   2   2   2   2   2
#     4  11  23  43  64  90 115 155 214 263 291 346
#     4  11  23  37  69  93 109 158 219 250 294 345
#     4  11  19  38  58  88 121 156 207 240 291 365
#     4  11  19  36  57  85 122 163 198 234 299 370
#     4  10  18  31  60  84 125 159 205 237 287 359
#     4  12  23  33  57  93 132 155 191 246 308 379
#     4  12  23  38  56  89 125 164 193 252 316 348
#     4  12  19  36  58  93 123 158 196 249 299 371
#
# _framework density 21.810462000000001
#
# number of rings (size 3 to 8) (size 9 to 14) (size 15 to 20)
#    0.000    0.750    8.750    1.875    0.000    0.000 
#    0.000    0.625    0.000    0.750    0.000    0.000 
#    0.000    0.000    0.000    0.000    0.000    0.000 
#
# Total GULP energy -89307.776007 kJ/mol
# GULP energy per Si atom -5581.736000 kJ/mol
# Density = 2.176082 g / cm^3
# Si number density = 21.810462 Si / 1000 Ang^3
#
#
#
# Elastic Constant Matrix: (Units=GPa)
#
#
# Indices 1 2 3 4 5 6 
#
# 1 114.7724 11.1284 33.2631 23.5446 -34.5003 -2.9895
# 2 11.1284 48.2483 26.4983 10.1376 -7.8352 -22.9134
# 3 33.2631 26.4983 124.1084 8.7252 -35.5236 -10.3255
# 4 23.5446 10.1376 8.7252 27.6850 -2.5597 -10.1503
# 5 -34.5003 -7.8352 -35.5236 -2.5597 47.5315 5.2277
# 6 -2.9895 -22.9134 -10.3255 -10.1503 5.2277 27.9376
#
#
#
# Elastic Compliance Matrix: (Units=1/GPa)
#
#
# Indices 1 2 3 4 5 6 
#
# 1 0.014521 -0.002131 -0.000202 -0.013109 0.010093 -0.006920
# 2 -0.002131 0.037838 -0.005937 0.000286 -0.002950 0.029267
# 3 -0.000202 -0.005937 0.011455 -0.001526 0.007644 -0.002642
# 4 -0.013109 0.000286 -0.001526 0.053963 -0.009872 0.019721
# 5 0.010093 -0.002950 0.007644 -0.009872 0.033990 -0.008461
# 6 -0.006920 0.029267 -0.002642 0.019721 -0.008461 0.066829
#
#
# Mechanical properties :
#
#
# Convention : Reuss Voigt Hill
#
# Bulk Modulus (GPa) = 21.15389 47.65652 34.40520
# Shear Modulus (GPa) = 19.92864 35.04676 27.48770
#
# Velocity S-wave (km/s) = 3.02606 4.01294 3.55392
# Velocity P-wave (km/s) = 4.68288 6.58554 5.71396
#
# Compressibility (1/GPa) = 0.04727263
#
# Stress axis : x y z
#
# Youngs Moduli (GPa) = 68.86611 26.42814 87.30057
#
# Poissons Ratio (x) = 0.05633 0.01764
# Poissons Ratio (y) = 0.14678 0.51833
# Poissons Ratio (z) = 0.01392 0.15691
#
# Static dielectric constant tensor:
#      x y z
#    x 1.882930 -0.014180 -0.041350 
#    y -0.014180 1.853210 -0.045310 
#    z -0.041350 -0.045310 1.900850 
# 
# From -- ./inp_files/451622.got.cif
#   From: 2010.05.17/outbox.cif.g08.bks.cpg/sg2_226_cif.got.tgz:451622.got - 2010.06.03 11:33:40.
