data_PCOD9073064
_publ_section_title
;
Structure prediction by ZEFSAII (Michael W. Deem and Ramdas Pophale) SiO2 
 PCOD9073064
Probable space group: P -1
;
_chemical_formula_sum "Si O2"
_cell_formula_units_Z 16
_cell_length_a 15.000000
_cell_length_b 15.000000
_cell_length_c 12.000000
_cell_angle_alpha 70.000000
_cell_angle_beta 30.000000
_cell_angle_gamma 50.000000
_cell_volume 856.505752
_symmetry_space_group_name_H-M "P -1"
_symmetry_group_IT_number 2
_symmetry_cell_setting 'triclinic'
loop_
_space_group_symop_operation_xyz
x,y,z
-x,-y,-z
loop_
_atom_site_type_symbol
_atom_site_label
_atom_site_fract_x
_atom_site_fract_y
_atom_site_fract_z
Si Si1 0.204063 0.700296 0.000200
Si Si2 0.724868 0.134763 0.022225
Si Si3 0.780268 0.670997 0.156424
Si Si4 0.157993 0.350646 0.159003
Si Si5 0.283737 0.832366 0.238888
Si Si6 0.672291 0.414665 0.733772
Si Si7 0.840252 0.129642 0.207871
Si Si8 0.153697 0.325414 0.667251
O O1 0.178359 0.797339 0.074499
O O2 0.479566 0.538798 0.796765
O O3 0.186419 0.759931 0.874309
O O4 0.979561 0.708353 0.241136
O O5 0.456398 0.222385 0.345414
O O6 0.655778 0.162383 0.955977
O O7 0.956867 0.967431 0.868540
O O8 0.463259 0.774427 0.469959
O O9 0.843565 0.699805 0.192274
O O10 0.816881 0.692398 0.980119
O O11 0.000000 0.500000 0.000000
O O12 0.951109 0.363211 0.444362
O O13 0.015955 0.511182 0.240021
O O14 0.455396 0.242697 0.936311
O O15 0.275600 0.718275 0.291476
O O16 0.000000 0.000000 0.500000
O O17 0.500000 0.500000 0.000000
O O18 0.000000 0.000000 0.000000
#
# Coordination Sequence:
#
# PCOD9073064 Si02
#       8
#     2   2   2   2   2   2   2   2
#     4  11  21  39  69 103 126 170 233 279 339 399
#     4  11  23  43  67  97 141 172 229 286 340 402
#     4  10  20  41  63  93 139 175 218 279 343 407
#     4  11  24  43  67  97 141 180 224 286 349 404
#     4  12  27  45  68 100 140 186 228 280 352 412
#     4  12  24  45  73 101 134 181 237 285 333 418
#     4  10  20  41  65  92 137 173 214 290 339 391
#     4  11  21  39  69 104 126 176 230 286 339 410
#
# _framework density 18.680551999999999
#
# number of rings (size 3 to 8) (size 9 to 14) (size 15 to 20)
#    0.000    1.000    6.250    1.500    1.750    2.000 
#    4.500    1.875    0.000    0.000    0.000    0.000 
#    0.000    0.000    0.000    0.000    0.000    0.000 
#
# Total GULP energy -89112.530851 kJ/mol
# GULP energy per Si atom -5569.533178 kJ/mol
# Density = 1.863803 g / cm^3
# Si number density = 18.680552 Si / 1000 Ang^3
#
#
#
# Elastic Constant Matrix: (Units=GPa)
#
#
# Indices 1 2 3 4 5 6 
#
# 1 108.8135 31.0957 42.7441 -3.8502 -7.3785 -12.4789
# 2 31.0957 117.6840 38.8725 14.1900 -11.5299 -14.4547
# 3 42.7441 38.8725 140.0108 10.9077 -8.8428 4.9790
# 4 -3.8502 14.1900 10.9077 40.5227 -6.9704 -7.6885
# 5 -7.3785 -11.5299 -8.8428 -6.9704 42.4216 2.6755
# 6 -12.4789 -14.4547 4.9790 -7.6885 2.6755 40.9108
#
#
#
# Elastic Compliance Matrix: (Units=1/GPa)
#
#
# Indices 1 2 3 4 5 6 
#
# 1 0.011711 -0.001798 -0.003424 0.003617 0.001179 0.003956
# 2 -0.001798 0.010486 -0.002178 -0.002456 0.001499 0.002862
# 3 -0.003424 -0.002178 0.009149 -0.002592 0.000511 -0.003448
# 4 0.003617 -0.002456 -0.002592 0.028285 0.003714 0.005624
# 5 0.001179 0.001499 0.000511 0.003714 0.024909 -0.000104
# 6 0.003956 0.002862 -0.003448 0.005624 -0.000104 0.028145
#
#
# Mechanical properties :
#
#
# Convention : Reuss Voigt Hill
#
# Bulk Modulus (GPa) = 60.43892 65.77032 63.10462
# Shear Modulus (GPa) = 37.59386 41.69074 39.64230
#
# Velocity S-wave (km/s) = 4.49091 4.72929 4.61164
# Velocity P-wave (km/s) = 7.70164 8.06882 7.88737
#
# Compressibility (1/GPa) = 0.01654563
#
# Stress axis : x y z
#
# Youngs Moduli (GPa) = 85.39339 95.36074 109.29918
#
# Poissons Ratio (x) = 0.17146 0.37423
# Poissons Ratio (y) = 0.15354 0.23809
# Poissons Ratio (z) = 0.29238 0.20773
#
# Static dielectric constant tensor:
#      x y z
#    x 1.697590 -0.024910 0.010900 
#    y -0.024910 1.665000 -0.012360 
#    z 0.010900 -0.012360 1.643430 
# 
# From -- ./inp_files/454710.got.cif
#   From: 2010.05.17/outbox.ucp.g08.bks.cvg/sg2_228_cif.got.tgz:454710.got - 2010.06.11 11:32:03.
