data_PCOD9073003
_publ_section_title
;
Structure prediction by ZEFSAII (Michael W. Deem and Ramdas Pophale) SiO2 
 PCOD9073003
Probable space group: P -1
;
_chemical_formula_sum "Si O2"
_cell_formula_units_Z 14
_cell_length_a 16.051075
_cell_length_b 8.971404
_cell_length_c 10.211453
_cell_angle_alpha 89.649674
_cell_angle_beta 157.685668
_cell_angle_gamma 87.536186
_cell_volume 553.702308
_symmetry_space_group_name_H-M "P -1"
_symmetry_group_IT_number 2
_symmetry_cell_setting 'triclinic'
loop_
_space_group_symop_operation_xyz
x,y,z
-x,-y,-z
loop_
_atom_site_type_symbol
_atom_site_label
_atom_site_fract_x
_atom_site_fract_y
_atom_site_fract_z
Si Si1 0.769394 0.988711 0.883579
Si Si2 0.784675 0.446310 0.748236
Si Si3 0.428434 0.381414 0.790770
Si Si4 0.796848 0.826574 0.183347
Si Si5 0.963800 0.301497 0.237614
Si Si6 0.270471 0.872585 0.431730
Si Si7 0.706878 0.080032 0.251591
O O1 0.784082 0.988191 0.746156
O O2 0.500000 0.000000 0.500000
O O3 0.854462 0.146832 0.053524
O O4 0.840809 0.858548 0.095959
O O5 0.596433 0.544161 0.389782
O O6 0.812186 0.274241 0.743946
O O7 0.000000 0.500000 0.000000
O O8 0.800080 0.434916 0.928454
O O9 0.201021 0.317546 0.509216
O O10 0.500000 0.500000 0.000000
O O11 0.616585 0.241560 0.066691
O O12 0.959241 0.702242 0.498794
O O13 0.808908 0.977173 0.285040
O O14 0.535475 0.815553 0.819653
O O15 0.177096 0.909592 0.439811
O O16 0.500000 0.000000 0.000000
#
# Coordination Sequence:
#
# PCOD9073003 Si02
#       7
#     2   2   2   2   2   2   2
#     4   9  19  32  52  74 108 146 181 214 261 320
#     4   9  18  28  47  76 102 133 182 215 251 300
#     4  11  18  32  56  79 106 144 180 217 261 325
#     4  10  18  32  53  78 111 139 170 220 281 313
#     4  10  18  31  52  78 106 136 183 221 254 316
#     4   9  16  32  50  76 101 138 179 217 252 316
#     4  10  18  31  55  80 112 135 171 225 282 299
#
# _framework density 25.284344000000001
#
# number of rings (size 3 to 8) (size 9 to 14) (size 15 to 20)
#    0.000    2.286    4.286    0.429    0.000    0.000 
#    0.000    2.857    3.143    4.286    0.000    0.000 
#    0.000    0.000    0.000    0.000    0.000    0.000 
#
# Total GULP energy -78101.243403 kJ/mol
# GULP energy per Si atom -5578.660243 kJ/mol
# Density = 2.522680 g / cm^3
# Si number density = 25.284344 Si / 1000 Ang^3
#
#
#
# Elastic Constant Matrix: (Units=GPa)
#
#
# Indices 1 2 3 4 5 6 
#
# 1 126.5312 16.6121 33.0714 -10.8876 -14.1706 42.9065
# 2 16.6121 85.6214 50.3458 -17.3567 -13.2184 26.7297
# 3 33.0714 50.3458 149.8961 -21.8415 -39.3310 31.0131
# 4 -10.8876 -17.3567 -21.8415 68.3991 37.9086 -15.7014
# 5 -14.1706 -13.2184 -39.3310 37.9086 45.3234 -15.5222
# 6 42.9065 26.7297 31.0131 -15.7014 -15.5222 32.0162
#
#
#
# Elastic Compliance Matrix: (Units=1/GPa)
#
#
# Indices 1 2 3 4 5 6 
#
# 1 0.016215 0.004931 -0.000306 -0.001500 -0.001806 -0.027161
# 2 0.004931 0.019285 -0.004679 0.003134 -0.006253 -0.019670
# 3 -0.000306 -0.004679 0.011217 -0.004434 0.010786 -0.003494
# 4 -0.001500 0.003134 -0.004434 0.029572 -0.026268 0.005455
# 5 -0.001806 -0.006253 0.010786 -0.026268 0.054718 0.010839
# 6 -0.027161 -0.019670 -0.003494 0.005455 0.010839 0.095371
#
#
# Mechanical properties :
#
#
# Convention : Reuss Voigt Hill
#
# Bulk Modulus (GPa) = 21.45598 62.45637 41.95618
# Shear Modulus (GPa) = 20.65915 46.61571 33.63743
#
# Velocity S-wave (km/s) = 2.86155 4.29844 3.65138
# Velocity P-wave (km/s) = 4.40707 7.02785 5.86570
#
# Compressibility (1/GPa) = 0.04660705
#
# Stress axis : x y z
#
# Youngs Moduli (GPa) = 61.67162 51.85395 89.14672
#
# Poissons Ratio (x) = -0.25567 0.02731
# Poissons Ratio (y) = -0.30408 0.41716
# Poissons Ratio (z) = 0.01889 0.24265
#
# Static dielectric constant tensor:
#      x y z
#    x 2.020660 0.069240 0.033280 
#    y 0.069240 1.938450 -0.068950 
#    z 0.033280 -0.068950 2.308440 
# 
# From -- ./inp_files/252303.got.cif
#   From: 2010.05.17/outbox.cif.g08.bks.cpg/sg2_127_cif.got.tgz:252303.got - 2010.06.03 11:33:40.
