data_PCOD9073057
_publ_section_title
;
Structure prediction by ZEFSAII (Michael W. Deem and Ramdas Pophale) SiO2 
 PCOD9073057
Probable space group: P -1
;
_chemical_formula_sum "Si O2"
_cell_formula_units_Z 16
_cell_length_a 20.527447
_cell_length_b 13.705157
_cell_length_c 5.594342
_cell_angle_alpha 75.890788
_cell_angle_beta 110.576820
_cell_angle_gamma 154.480614
_cell_volume 624.188498
_symmetry_space_group_name_H-M "P -1"
_symmetry_group_IT_number 2
_symmetry_cell_setting 'triclinic'
loop_
_space_group_symop_operation_xyz
x,y,z
-x,-y,-z
loop_
_atom_site_type_symbol
_atom_site_label
_atom_site_fract_x
_atom_site_fract_y
_atom_site_fract_z
Si Si1 0.548624 0.780121 0.231678
Si Si2 0.004046 0.845907 0.179506
Si Si3 0.145488 0.178717 0.766981
Si Si4 0.178256 0.751978 0.523317
Si Si5 0.715499 0.816167 0.281777
Si Si6 0.262658 0.700557 0.392346
Si Si7 0.929309 0.240163 0.999707
Si Si8 0.475730 0.794896 0.643320
O O1 0.566878 0.682839 0.284586
O O2 0.494986 0.755267 0.439709
O O3 0.731384 0.057122 0.299088
O O4 0.475525 0.729365 0.924248
O O5 0.855641 0.712793 0.179075
O O6 0.143374 0.008000 0.450162
O O7 0.975405 0.702205 0.108760
O O8 0.079244 0.018541 0.979413
O O9 0.290484 0.305913 0.755505
O O10 0.000000 0.000000 0.500000
O O11 0.266338 0.759832 0.620245
O O12 0.000000 0.500000 0.500000
O O13 0.165562 0.794224 0.229567
O O14 0.794488 0.990119 0.077745
O O15 0.320446 0.662177 0.481713
O O16 0.077162 0.465595 0.219198
O O17 0.390344 0.942585 0.291353
#
# Coordination Sequence:
#
# PCOD9073057 Si02
#       8
#     2   2   2   2   2   2   2   2
#     4  11  21  37  56  77 108 143 191 234 268 328
#     4   9  17  30  49  80 112 142 169 210 279 349
#     4   8  16  29  49  77 117 140 166 203 272 356
#     4  11  21  33  55  80 109 144 183 234 294 333
#     4  10  18  31  52  82 113 140 172 227 281 337
#     4  10  22  37  53  73 108 149 193 239 274 325
#     4  11  20  33  52  82 111 144 183 229 290 334
#     4  10  24  40  54  74 104 154 203 236 271 311
#
# _framework density 25.633279999999999
#
# number of rings (size 3 to 8) (size 9 to 14) (size 15 to 20)
#    0.000    2.000    1.250    3.375    1.750    5.500 
#    0.000    0.000    0.000    0.000    0.000    1.750 
#    0.000    0.000    0.000    0.000    0.000    0.000 
#
# Total GULP energy -89218.649539 kJ/mol
# GULP energy per Si atom -5576.165596 kJ/mol
# Density = 2.557494 g / cm^3
# Si number density = 25.633280 Si / 1000 Ang^3
#
#
#
# Elastic Constant Matrix: (Units=GPa)
#
#
# Indices 1 2 3 4 5 6 
#
# 1 253.7386 -5.9684 45.9121 4.8357 -4.8219 7.6990
# 2 -5.9684 48.1884 18.0923 4.3875 5.6925 -1.0019
# 3 45.9121 18.0923 113.1135 -9.9390 15.1417 5.0222
# 4 4.8357 4.3875 -9.9390 24.4063 -11.7484 1.0436
# 5 -4.8219 5.6925 15.1417 -11.7484 36.7350 4.8934
# 6 7.6990 -1.0019 5.0222 1.0436 4.8934 17.1599
#
#
#
# Elastic Compliance Matrix: (Units=1/GPa)
#
#
# Indices 1 2 3 4 5 6 
#
# 1 0.004471 0.001379 -0.002237 -0.001494 0.001013 -0.001468
# 2 0.001379 0.024236 -0.004747 -0.009209 -0.005124 0.004207
# 3 -0.002237 -0.004747 0.011353 0.004865 -0.002387 -0.002211
# 4 -0.001494 -0.009209 0.004865 0.053852 0.017730 -0.009622
# 5 0.001013 -0.005124 -0.002387 0.017730 0.036334 -0.011495
# 6 -0.001468 0.004207 -0.002211 -0.009622 -0.011495 0.063690
#
#
# Mechanical properties :
#
#
# Convention : Reuss Voigt Hill
#
# Bulk Modulus (GPa) = 34.66001 59.01251 46.83626
# Shear Modulus (GPa) = 23.28164 39.46053 31.37108
#
# Velocity S-wave (km/s) = 3.01700 3.92781 3.50214
# Velocity P-wave (km/s) = 5.06826 6.60621 5.88767
#
# Compressibility (1/GPa) = 0.02885169
#
# Stress axis : x y z
#
# Youngs Moduli (GPa) = 223.68662 41.26088 88.08219
#
# Poissons Ratio (x) = -0.05692 0.19703
# Poissons Ratio (y) = -0.30856 0.41808
# Poissons Ratio (z) = 0.50036 0.19584
#
# Static dielectric constant tensor:
#      x y z
#    x 2.081850 0.087490 -0.054900 
#    y 0.087490 2.008330 -0.033190 
#    z -0.054900 -0.033190 2.011460 
# 
# From -- ./inp_files/51048.got.cif
#   From: 2010.05.17/outbox.cif.g08.bks.cpg/sg2_26_cif.got.tgz:51048.got - 2010.06.03 11:33:40.
