data_PCOD9073332
_publ_section_title
;
Structure prediction by ZEFSAII (Michael W. Deem and Ramdas Pophale) SiO2 
 PCOD9073332
Probable space group: P -1
;
_chemical_formula_sum "Si O2"
_cell_formula_units_Z 16
_cell_length_a 18.000000
_cell_length_b 21.000000
_cell_length_c 12.000000
_cell_angle_alpha 150.000000
_cell_angle_beta 30.000000
_cell_angle_gamma 160.000000
_cell_volume 738.640068
_symmetry_space_group_name_H-M "P -1"
_symmetry_group_IT_number 2
_symmetry_cell_setting 'triclinic'
loop_
_space_group_symop_operation_xyz
x,y,z
-x,-y,-z
loop_
_atom_site_type_symbol
_atom_site_label
_atom_site_fract_x
_atom_site_fract_y
_atom_site_fract_z
Si Si1 0.721716 0.495276 0.770750
Si Si2 0.910388 0.430347 0.282182
Si Si3 0.511672 0.975867 0.080113
Si Si4 0.182528 0.044363 0.252349
Si Si5 0.314784 0.343806 0.352778
Si Si6 0.798810 0.596674 0.074317
Si Si7 0.768722 0.772241 0.975489
Si Si8 0.993787 0.632085 0.266203
O O1 0.903305 0.508678 0.519993
O O2 0.787457 0.667989 0.881308
O O3 0.717827 0.495158 0.907507
O O4 0.452342 0.296483 0.792981
O O5 0.694490 0.197784 0.217767
O O6 0.886378 0.521127 0.355188
O O7 0.122642 0.472686 0.059352
O O8 0.259934 0.839346 0.247647
O O9 0.500000 0.000000 0.000000
O O10 0.609864 0.897642 0.866465
O O11 0.248096 0.180157 0.270097
O O12 0.000000 0.000000 0.500000
O O13 0.016727 0.820911 0.096169
O O14 0.587335 0.537906 0.311879
O O15 0.284495 0.305598 0.200556
O O16 0.147910 0.356541 0.603277
O O17 0.000000 0.000000 0.000000
O O18 0.000000 0.500000 0.000000
#
# Coordination Sequence:
#
# PCOD9073332 Si02
#       8
#     2   2   2   2   2   2   2   2
#     4  10  21  40  64  94 125 165 213 260 316 377
#     4  11  23  42  66  94 126 169 211 262 321 378
#     4  11  24  43  62  92 127 166 213 262 314 379
#     4  11  25  42  65  93 127 171 210 261 319 378
#     4  11  24  42  64  94 127 169 208 262 318 375
#     4  10  24  43  65  93 130 165 213 264 317 379
#     4  10  21  38  62  95 128 165 206 260 316 378
#     4  12  25  40  65  92 127 169 213 263 316 377
#
# _framework density 21.661429999999999
#
# number of rings (size 3 to 8) (size 9 to 14) (size 15 to 20)
#    0.000    1.250    2.500    2.625    5.250    1.500 
#    0.000    0.000    0.000    8.250    0.000    0.000 
#    0.000    0.000    0.000    0.000    0.000    0.000 
#
# Total GULP energy -89110.626307 kJ/mol
# GULP energy per Si atom -5569.414144 kJ/mol
# Density = 2.161213 g / cm^3
# Si number density = 21.661430 Si / 1000 Ang^3
#
#
#
# Elastic Constant Matrix: (Units=GPa)
#
#
# Indices 1 2 3 4 5 6 
#
# 1 102.0333 17.9034 30.1002 0.9876 -52.1192 -14.4213
# 2 17.9034 115.9463 3.3312 -12.0264 -36.3940 -4.5568
# 3 30.1002 3.3312 72.3157 -19.1520 -34.0249 11.3407
# 4 0.9876 -12.0264 -19.1520 18.2628 2.3249 -3.3794
# 5 -52.1192 -36.3940 -34.0249 2.3249 44.9678 -2.7328
# 6 -14.4213 -4.5568 11.3407 -3.3794 -2.7328 40.4263
#
#
#
# Elastic Compliance Matrix: (Units=1/GPa)
#
#
# Indices 1 2 3 4 5 6 
#
# 1 0.078327 0.054616 0.070115 0.087987 0.185576 0.034328
# 2 0.054616 0.061756 0.075558 0.100328 0.166781 0.024909
# 3 0.070115 0.075558 0.127362 0.154839 0.232389 0.026453
# 4 0.087987 0.100328 0.154839 0.248879 0.289880 0.039660
# 5 0.185576 0.166781 0.232389 0.289880 0.538045 0.080412
# 6 0.034328 0.024909 0.026453 0.039660 0.080412 0.041120
#
#
# Mechanical properties :
#
#
# Convention : Reuss Voigt Hill
#
# Bulk Modulus (GPa) = 1.49695 43.66273 22.57984
# Shear Modulus (GPa) = 5.44908 36.66210 21.05559
#
# Velocity S-wave (km/s) = 1.58778 4.11847 3.12112
# Velocity P-wave (km/s) = 2.01344 6.54342 4.84099
#
# Compressibility (1/GPa) = 0.66802521
#
# Stress axis : x y z
#
# Youngs Moduli (GPa) = 12.76702 16.19267 7.85161
#
# Poissons Ratio (x) = -0.88439 -0.55052
# Poissons Ratio (y) = -0.69729 -0.59325
# Poissons Ratio (z) = -0.89516 -1.22349
#
# Static dielectric constant tensor:
#      x y z
#    x 1.811480 0.070370 0.022570 
#    y 0.070370 1.826330 0.004810 
#    z 0.022570 0.004810 1.831170 
# 
# From -- ./inp_files/143048.got.cif
#   From: 2010.05.17/outbox.ucp.g08.bks.cvg/sg2_72_cif.got.tgz:143048.got - 2010.06.11 11:32:03.
