data_PCOD9073638
_publ_section_title
;
Structure prediction by ZEFSAII (Michael W. Deem and Ramdas Pophale) SiO2 
 PCOD9073638
Probable space group: P -1
;
_chemical_formula_sum "Si O2"
_cell_formula_units_Z 14
_cell_length_a 9.000000
_cell_length_b 12.000000
_cell_length_c 15.000000
_cell_angle_alpha 50.000000
_cell_angle_beta 120.000000
_cell_angle_gamma 150.000000
_cell_volume 613.666794
_symmetry_space_group_name_H-M "P -1"
_symmetry_group_IT_number 2
_symmetry_cell_setting 'triclinic'
loop_
_space_group_symop_operation_xyz
x,y,z
-x,-y,-z
loop_
_atom_site_type_symbol
_atom_site_label
_atom_site_fract_x
_atom_site_fract_y
_atom_site_fract_z
Si Si1 0.126222 0.938602 0.250133
Si Si2 0.818522 0.697545 0.907096
Si Si3 0.211795 0.453522 0.366696
Si Si4 0.697765 0.918747 0.974123
Si Si5 0.552709 0.975649 0.391767
Si Si6 0.390485 0.003336 0.816266
Si Si7 0.534532 0.414693 0.426089
O O1 0.297984 0.919849 0.353815
O O2 0.784515 0.679645 0.311622
O O3 0.265811 0.191579 0.191485
O O4 0.145828 0.946579 0.144388
O O5 0.533141 0.383820 0.964185
O O6 0.064306 0.816649 0.849206
O O7 0.036581 0.874970 0.973963
O O8 0.385370 0.707316 0.241174
O O9 0.250840 0.326620 0.392111
O O10 0.351834 0.526362 0.468604
O O11 0.867105 0.252652 0.379488
O O12 0.488878 0.914857 0.928234
O O13 0.597703 0.995672 0.287911
O O14 0.502385 0.778016 0.516906
#
# Coordination Sequence:
#
# PCOD9073638 Si02
#       7
#     2   2   2   2   2   2   2
#     4  11  24  45  67  99 144 180 227 286 355 412
#     4  12  25  48  68 106 135 191 232 294 340 415
#     4  10  21  41  69 101 134 174 231 285 339 425
#     4  11  27  45  70 101 144 178 243 288 346 406
#     4  10  23  41  68 104 136 178 226 286 347 423
#     4  10  23  41  72  98 137 177 235 284 350 405
#     4  10  21  43  65 102 135 177 228 281 348 417
#
# _framework density 22.813683000000001
#
# number of rings (size 3 to 8) (size 9 to 14) (size 15 to 20)
#    0.000    1.429    1.429    2.571    6.000    0.571 
#   10.286    0.000    0.000    0.000    0.000    0.000 
#    0.000    0.000    0.000    0.000    0.000    0.000 
#
# Total GULP energy -78094.364504 kJ/mol
# GULP energy per Si atom -5578.168893 kJ/mol
# Density = 2.276176 g / cm^3
# Si number density = 22.813683 Si / 1000 Ang^3
#
#
#
# Elastic Constant Matrix: (Units=GPa)
#
#
# Indices 1 2 3 4 5 6 
#
# 1 101.9956 0.3257 18.7603 -3.2280 10.8279 -6.8264
# 2 0.3257 85.7169 23.1348 -16.2156 13.4182 -9.6595
# 3 18.7603 23.1348 69.7430 -29.0933 11.3023 -14.9726
# 4 -3.2280 -16.2156 -29.0933 37.3947 2.8972 9.1739
# 5 10.8279 13.4182 11.3023 2.8972 25.5922 -18.6454
# 6 -6.8264 -9.6595 -14.9726 9.1739 -18.6454 24.5146
#
#
#
# Elastic Compliance Matrix: (Units=1/GPa)
#
#
# Indices 1 2 3 4 5 6 
#
# 1 0.010820 0.001549 -0.002672 0.000989 -0.007044 -0.003736
# 2 0.001549 0.015346 -0.000705 0.010469 -0.017995 -0.011557
# 3 -0.002672 -0.000705 0.026292 0.023145 -0.018137 -0.007419
# 4 0.000989 0.010469 0.023145 0.068239 -0.064938 -0.056391
# 5 -0.007044 -0.017995 -0.018137 -0.064938 0.156750 0.123393
# 6 -0.003736 -0.011557 -0.007419 -0.056391 0.123393 0.145620
#
#
# Mechanical properties :
#
#
# Convention : Reuss Voigt Hill
#
# Bulk Modulus (GPa) = 20.49117 37.98856 29.23987
# Shear Modulus (GPa) = 11.28692 31.84926 21.56809
#
# Velocity S-wave (km/s) = 2.22670 3.74044 3.07807
# Velocity P-wave (km/s) = 3.95125 5.94494 5.04751
#
# Compressibility (1/GPa) = 0.04880151
#
# Stress axis : x y z
#
# Youngs Moduli (GPa) = 92.42197 65.16457 38.03426
#
# Poissons Ratio (x) = -0.10093 0.10164
# Poissons Ratio (y) = -0.14314 0.02680
# Poissons Ratio (z) = 0.24699 0.04591
#
# Static dielectric constant tensor:
#      x y z
#    x 1.880980 -0.023780 0.018500 
#    y -0.023780 1.871760 0.019160 
#    z 0.018500 0.019160 1.862320 
# 
# From -- ./inp_files/27189.got.cif
#   From: 2010.05.17/outbox.ucp.g08.bks.cvg/sg2_14_cif.got.tgz:27189.got - 2010.06.11 11:32:03.
