data_PCOD9073979
_publ_section_title
;
Structure prediction by ZEFSAII (Michael W. Deem and Ramdas Pophale) SiO2 
 PCOD9073979
Probable space group: P -1
;
_chemical_formula_sum "Si O2"
_cell_formula_units_Z 16
_cell_length_a 15.000000
_cell_length_b 12.000000
_cell_length_c 12.000000
_cell_angle_alpha 60.000000
_cell_angle_beta 50.000000
_cell_angle_gamma 30.000000
_cell_volume 818.222392
_symmetry_space_group_name_H-M "P -1"
_symmetry_group_IT_number 2
_symmetry_cell_setting 'triclinic'
loop_
_space_group_symop_operation_xyz
x,y,z
-x,-y,-z
loop_
_atom_site_type_symbol
_atom_site_label
_atom_site_fract_x
_atom_site_fract_y
_atom_site_fract_z
Si Si1 0.568459 0.098159 0.637772
Si Si2 0.224088 0.354113 0.355505
Si Si3 0.060984 0.668855 0.128495
Si Si4 0.865439 0.496616 0.093956
Si Si5 0.410305 0.865469 0.665331
Si Si6 0.046967 0.859400 0.701566
Si Si7 0.737895 0.283932 0.177894
Si Si8 0.685882 0.227955 0.632099
O O1 0.350680 0.288458 0.778860
O O2 0.558726 0.136896 0.492069
O O3 0.685786 0.103310 0.611884
O O4 0.671493 0.864639 0.675980
O O5 0.170720 0.511628 0.228163
O O6 0.393185 0.256590 0.360377
O O7 0.000000 0.500000 0.500000
O O8 0.131991 0.531954 0.026825
O O9 0.139933 0.742125 0.998716
O O10 0.814251 0.878357 0.241160
O O11 0.955513 0.286638 0.185383
O O12 0.000000 0.500000 0.000000
O O13 0.365983 0.752180 0.765721
O O14 0.107821 0.877240 0.759693
O O15 0.227484 0.733527 0.532715
O O16 0.840077 0.076258 0.689832
O O17 0.544337 0.538343 0.257906
#
# Coordination Sequence:
#
# PCOD9073979 Si02
#       8
#     2   2   2   2   2   2   2   2
#     4  12  24  45  76  99 138 186 232 290 347 413
#     4  12  29  47  71 102 143 187 241 285 344 429
#     4  11  26  48  67 106 143 183 236 288 354 419
#     4  11  25  43  70 102 144 181 229 291 353 410
#     4  12  26  47  76  98 143 191 233 288 352 418
#     4  10  22  40  67 104 145 175 229 290 352 407
#     4  11  23  45  71 102 145 177 237 292 354 409
#     4  11  22  41  70 110 135 183 232 291 347 415
#
# _framework density 19.554586
#
# number of rings (size 3 to 8) (size 9 to 14) (size 15 to 20)
#    0.000    0.750    5.000    2.625    3.500    7.000 
#    0.000    0.000    0.000    0.000    0.000    0.000 
#    0.000    0.000    0.000    0.000    0.000    0.000 
#
# Total GULP energy -89303.403822 kJ/mol
# GULP energy per Si atom -5581.462739 kJ/mol
# Density = 1.951008 g / cm^3
# Si number density = 19.554586 Si / 1000 Ang^3
#
#
#
# Elastic Constant Matrix: (Units=GPa)
#
#
# Indices 1 2 3 4 5 6 
#
# 1 146.9084 47.2403 44.9122 -3.5113 -8.4567 -13.9278
# 2 47.2403 81.2438 42.3315 4.5994 11.4819 -13.7748
# 3 44.9122 42.3315 143.1720 4.4084 -0.1834 -18.3010
# 4 -3.5113 4.5994 4.4084 44.9915 0.0657 1.3873
# 5 -8.4567 11.4819 -0.1834 0.0657 43.1814 -4.2463
# 6 -13.9278 -13.7748 -18.3010 1.3873 -4.2463 43.1334
#
#
#
# Elastic Compliance Matrix: (Units=1/GPa)
#
#
# Indices 1 2 3 4 5 6 
#
# 1 0.009119 -0.004975 -0.001287 0.001308 0.003208 0.001083
# 2 -0.004975 0.018325 -0.003514 -0.001979 -0.005636 0.002263
# 3 -0.001287 -0.003514 0.008741 -0.000670 0.000945 0.002286
# 4 0.001308 -0.001979 -0.000670 0.022631 0.000631 -0.001159
# 5 0.003208 -0.005636 0.000945 0.000631 0.025497 0.002127
# 6 0.001083 0.002263 0.002286 -0.001159 0.002127 0.025473
#
#
# Mechanical properties :
#
#
# Convention : Reuss Voigt Hill
#
# Bulk Modulus (GPa) = 60.12677 71.14358 65.63518
# Shear Modulus (GPa) = 37.06860 42.05060 39.55960
#
# Velocity S-wave (km/s) = 4.35863 4.64229 4.50270
# Velocity P-wave (km/s) = 7.49300 8.07438 7.78912
#
# Compressibility (1/GPa) = 0.01663153
#
# Stress axis : x y z
#
# Youngs Moduli (GPa) = 109.66067 54.56974 114.39726
#
# Poissons Ratio (x) = 0.27151 0.14725
# Poissons Ratio (y) = 0.54561 0.40204
# Poissons Ratio (z) = 0.14116 0.19178
#
# Static dielectric constant tensor:
#      x y z
#    x 1.706570 0.024950 -0.008770 
#    y 0.024950 1.720150 -0.003820 
#    z -0.008770 -0.003820 1.682170 
# 
# From -- ./inp_files/451234.got.cif
#   From: 2010.05.17/outbox.ucp.g08.bks.cvg/sg2_226_cif.got.tgz:451234.got - 2010.06.11 11:32:03.
