data_PCOD9073310
_publ_section_title
;
Structure prediction by ZEFSAII (Michael W. Deem and Ramdas Pophale) SiO2 
 PCOD9073310
Probable space group: P -1
;
_chemical_formula_sum "Si O2"
_cell_formula_units_Z 16
_cell_length_a 9.000000
_cell_length_b 21.000000
_cell_length_c 12.000000
_cell_angle_alpha 140.000000
_cell_angle_beta 70.000000
_cell_angle_gamma 140.000000
_cell_volume 754.890988
_symmetry_space_group_name_H-M "P -1"
_symmetry_group_IT_number 2
_symmetry_cell_setting 'triclinic'
loop_
_space_group_symop_operation_xyz
x,y,z
-x,-y,-z
loop_
_atom_site_type_symbol
_atom_site_label
_atom_site_fract_x
_atom_site_fract_y
_atom_site_fract_z
Si Si1 0.448292 0.398740 0.531333
Si Si2 0.473736 0.773045 0.688381
Si Si3 0.201028 0.957965 0.840103
Si Si4 0.219797 0.937592 0.182159
Si Si5 0.356142 0.911202 0.538080
Si Si6 0.744583 0.582867 0.184773
Si Si7 0.052777 0.719038 0.732121
Si Si8 0.199083 0.208046 0.729764
O O1 0.565005 0.360612 0.507990
O O2 0.395132 0.452113 0.710681
O O3 0.713415 0.559313 0.596731
O O4 0.140474 0.204587 0.301221
O O5 0.174311 0.673829 0.624629
O O6 0.686189 0.930221 0.752668
O O7 0.616056 0.868407 0.901865
O O8 0.304188 0.983999 0.723846
O O9 0.209300 0.865280 0.793229
O O10 0.935633 0.811923 0.153976
O O11 0.450495 0.048172 0.370213
O O12 0.157029 0.811097 0.949641
O O13 0.051268 0.703674 0.309121
O O14 0.500000 0.000000 0.500000
O O15 0.817006 0.720188 0.273459
O O16 0.542381 0.397422 0.924177
O O17 0.000000 0.000000 0.500000
#
# Coordination Sequence:
#
# PCOD9073310 Si02
#       8
#     2   2   2   2   2   2   2   2
#     4  11  22  36  59  92 126 155 202 267 314 365
#     4  11  21  37  60  92 121 160 210 254 312 380
#     4  10  21  38  60  87 121 164 206 249 319 376
#     4  11  20  39  63  84 121 163 209 254 319 372
#     4  11  20  38  66  87 121 168 205 258 318 368
#     4  10  23  39  63  93 123 163 215 257 319 380
#     4  11  20  38  61  88 120 165 205 251 311 378
#     4  11  22  41  65  90 123 166 211 262 313 381
#
# _framework density 21.195112999999999
#
# number of rings (size 3 to 8) (size 9 to 14) (size 15 to 20)
#    0.000    1.250    5.000    2.625    0.000    0.000 
#    0.000    0.625    2.750    0.000    0.000    0.000 
#    0.000    0.000    0.000    0.000    0.000    0.000 
#
# Total GULP energy -89079.228481 kJ/mol
# GULP energy per Si atom -5567.451780 kJ/mol
# Density = 2.114687 g / cm^3
# Si number density = 21.195113 Si / 1000 Ang^3
#
#
#
# Elastic Constant Matrix: (Units=GPa)
#
#
# Indices 1 2 3 4 5 6 
#
# 1 51.8559 8.1755 29.7749 1.6786 12.0339 9.7912
# 2 8.1755 98.2360 5.0130 -5.2658 16.6406 21.2591
# 3 29.7749 5.0130 79.7555 12.5130 28.0325 6.5970
# 4 1.6786 -5.2658 12.5130 32.7122 -6.5309 7.1411
# 5 12.0339 16.6406 28.0325 -6.5309 29.2198 1.9550
# 6 9.7912 21.2591 6.5970 7.1411 1.9550 23.8871
#
#
#
# Elastic Compliance Matrix: (Units=1/GPa)
#
#
# Indices 1 2 3 4 5 6 
#
# 1 0.026634 0.000826 -0.009755 0.004685 -0.000342 -0.010330
# 2 0.000826 0.014956 0.003353 0.002084 -0.010650 -0.014326
# 3 -0.009755 0.003353 0.028520 -0.015648 -0.028762 0.000170
# 4 0.004685 0.002084 -0.015648 0.044386 0.022793 -0.014588
# 5 -0.000342 -0.010650 -0.028762 0.022793 0.072796 0.004789
# 6 -0.010330 -0.014326 0.000170 -0.014588 0.004789 0.062770
#
#
# Mechanical properties :
#
#
# Convention : Reuss Voigt Hill
#
# Bulk Modulus (GPa) = 16.96178 35.08601 26.02390
# Shear Modulus (GPa) = 17.80210 29.62275 23.71243
#
# Velocity S-wave (km/s) = 2.90127 3.74253 3.34843
# Velocity P-wave (km/s) = 4.38671 5.93845 5.22056
#
# Compressibility (1/GPa) = 0.05895607
#
# Stress axis : x y z
#
# Youngs Moduli (GPa) = 37.54664 66.86381 35.06359
#
# Poissons Ratio (x) = -0.05522 0.34205
# Poissons Ratio (y) = -0.03101 -0.11756
# Poissons Ratio (z) = 0.36628 -0.22419
#
# Static dielectric constant tensor:
#      x y z
#    x 1.863920 0.036790 0.014430 
#    y 0.036790 1.790810 0.056910 
#    z 0.014430 0.056910 1.786670 
# 
# From -- ./inp_files/405577.got.cif
#   From: 2010.05.17/outbox.ucp.g08.bks.cvg/sg2_203_cif.got.tgz:405577.got - 2010.06.11 11:32:03.
