data_PCOD9073800
_publ_section_title
;
Structure prediction by ZEFSAII (Michael W. Deem and Ramdas Pophale) SiO2 
 PCOD9073800
Probable space group: P -1
;
_chemical_formula_sum "Si O2"
_cell_formula_units_Z 16
_cell_length_a 9.000000
_cell_length_b 24.000000
_cell_length_c 9.000000
_cell_angle_alpha 50.000000
_cell_angle_beta 50.000000
_cell_angle_gamma 30.000000
_cell_volume 725.531033
_symmetry_space_group_name_H-M "P -1"
_symmetry_group_IT_number 2
_symmetry_cell_setting 'triclinic'
loop_
_space_group_symop_operation_xyz
x,y,z
-x,-y,-z
loop_
_atom_site_type_symbol
_atom_site_label
_atom_site_fract_x
_atom_site_fract_y
_atom_site_fract_z
Si Si1 0.275478 0.680966 0.965787
Si Si2 0.295325 0.379278 0.598573
Si Si3 0.881441 0.309012 0.254579
Si Si4 0.530275 0.052408 0.270376
Si Si5 0.369815 0.808017 0.522032
Si Si6 0.195219 0.942058 0.662180
Si Si7 0.950944 0.447104 0.011895
Si Si8 0.180484 0.091603 0.964501
O O1 0.197048 0.648519 0.938427
O O2 0.355189 0.734437 0.739857
O O3 0.588484 0.558961 0.031999
O O4 0.021016 0.779206 0.081846
O O5 0.595830 0.346785 0.447261
O O6 0.402412 0.275533 0.617431
O O7 0.000000 0.500000 0.500000
O O8 0.172445 0.397232 0.812408
O O9 0.182431 0.174690 0.255305
O O10 0.983984 0.352662 0.198515
O O11 0.682167 0.074333 0.226195
O O12 0.500000 0.000000 0.500000
O O13 0.728243 0.958817 0.173851
O O14 0.431018 0.853377 0.529034
O O15 0.042778 0.927351 0.461047
O O16 0.005471 0.923400 0.830361
O O17 0.000000 0.500000 0.000000
O O18 0.500000 0.000000 0.000000
#
# Coordination Sequence:
#
# PCOD9073800 Si02
#       8
#     2   2   2   2   2   2   2   2
#     4  10  21  45  67  97 140 177 233 280 337 417
#     4  11  23  44  74  98 134 186 233 282 342 414
#     4  11  25  46  72 102 139 185 236 284 346 420
#     4  12  26  44  68 105 145 175 225 291 351 412
#     4   9  20  39  70  96 130 175 230 272 340 414
#     4  10  23  41  68  98 137 178 223 282 349 405
#     4  12  28  45  72 104 141 182 235 297 344 404
#     4  11  24  42  69 103 136 183 229 276 346 424
#
# _framework density 22.052813
#
# number of rings (size 3 to 8) (size 9 to 14) (size 15 to 20)
#    0.000    1.250    3.750    2.250    8.750    2.500 
#    0.000    0.000    0.000    0.000    0.000    0.000 
#    0.000    0.000    0.000    0.000    0.000    0.000 
#
# Total GULP energy -89186.934420 kJ/mol
# GULP energy per Si atom -5574.183401 kJ/mol
# Density = 2.200262 g / cm^3
# Si number density = 22.052813 Si / 1000 Ang^3
#
#
#
# Elastic Constant Matrix: (Units=GPa)
#
#
# Indices 1 2 3 4 5 6 
#
# 1 86.1467 9.8090 -4.2049 23.5215 7.2173 21.1497
# 2 9.8090 138.1060 16.8693 33.8019 14.9221 32.6557
# 3 -4.2049 16.8693 50.8476 29.2769 0.7345 11.1761
# 4 23.5215 33.8019 29.2769 43.4411 9.3497 7.9020
# 5 7.2173 14.9221 0.7345 9.3497 33.3727 6.1202
# 6 21.1497 32.6557 11.1761 7.9020 6.1202 44.7878
#
#
#
# Elastic Compliance Matrix: (Units=1/GPa)
#
#
# Indices 1 2 3 4 5 6 
#
# 1 0.023336 0.006415 0.019716 -0.028572 0.002577 -0.015928
# 2 0.006415 0.012595 0.008585 -0.016917 -0.000393 -0.011317
# 3 0.019716 0.008585 0.051950 -0.050454 0.008707 -0.020822
# 4 -0.028572 -0.016917 -0.050454 0.083896 -0.013315 0.025435
# 5 0.002577 -0.000393 0.008707 -0.013315 0.034115 -0.005415
# 6 -0.015928 -0.011317 -0.020822 0.025435 -0.005415 0.039549
#
#
# Mechanical properties :
#
#
# Convention : Reuss Voigt Hill
#
# Bulk Modulus (GPa) = 6.35665 35.56079 20.95872
# Shear Modulus (GPa) = 21.88709 41.16210 31.52460
#
# Velocity S-wave (km/s) = 3.15379 4.32502 3.78498
# Velocity P-wave (km/s) = 4.01878 6.41103 5.35032
#
# Compressibility (1/GPa) = 0.15731567
#
# Stress axis : x y z
#
# Youngs Moduli (GPa) = 42.85212 79.39378 19.24941
#
# Poissons Ratio (x) = -0.50934 -0.37953
# Poissons Ratio (y) = -0.27491 -0.16526
# Poissons Ratio (z) = -0.84489 -0.68163
#
# Static dielectric constant tensor:
#      x y z
#    x 1.723390 -0.040420 0.019870 
#    y -0.040420 1.715190 -0.034690 
#    z 0.019870 -0.034690 1.826440 
# 
# From -- ./inp_files/226075.got.cif
#   From: 2010.05.17/outbox.ucp.g08.bks.cvg/sg2_114_cif.got.tgz:226075.got - 2010.06.11 11:32:03.
