data_PCOD9073523
_publ_section_title
;
Structure prediction by ZEFSAII (Michael W. Deem and Ramdas Pophale) SiO2 
 PCOD9073523
Probable space group: P -1
;
_chemical_formula_sum "Si O2"
_cell_formula_units_Z 16
_cell_length_a 12.000000
_cell_length_b 9.000000
_cell_length_c 9.000000
_cell_angle_alpha 90.000000
_cell_angle_beta 50.000000
_cell_angle_gamma 80.000000
_cell_volume 725.212580
_symmetry_space_group_name_H-M "P -1"
_symmetry_group_IT_number 2
_symmetry_cell_setting 'triclinic'
loop_
_space_group_symop_operation_xyz
x,y,z
-x,-y,-z
loop_
_atom_site_type_symbol
_atom_site_label
_atom_site_fract_x
_atom_site_fract_y
_atom_site_fract_z
Si Si1 0.495414 0.648510 0.105720
Si Si2 0.230296 0.832835 0.164941
Si Si3 0.076204 0.322986 0.940044
Si Si4 0.666529 0.884951 0.853482
Si Si5 0.095484 0.160311 0.601759
Si Si6 0.619092 0.621559 0.316042
Si Si7 0.359353 0.716453 0.734569
Si Si8 0.096926 0.892558 0.792199
O O1 0.339450 0.762266 0.203206
O O2 0.510894 0.624030 0.268011
O O3 0.500000 0.500000 0.000000
O O4 0.628406 0.730776 0.947233
O O5 0.070064 0.795017 0.325685
O O6 0.233783 0.011700 0.150137
O O7 0.308937 0.755007 0.946109
O O8 0.081679 0.253163 0.768658
O O9 0.248399 0.299319 0.836046
O O10 0.000000 0.500000 0.000000
O O11 0.983602 0.246198 0.135282
O O12 0.760792 0.838435 0.621000
O O13 0.500000 0.000000 0.000000
O O14 0.103468 0.985319 0.639623
O O15 0.530331 0.691942 0.538513
O O16 0.682389 0.441083 0.278264
O O17 0.261589 0.846260 0.717761
O O18 0.000000 0.000000 0.000000
#
# Coordination Sequence:
#
# PCOD9073523 Si02
#       8
#     2   2   2   2   2   2   2   2
#     4  11  25  46  69  94 140 182 227 279 342 411
#     4  11  22  46  68  95 143 180 225 282 338 411
#     4  11  22  42  69 103 139 171 230 288 341 408
#     4  10  26  43  66  97 137 181 227 280 338 414
#     4  11  24  44  69 101 139 184 225 285 350 399
#     4  11  25  40  69 105 135 182 228 286 345 406
#     4  11  22  42  69 102 137 178 230 285 343 398
#     4  10  21  40  65  98 136 174 218 282 345 399
#
# _framework density 22.062495999999999
#
# number of rings (size 3 to 8) (size 9 to 14) (size 15 to 20)
#    0.000    1.250    5.000    0.375    8.750    0.000 
#    0.000    3.750    0.000    0.000    0.000    0.000 
#    0.000    0.000    0.000    0.000    0.000    0.000 
#
# Total GULP energy -89221.102669 kJ/mol
# GULP energy per Si atom -5576.318917 kJ/mol
# Density = 2.201228 g / cm^3
# Si number density = 22.062496 Si / 1000 Ang^3
#
#
#
# Elastic Constant Matrix: (Units=GPa)
#
#
# Indices 1 2 3 4 5 6 
#
# 1 92.5581 12.5371 21.6871 1.4813 -12.7770 -2.1326
# 2 12.5371 82.7571 28.6710 0.1096 -4.1079 9.3321
# 3 21.6871 28.6710 116.2021 2.8952 -0.9935 4.0064
# 4 1.4813 0.1096 2.8952 35.8711 8.1404 2.5938
# 5 -12.7770 -4.1079 -0.9935 8.1404 14.1277 -1.0835
# 6 -2.1326 9.3321 4.0064 2.5938 -1.0835 29.7882
#
#
#
# Elastic Compliance Matrix: (Units=1/GPa)
#
#
# Indices 1 2 3 4 5 6 
#
# 1 0.013498 -0.000850 -0.002176 -0.003763 0.014157 0.002368
# 2 -0.000850 0.013864 -0.003101 -0.000115 0.002813 -0.003875
# 3 -0.002176 -0.003101 0.009782 -0.000166 -0.002129 -0.000563
# 4 -0.003763 -0.000115 -0.000166 0.033576 -0.023100 -0.003975
# 5 0.014157 0.002813 -0.002129 -0.023100 0.098025 0.005995
# 6 0.002368 -0.003875 -0.000563 -0.003975 0.005995 0.035594
#
#
# Mechanical properties :
#
#
# Convention : Reuss Voigt Hill
#
# Bulk Modulus (GPa) = 40.17938 46.36751 43.27345
# Shear Modulus (GPa) = 22.23300 31.19889 26.71594
#
# Velocity S-wave (km/s) = 3.17792 3.76455 3.48360
# Velocity P-wave (km/s) = 5.63176 6.32122 5.98642
#
# Compressibility (1/GPa) = 0.02488839
#
# Stress axis : x y z
#
# Youngs Moduli (GPa) = 74.08393 72.13158 102.22415
#
# Poissons Ratio (x) = 0.06133 0.22247
# Poissons Ratio (y) = 0.06299 0.31704
# Poissons Ratio (z) = 0.16123 0.22371
#
# Static dielectric constant tensor:
#      x y z
#    x 1.840070 -0.004710 -0.054300 
#    y -0.004710 1.877180 0.013380 
#    z -0.054300 0.013380 1.659320 
# 
# From -- ./inp_files/187517.got.cif
#   From: 2010.05.17/outbox.ucp.g08.bks.cvg/sg2_94_cif.got.tgz:187517.got - 2010.06.11 11:32:03.
