data_PCOD9073049
_publ_section_title
;
Structure prediction by ZEFSAII (Michael W. Deem and Ramdas Pophale) SiO2 
 PCOD9073049
Probable space group: P -1
;
_chemical_formula_sum "Si O2"
_cell_formula_units_Z 16
_cell_length_a 9.000000
_cell_length_b 24.000000
_cell_length_c 21.000000
_cell_angle_alpha 160.000000
_cell_angle_beta 140.000000
_cell_angle_gamma 30.000000
_cell_volume 744.844803
_symmetry_space_group_name_H-M "P -1"
_symmetry_group_IT_number 2
_symmetry_cell_setting 'triclinic'
loop_
_space_group_symop_operation_xyz
x,y,z
-x,-y,-z
loop_
_atom_site_type_symbol
_atom_site_label
_atom_site_fract_x
_atom_site_fract_y
_atom_site_fract_z
Si Si1 0.273739 0.777753 0.314823
Si Si2 0.253587 0.165644 0.028434
Si Si3 0.222906 0.117446 0.826509
Si Si4 0.451059 0.372701 0.552765
Si Si5 0.742829 0.668935 0.677299
Si Si6 0.406205 0.229106 0.704432
Si Si7 0.304846 0.384460 0.073218
Si Si8 0.621959 0.321571 0.990931
O O1 0.502580 0.772880 0.340292
O O2 0.471053 0.571141 0.203531
O O3 0.080959 0.756270 0.180002
O O4 0.000000 0.000000 0.500000
O O5 0.160939 0.227271 0.991830
O O6 0.576339 0.918182 0.871946
O O7 0.280032 0.317760 0.240207
O O8 0.972049 0.184354 0.982479
O O9 0.352861 0.873465 0.619933
O O10 0.426329 0.160462 0.904587
O O11 0.439994 0.368162 0.467304
O O12 0.546878 0.509636 0.748458
O O13 0.101603 0.501747 0.598604
O O14 0.051771 0.424607 0.818404
O O15 0.500000 0.000000 0.500000
O O16 0.613917 0.240812 0.832897
O O17 0.394365 0.325676 0.965532
#
# Coordination Sequence:
#
# PCOD9073049 Si02
#       8
#     2   2   2   2   2   2   2   2
#     4  12  25  42  64  94 135 184 218 261 326 400
#     4  10  20  40  69  94 121 179 216 270 330 386
#     4  11  23  42  66  93 135 171 217 266 327 389
#     4  10  21  43  68  97 126 172 216 277 326 390
#     4   9  20  40  70  90 125 170 224 267 335 383
#     4  12  25  40  62  97 135 176 217 269 320 394
#     4  12  25  42  66 100 136 173 217 270 329 392
#     4  12  23  42  65  95 138 172 219 267 325 394
#
# _framework density 21.480985
#
# number of rings (size 3 to 8) (size 9 to 14) (size 15 to 20)
#    0.000    1.000    3.750    3.750    3.500    0.000 
#    0.000    6.250    0.000    0.000    0.000    0.000 
#    0.000    0.000    0.000    0.000    0.000    0.000 
#
# Total GULP energy -89201.895594 kJ/mol
# GULP energy per Si atom -5575.118475 kJ/mol
# Density = 2.143209 g / cm^3
# Si number density = 21.480985 Si / 1000 Ang^3
#
#
#
# Elastic Constant Matrix: (Units=GPa)
#
#
# Indices 1 2 3 4 5 6 
#
# 1 104.7039 4.7609 12.4887 3.1542 -2.8795 4.5789
# 2 4.7609 76.6779 10.4146 4.1666 1.8562 -1.3376
# 3 12.4887 10.4146 53.8849 -1.1340 4.6734 6.0263
# 4 3.1542 4.1666 -1.1340 30.5264 -2.0827 -20.1569
# 5 -2.8795 1.8562 4.6734 -2.0827 37.7889 -5.5625
# 6 4.5789 -1.3376 6.0263 -20.1569 -5.5625 19.8176
#
#
#
# Elastic Compliance Matrix: (Units=1/GPa)
#
#
# Indices 1 2 3 4 5 6 
#
# 1 0.010397 -0.000188 -0.001253 -0.008259 -0.001079 -0.010737
# 2 -0.000188 0.013534 -0.002381 -0.003073 -0.000800 -0.001669
# 3 -0.001253 -0.002381 0.022266 -0.014899 -0.007053 -0.023776
# 4 -0.008259 -0.003073 -0.014899 0.139296 0.032142 0.156934
# 5 -0.001079 -0.000800 -0.007053 0.032142 0.035695 0.045051
# 6 -0.010737 -0.001669 -0.023776 0.156934 0.045051 0.232325
#
#
# Mechanical properties :
#
#
# Convention : Reuss Voigt Hill
#
# Bulk Modulus (GPa) = 25.93772 32.28834 29.11303
# Shear Modulus (GPa) = 10.54836 31.46675 21.00756
#
# Velocity S-wave (km/s) = 2.21838 3.83151 3.13063
# Velocity P-wave (km/s) = 4.32002 5.88538 5.16238
#
# Compressibility (1/GPa) = 0.03855388
#
# Stress axis : x y z
#
# Youngs Moduli (GPa) = 96.17804 73.88891 44.91201
#
# Poissons Ratio (x) = 0.01388 0.05627
# Poissons Ratio (y) = 0.01806 0.10693
# Poissons Ratio (z) = 0.12050 0.17592
#
# Static dielectric constant tensor:
#      x y z
#    x 1.865770 0.033500 -0.045550 
#    y 0.033500 1.813540 -0.052820 
#    z -0.045550 -0.052820 1.816990 
# 
# From -- ./inp_files/212958.got.cif
#   From: 2010.05.17/outbox.ucp.g08.bks.cvg/sg2_107_cif.got.tgz:212958.got - 2010.06.11 11:32:03.
