data_PCOD9073221
_publ_section_title
;
Structure prediction by ZEFSAII (Michael W. Deem and Ramdas Pophale) SiO2 
 PCOD9073221
Probable space group: P -1
;
_chemical_formula_sum "Si O2"
_cell_formula_units_Z 16
_cell_length_a 8.159930
_cell_length_b 13.802556
_cell_length_c 11.516622
_cell_angle_alpha 127.840986
_cell_angle_beta 144.382435
_cell_angle_gamma 64.295055
_cell_volume 590.562384
_symmetry_space_group_name_H-M "P -1"
_symmetry_group_IT_number 2
_symmetry_cell_setting 'triclinic'
loop_
_space_group_symop_operation_xyz
x,y,z
-x,-y,-z
loop_
_atom_site_type_symbol
_atom_site_label
_atom_site_fract_x
_atom_site_fract_y
_atom_site_fract_z
Si Si1 0.029168 0.951092 0.252572
Si Si2 0.013736 0.683147 0.077359
Si Si3 0.225618 0.450610 0.462104
Si Si4 0.600787 0.712444 0.297403
Si Si5 0.224079 0.590764 0.346682
Si Si6 0.199699 0.841833 0.819801
Si Si7 0.396632 0.627513 0.893249
Si Si8 0.426222 0.959158 0.267912
O O1 0.900278 0.807887 0.063520
O O2 0.217736 0.988084 0.272161
O O3 0.274991 0.950436 0.492030
O O4 0.823417 0.056073 0.220664
O O5 0.328187 0.686320 0.204999
O O6 0.038322 0.670621 0.221900
O O7 0.848421 0.551523 0.845872
O O8 0.204437 0.570749 0.457112
O O9 0.449770 0.373387 0.476568
O O10 0.342693 0.503887 0.692889
O O11 0.915133 0.374298 0.229776
O O12 0.532803 0.833035 0.277046
O O13 0.895742 0.753622 0.563751
O O14 0.602072 0.624745 0.119896
O O15 0.419362 0.744148 0.903673
O O16 0.266164 0.931677 0.035786
#
# Coordination Sequence:
#
# PCOD9073221 Si02
#       8
#     2   2   2   2   2   2   2   2
#     4   9  17  30  50  82 113 147 183 227 277 334
#     4  10  19  35  54  81 115 147 187 229 275 333
#     4  10  21  39  57  83 110 148 191 232 279 329
#     4   9  17  32  53  84 115 145 181 233 277 330
#     4  10  21  38  58  78 114 151 187 229 278 329
#     4  10  18  31  53  84 116 146 176 231 290 330
#     4  10  20  37  59  86 113 144 186 237 278 331
#     4   8  16  28  46  80 119 142 180 228 278 329
#
# _framework density 27.092817
#
# number of rings (size 3 to 8) (size 9 to 14) (size 15 to 20)
#    0.000    2.500    1.250    1.875    0.000    0.000 
#    9.000    1.875    0.000    1.500    0.000    0.000 
#    0.000    0.000    0.000    0.000    0.000    0.000 
#
# Total GULP energy -89345.377221 kJ/mol
# GULP energy per Si atom -5584.086076 kJ/mol
# Density = 2.703115 g / cm^3
# Si number density = 27.092817 Si / 1000 Ang^3
#
#
#
# Elastic Constant Matrix: (Units=GPa)
#
#
# Indices 1 2 3 4 5 6 
#
# 1 65.9895 -4.3529 41.0339 -3.7866 8.4848 17.9385
# 2 -4.3529 119.6472 11.7967 -2.2388 0.0225 -6.7905
# 3 41.0339 11.7967 150.0074 -22.9354 -20.9223 10.8576
# 4 -3.7866 -2.2388 -22.9354 53.6391 6.9005 -6.7578
# 5 8.4848 0.0225 -20.9223 6.9005 40.6081 -10.2675
# 6 17.9385 -6.7905 10.8576 -6.7578 -10.2675 25.6850
#
#
#
# Elastic Compliance Matrix: (Units=1/GPa)
#
#
# Indices 1 2 3 4 5 6 
#
# 1 0.029102 0.000559 -0.008963 -0.002638 -0.016208 -0.023561
# 2 0.000559 0.008612 -0.000966 0.000291 -0.000077 0.002340
# 3 -0.008963 -0.000966 0.010441 0.003471 0.008116 0.005749
# 4 -0.002638 0.000291 0.003471 0.020668 0.000352 0.006030
# 5 -0.016208 -0.000077 0.008116 0.000352 0.037986 0.023146
# 6 -0.023561 0.002340 0.005749 0.006030 0.023146 0.064416
#
#
# Mechanical properties :
#
#
# Convention : Reuss Voigt Hill
#
# Bulk Modulus (GPa) = 33.99717 48.06662 41.03190
# Shear Modulus (GPa) = 25.02887 43.13087 34.07987
#
# Velocity S-wave (km/s) = 3.04274 3.99427 3.55053
# Velocity P-wave (km/s) = 4.99199 6.24918 5.65563
#
# Compressibility (1/GPa) = 0.02941421
#
# Stress axis : x y z
#
# Youngs Moduli (GPa) = 34.36219 116.12048 95.77771
#
# Poissons Ratio (x) = -0.06491 0.85848
# Poissons Ratio (y) = -0.01921 0.09250
# Poissons Ratio (z) = 0.30800 0.11215
#
# Static dielectric constant tensor:
#      x y z
#    x 2.165460 0.011790 -0.042840 
#    y 0.011790 2.129730 0.018980 
#    z -0.042840 0.018980 2.253430 
# 
# From -- ./inp_files/397707.got.cif
#   From: 2010.05.17/outbox.cif.g08.bks.cpg/sg2_199_cif.got.tgz:397707.got - 2010.06.03 11:33:40.
