data_PCOD9073688
_publ_section_title
;
Structure prediction by ZEFSAII (Michael W. Deem and Ramdas Pophale) SiO2 
 PCOD9073688
Probable space group: P -1
;
_chemical_formula_sum "Si O2"
_cell_formula_units_Z 16
_cell_length_a 9.000000
_cell_length_b 12.000000
_cell_length_c 18.000000
_cell_angle_alpha 30.000000
_cell_angle_beta 50.000000
_cell_angle_gamma 50.000000
_cell_volume 725.531033
_symmetry_space_group_name_H-M "P -1"
_symmetry_group_IT_number 2
_symmetry_cell_setting 'triclinic'
loop_
_space_group_symop_operation_xyz
x,y,z
-x,-y,-z
loop_
_atom_site_type_symbol
_atom_site_label
_atom_site_fract_x
_atom_site_fract_y
_atom_site_fract_z
Si Si1 0.036359 0.555279 0.111235
Si Si2 0.428310 0.146006 0.608520
Si Si3 0.966865 0.556654 0.391995
Si Si4 0.816449 0.163152 0.424064
Si Si5 0.183610 0.085223 0.575507
Si Si6 0.152219 0.757306 0.099703
Si Si7 0.093415 0.234974 0.102022
Si Si8 0.580547 0.744793 0.902672
O O1 0.061230 0.600032 0.163112
O O2 0.261333 0.478922 0.049525
O O3 0.919044 0.358216 0.250284
O O4 0.902108 0.765957 0.988131
O O5 0.250709 0.285259 0.636247
O O6 0.617093 0.260322 0.477705
O O7 0.328475 0.128051 0.570061
O O8 0.516840 0.905645 0.759042
O O9 0.000000 0.500000 0.500000
O O10 0.016777 0.310977 0.480437
O O11 0.130460 0.679303 0.235302
O O12 0.736210 0.020760 0.467334
O O13 0.000000 0.000000 0.500000
O O14 0.066809 0.906886 0.746973
O O15 0.377953 0.728231 0.017824
O O16 0.000000 0.000000 0.000000
O O17 0.288783 0.158457 0.133131
O O18 0.000000 0.500000 0.000000
#
# Coordination Sequence:
#
# PCOD9073688 Si02
#       8
#     2   2   2   2   2   2   2   2
#     4  11  24  44  68 100 138 174 223 285 336 405
#     4  11  23  42  69  98 137 181 225 278 337 400
#     4  10  25  45  65  99 135 178 226 282 330 398
#     4  12  22  42  66 101 136 171 227 283 341 400
#     4  11  22  43  69  97 135 176 230 281 334 401
#     4  12  25  45  72  98 137 181 230 274 338 411
#     4  10  21  42  67  99 139 169 217 285 341 393
#     4  11  22  44  71  99 134 177 224 276 343 396
#
# _framework density 22.052813
#
# number of rings (size 3 to 8) (size 9 to 14) (size 15 to 20)
#    0.000    1.000    5.000    2.250    1.750    3.000 
#    2.250    2.500    0.000    0.000    0.000    0.000 
#    0.000    0.000    0.000    0.000    0.000    0.000 
#
# Total GULP energy -89115.946447 kJ/mol
# GULP energy per Si atom -5569.746653 kJ/mol
# Density = 2.200262 g / cm^3
# Si number density = 22.052813 Si / 1000 Ang^3
#
#
#
# Elastic Constant Matrix: (Units=GPa)
#
#
# Indices 1 2 3 4 5 6 
#
# 1 106.4050 40.6265 25.5723 9.9416 8.1153 -18.4502
# 2 40.6265 79.3486 39.3080 10.6100 -15.6787 -10.5534
# 3 25.5723 39.3080 73.7684 16.4477 1.6054 -5.2398
# 4 9.9416 10.6100 16.4477 32.3333 -1.1970 0.6526
# 5 8.1153 -15.6787 1.6054 -1.1970 34.7928 11.6380
# 6 -18.4502 -10.5534 -5.2398 0.6526 11.6380 16.2236
#
#
#
# Elastic Compliance Matrix: (Units=1/GPa)
#
#
# Indices 1 2 3 4 5 6 
#
# 1 0.020731 -0.011030 0.002703 -0.005565 -0.021019 0.032576
# 2 -0.011030 0.025845 -0.011743 0.001871 0.019329 -0.013465
# 3 0.002703 -0.011743 0.021792 -0.008674 -0.010749 0.010534
# 4 -0.005565 0.001871 -0.008674 0.037099 0.009163 -0.015979
# 5 -0.021019 0.019329 -0.010749 0.009163 0.063469 -0.060699
# 6 0.032576 -0.013465 0.010534 -0.015979 -0.060699 0.137514
#
#
# Mechanical properties :
#
#
# Convention : Reuss Voigt Hill
#
# Bulk Modulus (GPa) = 35.42337 52.28173 43.85255
# Shear Modulus (GPa) = 14.04494 26.93764 20.49129
#
# Velocity S-wave (km/s) = 2.52638 3.49880 3.05157
# Velocity P-wave (km/s) = 4.96064 6.33096 5.68723
#
# Compressibility (1/GPa) = 0.02822995
#
# Stress axis : x y z
#
# Youngs Moduli (GPa) = 48.23621 38.69190 45.88796
#
# Poissons Ratio (x) = 0.42676 -0.12403
# Poissons Ratio (y) = 0.53203 0.53884
# Poissons Ratio (z) = -0.13037 0.45434
#
# Static dielectric constant tensor:
#      x y z
#    x 2.014690 0.165220 0.056080 
#    y 0.165220 1.894740 -0.081690 
#    z 0.056080 -0.081690 2.077560 
# 
# From -- ./inp_files/295491.got.cif
#   From: 2010.05.17/outbox.ucp.g08.bks.cvg/sg2_148_cif.got.tgz:295491.got - 2010.06.11 11:32:03.
