data_PCOD9073011
_publ_section_title
;
Structure prediction by ZEFSAII (Michael W. Deem and Ramdas Pophale) SiO2 
 PCOD9073011
Probable space group: P -1
;
_chemical_formula_sum "Si O2"
_cell_formula_units_Z 16
_cell_length_a 9.000000
_cell_length_b 18.000000
_cell_length_c 18.000000
_cell_angle_alpha 150.000000
_cell_angle_beta 40.000000
_cell_angle_gamma 150.000000
_cell_volume 727.497153
_symmetry_space_group_name_H-M "P -1"
_symmetry_group_IT_number 2
_symmetry_cell_setting 'triclinic'
loop_
_space_group_symop_operation_xyz
x,y,z
-x,-y,-z
loop_
_atom_site_type_symbol
_atom_site_label
_atom_site_fract_x
_atom_site_fract_y
_atom_site_fract_z
Si Si1 0.932211 0.652471 0.236202
Si Si2 0.852779 0.059032 0.839858
Si Si3 0.592365 0.025218 0.300178
Si Si4 0.497584 0.468518 0.576717
Si Si5 0.032194 0.214514 0.415895
Si Si6 0.740094 0.239842 0.280341
Si Si7 0.857733 0.800040 0.000630
Si Si8 0.779970 0.535697 0.022989
O O1 0.662418 0.604167 0.346331
O O2 0.815233 0.568139 0.126241
O O3 0.234467 0.870846 0.304708
O O4 0.052676 0.548036 0.135094
O O5 0.051850 0.263554 0.904769
O O6 0.997455 0.956596 0.682891
O O7 0.537111 0.931889 0.810843
O O8 0.878394 0.085431 0.941237
O O9 0.693011 0.176939 0.329103
O O10 0.725666 0.127278 0.417306
O O11 0.732993 0.917167 0.132858
O O12 0.221254 0.378643 0.547237
O O13 0.729909 0.692477 0.663297
O O14 0.695664 0.399638 0.428337
O O15 0.027113 0.265117 0.163346
O O16 0.568010 0.612605 0.988074
#
# Coordination Sequence:
#
# PCOD9073011 Si02
#       8
#     2   2   2   2   2   2   2   2
#     4  10  22  40  62  89 122 157 191 251 297 347
#     4  10  20  40  62  90 120 155 200 245 293 352
#     4  10  21  40  61  89 121 154 202 244 295 344
#     4  10  23  42  61  85 123 159 197 240 300 354
#     4   9  22  42  60  88 120 158 199 243 294 355
#     4  11  22  38  61  91 121 158 198 241 295 359
#     4  10  22  37  61  92 122 154 194 250 296 343
#     4  10  21  39  63  91 118 153 203 242 299 346
#
# _framework density 21.993213000000001
#
# number of rings (size 3 to 8) (size 9 to 14) (size 15 to 20)
#    0.000    2.000    1.250    1.125    1.750    6.500 
#    0.000    0.000    0.000    0.000    0.000    0.000 
#    0.000    0.000    0.000    0.000    0.000    0.000 
#
# Total GULP energy -89191.125482 kJ/mol
# GULP energy per Si atom -5574.445343 kJ/mol
# Density = 2.194316 g / cm^3
# Si number density = 21.993213 Si / 1000 Ang^3
#
#
#
# Elastic Constant Matrix: (Units=GPa)
#
#
# Indices 1 2 3 4 5 6 
#
# 1 38.7906 -18.2971 2.5618 -4.8410 -12.1985 0.3777
# 2 -18.2971 0.3782 24.4597 8.0740 -20.8338 -13.1029
# 3 2.5618 24.4597 37.0398 2.6252 -2.1649 -10.0095
# 4 -4.8410 8.0740 2.6252 24.1530 -5.0005 1.9411
# 5 -12.1985 -20.8338 -2.1649 -5.0005 18.2549 14.2211
# 6 0.3777 -13.1029 -10.0095 1.9411 14.2211 33.2932
#
#
#
# Elastic Compliance Matrix: (Units=1/GPa)
#
#
# Indices 1 2 3 4 5 6 
#
# 1 0.018215 -0.017213 0.008123 0.008878 -0.000207 -0.004968
# 2 -0.017213 -0.008820 0.009789 -0.010033 -0.034998 0.015201
# 3 0.008123 0.009789 0.021926 -0.000945 0.016236 0.003472
# 4 0.008878 -0.010033 -0.000945 0.052480 0.021740 -0.016679
# 5 -0.000207 -0.034998 0.016236 0.021740 0.045699 -0.029678
# 6 -0.004968 0.015201 0.003472 -0.016679 -0.029678 0.050769
#
#
# Mechanical properties :
#
#
# Convention : Reuss Voigt Hill
#
# Bulk Modulus (GPa) = 30.56386 10.40638 20.48512
# Shear Modulus (GPa) = 26.34665 19.63918 22.99291
#
# Velocity S-wave (km/s) = 3.46489 2.99149 3.23686
# Velocity P-wave (km/s) = 5.47123 4.08338 4.82744
#
# Compressibility (1/GPa) = 0.03271838
#
# Stress axis : x y z
#
# Youngs Moduli (GPa) = 54.90005 -113.37330 45.60705
#
# Poissons Ratio (x) = -1.95150 -0.37047
# Poissons Ratio (y) = 0.94500 -0.44643
# Poissons Ratio (z) = -0.44596 1.10977
#
# Static dielectric constant tensor:
#      x y z
#    x 1.816960 -0.008030 0.022220 
#    y -0.008030 1.774310 0.013580 
#    z 0.022220 0.013580 1.855650 
# 
# From -- ./inp_files/188550.got.cif
#   From: 2010.05.17/outbox.ucp.g08.bks.cvg/sg2_95_cif.got.tgz:188550.got - 2010.06.11 11:32:03.
