data_PCOD9073799
_publ_section_title
;
Structure prediction by ZEFSAII (Michael W. Deem and Ramdas Pophale) SiO2 
 PCOD9073799
Probable space group: P -1
;
_chemical_formula_sum "Si O2"
_cell_formula_units_Z 16
_cell_length_a 12.000000
_cell_length_b 9.000000
_cell_length_c 15.000000
_cell_angle_alpha 60.000000
_cell_angle_beta 120.000000
_cell_angle_gamma 70.000000
_cell_volume 745.925389
_symmetry_space_group_name_H-M "P -1"
_symmetry_group_IT_number 2
_symmetry_cell_setting 'triclinic'
loop_
_space_group_symop_operation_xyz
x,y,z
-x,-y,-z
loop_
_atom_site_type_symbol
_atom_site_label
_atom_site_fract_x
_atom_site_fract_y
_atom_site_fract_z
Si Si1 0.604507 0.898296 0.844838
Si Si2 0.655286 0.464934 0.023938
Si Si3 0.952984 0.571542 0.235752
Si Si4 0.993568 0.911391 0.220258
Si Si5 0.373379 0.446411 0.653753
Si Si6 0.584949 0.831590 0.496342
Si Si7 0.850673 0.319953 0.330407
Si Si8 0.330002 0.649004 0.310103
O O1 0.424639 0.193332 0.734795
O O2 0.578780 0.995789 0.703807
O O3 0.560431 0.742312 0.868509
O O4 0.813004 0.708483 0.046845
O O5 0.803368 0.362703 0.194871
O O6 0.793934 0.222146 0.081011
O O7 0.500000 0.500000 0.000000
O O8 0.201758 0.294989 0.403852
O O9 0.929595 0.786951 0.202696
O O10 0.903795 0.466735 0.315230
O O11 0.173344 0.704688 0.432691
O O12 0.101777 0.906636 0.185069
O O13 0.327652 0.526232 0.714242
O O14 0.580858 0.329654 0.739481
O O15 0.652246 0.571090 0.630408
O O16 0.500000 0.000000 0.500000
O O17 0.000000 0.000000 0.500000
O O18 0.500000 0.500000 0.500000
#
# Coordination Sequence:
#
# PCOD9073799 Si02
#       8
#     2   2   2   2   2   2   2   2
#     4  11  25  46  66 104 134 182 223 285 346 394
#     4  11  27  42  65 102 145 171 234 286 339 405
#     4  10  25  44  66 101 137 176 236 274 346 411
#     4  10  21  45  67  97 134 183 226 282 334 413
#     4  11  22  42  76  93 135 184 231 274 345 410
#     4  11  24  44  70  99 137 181 226 282 341 405
#     4  11  25  41  67 101 130 184 224 281 346 399
#     4   9  19  41  70  95 127 179 228 271 335 412
#
# _framework density 21.449866
#
# number of rings (size 3 to 8) (size 9 to 14) (size 15 to 20)
#    0.000    1.500    5.000    0.000    7.000    3.000 
#    2.250    1.250    0.000    0.000    0.000    0.000 
#    0.000    0.000    0.000    0.000    0.000    0.000 
#
# Total GULP energy -89143.411450 kJ/mol
# GULP energy per Si atom -5571.463216 kJ/mol
# Density = 2.140105 g / cm^3
# Si number density = 21.449866 Si / 1000 Ang^3
#
#
#
# Elastic Constant Matrix: (Units=GPa)
#
#
# Indices 1 2 3 4 5 6 
#
# 1 138.3904 64.3477 20.2966 -35.3261 4.4221 -9.1496
# 2 64.3477 97.3501 21.1958 -20.2935 -0.8014 -33.1874
# 3 20.2966 21.1958 64.7090 -9.7720 -11.4454 -1.9640
# 4 -35.3261 -20.2935 -9.7720 34.7964 3.5295 1.9687
# 5 4.4221 -0.8014 -11.4454 3.5295 23.4768 0.5834
# 6 -9.1496 -33.1874 -1.9640 1.9687 0.5834 25.1456
#
#
#
# Elastic Compliance Matrix: (Units=1/GPa)
#
#
# Indices 1 2 3 4 5 6 
#
# 1 0.013987 -0.010488 -0.000680 0.008873 -0.004424 -0.009398
# 2 -0.010488 0.032428 -0.005711 0.004636 -0.001348 0.038204
# 3 -0.000680 -0.005711 0.019098 0.000772 0.009291 -0.006569
# 4 0.008873 0.004636 0.000772 0.041064 -0.007469 0.006365
# 5 -0.004424 -0.001348 0.009291 -0.007469 0.049115 -0.003218
# 6 -0.009398 0.038204 -0.006569 0.006365 -0.003218 0.085834
#
#
# Mechanical properties :
#
#
# Convention : Reuss Voigt Hill
#
# Bulk Modulus (GPa) = 31.49059 56.90333 44.19696
# Shear Modulus (GPa) = 17.49049 29.65772 23.57410
#
# Velocity S-wave (km/s) = 2.85864 3.72244 3.31876
# Velocity P-wave (km/s) = 5.06050 6.71279 5.94433
#
# Compressibility (1/GPa) = 0.03175552
#
# Stress axis : x y z
#
# Youngs Moduli (GPa) = 71.49331 30.83798 52.36093
#
# Poissons Ratio (x) = 0.32343 0.03559
# Poissons Ratio (y) = 0.74983 0.29903
# Poissons Ratio (z) = 0.04859 0.17612
#
# Static dielectric constant tensor:
#      x y z
#    x 1.731470 0.050490 0.135580 
#    y 0.050490 1.820800 0.038890 
#    z 0.135580 0.038890 1.739110 
# 
# From -- ./inp_files/515224.got.cif
#   From: 2010.05.17/outbox.ucp.g08.bks.cvg/sg2_258_cif.got.tgz:515224.got - 2010.06.11 11:32:03.
