data_PCOD9073956
_publ_section_title
;
Structure prediction by ZEFSAII (Michael W. Deem and Ramdas Pophale) SiO2 
 PCOD9073956
Probable space group: P -1
;
_chemical_formula_sum "Si O2"
_cell_formula_units_Z 16
_cell_length_a 18.000000
_cell_length_b 21.000000
_cell_length_c 9.000000
_cell_angle_alpha 60.000000
_cell_angle_beta 50.000000
_cell_angle_gamma 20.000000
_cell_volume 818.070593
_symmetry_space_group_name_H-M "P -1"
_symmetry_group_IT_number 2
_symmetry_cell_setting 'triclinic'
loop_
_space_group_symop_operation_xyz
x,y,z
-x,-y,-z
loop_
_atom_site_type_symbol
_atom_site_label
_atom_site_fract_x
_atom_site_fract_y
_atom_site_fract_z
Si Si1 0.601158 0.627325 0.341299
Si Si2 0.335261 0.193281 0.742896
Si Si3 0.521367 0.121554 0.901516
Si Si4 0.177337 0.089862 0.720315
Si Si5 0.049705 0.426508 0.364439
Si Si6 0.970908 0.746604 0.952740
Si Si7 0.826965 0.431511 0.586382
Si Si8 0.744518 0.133975 0.213939
O O1 0.565562 0.734158 0.197940
O O2 0.818605 0.461150 0.389065
O O3 0.332848 0.806748 0.578943
O O4 0.723740 0.488160 0.217777
O O5 0.459386 0.117759 0.836531
O O6 0.180571 0.225850 0.887337
O O7 0.131908 0.403565 0.723006
O O8 0.562281 0.045776 0.498654
O O9 0.341387 0.223993 0.153824
O O10 0.819732 0.901739 0.839525
O O11 0.069398 0.187470 0.909517
O O12 0.972075 0.257067 0.658455
O O13 0.241247 0.959188 0.758866
O O14 0.000000 0.500000 0.500000
O O15 0.964284 0.403219 0.521645
O O16 0.518829 0.645019 0.778590
O O17 0.000000 0.000000 0.000000
#
# Coordination Sequence:
#
# PCOD9073956 Si02
#       8
#     2   2   2   2   2   2   2   2
#     4  10  22  41  62  90 122 161 214 256 312 363
#     4  12  20  39  56  90 134 174 215 242 295 379
#     4  12  22  37  61  87 137 173 216 243 299 377
#     4  12  23  41  63  97 127 164 208 262 313 374
#     4  12  21  34  58  94 134 175 203 247 307 371
#     4  12  25  35  61  97 134 169 204 252 311 371
#     4  10  22  40  64  88 129 159 213 254 305 376
#     4  10  24  46  71  90 116 161 218 269 322 373
#
# _framework density 19.558214
#
# number of rings (size 3 to 8) (size 9 to 14) (size 15 to 20)
#    0.750    0.000    5.000    4.875    0.000    0.500 
#    0.000    0.625    0.000    1.500    0.000    0.000 
#    0.000    0.000    0.000    0.000    0.000    0.000 
#
# Total GULP energy -89210.485270 kJ/mol
# GULP energy per Si atom -5575.655329 kJ/mol
# Density = 1.951370 g / cm^3
# Si number density = 19.558214 Si / 1000 Ang^3
#
#
#
# Elastic Constant Matrix: (Units=GPa)
#
#
# Indices 1 2 3 4 5 6 
#
# 1 36.4269 -3.8482 32.1257 7.4983 20.4093 8.9660
# 2 -3.8482 84.9278 1.9882 2.3900 -4.5688 5.2766
# 3 32.1257 1.9882 110.5655 28.4865 15.8767 -0.3905
# 4 7.4983 2.3900 28.4865 30.4881 -1.5470 13.6749
# 5 20.4093 -4.5688 15.8767 -1.5470 29.9576 9.8122
# 6 8.9660 5.2766 -0.3905 13.6749 9.8122 12.8078
#
#
#
# Elastic Compliance Matrix: (Units=1/GPa)
#
#
# Indices 1 2 3 4 5 6 
#
# 1 0.052358 -0.001791 0.000702 -0.032999 -0.050467 0.038004
# 2 -0.001791 0.009681 0.007514 -0.020852 -0.011793 0.028794
# 3 0.000702 0.007514 -0.013865 0.061019 0.045148 -0.103749
# 4 -0.032999 -0.020852 0.061019 -0.136094 -0.104994 0.259297
# 5 -0.050467 -0.011793 0.045148 -0.104994 -0.018312 0.167696
# 6 0.038004 0.028794 -0.103749 0.259297 0.167696 -0.368879
#
#
# Mechanical properties :
#
#
# Convention : Reuss Voigt Hill
#
# Bulk Modulus (GPa) = 16.38722 32.49463 24.44092
# Shear Modulus (GPa) = -10.69245 28.09434 8.70095
#
# Velocity S-wave (km/s) = -2.34070 3.79416 2.11149
# Velocity P-wave (km/s) = 1.04486 5.98704 4.29746
#
# Compressibility (1/GPa) = 0.06102317
#
# Stress axis : x y z
#
# Youngs Moduli (GPa) = 19.09932 103.29451 -72.12181
#
# Poissons Ratio (x) = 0.18505 0.05065
# Poissons Ratio (y) = 0.03422 0.54193
# Poissons Ratio (z) = -0.01341 -0.77616
#
# Static dielectric constant tensor:
#      x y z
#    x 1.665490 -0.011750 0.022610 
#    y -0.011750 1.775420 0.046180 
#    z 0.022610 0.046180 1.707060 
# 
# From -- ./inp_files/306273.got.cif
#   From: 2010.05.17/outbox.ucp.g08.bks.cvg/sg2_154_cif.got.tgz:306273.got - 2010.06.11 11:32:03.
