data_PCOD9073493
_publ_section_title
;
Structure prediction by ZEFSAII (Michael W. Deem and Ramdas Pophale) SiO2 
 PCOD9073493
Probable space group: P -1
;
_chemical_formula_sum "Si O2"
_cell_formula_units_Z 16
_cell_length_a 21.000000
_cell_length_b 12.000000
_cell_length_c 15.000000
_cell_angle_alpha 150.000000
_cell_angle_beta 30.000000
_cell_angle_gamma 130.000000
_cell_volume 853.690245
_symmetry_space_group_name_H-M "P -1"
_symmetry_group_IT_number 2
_symmetry_cell_setting 'triclinic'
loop_
_space_group_symop_operation_xyz
x,y,z
-x,-y,-z
loop_
_atom_site_type_symbol
_atom_site_label
_atom_site_fract_x
_atom_site_fract_y
_atom_site_fract_z
Si Si1 0.271682 0.616237 0.471739
Si Si2 0.708216 0.076539 0.981070
Si Si3 0.190311 0.048392 0.723370
Si Si4 0.059185 0.962785 0.645919
Si Si5 0.046959 0.399219 0.569083
Si Si6 0.772592 0.414001 0.280420
Si Si7 0.305699 0.003642 0.262206
Si Si8 0.522884 0.122067 0.851888
O O1 0.164704 0.505942 0.486389
O O2 0.260358 0.625613 0.601986
O O3 0.229933 0.870634 0.641232
O O4 0.432038 0.403219 0.122146
O O5 0.860561 0.831558 0.635639
O O6 0.676248 0.120953 0.944337
O O7 0.713073 0.290060 0.188845
O O8 0.584478 0.004544 0.115039
O O9 0.106278 0.961815 0.691230
O O10 0.335884 0.004668 0.466216
O O11 0.090966 0.343374 0.062691
O O12 0.003718 0.752935 0.545988
O O13 0.186773 0.944986 0.415383
O O14 0.938316 0.232802 0.955165
O O15 0.735057 0.701946 0.502831
O O16 0.430898 0.902664 0.115634
#
# Coordination Sequence:
#
# PCOD9073493 Si02
#       8
#     2   2   2   2   2   2   2   2
#     4  11  22  43  64  86 128 162 202 250 302 359
#     4  10  22  41  61  91 124 162 197 252 300 363
#     4  11  22  42  65  90 122 162 199 256 304 354
#     4  10  23  38  63  99 119 157 202 254 303 358
#     4  10  21  40  63  91 123 153 206 246 301 365
#     4  11  22  39  63  93 123 162 203 242 308 363
#     4  11  21  40  64  86 129 157 204 247 305 356
#     4  10  23  42  62  88 124 161 207 249 303 354
#
# _framework density 18.742160999999999
#
# number of rings (size 3 to 8) (size 9 to 14) (size 15 to 20)
#    0.000    1.500    3.750    1.500    0.000    6.000 
#    9.000    0.625    0.000    0.000    0.000    0.000 
#    0.000    0.000    0.000    0.000    0.000    0.000 
#
# Total GULP energy -89082.358202 kJ/mol
# GULP energy per Si atom -5567.647388 kJ/mol
# Density = 1.869950 g / cm^3
# Si number density = 18.742161 Si / 1000 Ang^3
#
#
#
# Elastic Constant Matrix: (Units=GPa)
#
#
# Indices 1 2 3 4 5 6 
#
# 1 137.0877 39.4923 34.9349 13.4424 0.3527 0.2007
# 2 39.4923 62.3571 19.5393 12.8192 3.4538 -6.5532
# 3 34.9349 19.5393 100.7436 4.7952 -13.5347 7.2133
# 4 13.4424 12.8192 4.7952 29.4554 3.9203 -3.0650
# 5 0.3527 3.4538 -13.5347 3.9203 37.6959 2.6320
# 6 0.2007 -6.5532 7.2133 -3.0650 2.6320 35.5022
#
#
#
# Elastic Compliance Matrix: (Units=1/GPa)
#
#
# Indices 1 2 3 4 5 6 
#
# 1 0.009477 -0.004993 -0.002207 -0.001838 -0.000186 -0.000672
# 2 -0.004993 0.021950 -0.002914 -0.005988 -0.002692 0.004354
# 3 -0.002207 -0.002914 0.012208 -0.000733 0.004987 -0.003439
# 4 -0.001838 -0.005988 -0.000733 0.038304 -0.003866 0.002648
# 5 -0.000186 -0.002692 0.004987 -0.003866 0.029249 -0.004011
# 6 -0.000672 0.004354 -0.003439 0.002648 -0.004011 0.030199
#
#
# Mechanical properties :
#
#
# Convention : Reuss Voigt Hill
#
# Bulk Modulus (GPa) = 42.72423 54.23571 48.47997
# Shear Modulus (GPa) = 29.51270 34.27883 31.89577
#
# Velocity S-wave (km/s) = 3.97251 4.28128 4.12979
# Velocity P-wave (km/s) = 6.62468 7.31025 6.97590
#
# Compressibility (1/GPa) = 0.02340592
#
# Stress axis : x y z
#
# Youngs Moduli (GPa) = 105.51683 45.55865 81.91330
#
# Poissons Ratio (x) = 0.22747 0.18082
# Poissons Ratio (y) = 0.52683 0.23871
# Poissons Ratio (z) = 0.23292 0.13277
#
# Static dielectric constant tensor:
#      x y z
#    x 1.665460 -0.001180 0.001640 
#    y -0.001180 1.649800 -0.022120 
#    z 0.001640 -0.022120 1.708300 
# 
# From -- ./inp_files/541000.got.cif
#   From: 2010.05.17/outbox.ucp.g08.bks.cvg/sg2_271_cif.got.tgz:541000.got - 2010.06.11 11:32:03.
