data_PCOD9073909
_publ_section_title
;
Structure prediction by ZEFSAII (Michael W. Deem and Ramdas Pophale) SiO2 
 PCOD9073909
Probable space group: P -1
;
_chemical_formula_sum "Si O2"
_cell_formula_units_Z 14
_cell_length_a 21.000000
_cell_length_b 12.000000
_cell_length_c 15.000000
_cell_angle_alpha 40.000000
_cell_angle_beta 20.000000
_cell_angle_gamma 30.000000
_cell_volume 620.704002
_symmetry_space_group_name_H-M "P -1"
_symmetry_group_IT_number 2
_symmetry_cell_setting 'triclinic'
loop_
_space_group_symop_operation_xyz
x,y,z
-x,-y,-z
loop_
_atom_site_type_symbol
_atom_site_label
_atom_site_fract_x
_atom_site_fract_y
_atom_site_fract_z
Si Si1 0.799476 0.508843 0.634514
Si Si2 0.595677 0.286204 0.122478
Si Si3 0.119108 0.823622 0.753492
Si Si4 0.574004 0.391345 0.695725
Si Si5 0.704414 0.923246 0.852445
Si Si6 0.671475 0.933887 0.601142
Si Si7 0.951222 0.234434 0.930825
O O1 0.572568 0.670058 0.764444
O O2 0.785756 0.671127 0.626151
O O3 0.043975 0.318901 0.368906
O O4 0.737595 0.371782 0.851829
O O5 0.431205 0.450226 0.322664
O O6 0.822417 0.018594 0.009512
O O7 0.271287 0.669666 0.561060
O O8 0.218899 0.957558 0.565354
O O9 0.140842 0.687474 0.894772
O O10 0.695168 0.139810 0.730648
O O11 0.280523 0.557236 0.952051
O O12 0.500000 0.000000 0.000000
O O13 0.602347 0.916764 0.086060
O O14 0.779332 0.872340 0.394874
O O15 0.000000 0.000000 0.000000
#
# Coordination Sequence:
#
# PCOD9073909 Si02
#       7
#     2   2   2   2   2   2   2
#     4  11  25  40  59  93 133 163 199 248 308 376
#     4  11  23  41  62  88 130 168 200 243 313 369
#     4  11  23  41  65  94 119 162 212 254 303 355
#     4  12  21  37  65  92 122 157 202 257 305 363
#     4  12  23  35  62  98 125 154 203 258 315 356
#     4  11  22  39  63  90 126 158 202 256 308 353
#     4  10  22  39  64  91 122 160 207 259 301 355
#
# _framework density 22.555033999999999
#
# number of rings (size 3 to 8) (size 9 to 14) (size 15 to 20)
#    0.000    0.857    7.143    1.286    0.000    3.429 
#    0.000    0.714    0.000    1.714    0.000    0.000 
#    0.000    0.000    0.000    0.000    0.000    0.000 
#
# Total GULP energy -78054.877275 kJ/mol
# GULP energy per Si atom -5575.348377 kJ/mol
# Density = 2.250370 g / cm^3
# Si number density = 22.555034 Si / 1000 Ang^3
#
#
#
# Elastic Constant Matrix: (Units=GPa)
#
#
# Indices 1 2 3 4 5 6 
#
# 1 52.4611 -12.5847 4.2465 4.4384 31.3402 -0.0299
# 2 -12.5847 33.4087 -5.0475 19.5899 -10.1124 8.5969
# 3 4.2465 -5.0475 81.9999 12.6537 43.0669 8.8701
# 4 4.4384 19.5899 12.6537 38.7197 7.4152 9.8773
# 5 31.3402 -10.1124 43.0669 7.4152 38.7871 18.7441
# 6 -0.0299 8.5969 8.8701 9.8773 18.7441 30.6768
#
#
#
# Elastic Compliance Matrix: (Units=1/GPa)
#
#
# Indices 1 2 3 4 5 6 
#
# 1 -0.012704 0.023564 -0.028327 -0.004358 0.067055 -0.037994
# 2 0.023564 0.056498 0.014861 -0.033242 -0.014064 -0.000811
# 3 -0.028327 0.014861 -0.010272 -0.002798 0.055141 -0.034013
# 4 -0.004358 -0.033242 -0.002798 0.045660 -0.012138 0.002836
# 5 0.067055 -0.014064 0.055141 -0.012138 -0.123581 0.067481
# 6 -0.037994 -0.000811 -0.034013 0.002836 0.067481 0.000477
#
#
# Mechanical properties :
#
#
# Convention : Reuss Voigt Hill
#
# Bulk Modulus (GPa) = 18.61608 15.67761 17.14685
# Shear Modulus (GPa) = -108.19816 33.72041 -37.23888
#
# Velocity S-wave (km/s) = -6.93360 3.87075 -4.06769
# Velocity P-wave (km/s) = 7.47183 5.19065 3.80036
#
# Compressibility (1/GPa) = 0.05371699
#
# Stress axis : x y z
#
# Youngs Moduli (GPa) = -78.71366 17.69981 -97.34968
#
# Poissons Ratio (x) = -0.41707 -2.75763
# Poissons Ratio (y) = 1.85478 1.44674
# Poissons Ratio (z) = -2.22973 -0.26304
#
# Static dielectric constant tensor:
#      x y z
#    x 1.862610 -0.016910 0.027300 
#    y -0.016910 1.925880 -0.117320 
#    z 0.027300 -0.117320 1.915240 
# 
# From -- ./inp_files/524583.got.cif
#   From: 2010.05.17/outbox.ucp.g08.bks.cvg/sg2_263_cif.got.tgz:524583.got - 2010.06.11 11:32:03.
