data_PCOD9074595
_publ_section_title
;
Structure prediction by ZEFSAII (Michael W. Deem and Ramdas Pophale) SiO2 
 PCOD9074595
Probable space group: P -1
;
_chemical_formula_sum "Si O2"
_cell_formula_units_Z 14
_cell_length_a 6.000000
_cell_length_b 30.000000
_cell_length_c 21.000000
_cell_angle_alpha 10.000000
_cell_angle_beta 110.000000
_cell_angle_gamma 110.000000
_cell_volume 616.492147
_symmetry_space_group_name_H-M "P -1"
_symmetry_group_IT_number 2
_symmetry_cell_setting 'triclinic'
loop_
_space_group_symop_operation_xyz
x,y,z
-x,-y,-z
loop_
_atom_site_type_symbol
_atom_site_label
_atom_site_fract_x
_atom_site_fract_y
_atom_site_fract_z
Si Si1 0.646238 0.020132 0.128701
Si Si2 0.746576 0.615778 0.168696
Si Si3 0.728562 0.725714 0.418426
Si Si4 0.861881 0.918109 0.876289
Si Si5 0.110129 0.278735 0.104771
Si Si6 0.625345 0.402874 0.213004
Si Si7 0.789876 0.708320 0.308173
O O1 0.715370 0.910302 0.219591
O O2 0.511858 0.789549 0.479141
O O3 0.861019 0.100782 0.081919
O O4 0.496010 0.276851 0.745729
O O5 0.528210 0.412709 0.423413
O O6 0.003046 0.490647 0.381118
O O7 0.716697 0.797519 0.972329
O O8 0.765614 0.741908 0.923079
O O9 0.797112 0.846148 0.186124
O O10 0.916572 0.503990 0.763249
O O11 0.818590 0.217157 0.463194
O O12 0.837368 0.800226 0.110771
O O13 0.274772 0.370570 0.050714
O O14 0.000000 0.000000 0.500000
O O15 0.500000 0.500000 0.000000
#
# Coordination Sequence:
#
# PCOD9074595 Si02
#       7
#     2   2   2   2   2   2   2
#     4  11  23  43  67  97 135 172 216 268 327 383
#     4  11  25  43  66 101 134 172 217 266 326 386
#     4  11  23  43  67  97 135 172 216 268 327 383
#     4  11  25  43  66 101 134 172 217 266 326 386
#     4  11  26  45  68  97 129 169 223 271 323 389
#     4  11  26  45  68  97 129 169 223 271 323 389
#     4  10  24  40  70  96 138 170 222 259 324 385
#
# _framework density 22.709129000000001
#
# number of rings (size 3 to 8) (size 9 to 14) (size 15 to 20)
#    0.000    1.143    2.857    1.714    4.000    8.000 
#    0.000    0.000    0.000    0.000    0.000    0.000 
#    0.000    0.000    0.000    0.000    0.000    0.000 
#
# Total GULP energy -77961.181781 kJ/mol
# GULP energy per Si atom -5568.655842 kJ/mol
# Density = 2.265744 g / cm^3
# Si number density = 22.709129 Si / 1000 Ang^3
#
#
#
# Elastic Constant Matrix: (Units=GPa)
#
#
# Indices 1 2 3 4 5 6 
#
# 1 42.9054 37.1710 0.6481 -12.4645 -5.2354 -6.2134
# 2 37.1710 205.3262 46.9257 -7.0612 -21.6700 -3.6944
# 3 0.6481 46.9257 33.0817 0.3771 -12.7589 -0.2252
# 4 -12.4645 -7.0612 0.3771 43.1987 10.2643 -4.9661
# 5 -5.2354 -21.6700 -12.7589 10.2643 24.9915 5.7529
# 6 -6.2134 -3.6944 -0.2252 -4.9661 5.7529 40.1779
#
#
#
# Elastic Compliance Matrix: (Units=1/GPa)
#
#
# Indices 1 2 3 4 5 6 
#
# 1 0.033624 -0.008153 0.011171 0.008699 0.000846 0.005467
# 2 -0.008153 0.009281 -0.012906 -0.000852 0.000243 -0.000620
# 3 0.011171 -0.012906 0.057349 -0.005288 0.023320 -0.003131
# 4 0.008699 -0.000852 -0.005288 0.030109 -0.015639 0.007198
# 5 0.000846 0.000243 0.023320 -0.015639 0.061125 -0.010401
# 6 0.005467 -0.000620 -0.003131 0.007198 -0.010401 0.028039
#
#
# Mechanical properties :
#
#
# Convention : Reuss Voigt Hill
#
# Bulk Modulus (GPa) = 12.42584 50.08923 31.25754
# Shear Modulus (GPa) = 18.78778 34.77819 26.78298
#
# Velocity S-wave (km/s) = 2.87944 3.91764 3.43795
# Velocity P-wave (km/s) = 4.06676 6.52446 5.43632
#
# Compressibility (1/GPa) = 0.08047743
#
# Stress axis : x y z
#
# Youngs Moduli (GPa) = 29.74066 107.74566 17.43702
#
# Poissons Ratio (x) = 0.87848 -0.19479
# Poissons Ratio (y) = 0.24248 0.22504
# Poissons Ratio (z) = -0.33223 1.39057
#
# Static dielectric constant tensor:
#      x y z
#    x 1.971070 0.007830 0.001630 
#    y 0.007830 1.799230 0.021710 
#    z 0.001630 0.021710 1.856420 
# 
# From -- ./inp_files/27597.got.cif
#   From: 2010.05.17/outbox.ucp.g08.bks.cvg/sg2_14_cif.got.tgz:27597.got - 2010.06.11 11:32:03.
