data_PCOD9074341
_publ_section_title
;
Structure prediction by ZEFSAII (Michael W. Deem and Ramdas Pophale) SiO2 
 PCOD9074341
Probable space group: P -1
;
_chemical_formula_sum "Si O2"
_cell_formula_units_Z 16
_cell_length_a 21.000000
_cell_length_b 9.000000
_cell_length_c 12.000000
_cell_angle_alpha 140.000000
_cell_angle_beta 140.000000
_cell_angle_gamma 70.000000
_cell_volume 754.890988
_symmetry_space_group_name_H-M "P -1"
_symmetry_group_IT_number 2
_symmetry_cell_setting 'triclinic'
loop_
_space_group_symop_operation_xyz
x,y,z
-x,-y,-z
loop_
_atom_site_type_symbol
_atom_site_label
_atom_site_fract_x
_atom_site_fract_y
_atom_site_fract_z
Si Si1 0.848595 0.125570 0.740544
Si Si2 0.484570 0.730679 0.664041
Si Si3 0.748871 0.128193 0.361399
Si Si4 0.632697 0.580572 0.252367
Si Si5 0.430013 0.954642 0.262442
Si Si6 0.305155 0.278872 0.330723
Si Si7 0.073256 0.205778 0.008933
Si Si8 0.976557 0.211655 0.643062
O O1 0.779372 0.095750 0.512345
O O2 0.741190 0.905081 0.551894
O O3 0.933472 0.457777 0.084617
O O4 0.949652 0.055123 0.829409
O O5 0.500000 0.500000 0.500000
O O6 0.363398 0.539195 0.467966
O O7 0.483457 0.886752 0.640964
O O8 0.607118 0.941450 0.025558
O O9 0.821632 0.465517 0.626639
O O10 0.831419 0.066601 0.362689
O O11 0.639363 0.570552 0.388858
O O12 0.500000 0.500000 0.000000
O O13 0.647162 0.372052 0.074105
O O14 0.500000 0.000000 0.500000
O O15 0.352661 0.085239 0.253056
O O16 0.156704 0.097167 0.035322
O O17 0.018009 0.236738 0.840261
O O18 0.000000 0.000000 0.500000
#
# Coordination Sequence:
#
# PCOD9074341 Si02
#       8
#     2   2   2   2   2   2   2   2
#     4   9  21  41  64  97 135 179 221 275 345 397
#     4  10  23  39  67 100 128 173 223 286 335 384
#     4   9  18  38  62  92 131 167 219 273 329 394
#     4  12  24  43  68  93 138 186 220 280 342 405
#     4  11  25  45  62  97 141 171 227 281 334 409
#     4  11  24  44  66  97 134 173 236 276 337 402
#     4   9  20  40  62  91 132 168 223 280 321 404
#     4   9  19  36  64  98 128 167 224 278 326 398
#
# _framework density 21.195112999999999
#
# number of rings (size 3 to 8) (size 9 to 14) (size 15 to 20)
#    0.000    2.000    1.250    3.000    5.250    4.500 
#    6.750    0.625    0.000    0.000    0.000    0.000 
#    0.000    0.000    0.000    0.000    0.000    0.000 
#
# Total GULP energy -89200.083265 kJ/mol
# GULP energy per Si atom -5575.005204 kJ/mol
# Density = 2.114687 g / cm^3
# Si number density = 21.195113 Si / 1000 Ang^3
#
#
#
# Elastic Constant Matrix: (Units=GPa)
#
#
# Indices 1 2 3 4 5 6 
#
# 1 96.0199 33.3446 23.2849 -0.1927 11.8472 -5.7932
# 2 33.3446 73.5785 8.4916 -8.0857 8.7110 -0.4381
# 3 23.2849 8.4916 69.0679 -1.2994 8.2818 1.6409
# 4 -0.1927 -8.0857 -1.2994 29.7741 -6.1469 -1.7363
# 5 11.8472 8.7110 8.2818 -6.1469 42.7182 -1.7265
# 6 -5.7932 -0.4381 1.6409 -1.7363 -1.7265 44.4875
#
#
#
# Elastic Compliance Matrix: (Units=1/GPa)
#
#
# Indices 1 2 3 4 5 6 
#
# 1 0.013663 -0.005717 -0.003727 -0.001964 -0.002115 0.001702
# 2 -0.005717 0.016782 0.000107 0.004236 -0.001267 -0.000467
# 3 -0.003727 0.000107 0.016006 0.000201 -0.002109 -0.001149
# 4 -0.001964 0.004236 0.000201 0.035814 0.004850 0.001365
# 5 -0.002115 -0.001267 -0.002109 0.004850 0.025400 0.000965
# 6 0.001702 -0.000467 -0.001149 0.001365 0.000965 0.022828
#
#
# Mechanical properties :
#
#
# Convention : Reuss Voigt Hill
#
# Bulk Modulus (GPa) = 36.00203 40.98983 38.49593
# Shear Modulus (GPa) = 31.56019 34.96564 33.26291
#
# Velocity S-wave (km/s) = 3.86298 4.06606 3.96582
# Velocity P-wave (km/s) = 6.07616 6.43623 6.25879
#
# Compressibility (1/GPa) = 0.02777621
#
# Stress axis : x y z
#
# Youngs Moduli (GPa) = 73.18803 59.58668 62.47716
#
# Poissons Ratio (x) = 0.34067 0.23287
# Poissons Ratio (y) = 0.41843 -0.00667
# Poissons Ratio (z) = 0.27279 -0.00636
#
# Static dielectric constant tensor:
#      x y z
#    x 1.772700 -0.038040 0.034380 
#    y -0.038040 1.833600 0.021750 
#    z 0.034380 0.021750 1.722120 
# 
# From -- ./inp_files/470224.got.cif
#   From: 2010.05.17/outbox.ucp.g08.bks.cvg/sg2_236_cif.got.tgz:470224.got - 2010.06.11 11:32:03.
