data_PCOD9074292
_publ_section_title
;
Structure prediction by ZEFSAII (Michael W. Deem and Ramdas Pophale) SiO2 
 PCOD9074292
Probable space group: P -1
;
_chemical_formula_sum "Si O2"
_cell_formula_units_Z 16
_cell_length_a 15.000000
_cell_length_b 15.000000
_cell_length_c 12.000000
_cell_angle_alpha 30.000000
_cell_angle_beta 120.000000
_cell_angle_gamma 140.000000
_cell_volume 747.221570
_symmetry_space_group_name_H-M "P -1"
_symmetry_group_IT_number 2
_symmetry_cell_setting 'triclinic'
loop_
_space_group_symop_operation_xyz
x,y,z
-x,-y,-z
loop_
_atom_site_type_symbol
_atom_site_label
_atom_site_fract_x
_atom_site_fract_y
_atom_site_fract_z
Si Si1 0.013291 0.137041 0.747331
Si Si2 0.575709 0.207309 0.995460
Si Si3 0.471558 0.319238 0.371535
Si Si4 0.389515 0.619105 0.406423
Si Si5 0.838219 0.343124 0.127248
Si Si6 0.850877 0.296264 0.439460
Si Si7 0.243552 0.465710 0.829840
Si Si8 0.493320 0.741118 0.867701
O O1 0.955436 0.266067 0.576012
O O2 0.198600 0.378335 0.565639
O O3 0.888395 0.865334 0.882847
O O4 0.000000 0.000000 0.000000
O O5 0.581699 0.347664 0.743039
O O6 0.753867 0.393749 0.952400
O O7 0.491226 0.160834 0.104966
O O8 0.481029 0.912224 0.202143
O O9 0.530899 0.427966 0.417763
O O10 0.621883 0.418960 0.299020
O O11 0.307153 0.992428 0.611832
O O12 0.446761 0.474254 0.131652
O O13 0.888820 0.416927 0.208525
O O14 0.000000 0.500000 0.000000
O O15 0.845835 0.468048 0.325816
O O16 0.666839 0.984840 0.657558
O O17 0.354007 0.648725 0.809475
#
# Coordination Sequence:
#
# PCOD9074292 Si02
#       8
#     2   2   2   2   2   2   2   2
#     4  12  25  43  64 100 136 171 222 272 325 392
#     4  10  23  42  69  90 131 176 224 267 325 402
#     4  11  22  42  67  94 135 177 215 275 331 385
#     4  10  22  46  63  91 135 180 217 266 326 396
#     4  11  22  41  64  96 129 170 219 272 334 387
#     4  12  23  40  70  96 131 175 217 276 332 384
#     4  12  23  42  67 102 133 170 221 276 327 389
#     4  12  22  41  68 102 126 170 226 278 328 389
#
# _framework density 21.412658
#
# number of rings (size 3 to 8) (size 9 to 14) (size 15 to 20)
#    0.000    0.750    5.000    3.750    0.000    1.000 
#    4.500    1.250    0.000    0.000    0.000    0.000 
#    0.000    0.000    0.000    0.000    0.000    0.000 
#
# Total GULP energy -89302.061365 kJ/mol
# GULP energy per Si atom -5581.378835 kJ/mol
# Density = 2.136392 g / cm^3
# Si number density = 21.412658 Si / 1000 Ang^3
#
#
#
# Elastic Constant Matrix: (Units=GPa)
#
#
# Indices 1 2 3 4 5 6 
#
# 1 45.2795 13.0677 7.7974 4.7783 -9.3523 4.7759
# 2 13.0677 83.3712 9.4798 15.0438 -14.6973 -4.6966
# 3 7.7974 9.4798 24.6271 8.9120 -2.3657 5.0731
# 4 4.7783 15.0438 8.9120 42.3635 0.7394 -8.5947
# 5 -9.3523 -14.6973 -2.3657 0.7394 42.0276 5.5616
# 6 4.7759 -4.6966 5.0731 -8.5947 5.5616 33.4590
#
#
#
# Elastic Compliance Matrix: (Units=1/GPa)
#
#
# Indices 1 2 3 4 5 6 
#
# 1 0.025393 -0.002404 -0.004955 -0.001988 0.005172 -0.004581
# 2 -0.002404 0.014245 -0.003101 -0.003987 0.004198 0.001091
# 3 -0.004955 -0.003101 0.049690 -0.010949 0.002184 -0.010438
# 4 -0.001988 -0.003987 -0.010949 0.029589 -0.004256 0.009692
# 5 0.005172 0.004198 0.002184 -0.004256 0.027422 -0.006132
# 6 -0.004581 0.001091 -0.010438 0.009692 -0.006132 0.035786
#
#
# Mechanical properties :
#
#
# Convention : Reuss Voigt Hill
#
# Bulk Modulus (GPa) = 14.61799 23.77417 19.19608
# Shear Modulus (GPa) = 22.13880 31.76555 26.95217
#
# Velocity S-wave (km/s) = 3.21894 3.85579 3.55167
# Velocity P-wave (km/s) = 4.54500 5.56326 5.07971
#
# Compressibility (1/GPa) = 0.06840887
#
# Stress axis : x y z
#
# Youngs Moduli (GPa) = 39.38025 70.20075 20.12479
#
# Poissons Ratio (x) = 0.16879 0.09971
# Poissons Ratio (y) = 0.09469 0.06240
# Poissons Ratio (z) = 0.19511 0.21767
#
# Static dielectric constant tensor:
#      x y z
#    x 1.789280 -0.047150 0.022510 
#    y -0.047150 1.802160 0.061010 
#    z 0.022510 0.061010 1.810030 
# 
# From -- ./inp_files/399749.got.cif
#   From: 2010.05.17/outbox.ucp.g08.bks.cvg/sg2_200_cif.got.tgz:399749.got - 2010.06.11 11:32:03.
