data_PCOD9074952
_publ_section_title
;
Structure prediction by ZEFSAII (Michael W. Deem and Ramdas Pophale) SiO2 
 PCOD9074952
Probable space group: P -1
;
_chemical_formula_sum "Si O2"
_cell_formula_units_Z 14
_cell_length_a 12.000000
_cell_length_b 21.000000
_cell_length_c 9.000000
_cell_angle_alpha 140.000000
_cell_angle_beta 60.000000
_cell_angle_gamma 150.000000
_cell_volume 627.666119
_symmetry_space_group_name_H-M "P -1"
_symmetry_group_IT_number 2
_symmetry_cell_setting 'triclinic'
loop_
_space_group_symop_operation_xyz
x,y,z
-x,-y,-z
loop_
_atom_site_type_symbol
_atom_site_label
_atom_site_fract_x
_atom_site_fract_y
_atom_site_fract_z
Si Si1 0.614932 0.329728 0.360289
Si Si2 0.531662 0.132724 0.320593
Si Si3 0.028376 0.689443 0.944304
Si Si4 0.030104 0.494433 0.796985
Si Si5 0.352354 0.445962 0.858803
Si Si6 0.128398 0.128174 0.287023
Si Si7 0.239738 0.117086 0.646247
O O1 0.622115 0.235137 0.284880
O O2 0.712567 0.385650 0.225701
O O3 0.327012 0.177104 0.295788
O O4 0.817655 0.534069 0.677717
O O5 0.395767 0.136313 0.495041
O O6 0.777077 0.267931 0.499768
O O7 0.296458 0.900033 0.068330
O O8 0.031963 0.595754 0.878946
O O9 0.913204 0.693619 0.141011
O O10 0.000000 0.500000 0.000000
O O11 0.304083 0.342622 0.567481
O O12 0.500000 0.500000 0.000000
O O13 0.540685 0.657391 0.062491
O O14 0.895250 0.998363 0.318027
O O15 0.000000 0.000000 0.000000
O O16 0.000000 0.000000 0.500000
#
# Coordination Sequence:
#
# PCOD9074952 Si02
#       7
#     2   2   2   2   2   2   2
#     4  11  24  43  66  97 137 175 226 283 327 399
#     4  11  21  41  71  98 124 171 234 278 324 398
#     4  11  21  41  74 100 123 177 235 275 326 399
#     4  11  27  45  64  94 140 178 219 281 343 398
#     4  12  20  39  70 100 131 174 225 270 331 400
#     4  12  27  40  64 105 145 175 215 282 345 405
#     4  12  20  39  70  98 130 176 224 274 328 398
#
# _framework density 22.304852
#
# number of rings (size 3 to 8) (size 9 to 14) (size 15 to 20)
#    0.000    0.571    8.571    1.714    2.000    3.429 
#    0.000    1.429    0.000    0.000    0.000    0.000 
#    0.000    0.000    0.000    0.000    0.000    0.000 
#
# Total GULP energy -78047.209815 kJ/mol
# GULP energy per Si atom -5574.800701 kJ/mol
# Density = 2.225409 g / cm^3
# Si number density = 22.304852 Si / 1000 Ang^3
#
#
#
# Elastic Constant Matrix: (Units=GPa)
#
#
# Indices 1 2 3 4 5 6 
#
# 1 19.7549 15.4360 37.2348 -2.7410 -0.5928 5.5814
# 2 15.4360 115.6185 52.0825 2.1241 8.2397 -2.6078
# 3 37.2348 52.0825 165.6406 -2.0207 -5.7341 -11.5239
# 4 -2.7410 2.1241 -2.0207 39.0247 5.0099 -2.7783
# 5 -0.5928 8.2397 -5.7341 5.0099 22.6587 -5.1616
# 6 5.5814 -2.6078 -11.5239 -2.7783 -5.1616 22.4196
#
#
#
# Elastic Compliance Matrix: (Units=1/GPa)
#
#
# Indices 1 2 3 4 5 6 
#
# 1 0.128202 -0.002741 -0.032079 0.005970 -0.016904 -0.051876
# 2 -0.002741 0.010683 -0.002965 -0.000365 -0.004797 -0.000749
# 3 -0.032079 -0.002965 0.015677 -0.001117 0.008441 0.017504
# 4 0.005970 -0.000365 -0.001117 0.026758 -0.005946 -0.000156
# 5 -0.016904 -0.004797 0.008441 -0.005946 0.053335 0.019531
# 6 -0.051876 -0.000749 0.017504 -0.000156 0.019531 0.070906
#
#
# Mechanical properties :
#
#
# Convention : Reuss Voigt Hill
#
# Bulk Modulus (GPa) = 12.65948 56.72452 34.69200
# Shear Modulus (GPa) = 12.27111 29.90462 21.08787
#
# Velocity S-wave (km/s) = 2.34808 3.66556 3.07813
# Velocity P-wave (km/s) = 3.61100 6.58800 5.31230
#
# Compressibility (1/GPa) = 0.07899216
#
# Stress axis : x y z
#
# Youngs Moduli (GPa) = 7.80019 93.61067 63.78784
#
# Poissons Ratio (x) = 0.25656 2.04622
# Poissons Ratio (y) = 0.02138 0.18916
# Poissons Ratio (z) = 0.25022 0.27760
#
# Static dielectric constant tensor:
#      x y z
#    x 1.874820 0.042460 -0.070300 
#    y 0.042460 1.814080 -0.005450 
#    z -0.070300 -0.005450 1.809650 
# 
# From -- ./inp_files/222553.got.cif
#   From: 2010.05.17/outbox.ucp.g08.bks.cvg/sg2_112_cif.got.tgz:222553.got - 2010.06.11 11:32:03.
