data_PCOD9074136
_publ_section_title
;
Structure prediction by ZEFSAII (Michael W. Deem and Ramdas Pophale) SiO2 
 PCOD9074136
Probable space group: P -1
;
_chemical_formula_sum "Si O2"
_cell_formula_units_Z 16
_cell_length_a 5.769893
_cell_length_b 7.143541
_cell_length_c 24.270577
_cell_angle_alpha 37.106436
_cell_angle_beta 80.022244
_cell_angle_gamma 78.798696
_cell_volume 591.740737
_symmetry_space_group_name_H-M "P -1"
_symmetry_group_IT_number 2
_symmetry_cell_setting 'triclinic'
loop_
_space_group_symop_operation_xyz
x,y,z
-x,-y,-z
loop_
_atom_site_type_symbol
_atom_site_label
_atom_site_fract_x
_atom_site_fract_y
_atom_site_fract_z
Si Si1 0.319804 0.361086 0.462928
Si Si2 0.441270 0.131518 0.032134
Si Si3 0.756875 0.238288 0.261050
Si Si4 0.418338 0.288395 0.355687
Si Si5 0.057048 0.894530 0.959507
Si Si6 0.421905 0.849120 0.825683
Si Si7 0.930027 0.794896 0.842769
Si Si8 0.910727 0.093787 0.593005
O O1 0.387627 0.448845 0.378077
O O2 0.292185 0.658931 0.433400
O O3 0.059954 0.232864 0.505424
O O4 0.493177 0.070174 0.545248
O O5 0.421572 0.503479 0.934460
O O6 0.676110 0.025873 0.082192
O O7 0.186572 0.018748 0.083734
O O8 0.500000 0.000000 0.000000
O O9 0.611085 0.400336 0.279612
O O10 0.566629 0.185795 0.233532
O O11 0.966802 0.342386 0.188952
O O12 0.900531 0.952708 0.353877
O O13 0.182875 0.228812 0.345918
O O14 0.084018 0.519270 0.048811
O O15 0.000000 0.000000 0.000000
O O16 0.668520 0.957913 0.809625
O O17 0.146446 0.983418 0.809753
#
# Coordination Sequence:
#
# PCOD9074136 Si02
#       8
#     2   2   2   2   2   2   2   2
#     4   9  20  32  48  72  92 118 164 200 240 286
#     4   8  12  18  29  46  71 106 147 183 226 271
#     4   9  18  26  42  62  90 122 162 190 240 292
#     4  10  18  32  49  68  93 125 158 198 244 287
#     4   8  12  18  29  46  71 106 147 183 226 271
#     4   8  14  23  35  54  81 114 154 188 230 281
#     4   8  14  23  35  54  81 114 154 188 230 281
#     4  10  18  32  49  68  93 125 158 198 244 287
#
# _framework density 27.038868999999998
#
# number of rings (size 3 to 8) (size 9 to 14) (size 15 to 20)
#    0.750    2.500    0.000    1.500    0.000    0.000 
#    0.000    0.000    0.000    0.000    0.000    0.000 
#    0.000    0.000    0.000    2.250    2.500    3.250 
#
# Total GULP energy -89228.805155 kJ/mol
# GULP energy per Si atom -5576.800322 kJ/mol
# Density = 2.697733 g / cm^3
# Si number density = 27.038869 Si / 1000 Ang^3
#
#
#
# Elastic Constant Matrix: (Units=GPa)
#
#
# Indices 1 2 3 4 5 6 
#
# 1 248.9117 36.1088 38.4136 25.0965 4.3138 -20.2220
# 2 36.1088 92.8037 23.5368 29.9127 3.3120 -6.9237
# 3 38.4136 23.5368 103.5545 15.2388 1.0042 -4.8787
# 4 25.0965 29.9127 15.2388 40.4573 -3.6590 -3.6221
# 5 4.3138 3.3120 1.0042 -3.6590 28.8026 11.2549
# 6 -20.2220 -6.9237 -4.8787 -3.6221 11.2549 31.9501
#
#
#
# Elastic Compliance Matrix: (Units=1/GPa)
#
#
# Indices 1 2 3 4 5 6 
#
# 1 0.004787 -0.000610 -0.001173 -0.001979 -0.002124 0.003242
# 2 -0.000610 0.015078 -0.001508 -0.010307 -0.004034 0.002904
# 3 -0.001173 -0.001508 0.010790 -0.002222 -0.000507 0.000505
# 4 -0.001979 -0.010307 -0.002222 0.034819 0.006882 -0.002302
# 5 -0.002124 -0.004034 -0.000507 0.006882 0.042889 -0.016624
# 6 0.003242 0.002904 0.000505 -0.002302 -0.016624 0.039653
#
#
# Mechanical properties :
#
#
# Convention : Reuss Voigt Hill
#
# Bulk Modulus (GPa) = 41.53853 71.26538 56.40195
# Shear Modulus (GPa) = 30.74642 43.38937 37.06790
#
# Velocity S-wave (km/s) = 3.37578 4.01022 3.70660
# Velocity P-wave (km/s) = 5.53086 6.91783 6.26286
#
# Compressibility (1/GPa) = 0.02407404
#
# Stress axis : x y z
#
# Youngs Moduli (GPa) = 208.91638 66.32275 92.67598
#
# Poissons Ratio (x) = 0.04042 0.10866
# Poissons Ratio (y) = 0.12734 0.13978
# Poissons Ratio (z) = 0.24496 0.10003
#
# Static dielectric constant tensor:
#      x y z
#    x 2.194530 0.019850 -0.015470 
#    y 0.019850 2.187780 0.053910 
#    z -0.015470 0.053910 2.104940 
# 
# From -- ./inp_files/126210.got.cif
#   From: 2010.05.17/outbox.cif.g08.bks.cpg/sg2_64_cif.got.tgz:126210.got - 2010.06.03 11:33:40.
