data_PCOD9074064
_publ_section_title
;
Structure prediction by ZEFSAII (Michael W. Deem and Ramdas Pophale) SiO2 
 PCOD9074064
Probable space group: P -1
;
_chemical_formula_sum "Si O2"
_cell_formula_units_Z 16
_cell_length_a 12.000000
_cell_length_b 15.000000
_cell_length_c 9.000000
_cell_angle_alpha 110.000000
_cell_angle_beta 130.000000
_cell_angle_gamma 40.000000
_cell_volume 759.581896
_symmetry_space_group_name_H-M "P -1"
_symmetry_group_IT_number 2
_symmetry_cell_setting 'triclinic'
loop_
_space_group_symop_operation_xyz
x,y,z
-x,-y,-z
loop_
_atom_site_type_symbol
_atom_site_label
_atom_site_fract_x
_atom_site_fract_y
_atom_site_fract_z
Si Si1 0.108824 0.543771 0.984565
Si Si2 0.594164 0.058001 0.944689
Si Si3 0.507210 0.685950 0.023029
Si Si4 0.646259 0.015228 0.322363
Si Si5 0.837055 0.245841 0.404847
Si Si6 0.517276 0.579900 0.280361
Si Si7 0.326982 0.333344 0.324097
Si Si8 0.076484 0.762164 0.184252
O O1 0.288504 0.468500 0.967950
O O2 0.237721 0.408381 0.128141
O O3 0.031744 0.671252 0.090285
O O4 0.887224 0.612344 0.761247
O O5 0.462131 0.217197 0.878104
O O6 0.608530 0.045632 0.129663
O O7 0.852381 0.927344 0.041350
O O8 0.474607 0.023017 0.763803
O O9 0.292719 0.779579 0.786098
O O10 0.474838 0.652970 0.132537
O O11 0.532055 0.160700 0.386204
O O12 0.908421 0.878221 0.498618
O O13 0.689011 0.408050 0.317755
O O14 0.844245 0.244809 0.589172
O O15 0.617720 0.602432 0.498715
O O16 0.279642 0.670201 0.194719
#
# Coordination Sequence:
#
# PCOD9074064 Si02
#       8
#     2   2   2   2   2   2   2   2
#     4  11  22  41  70  93 128 160 216 262 308 375
#     4  10  23  41  65  95 128 163 205 261 324 366
#     4  12  26  43  61  93 133 173 203 257 321 378
#     4  10  22  41  67  96 126 156 214 270 309 366
#     4  11  24  41  66  96 126 165 212 263 313 363
#     4  12  26  42  63  93 132 167 213 257 312 380
#     4  11  23  41  68 100 120 165 214 260 313 369
#     4  11  22  42  68  93 125 164 216 265 302 373
#
# _framework density 21.064219999999999
#
# number of rings (size 3 to 8) (size 9 to 14) (size 15 to 20)
#    0.000    1.000    5.000    1.500    3.500    2.000 
#    0.000    0.625    0.000    0.000    0.000    0.000 
#    0.000    0.000    0.000    0.000    0.000    0.000 
#
# Total GULP energy -89376.814533 kJ/mol
# GULP energy per Si atom -5586.050908 kJ/mol
# Density = 2.101628 g / cm^3
# Si number density = 21.064220 Si / 1000 Ang^3
#
#
#
# Elastic Constant Matrix: (Units=GPa)
#
#
# Indices 1 2 3 4 5 6 
#
# 1 41.8188 29.8756 14.4780 -12.8210 16.4890 4.6916
# 2 29.8756 91.2864 43.8491 7.4318 -3.8271 -21.2752
# 3 14.4780 43.8491 -82.4269 -15.1123 31.0823 6.3456
# 4 -12.8210 7.4318 -15.1123 6.3813 10.1002 29.1475
# 5 16.4890 -3.8271 31.0823 10.1002 4.8852 -19.0899
# 6 4.6916 -21.2752 6.3456 29.1475 -19.0899 -3.4792
#
#
#
# Elastic Compliance Matrix: (Units=1/GPa)
#
#
# Indices 1 2 3 4 5 6 
#
# 1 0.024035 -0.004287 0.002301 -0.010461 -0.007774 0.017843
# 2 -0.004287 0.010407 0.001704 0.003818 -0.005804 -0.002481
# 3 0.002301 0.001704 -0.009878 0.007024 0.007703 -0.008751
# 4 -0.010461 0.003818 0.007024 0.021317 0.024558 0.019198
# 5 -0.007774 -0.005804 0.007703 0.024558 0.048268 -0.020049
# 6 0.017843 -0.002481 -0.008751 0.019198 -0.020049 0.006688
#
#
# Mechanical properties :
#
#
# Convention : Reuss Voigt Hill
#
# Bulk Modulus (GPa) = 41.66902 25.23151 33.45027
# Shear Modulus (GPa) = 45.70299 -0.94416 22.37941
#
# Velocity S-wave (km/s) = 4.66305 -0.67023 3.26304
# Velocity P-wave (km/s) = 6.98691 3.37719 5.48737
#
# Compressibility (1/GPa) = 0.02399864
#
# Stress axis : x y z
#
# Youngs Moduli (GPa) = 41.60532 96.08939 -101.23073
#
# Poissons Ratio (x) = 0.41196 0.23293
# Poissons Ratio (y) = 0.17837 0.17246
# Poissons Ratio (z) = -0.09573 -0.16370
#
# Static dielectric constant tensor:
#      x y z
#    x 1.822690 -0.000970 0.040220 
#    y -0.000970 1.703770 0.017740 
#    z 0.040220 0.017740 1.724680 
# 
# From -- ./inp_files/187486.got.cif
#   From: 2010.05.17/outbox.ucp.g08.bks.cvg/sg2_94_cif.got.tgz:187486.got - 2010.06.11 11:32:03.
