data_PCOD9074876
_publ_section_title
;
Structure prediction by ZEFSAII (Michael W. Deem and Ramdas Pophale) SiO2 
 PCOD9074876
Probable space group: P -1
;
_chemical_formula_sum "Si O2"
_cell_formula_units_Z 16
_cell_length_a 8.703469
_cell_length_b 5.680354
_cell_length_c 20.633514
_cell_angle_alpha 73.249140
_cell_angle_beta 110.663367
_cell_angle_gamma 53.752112
_cell_volume 579.330991
_symmetry_space_group_name_H-M "P -1"
_symmetry_group_IT_number 2
_symmetry_cell_setting 'triclinic'
loop_
_space_group_symop_operation_xyz
x,y,z
-x,-y,-z
loop_
_atom_site_type_symbol
_atom_site_label
_atom_site_fract_x
_atom_site_fract_y
_atom_site_fract_z
Si Si1 0.906540 0.581031 0.255636
Si Si2 0.174867 0.490405 0.411329
Si Si3 0.816431 0.252051 0.354340
Si Si4 0.960917 0.166031 0.831537
Si Si5 0.713363 0.335920 0.960120
Si Si6 0.669145 0.164184 0.462879
Si Si7 0.358706 0.095650 0.037997
Si Si8 0.106370 0.275272 0.170401
O O1 0.159598 0.327304 0.359668
O O2 0.905570 0.866472 0.208344
O O3 0.950088 0.407842 0.204864
O O4 0.745742 0.576729 0.276997
O O5 0.896268 0.933941 0.345451
O O6 0.391978 0.441648 0.432959
O O7 0.241648 0.225979 0.500553
O O8 0.095646 0.982905 0.451732
O O9 0.644213 0.353992 0.379475
O O10 0.783752 0.586538 0.803312
O O11 0.209206 0.826059 0.941510
O O12 0.803823 0.099444 0.804699
O O13 0.593545 0.747086 0.914758
O O14 0.583826 0.254187 0.912472
O O15 0.000000 0.000000 0.000000
O O16 0.062896 0.462771 0.939432
O O17 0.500000 0.000000 0.000000
#
# Coordination Sequence:
#
# PCOD9074876 Si02
#       8
#     2   2   2   2   2   2   2   2
#     4   9  18  30  52  72  99 138 190 206 265 324
#     4  10  18  32  53  75 102 142 171 222 267 319
#     4  10  18  32  53  75 102 142 171 222 267 319
#     4   8  16  30  50  75 103 138 182 215 262 328
#     4  10  19  33  55  81 108 141 181 228 277 329
#     4   9  20  32  48  80 107 126 184 216 269 318
#     4  10  19  33  55  81 108 141 181 228 277 329
#     4   8  16  30  50  75 103 138 182 215 262 328
#
# _framework density 27.618064
#
# number of rings (size 3 to 8) (size 9 to 14) (size 15 to 20)
#    0.750    2.000    0.000    2.250    0.000    0.000 
#    0.000    0.000    2.750    0.000    0.000    0.000 
#    0.000    0.000    0.000    0.000    0.000    0.000 
#
# Total GULP energy -89114.570166 kJ/mol
# GULP energy per Si atom -5569.660635 kJ/mol
# Density = 2.755520 g / cm^3
# Si number density = 27.618064 Si / 1000 Ang^3
#
#
#
# Elastic Constant Matrix: (Units=GPa)
#
#
# Indices 1 2 3 4 5 6 
#
# 1 111.4614 59.6345 25.5391 1.8072 -27.6873 29.0599
# 2 59.6345 157.1891 6.0412 -7.2332 -13.7628 53.9441
# 3 25.5391 6.0412 114.2782 5.7271 -29.4623 5.2600
# 4 1.8072 -7.2332 5.7271 29.1866 5.0290 -7.4092
# 5 -27.6873 -13.7628 -29.4623 5.0290 56.4716 3.6533
# 6 29.0599 53.9441 5.2600 -7.4092 3.6533 52.2797
#
#
#
# Elastic Compliance Matrix: (Units=1/GPa)
#
#
# Indices 1 2 3 4 5 6 
#
# 1 0.013820 -0.002922 -0.000849 -0.003921 0.006331 -0.005580
# 2 -0.002922 0.011149 0.001227 -0.000346 0.002618 -0.010235
# 3 -0.000849 0.001227 0.010715 -0.003480 0.005963 -0.002782
# 4 -0.003921 -0.000346 -0.003480 0.038719 -0.007847 0.008922
# 5 0.006331 0.002618 0.005963 -0.007847 0.025890 -0.009742
# 6 -0.005580 -0.010235 -0.002782 0.008922 -0.009742 0.035016
#
#
# Mechanical properties :
#
#
# Convention : Reuss Voigt Hill
#
# Bulk Modulus (GPa) = 32.68205 62.81760 47.74983
# Shear Modulus (GPa) = 33.20152 47.03520 40.11836
#
# Velocity S-wave (km/s) = 3.47099 4.13129 3.81545
# Velocity P-wave (km/s) = 5.28422 6.74917 6.06111
#
# Compressibility (1/GPa) = 0.03059783
#
# Stress axis : x y z
#
# Youngs Moduli (GPa) = 72.35650 89.69605 93.32568
#
# Poissons Ratio (x) = 0.26206 0.07919
# Poissons Ratio (y) = 0.21140 -0.11450
# Poissons Ratio (z) = 0.06140 -0.11005
#
# Static dielectric constant tensor:
#      x y z
#    x 2.214190 -0.044060 0.003060 
#    y -0.044060 2.295510 -0.027020 
#    z 0.003060 -0.027020 2.261300 
# 
# From -- ./inp_files/605460.got.cif
#   From: 2010.05.17/outbox.cif.g08.bks.cpg/sg2_303_cif.got.tgz:605460.got - 2010.06.03 11:33:40.
