data_PCOD9074505
_publ_section_title
;
Structure prediction by ZEFSAII (Michael W. Deem and Ramdas Pophale) SiO2 
 PCOD9074505
Probable space group: P -1
;
_chemical_formula_sum "Si O2"
_cell_formula_units_Z 14
_cell_length_a 9.000000
_cell_length_b 6.000000
_cell_length_c 21.000000
_cell_angle_alpha 110.000000
_cell_angle_beta 140.000000
_cell_angle_gamma 60.000000
_cell_volume 629.549538
_symmetry_space_group_name_H-M "P -1"
_symmetry_group_IT_number 2
_symmetry_cell_setting 'triclinic'
loop_
_space_group_symop_operation_xyz
x,y,z
-x,-y,-z
loop_
_atom_site_type_symbol
_atom_site_label
_atom_site_fract_x
_atom_site_fract_y
_atom_site_fract_z
Si Si1 0.094416 0.999244 0.236206
Si Si2 0.824546 0.596890 0.234519
Si Si3 0.290355 0.257474 0.926959
Si Si4 0.556059 0.988713 0.758335
Si Si5 0.675951 0.265008 0.590877
Si Si6 0.013212 0.291161 0.040452
Si Si7 0.272379 0.820660 0.540274
O O1 0.909518 0.289728 0.223590
O O2 0.234317 0.971732 0.212584
O O3 0.952334 0.811245 0.163128
O O4 0.277695 0.903939 0.347151
O O5 0.663205 0.709006 0.128635
O O6 0.086877 0.642715 0.325498
O O7 0.654095 0.755356 0.253456
O O8 0.204932 0.523649 0.964858
O O9 0.500000 0.000000 0.000000
O O10 0.443644 0.858352 0.655872
O O11 0.711844 0.793511 0.845300
O O12 0.408917 0.508563 0.539015
O O13 0.709070 0.102202 0.520119
O O14 0.000000 0.500000 0.000000
O O15 0.000000 0.000000 0.000000
O O16 0.000000 0.000000 0.500000
#
# Coordination Sequence:
#
# PCOD9074505 Si02
#       7
#     2   2   2   2   2   2   2
#     4  11  24  46  70 102 148 187 251 308 374 453
#     4  11  23  44  70 101 140 194 240 302 378 451
#     4  11  25  47  72 104 148 196 245 314 386 454
#     4  12  24  45  73 106 146 193 248 309 380 447
#     4  10  23  44  69  99 141 191 239 307 374 448
#     4  12  27  48  77 113 150 197 257 319 387 466
#     4  11  22  43  72 100 146 189 244 305 378 456
#
# _framework density 22.238123000000002
#
# number of rings (size 3 to 8) (size 9 to 14) (size 15 to 20)
#    0.000    0.857    4.286    2.571    2.000    2.286 
#    5.143    1.429    0.000    0.000    0.000    0.000 
#    0.000    0.000    0.000    0.000    0.000    0.000 
#
# Total GULP energy -78032.774067 kJ/mol
# GULP energy per Si atom -5573.769576 kJ/mol
# Density = 2.218751 g / cm^3
# Si number density = 22.238123 Si / 1000 Ang^3
#
#
#
# Elastic Constant Matrix: (Units=GPa)
#
#
# Indices 1 2 3 4 5 6 
#
# 1 116.7065 58.6882 36.5504 0.0817 -26.6796 -36.0451
# 2 58.6882 147.8591 40.2608 0.4804 -13.2408 -34.1186
# 3 36.5504 40.2608 119.0799 -3.6982 -20.0277 5.5398
# 4 0.0817 0.4804 -3.6982 49.9986 0.1631 -2.7539
# 5 -26.6796 -13.2408 -20.0277 0.1631 42.9507 1.3425
# 6 -36.0451 -34.1186 5.5398 -2.7539 1.3425 53.3233
#
#
#
# Elastic Compliance Matrix: (Units=1/GPa)
#
#
# Indices 1 2 3 4 5 6 
#
# 1 0.015043 -0.002530 -0.003000 0.000235 0.006892 0.008700
# 2 -0.002530 0.009581 -0.002685 -0.000028 -0.000017 0.004698
# 3 -0.003000 -0.002685 0.010900 0.000558 0.002543 -0.004914
# 4 0.000235 -0.000028 0.000558 0.020102 0.000286 0.001114
# 5 0.006892 -0.000017 0.002543 0.000286 0.028628 0.003678
# 6 0.008700 0.004698 -0.004914 0.001114 0.003678 0.028116
#
#
# Mechanical properties :
#
#
# Convention : Reuss Voigt Hill
#
# Bulk Modulus (GPa) = 52.37300 72.73824 62.55562
# Shear Modulus (GPa) = 36.99170 45.79759 41.39464
#
# Velocity S-wave (km/s) = 4.08295 4.54300 4.31911
# Velocity P-wave (km/s) = 6.76974 7.76520 7.28450
#
# Compressibility (1/GPa) = 0.01909381
#
# Stress axis : x y z
#
# Youngs Moduli (GPa) = 66.47705 104.37066 91.74315
#
# Poissons Ratio (x) = 0.26404 0.27524
# Poissons Ratio (y) = 0.16818 0.24634
# Poissons Ratio (z) = 0.19944 0.28025
#
# Static dielectric constant tensor:
#      x y z
#    x 1.895440 0.064650 0.016120 
#    y 0.064650 1.826850 -0.012430 
#    z 0.016120 -0.012430 1.942280 
# 
# From -- ./inp_files/585802.got.cif
#   From: 2010.05.17/outbox.ucp.g08.bks.cvg/sg2_293_cif.got.tgz:585802.got - 2010.06.11 11:32:03.
