data_PCOD9074165
_publ_section_title
;
Structure prediction by ZEFSAII (Michael W. Deem and Ramdas Pophale) SiO2 
 PCOD9074165
Probable space group: P -1
;
_chemical_formula_sum "Si O2"
_cell_formula_units_Z 16
_cell_length_a 15.000000
_cell_length_b 12.000000
_cell_length_c 6.000000
_cell_angle_alpha 110.000000
_cell_angle_beta 90.000000
_cell_angle_gamma 50.000000
_cell_volume 740.289630
_symmetry_space_group_name_H-M "P -1"
_symmetry_group_IT_number 2
_symmetry_cell_setting 'triclinic'
loop_
_space_group_symop_operation_xyz
x,y,z
-x,-y,-z
loop_
_atom_site_type_symbol
_atom_site_label
_atom_site_fract_x
_atom_site_fract_y
_atom_site_fract_z
Si Si1 0.246881 0.603803 0.356132
Si Si2 0.449359 0.361327 0.501519
Si Si3 0.551303 0.076089 0.966336
Si Si4 0.897995 0.601048 0.258639
Si Si5 0.664218 0.686998 0.174540
Si Si6 0.230386 0.988201 0.012606
Si Si7 0.013148 0.691498 0.622799
Si Si8 0.301087 0.812319 0.392520
O O1 0.355389 0.530637 0.487027
O O2 0.119057 0.677941 0.512135
O O3 0.244254 0.732401 0.322549
O O4 0.285739 0.457272 0.098366
O O5 0.357197 0.357980 0.624731
O O6 0.551551 0.318410 0.642647
O O7 0.513637 0.223144 0.218028
O O8 0.474392 0.156083 0.793576
O O9 0.696381 0.953477 0.913092
O O10 0.500000 0.000000 0.000000
O O11 0.763087 0.701369 0.222157
O O12 0.923503 0.468470 0.337204
O O13 0.930863 0.694196 0.444169
O O14 0.000000 0.500000 0.000000
O O15 0.273745 0.889186 0.190339
O O16 0.254202 0.913202 0.705337
O O17 0.085996 0.141328 0.130057
#
# Coordination Sequence:
#
# PCOD9074165 Si02
#       8
#     2   2   2   2   2   2   2   2
#     4  11  24  42  69  96 127 175 227 280 329 392
#     4  10  22  43  63 101 130 166 225 278 330 393
#     4  10  24  40  63  97 135 177 218 270 337 405
#     4  11  24  41  66  95 134 171 219 281 333 393
#     4  11  22  40  69  96 130 169 228 275 333 398
#     4  11  27  46  66 100 140 176 225 272 334 405
#     4  11  26  42  64  99 132 174 224 274 335 404
#     4  11  26  47  69  98 136 179 224 281 333 388
#
# _framework density 21.613161999999999
#
# number of rings (size 3 to 8) (size 9 to 14) (size 15 to 20)
#    0.000    1.250    3.750    0.375    7.000    3.000 
#    0.000    0.000    0.000    0.000    0.000    0.000 
#    0.000    0.000    0.000    0.000    0.000    0.000 
#
# Total GULP energy -89131.680556 kJ/mol
# GULP energy per Si atom -5570.730035 kJ/mol
# Density = 2.156397 g / cm^3
# Si number density = 21.613162 Si / 1000 Ang^3
#
#
#
# Elastic Constant Matrix: (Units=GPa)
#
#
# Indices 1 2 3 4 5 6 
#
# 1 111.9520 0.4536 -7.0943 3.0562 -2.9328 0.2869
# 2 0.4536 29.4151 -11.7250 -13.9240 1.8138 -0.2735
# 3 -7.0943 -11.7250 54.4324 -9.2683 -3.2182 -9.9714
# 4 3.0562 -13.9240 -9.2683 26.2447 -4.9440 -11.0398
# 5 -2.9328 1.8138 -3.2182 -4.9440 36.4560 -2.0984
# 6 0.2869 -0.2735 -9.9714 -11.0398 -2.0984 39.7498
#
#
#
# Elastic Compliance Matrix: (Units=1/GPa)
#
#
# Indices 1 2 3 4 5 6 
#
# 1 0.009039 0.000199 0.001267 -0.000252 0.000808 0.000227
# 2 0.000199 0.080275 0.034996 0.069054 0.010148 0.029044
# 3 0.001267 0.034996 0.037918 0.042752 0.008777 0.022080
# 4 -0.000252 0.069054 0.042752 0.111357 0.017899 0.043074
# 5 0.000808 0.010148 0.008777 0.017899 0.030702 0.008858
# 6 0.000227 0.029044 0.022080 0.043074 0.008858 0.043325
#
#
# Mechanical properties :
#
#
# Convention : Reuss Voigt Hill
#
# Bulk Modulus (GPa) = 4.99610 17.67423 11.33516
# Shear Modulus (GPa) = 16.31793 34.76778 25.54285
#
# Velocity S-wave (km/s) = 2.75071 4.01514 3.44149
# Velocity P-wave (km/s) = 3.52209 5.44889 4.58778
#
# Compressibility (1/GPa) = 0.20015601
#
# Stress axis : x y z
#
# Youngs Moduli (GPa) = 110.62715 12.45722 26.37268
#
# Poissons Ratio (x) = -0.00248 -0.03342
# Poissons Ratio (y) = -0.02198 -0.92294
# Poissons Ratio (z) = -0.14020 -0.43595
#
# Static dielectric constant tensor:
#      x y z
#    x 1.777120 -0.027490 -0.044190 
#    y -0.027490 1.977130 0.008020 
#    z -0.044190 0.008020 1.841860 
# 
# From -- ./inp_files/68999.got.cif
#   From: 2010.05.17/outbox.ucp.g08.bks.cvg/sg2_35_cif.got.tgz:68999.got - 2010.06.11 11:32:03.
