data_PCOD9074835
_publ_section_title
;
Structure prediction by ZEFSAII (Michael W. Deem and Ramdas Pophale) SiO2 
 PCOD9074835
Probable space group: P -1
;
_chemical_formula_sum "Si O2"
_cell_formula_units_Z 14
_cell_length_a 10.137934
_cell_length_b 9.723730
_cell_length_c 10.741888
_cell_angle_alpha 41.531908
_cell_angle_beta 102.134497
_cell_angle_gamma 80.329477
_cell_volume 593.700034
_symmetry_space_group_name_H-M "P -1"
_symmetry_group_IT_number 2
_symmetry_cell_setting 'triclinic'
loop_
_space_group_symop_operation_xyz
x,y,z
-x,-y,-z
loop_
_atom_site_type_symbol
_atom_site_label
_atom_site_fract_x
_atom_site_fract_y
_atom_site_fract_z
Si Si1 0.927169 0.468713 0.377174
Si Si2 0.670693 0.934612 0.111541
Si Si3 0.851680 0.345512 0.091237
Si Si4 0.777783 0.842551 0.744921
Si Si5 0.819565 0.263929 0.877527
Si Si6 0.781383 0.913312 0.425837
Si Si7 0.165859 0.851317 0.296145
O O1 0.775928 0.723467 0.177584
O O2 0.879361 0.268138 0.522246
O O3 0.000000 0.500000 0.500000
O O4 0.059346 0.348864 0.380393
O O5 0.695846 0.908543 0.284727
O O6 0.500000 0.000000 0.000000
O O7 0.726031 0.123431 0.967088
O O8 0.038410 0.237994 0.191112
O O9 0.816413 0.137266 0.270985
O O10 0.779009 0.608908 0.958333
O O11 0.781046 0.418451 0.887863
O O12 0.705999 0.929234 0.534389
O O13 0.725746 0.054164 0.691648
O O14 0.784513 0.340788 0.675692
O O15 0.005673 0.079434 0.059142
#
# Coordination Sequence:
#
# PCOD9074835 Si02
#       7
#     2   2   2   2   2   2   2
#     4  10  18  32  52  83 108 141 180 232 274 322
#     4  10  21  37  56  81 108 147 191 228 280 328
#     4   9  18  30  48  83 115 142 173 228 280 319
#     4  10  19  30  52  87 118 145 173 233 283 331
#     4   9  18  33  53  79 115 138 181 230 274 329
#     4  10  19  35  55  83 113 144 189 226 277 332
#     4  10  18  32  52  89 113 137 183 225 283 329
#
# _framework density 23.580929999999999
#
# number of rings (size 3 to 8) (size 9 to 14) (size 15 to 20)
#    0.000    2.286    5.714    0.429    4.000    2.286 
#    0.000    0.714    0.000    1.714    0.000    0.000 
#    0.000    0.000    0.000    0.000    0.000    0.000 
#
# Total GULP energy -77939.150486 kJ/mol
# GULP energy per Si atom -5567.082178 kJ/mol
# Density = 2.352726 g / cm^3
# Si number density = 23.580930 Si / 1000 Ang^3
#
#
#
# Elastic Constant Matrix: (Units=GPa)
#
#
# Indices 1 2 3 4 5 6 
#
# 1 97.3588 -27.2029 -5.0971 8.4914 -1.5617 57.4285
# 2 -27.2029 164.0873 58.5599 4.8016 -8.1444 -21.8578
# 3 -5.0971 58.5599 62.9838 5.4819 -9.7420 -19.5650
# 4 8.4914 4.8016 5.4819 39.3889 7.5837 -8.7094
# 5 -1.5617 -8.1444 -9.7420 7.5837 21.1755 -3.9448
# 6 57.4285 -21.8578 -19.5650 -8.7094 -3.9448 64.7841
#
#
#
# Elastic Compliance Matrix: (Units=1/GPa)
#
#
# Indices 1 2 3 4 5 6 
#
# 1 0.029283 0.005011 -0.010685 -0.011471 -0.002154 -0.029167
# 2 0.005011 0.010000 -0.010227 -0.001721 -0.000698 -0.004431
# 3 -0.010685 -0.010227 0.031544 0.000329 0.012722 0.016366
# 4 -0.011471 -0.001721 0.000329 0.033063 -0.010686 0.013482
# 5 -0.002154 -0.000698 0.012722 -0.010686 0.057893 0.007604
# 6 -0.029167 -0.004431 0.016366 0.013482 0.007604 0.047015
#
#
# Mechanical properties :
#
#
# Convention : Reuss Voigt Hill
#
# Bulk Modulus (GPa) = 25.62357 41.88330 33.75343
# Shear Modulus (GPa) = 19.71548 44.94772 32.33160
#
# Velocity S-wave (km/s) = 2.89464 4.37063 3.70684
# Velocity P-wave (km/s) = 4.69699 6.57799 5.71540
#
# Compressibility (1/GPa) = 0.03902658
#
# Stress axis : x y z
#
# Youngs Moduli (GPa) = 34.14981 99.99584 31.70178
#
# Poissons Ratio (x) = -0.50109 0.33872
# Poissons Ratio (y) = -0.17113 0.32421
# Poissons Ratio (z) = 0.36487 1.02265
#
# Static dielectric constant tensor:
#      x y z
#    x 2.173760 0.242710 -0.654550 
#    y 0.242710 2.357430 -0.648630 
#    z -0.654550 -0.648630 3.441200 
# 
# From -- ./inp_files/204168.got.cif
#   From: 2010.05.17/outbox.cif.g08.bks.cpg/sg2_103_cif.got.tgz:204168.got - 2010.06.03 11:33:40.
