data_PCOD9074238
_publ_section_title
;
Structure prediction by ZEFSAII (Michael W. Deem and Ramdas Pophale) SiO2 
 PCOD9074238
Probable space group: P -1
;
_chemical_formula_sum "Si O2"
_cell_formula_units_Z 16
_cell_length_a 15.000000
_cell_length_b 12.000000
_cell_length_c 12.000000
_cell_angle_alpha 80.000000
_cell_angle_beta 150.000000
_cell_angle_gamma 120.000000
_cell_volume 748.962810
_symmetry_space_group_name_H-M "P -1"
_symmetry_group_IT_number 2
_symmetry_cell_setting 'triclinic'
loop_
_space_group_symop_operation_xyz
x,y,z
-x,-y,-z
loop_
_atom_site_type_symbol
_atom_site_label
_atom_site_fract_x
_atom_site_fract_y
_atom_site_fract_z
Si Si1 0.509612 0.130735 0.310115
Si Si2 0.008926 0.512673 0.142571
Si Si3 0.510083 0.621782 0.426470
Si Si4 0.681559 0.726054 0.023610
Si Si5 0.267535 0.978421 0.553517
Si Si6 0.277416 0.074003 0.293763
Si Si7 0.765038 0.835175 0.333653
Si Si8 0.772917 0.624008 0.516073
O O1 0.349487 0.164079 0.084266
O O2 0.567234 0.063333 0.286112
O O3 0.362836 0.037714 0.285813
O O4 0.775342 0.305605 0.609160
O O5 0.054919 0.406346 0.258628
O O6 0.741598 0.449245 0.895490
O O7 0.000000 0.500000 0.000000
O O8 0.500000 0.500000 0.500000
O O9 0.555865 0.737576 0.549005
O O10 0.719936 0.683132 0.553083
O O11 0.483905 0.550597 0.781067
O O12 0.608568 0.718237 0.076074
O O13 0.974189 0.820645 0.299396
O O14 0.286396 0.029033 0.436551
O O15 0.335471 0.113826 0.692453
O O16 0.000000 0.000000 0.000000
O O17 0.862323 0.760559 0.504213
O O18 0.000000 0.000000 0.500000
#
# Coordination Sequence:
#
# PCOD9074238 Si02
#       8
#     2   2   2   2   2   2   2   2
#     4  11  23  41  65  97 134 179 219 277 333 405
#     4  11  22  39  65 100 133 175 222 266 332 401
#     4  12  23  41  65  97 137 174 217 268 332 406
#     4  10  22  44  69  93 129 172 231 277 333 388
#     4  11  23  42  62  97 135 176 220 273 343 400
#     4  12  24  40  62  98 137 175 217 266 342 407
#     4  10  23  45  68  95 132 180 231 280 331 388
#     4  11  22  42  69  98 131 175 224 280 332 394
#
# _framework density 21.362876
#
# number of rings (size 3 to 8) (size 9 to 14) (size 15 to 20)
#    0.000    1.000    5.000    2.250    1.750    0.500 
#    6.750    2.500    0.000    9.000    0.000    0.000 
#    0.000    0.000    0.000    0.000    0.000    0.000 
#
# Total GULP energy -89106.951035 kJ/mol
# GULP energy per Si atom -5569.184440 kJ/mol
# Density = 2.131425 g / cm^3
# Si number density = 21.362876 Si / 1000 Ang^3
#
#
#
# Elastic Constant Matrix: (Units=GPa)
#
#
# Indices 1 2 3 4 5 6 
#
# 1 136.7288 21.3224 10.4038 -12.5420 2.1018 -14.3874
# 2 21.3224 98.4736 9.9747 -17.2764 7.5321 5.7424
# 3 10.4038 9.9747 57.9398 -7.0431 10.5955 -5.1018
# 4 -12.5420 -17.2764 -7.0431 29.0003 -5.3525 -5.6533
# 5 2.1018 7.5321 10.5955 -5.3525 38.1310 -7.0270
# 6 -14.3874 5.7424 -5.1018 -5.6533 -7.0270 41.4167
#
#
#
# Elastic Compliance Matrix: (Units=1/GPa)
#
#
# Indices 1 2 3 4 5 6 
#
# 1 0.008276 -0.001410 -0.000712 0.003499 0.001186 0.003661
# 2 -0.001410 0.011747 -0.000972 0.005533 -0.001517 -0.001740
# 3 -0.000712 -0.000972 0.018896 0.003309 -0.004195 0.001955
# 4 0.003499 0.005533 0.003309 0.042514 0.005151 0.007533
# 5 0.001186 -0.001517 -0.004195 0.005151 0.029417 0.005800
# 6 0.003661 -0.001740 0.001955 0.007533 0.005800 0.027911
#
#
# Mechanical properties :
#
#
# Convention : Reuss Voigt Hill
#
# Bulk Modulus (GPa) = 30.55434 41.83824 36.19629
# Shear Modulus (GPa) = 32.07980 38.47232 35.27606
#
# Velocity S-wave (km/s) = 3.87933 4.24830 4.06800
# Velocity P-wave (km/s) = 5.86508 6.60993 6.24861
#
# Compressibility (1/GPa) = 0.03272858
#
# Stress axis : x y z
#
# Youngs Moduli (GPa) = 120.83343 85.12777 52.92114
#
# Poissons Ratio (x) = 0.12005 0.03771
# Poissons Ratio (y) = 0.17040 0.05146
# Poissons Ratio (z) = 0.08609 0.08278
#
# Static dielectric constant tensor:
#      x y z
#    x 1.826670 0.055710 -0.098280 
#    y 0.055710 1.884670 -0.008100 
#    z -0.098280 -0.008100 1.837130 
# 
# From -- ./inp_files/452313.got.cif
#   From: 2010.05.17/outbox.ucp.g08.bks.cvg/sg2_227_cif.got.tgz:452313.got - 2010.06.11 11:32:03.
