data_PCOD9074494
_publ_section_title
;
Structure prediction by ZEFSAII (Michael W. Deem and Ramdas Pophale) SiO2 
 PCOD9074494
Probable space group: P -1
;
_chemical_formula_sum "Si O2"
_cell_formula_units_Z 16
_cell_length_a 7.511562
_cell_length_b 17.346412
_cell_length_c 10.941148
_cell_angle_alpha 33.859620
_cell_angle_beta 78.227665
_cell_angle_gamma 59.406272
_cell_volume 608.570192
_symmetry_space_group_name_H-M "P -1"
_symmetry_group_IT_number 2
_symmetry_cell_setting 'triclinic'
loop_
_space_group_symop_operation_xyz
x,y,z
-x,-y,-z
loop_
_atom_site_type_symbol
_atom_site_label
_atom_site_fract_x
_atom_site_fract_y
_atom_site_fract_z
Si Si1 0.578232 0.314334 0.582353
Si Si2 0.127939 0.609212 0.407001
Si Si3 0.213778 0.347026 0.902137
Si Si4 0.596714 0.509194 0.125756
Si Si5 0.270882 0.891806 0.574260
Si Si6 0.127041 0.028111 0.151268
Si Si7 0.307593 0.975143 0.728745
Si Si8 0.055881 0.315608 0.207755
O O1 0.358746 0.438342 0.536703
O O2 0.781595 0.311472 0.619563
O O3 0.495104 0.429341 0.317986
O O4 0.703145 0.113474 0.790476
O O5 0.042123 0.514379 0.618068
O O6 0.960617 0.775078 0.123552
O O7 0.318826 0.422912 0.870687
O O8 0.107905 0.290579 0.089342
O O9 0.451109 0.170027 0.048379
O O10 0.821795 0.350780 0.231637
O O11 0.432487 0.680586 0.841546
O O12 0.262449 0.955044 0.356574
O O13 0.348534 0.936191 0.627545
O O14 0.000000 0.000000 0.500000
O O15 0.896512 0.035183 0.187341
O O16 0.231036 0.170711 0.474419
O O17 0.000000 0.500000 0.000000
#
# Coordination Sequence:
#
# PCOD9074494 Si02
#       8
#     2   2   2   2   2   2   2   2
#     4  10  18  32  51  78 107 144 173 222 274 315
#     4  10  20  34  50  79 114 143 179 217 266 326
#     4   9  19  33  54  75 108 142 174 218 267 319
#     4   9  17  33  51  79 111 128 176 226 264 319
#     4   9  19  33  51  80 110 143 173 215 273 327
#     4  11  20  33  55  81 112 147 175 214 273 330
#     4  10  18  34  54  81 110 137 175 224 273 321
#     4  10  19  33  53  82 106 137 176 225 276 314
#
# _framework density 26.291132000000001
#
# number of rings (size 3 to 8) (size 9 to 14) (size 15 to 20)
#    0.000    2.250    1.250    4.500    0.000    0.500 
#    2.250    0.000    0.000    1.500    0.000    0.000 
#    0.000    0.000    0.000    0.000    0.000    0.000 
#
# Total GULP energy -89377.020675 kJ/mol
# GULP energy per Si atom -5586.063792 kJ/mol
# Density = 2.623129 g / cm^3
# Si number density = 26.291132 Si / 1000 Ang^3
#
#
#
# Elastic Constant Matrix: (Units=GPa)
#
#
# Indices 1 2 3 4 5 6 
#
# 1 44.0283 -4.9389 5.2578 -1.3948 3.2927 6.2088
# 2 -4.9389 81.3523 31.1240 -16.3286 -6.0314 -3.3539
# 3 5.2578 31.1240 246.4368 -4.3513 2.5060 -12.7246
# 4 -1.3948 -16.3286 -4.3513 34.2997 0.2739 4.0598
# 5 3.2927 -6.0314 2.5060 0.2739 36.6565 2.2047
# 6 6.2088 -3.3539 -12.7246 4.0598 2.2047 19.8477
#
#
#
# Elastic Compliance Matrix: (Units=1/GPa)
#
#
# Indices 1 2 3 4 5 6 
#
# 1 0.024464 0.002052 -0.001156 0.002839 -0.001292 -0.008484
# 2 0.002052 0.014647 -0.001849 0.006925 0.002362 -0.001031
# 3 -0.001156 -0.001849 0.004472 -0.000726 -0.000690 0.003142
# 4 0.002839 0.006925 -0.000726 0.033309 0.001113 -0.007120
# 5 -0.001292 0.002362 -0.000690 0.001113 0.028003 -0.002977
# 6 -0.008484 -0.001031 0.003142 -0.007120 -0.002977 0.056665
#
#
# Mechanical properties :
#
#
# Convention : Reuss Voigt Hill
#
# Bulk Modulus (GPa) = 23.99381 48.30036 36.14708
# Shear Modulus (GPa) = 28.19176 40.85241 34.52209
#
# Velocity S-wave (km/s) = 3.27814 3.94616 3.62756
# Velocity P-wave (km/s) = 4.84503 6.25893 5.59680
#
# Compressibility (1/GPa) = 0.04167741
#
# Stress axis : x y z
#
# Youngs Moduli (GPa) = 40.87663 68.27566 223.59511
#
# Poissons Ratio (x) = -0.14009 0.25845
# Poissons Ratio (y) = -0.08387 0.41333
# Poissons Ratio (z) = 0.04725 0.12621
#
# Static dielectric constant tensor:
#      x y z
#    x 2.139650 0.024450 -0.002920 
#    y 0.024450 2.152060 0.025160 
#    z -0.002920 0.025160 2.250770 
# 
# From -- ./inp_files/423168.got.cif
#   From: 2010.05.17/outbox.cif.g08.bks.cpg/sg2_212_cif.got.tgz:423168.got - 2010.06.03 11:33:40.
