data_PCOD9074352
_publ_section_title
;
Structure prediction by ZEFSAII (Michael W. Deem and Ramdas Pophale) SiO2 
 PCOD9074352
Probable space group: P -1
;
_chemical_formula_sum "Si O2"
_cell_formula_units_Z 14
_cell_length_a 12.000000
_cell_length_b 12.000000
_cell_length_c 6.000000
_cell_angle_alpha 120.000000
_cell_angle_beta 100.000000
_cell_angle_gamma 110.000000
_cell_volume 636.948721
_symmetry_space_group_name_H-M "P -1"
_symmetry_group_IT_number 2
_symmetry_cell_setting 'triclinic'
loop_
_space_group_symop_operation_xyz
x,y,z
-x,-y,-z
loop_
_atom_site_type_symbol
_atom_site_label
_atom_site_fract_x
_atom_site_fract_y
_atom_site_fract_z
Si Si1 0.163658 0.940919 0.244895
Si Si2 0.607631 0.262077 0.300308
Si Si3 0.031701 0.278221 0.721161
Si Si4 0.586150 0.994319 0.324501
Si Si5 0.296430 0.424721 0.173289
Si Si6 0.885698 0.336754 0.370992
Si Si7 0.242637 0.275910 0.510441
O O1 0.281347 0.975596 0.487935
O O2 0.037895 0.867357 0.291790
O O3 0.208294 0.103550 0.319067
O O4 0.138852 0.808022 0.930354
O O5 0.607650 0.131691 0.315931
O O6 0.607748 0.397347 0.571851
O O7 0.748918 0.335791 0.304608
O O8 0.488784 0.163592 0.990726
O O9 0.104939 0.264549 0.514037
O O10 0.926878 0.315751 0.615508
O O11 0.150967 0.396919 0.036098
O O12 0.500000 0.000000 0.500000
O O13 0.290031 0.349916 0.347640
O O14 0.317073 0.358168 0.867100
O O15 0.000000 0.500000 0.500000
#
# Coordination Sequence:
#
# PCOD9074352 Si02
#       7
#     2   2   2   2   2   2   2
#     4  12  24  42  68  99 139 178 237 280 341 422
#     4  11  24  45  68  99 140 177 238 286 349 410
#     4  10  23  40  66 100 140 180 221 284 343 416
#     4  11  25  44  69  98 132 189 228 293 343 402
#     4  10  25  45  70 100 142 178 227 285 345 412
#     4  12  25  38  70 106 142 180 224 288 359 415
#     4  10  25  44  69 102 139 185 224 283 353 406
#
# _framework density 21.979790999999999
#
# number of rings (size 3 to 8) (size 9 to 14) (size 15 to 20)
#    0.857    0.286    2.857    3.000    6.000    2.286 
#    0.000    1.429    0.000    0.000    0.000    0.000 
#    0.000    0.000    0.000    0.000    0.000    0.000 
#
# Total GULP energy -77985.972494 kJ/mol
# GULP energy per Si atom -5570.426607 kJ/mol
# Density = 2.192976 g / cm^3
# Si number density = 21.979791 Si / 1000 Ang^3
#
#
#
# Elastic Constant Matrix: (Units=GPa)
#
#
# Indices 1 2 3 4 5 6 
#
# 1 22.6027 -4.5521 14.7499 5.1232 7.5843 2.6616
# 2 -4.5521 109.7801 52.9490 12.2050 11.1192 -7.5978
# 3 14.7499 52.9490 188.3736 21.4672 13.4003 -7.5210
# 4 5.1232 12.2050 21.4672 51.6204 -1.0295 -0.7056
# 5 7.5843 11.1192 13.4003 -1.0295 37.4083 2.3828
# 6 2.6616 -7.5978 -7.5210 -0.7056 2.3828 28.8984
#
#
#
# Elastic Compliance Matrix: (Units=1/GPa)
#
#
# Indices 1 2 3 4 5 6 
#
# 1 0.053707 0.005870 -0.004661 -0.005049 -0.010858 -0.003844
# 2 0.005870 0.011609 -0.003147 -0.002066 -0.003694 0.001947
# 3 -0.004661 -0.003147 0.006851 -0.001637 -0.000708 0.001403
# 4 -0.005049 -0.002066 -0.001637 0.021096 0.002819 -0.000222
# 5 -0.010858 -0.003694 -0.000708 0.002819 0.030529 -0.002604
# 6 -0.003844 0.001947 0.001403 -0.000222 -0.002604 0.036044
#
#
# Mechanical properties :
#
#
# Convention : Reuss Voigt Hill
#
# Bulk Modulus (GPa) = 14.64312 49.67222 32.15767
# Shear Modulus (GPa) = 26.81325 40.75940 33.78632
#
# Velocity S-wave (km/s) = 3.49650 4.31095 3.92491
# Velocity P-wave (km/s) = 4.79346 6.88674 5.93314
#
# Compressibility (1/GPa) = 0.06829147
#
# Stress axis : x y z
#
# Youngs Moduli (GPa) = 18.61958 86.14114 145.96192
#
# Poissons Ratio (x) = -0.50566 0.68033
# Poissons Ratio (y) = -0.10930 0.45931
# Poissons Ratio (z) = 0.08679 0.27107
#
# Static dielectric constant tensor:
#      x y z
#    x 1.888690 0.050800 -0.019770 
#    y 0.050800 1.846370 -0.008290 
#    z -0.019770 -0.008290 1.837330 
# 
# From -- ./inp_files/72411.got.cif
#   From: 2010.05.17/outbox.ucp.g08.bks.cvg/sg2_37_cif.got.tgz:72411.got - 2010.06.11 11:32:03.
