data_PCOD9074093
_publ_section_title
;
Structure prediction by ZEFSAII (Michael W. Deem and Ramdas Pophale) SiO2 
 PCOD9074093
Probable space group: P -1
;
_chemical_formula_sum "Si O2"
_cell_formula_units_Z 16
_cell_length_a 12.000000
_cell_length_b 9.000000
_cell_length_c 18.000000
_cell_angle_alpha 130.000000
_cell_angle_beta 140.000000
_cell_angle_gamma 80.000000
_cell_volume 729.599496
_symmetry_space_group_name_H-M "P -1"
_symmetry_group_IT_number 2
_symmetry_cell_setting 'triclinic'
loop_
_space_group_symop_operation_xyz
x,y,z
-x,-y,-z
loop_
_atom_site_type_symbol
_atom_site_label
_atom_site_fract_x
_atom_site_fract_y
_atom_site_fract_z
Si Si1 0.079697 0.416917 0.079119
Si Si2 0.546223 0.540469 0.657791
Si Si3 0.500765 0.499529 0.835683
Si Si4 0.861622 0.835567 0.770469
Si Si5 0.991961 0.989884 0.582063
Si Si6 0.660775 0.938298 0.952473
Si Si7 0.528806 0.812897 0.073530
Si Si8 0.169120 0.503999 0.915722
O O1 0.341704 0.539921 0.257757
O O2 0.007623 0.471560 0.135572
O O3 0.000000 0.500000 0.000000
O O4 0.950585 0.118750 0.912093
O O5 0.719843 0.686381 0.724061
O O6 0.306266 0.305262 0.429165
O O7 0.535937 0.740830 0.756792
O O8 0.257077 0.265544 0.604256
O O9 0.637753 0.763337 0.948273
O O10 0.455530 0.564897 0.914229
O O11 0.679641 0.460281 0.926660
O O12 0.078541 0.857223 0.873537
O O13 0.000000 0.000000 0.500000
O O14 0.203948 0.009174 0.719448
O O15 0.043181 0.234546 0.724326
O O16 0.541308 0.041229 0.954215
O O17 0.369126 0.720356 0.033882
#
# Coordination Sequence:
#
# PCOD9074093 Si02
#       8
#     2   2   2   2   2   2   2   2
#     4  11  23  39  61  94 127 157 199 254 304 362
#     4  10  22  42  64  89 120 163 205 249 299 363
#     4  11  23  39  59  87 124 158 193 253 304 351
#     4  10  22  43  64  84 125 159 205 253 294 362
#     4  11  21  41  60  87 122 153 201 253 289 355
#     4  11  23  39  61  90 122 157 198 249 312 353
#     4  11  22  38  62  88 118 156 208 244 294 363
#     4  11  21  38  65  86 115 164 203 240 301 357
#
# _framework density 21.929839999999999
#
# number of rings (size 3 to 8) (size 9 to 14) (size 15 to 20)
#    0.000    1.250    2.500    5.625    0.000    6.000 
#    4.500    0.000    0.000    0.000    0.000    0.000 
#    0.000    0.000    0.000    0.000    0.000    0.000 
#
# Total GULP energy -89294.175889 kJ/mol
# GULP energy per Si atom -5580.885993 kJ/mol
# Density = 2.187993 g / cm^3
# Si number density = 21.929840 Si / 1000 Ang^3
#
#
#
# Elastic Constant Matrix: (Units=GPa)
#
#
# Indices 1 2 3 4 5 6 
#
# 1 76.7784 32.8750 27.2947 -0.1807 -2.8650 -21.0864
# 2 32.8750 57.0818 4.5972 -15.7248 -4.4836 -10.3084
# 3 27.2947 4.5972 67.5741 0.3787 -17.0326 -9.3747
# 4 -0.1807 -15.7248 0.3787 -1.7017 11.2178 -1.4563
# 5 -2.8650 -4.4836 -17.0326 11.2178 8.5345 -3.2535
# 6 -21.0864 -10.3084 -9.3747 -1.4563 -3.2535 38.0308
#
#
#
# Elastic Compliance Matrix: (Units=1/GPa)
#
#
# Indices 1 2 3 4 5 6 
#
# 1 0.024538 -0.014731 -0.013235 -0.003389 -0.019734 0.004531
# 2 -0.014731 0.029939 0.015646 0.001837 0.042456 0.007506
# 3 -0.013235 0.015646 0.026274 0.025252 0.025510 0.006529
# 4 -0.003389 0.001837 0.025252 -0.025726 0.088392 0.011420
# 5 -0.019734 0.042456 0.025510 0.088392 0.073893 0.016561
# 6 0.004531 0.007506 0.006529 0.011420 0.016561 0.034305
#
#
# Mechanical properties :
#
#
# Convention : Reuss Voigt Hill
#
# Bulk Modulus (GPa) = 17.82240 36.77426 27.29833
# Shear Modulus (GPa) = 24.20505 18.08387 21.14446
#
# Velocity S-wave (km/s) = 3.32588 2.87474 3.10850
# Velocity P-wave (km/s) = 4.78469 5.27488 5.03575
#
# Compressibility (1/GPa) = 0.05610915
#
# Stress axis : x y z
#
# Youngs Moduli (GPa) = 40.75390 33.40112 38.05972
#
# Poissons Ratio (x) = 0.49204 0.50374
# Poissons Ratio (y) = 0.60036 -0.59548
# Poissons Ratio (z) = 0.53940 -0.52259
#
# Static dielectric constant tensor:
#      x y z
#    x 1.864330 0.095930 -0.030310 
#    y 0.095930 1.891630 -0.030800 
#    z -0.030310 -0.030800 1.779000 
# 
# From -- ./inp_files/348349.got.cif
#   From: 2010.05.17/outbox.ucp.g08.bks.cvg/sg2_175_cif.got.tgz:348349.got - 2010.06.11 11:32:03.
