data_PCOD9074382
_publ_section_title
;
Structure prediction by ZEFSAII (Michael W. Deem and Ramdas Pophale) SiO2 
 PCOD9074382
Probable space group: P -1
;
_chemical_formula_sum "Si O2"
_cell_formula_units_Z 16
_cell_length_a 27.000000
_cell_length_b 18.000000
_cell_length_c 27.000000
_cell_angle_alpha 20.000000
_cell_angle_beta 170.000000
_cell_angle_gamma 160.000000
_cell_volume 756.481449
_symmetry_space_group_name_H-M "P -1"
_symmetry_group_IT_number 2
_symmetry_cell_setting 'triclinic'
loop_
_space_group_symop_operation_xyz
x,y,z
-x,-y,-z
loop_
_atom_site_type_symbol
_atom_site_label
_atom_site_fract_x
_atom_site_fract_y
_atom_site_fract_z
Si Si1 0.216666 0.714440 0.901058
Si Si2 0.717748 0.875700 0.363026
Si Si3 0.911369 0.286546 0.807260
Si Si4 0.810035 0.846739 0.049081
Si Si5 0.428554 0.223857 0.602033
Si Si6 0.544481 0.749767 0.695457
Si Si7 0.111590 0.030503 0.834802
Si Si8 0.272743 0.564939 0.647636
O O1 0.024153 0.824299 0.680752
O O2 0.057560 0.477407 0.870311
O O3 0.292014 0.884970 0.821392
O O4 0.489116 0.702573 0.211558
O O5 0.657551 0.849587 0.379065
O O6 0.649415 0.354893 0.477278
O O7 0.131336 0.254659 0.999744
O O8 0.808759 0.053460 0.881534
O O9 0.037730 0.711305 0.336084
O O10 0.867998 0.950857 0.096389
O O11 0.506418 0.660288 0.861300
O O12 0.500000 0.500000 0.500000
O O13 0.183273 0.123464 0.382207
O O14 0.667230 0.092917 0.898902
O O15 0.434164 0.629560 0.713431
O O16 0.500000 0.000000 0.500000
O O17 0.153575 0.296185 0.697567
#
# Coordination Sequence:
#
# PCOD9074382 Si02
#       8
#     2   2   2   2   2   2   2   2
#     4  10  23  41  68  95 126 171 208 272 317 402
#     4  10  23  44  65  94 131 162 217 266 338 373
#     4  12  24  38  67  95 133 171 215 263 326 395
#     4  12  24  44  68  98 136 176 226 269 324 385
#     4  12  28  47  71  98 134 172 220 281 330 395
#     4  12  23  41  60  98 133 171 207 260 331 379
#     4  12  28  46  71  98 129 181 225 269 333 386
#     4  12  25  44  70  96 137 175 220 279 318 398
#
# _framework density 21.150552000000001
#
# number of rings (size 3 to 8) (size 9 to 14) (size 15 to 20)
#    0.000    0.500    2.500    5.250    7.000    0.000 
#    0.000    0.000    0.000    0.000    0.000    0.000 
#    0.000    0.000    0.000    0.000    0.000    0.000 
#
# Total GULP energy -89329.845004 kJ/mol
# GULP energy per Si atom -5583.115313 kJ/mol
# Density = 2.110241 g / cm^3
# Si number density = 21.150552 Si / 1000 Ang^3
#
#
#
# Elastic Constant Matrix: (Units=GPa)
#
#
# Indices 1 2 3 4 5 6 
#
# 1 122.8234 28.8529 2.7709 -17.6797 -12.1325 0.8968
# 2 28.8529 131.6375 1.0929 -4.2538 -16.2788 -24.9357
# 3 2.7709 1.0929 52.5834 4.3383 0.9839 -2.6929
# 4 -17.6797 -4.2538 4.3383 30.2581 -12.7279 -8.0478
# 5 -12.1325 -16.2788 0.9839 -12.7279 36.5682 -1.8026
# 6 0.8968 -24.9357 -2.6929 -8.0478 -1.8026 41.5994
#
#
#
# Elastic Compliance Matrix: (Units=1/GPa)
#
#
# Indices 1 2 3 4 5 6 
#
# 1 0.010296 -0.000981 -0.001321 0.008966 0.006190 0.001107
# 2 -0.000981 0.010239 -0.000369 0.005694 0.006595 0.007522
# 3 -0.001321 -0.000369 0.019544 -0.004796 -0.002797 0.000023
# 4 0.008966 0.005694 -0.004796 0.054247 0.025234 0.014498
# 5 0.006190 0.006595 -0.002797 0.025234 0.041703 0.010328
# 6 0.001107 0.007522 0.000023 0.014498 0.010328 0.031778
#
#
# Mechanical properties :
#
#
# Convention : Reuss Voigt Hill
#
# Bulk Modulus (GPa) = 28.78749 41.38642 35.08696
# Shear Modulus (GPa) = 27.06687 39.97365 33.52026
#
# Velocity S-wave (km/s) = 3.58120 4.35208 3.98533
# Velocity P-wave (km/s) = 5.54440 6.69807 6.14835
#
# Compressibility (1/GPa) = 0.03473731
#
# Stress axis : x y z
#
# Youngs Moduli (GPa) = 97.12594 97.66371 51.16682
#
# Poissons Ratio (x) = 0.09578 0.06759
# Poissons Ratio (y) = 0.09526 0.01889
# Poissons Ratio (z) = 0.12830 0.03605
#
# Static dielectric constant tensor:
#      x y z
#    x 1.718250 0.031360 0.001470 
#    y 0.031360 1.755660 0.071860 
#    z 0.001470 0.071860 1.954280 
# 
# From -- ./inp_files/621355.got.cif
#   From: 2010.05.17/outbox.ucp.g08.bks.cvg/sg2_311_cif.got.tgz:621355.got - 2010.06.11 11:32:03.
