data_PCOD9074855
_publ_section_title
;
Structure prediction by ZEFSAII (Michael W. Deem and Ramdas Pophale) SiO2 
 PCOD9074855
Probable space group: P -1
;
_chemical_formula_sum "Si O2"
_cell_formula_units_Z 16
_cell_length_a 15.000000
_cell_length_b 9.000000
_cell_length_c 6.000000
_cell_angle_alpha 100.000000
_cell_angle_beta 70.000000
_cell_angle_gamma 80.000000
_cell_volume 725.431091
_symmetry_space_group_name_H-M "P -1"
_symmetry_group_IT_number 2
_symmetry_cell_setting 'triclinic'
loop_
_space_group_symop_operation_xyz
x,y,z
-x,-y,-z
loop_
_atom_site_type_symbol
_atom_site_label
_atom_site_fract_x
_atom_site_fract_y
_atom_site_fract_z
Si Si1 0.838990 0.552075 0.698752
Si Si2 0.253751 0.215844 0.519430
Si Si3 0.595135 0.625042 0.397480
Si Si4 0.248561 0.873941 0.341850
Si Si5 0.943468 0.673609 0.012494
Si Si6 0.889063 0.261117 0.303796
Si Si7 0.252941 0.651906 0.941633
Si Si8 0.571621 0.406658 0.731814
O O1 0.758729 0.670688 0.653267
O O2 0.904406 0.411984 0.461672
O O3 0.894079 0.656944 0.815074
O O4 0.799222 0.446857 0.880662
O O5 0.332744 0.262255 0.627108
O O6 0.145615 0.260600 0.729317
O O7 0.276305 0.034290 0.396838
O O8 0.641121 0.461800 0.190620
O O9 0.592300 0.552601 0.622041
O O10 0.489227 0.684744 0.397762
O O11 0.148016 0.861265 0.545823
O O12 0.333400 0.723373 0.307074
O O13 0.240062 0.826787 0.080709
O O14 0.000000 0.500000 0.000000
O O15 0.017432 0.783324 0.947056
O O16 0.797022 0.337836 0.249342
O O17 0.500000 0.500000 0.000000
#
# Coordination Sequence:
#
# PCOD9074855 Si02
#       8
#     2   2   2   2   2   2   2   2
#     4  11  20  37  66  95 122 169 216 263 310 373
#     4  12  26  41  62 101 134 169 208 270 322 377
#     4  11  21  42  70  96 121 165 227 258 310 385
#     4  11  26  42  62  96 139 167 207 266 336 370
#     4  12  22  39  68 100 123 166 228 263 310 378
#     4  11  22  40  68  92 129 173 217 263 311 387
#     4  11  19  41  67  91 123 172 214 261 311 383
#     4  11  23  41  72  95 121 170 217 262 316 387
#
# _framework density 22.055851000000001
#
# number of rings (size 3 to 8) (size 9 to 14) (size 15 to 20)
#    0.000    0.750    7.500    1.125    0.000    2.000 
#    0.000    1.875    0.000    0.000    0.000    0.000 
#    0.000    0.000    0.000    0.000    0.000    0.000 
#
# Total GULP energy -89069.581381 kJ/mol
# GULP energy per Si atom -5566.848836 kJ/mol
# Density = 2.200565 g / cm^3
# Si number density = 22.055851 Si / 1000 Ang^3
#
#
#
# Elastic Constant Matrix: (Units=GPa)
#
#
# Indices 1 2 3 4 5 6 
#
# 1 53.4822 1.4852 11.0970 7.4299 -2.4632 4.5520
# 2 1.4852 56.6266 25.8803 17.3043 -0.8958 25.7840
# 3 11.0970 25.8803 65.3040 3.7425 -10.6775 6.4571
# 4 7.4299 17.3043 3.7425 13.7027 1.6051 3.9493
# 5 -2.4632 -0.8958 -10.6775 1.6051 21.9745 -5.9478
# 6 4.5520 25.7840 6.4571 3.9493 -5.9478 20.3024
#
#
#
# Elastic Compliance Matrix: (Units=1/GPa)
#
#
# Indices 1 2 3 4 5 6 
#
# 1 0.040668 0.078359 -0.028151 -0.084441 -0.024212 -0.090347
# 2 0.078359 0.309976 -0.101190 -0.293004 -0.101572 -0.351814
# 3 -0.028151 -0.101190 0.050487 0.091898 0.041106 0.112932
# 4 -0.084441 -0.293004 0.091898 0.363231 0.082025 0.315192
# 5 -0.024212 -0.101572 0.041106 0.082025 0.088152 0.131221
# 6 -0.090347 -0.351814 0.112932 0.315192 0.131221 0.457528
#
#
# Mechanical properties :
#
#
# Convention : Reuss Voigt Hill
#
# Bulk Modulus (GPa) = 3.34262 28.03752 15.69007
# Shear Modulus (GPa) = 3.30747 20.32594 11.81671
#
# Velocity S-wave (km/s) = 1.22591 3.03903 2.31717
# Velocity P-wave (km/s) = 1.87686 5.00539 3.77998
#
# Compressibility (1/GPa) = 0.29916629
#
# Stress axis : x y z
#
# Youngs Moduli (GPa) = 24.58921 3.22606 19.80712
#
# Poissons Ratio (x) = -0.25279 0.55759
# Poissons Ratio (y) = -1.92678 2.00428
# Poissons Ratio (z) = 0.69221 0.32644
#
# Static dielectric constant tensor:
#      x y z
#    x 1.889830 0.025200 -0.061050 
#    y 0.025200 1.775910 -0.055190 
#    z -0.061050 -0.055190 2.180110 
# 
# From -- ./inp_files/38735.got.cif
#   From: 2010.05.17/outbox.ucp.g08.bks.cvg/sg2_20_cif.got.tgz:38735.got - 2010.06.11 11:32:03.
