data_PCOD9074156
_publ_section_title
;
Structure prediction by ZEFSAII (Michael W. Deem and Ramdas Pophale) SiO2 
 PCOD9074156
Probable space group: P -1
;
_chemical_formula_sum "Si O2"
_cell_formula_units_Z 12
_cell_length_a 10.277817
_cell_length_b 9.799756
_cell_length_c 14.437613
_cell_angle_alpha 66.058290
_cell_angle_beta 27.962069
_cell_angle_gamma 66.728984
_cell_volume 620.886685
_symmetry_space_group_name_H-M "P -1"
_symmetry_group_IT_number 2
_symmetry_cell_setting 'triclinic'
loop_
_space_group_symop_operation_xyz
x,y,z
-x,-y,-z
loop_
_atom_site_type_symbol
_atom_site_label
_atom_site_fract_x
_atom_site_fract_y
_atom_site_fract_z
Si Si1 0.943667 0.037900 0.916617
Si Si2 0.312345 0.310694 0.604860
Si Si3 0.136258 0.552254 0.020783
Si Si4 0.064807 0.514925 0.347086
Si Si5 0.466249 0.700452 0.933867
Si Si6 0.919731 0.274076 0.180953
O O1 0.167885 0.156923 0.719560
O O2 0.980874 0.889876 0.872331
O O3 0.643520 0.128016 0.061353
O O4 0.000000 0.000000 0.000000
O O5 0.639558 0.275692 0.416019
O O6 0.167820 0.385575 0.766198
O O7 0.205568 0.423063 0.558195
O O8 0.143127 0.373595 0.059750
O O9 0.345014 0.616526 0.943926
O O10 0.170344 0.628385 0.880313
O O11 0.211472 0.359636 0.255069
O O12 0.000000 0.500000 0.500000
O O13 0.292485 0.634123 0.145744
#
# Coordination Sequence:
#
# PCOD9074156 Si02
#       6
#     2   2   2   2   2   2
#     4  10  18  32  49  72 107 128 154 203 246 289
#     4  10  20  32  51  76  98 127 167 203 239 285
#     4   9  19  31  48  73 102 132 158 195 244 293
#     4   9  17  30  52  70  91 127 168 205 232 274
#     4   9  18  33  48  73  98 123 165 203 236 281
#     4  11  18  31  50  74 104 131 155 193 254 297
#
# _framework density 19.327197999999999
#
# number of rings (size 3 to 8) (size 9 to 14) (size 15 to 20)
#    0.000    2.667    3.333    2.000    0.000    0.000 
#    0.000    0.000    0.000   16.000    0.000   24.500 
#    0.000    0.000    0.000    0.000    0.000    0.000 
#
# Total GULP energy -66850.001021 kJ/mol
# GULP energy per Si atom -5570.833418 kJ/mol
# Density = 1.928321 g / cm^3
# Si number density = 19.327198 Si / 1000 Ang^3
#
#
#
# Elastic Constant Matrix: (Units=GPa)
#
#
# Indices 1 2 3 4 5 6 
#
# 1 24.4357 4.3467 7.7658 -1.1154 1.1645 -2.8520
# 2 4.3467 134.8977 9.9295 11.2253 -21.9845 2.9509
# 3 7.7658 9.9295 45.6946 9.4426 13.2932 -8.7066
# 4 -1.1154 11.2253 9.4426 23.3917 -3.6443 -2.5973
# 5 1.1645 -21.9845 13.2932 -3.6443 22.5626 -1.5863
# 6 -2.8520 2.9509 -8.7066 -2.5973 -1.5863 38.1422
#
#
#
# Elastic Compliance Matrix: (Units=1/GPa)
#
#
# Indices 1 2 3 4 5 6 
#
# 1 0.044490 -0.000697 -0.009734 0.007219 0.004053 0.001819
# 2 -0.000697 0.010153 -0.006206 -0.000508 0.013381 -0.001732
# 3 -0.009734 -0.006206 0.038466 -0.017095 -0.030540 0.006099
# 4 0.007219 -0.000508 -0.017095 0.053136 0.017859 0.001038
# 5 0.004053 0.013381 -0.030540 0.017859 0.077799 -0.003252
# 6 0.001819 -0.001732 0.006099 0.001038 -0.003252 0.027815
#
#
# Mechanical properties :
#
#
# Convention : Reuss Voigt Hill
#
# Bulk Modulus (GPa) = 16.71240 27.67912 22.19576
# Shear Modulus (GPa) = 16.38922 29.01839 22.70381
#
# Velocity S-wave (km/s) = 2.91518 3.87903 3.43112
# Velocity P-wave (km/s) = 4.47179 5.86642 5.21593
#
# Compressibility (1/GPa) = 0.05983582
#
# Stress axis : x y z
#
# Youngs Moduli (GPa) = 22.47707 98.49086 25.99691
#
# Poissons Ratio (x) = 0.06864 0.25305
# Poissons Ratio (y) = 0.01567 0.16133
# Poissons Ratio (z) = 0.21879 0.61121
#
# Static dielectric constant tensor:
#      x y z
#    x 1.706410 -0.020860 -0.020650 
#    y -0.020860 1.706430 0.008610 
#    z -0.020650 0.008610 1.718440 
# 
# From -- ./inp_files/236886.got.cif
#   From: 2010.05.17/outbox.cif.g08.bks.cpg/sg2_119_cif.got.tgz:236886.got - 2010.06.03 11:33:40.
