data_PCOD9074627
_publ_section_title
;
Structure prediction by ZEFSAII (Michael W. Deem and Ramdas Pophale) SiO2 
 PCOD9074627
Probable space group: P -1
;
_chemical_formula_sum "Si O2"
_cell_formula_units_Z 16
_cell_length_a 15.000000
_cell_length_b 9.000000
_cell_length_c 27.000000
_cell_angle_alpha 130.000000
_cell_angle_beta 20.000000
_cell_angle_gamma 140.000000
_cell_volume 750.501489
_symmetry_space_group_name_H-M "P -1"
_symmetry_group_IT_number 2
_symmetry_cell_setting 'triclinic'
loop_
_space_group_symop_operation_xyz
x,y,z
-x,-y,-z
loop_
_atom_site_type_symbol
_atom_site_label
_atom_site_fract_x
_atom_site_fract_y
_atom_site_fract_z
Si Si1 0.200116 0.494588 0.137519
Si Si2 0.840553 0.331859 0.187987
Si Si3 0.785290 0.041097 0.764485
Si Si4 0.076957 0.958686 0.504240
Si Si5 0.284374 0.978206 0.652947
Si Si6 0.669441 0.407143 0.623226
Si Si7 0.103370 0.877996 0.172018
Si Si8 0.192541 0.471848 0.936283
O O1 0.278442 0.758113 0.159344
O O2 0.081671 0.397531 0.122302
O O3 0.500000 0.500000 0.000000
O O4 0.895910 0.287868 0.285769
O O5 0.463123 0.092303 0.341042
O O6 0.887160 0.586699 0.212517
O O7 0.963194 0.309909 0.066994
O O8 0.990521 0.091481 0.717701
O O9 0.976002 0.064979 0.621489
O O10 0.464441 0.754992 0.872741
O O11 0.000000 0.000000 0.500000
O O12 0.818740 0.665276 0.575862
O O13 0.518793 0.187295 0.616200
O O14 0.008077 0.008577 0.784220
O O15 0.500000 0.000000 0.500000
O O16 0.373114 0.359892 0.800338
O O17 0.000000 0.500000 0.500000
O O18 0.500000 0.000000 0.000000
O O19 0.000000 0.500000 0.000000
#
# Coordination Sequence:
#
# PCOD9074627 Si02
#       8
#     2   2   2   2   2   2   2   2
#     4  11  27  43  66 103 146 174 228 290 347 409
#     4  11  23  42  73 102 132 180 231 286 340 414
#     4  10  24  42  71  98 137 183 229 289 343 411
#     4  11  24  45  68 100 136 173 237 287 344 408
#     4  12  28  45  72 102 141 188 229 282 356 414
#     4  11  27  47  70 101 143 180 230 287 348 416
#     4  11  22  41  73  97 137 179 237 276 340 420
#     4  11  23  44  76  99 133 187 243 279 346 417
#
# _framework density 21.319078000000001
#
# number of rings (size 3 to 8) (size 9 to 14) (size 15 to 20)
#    0.000    1.000    1.250    5.250   10.500    1.000 
#    0.000    1.250    0.000    0.000    0.000    0.000 
#    0.000    0.000    0.000    0.000    0.000    0.000 
#
# Total GULP energy -89311.364518 kJ/mol
# GULP energy per Si atom -5581.960282 kJ/mol
# Density = 2.127056 g / cm^3
# Si number density = 21.319078 Si / 1000 Ang^3
#
#
#
# Elastic Constant Matrix: (Units=GPa)
#
#
# Indices 1 2 3 4 5 6 
#
# 1 85.5969 3.4647 32.1980 0.6218 7.8476 -4.0322
# 2 3.4647 60.4960 10.2371 9.3166 11.2416 28.3352
# 3 32.1980 10.2371 97.5627 -1.3791 9.1608 20.3972
# 4 0.6218 9.3166 -1.3791 -9.1801 -5.3816 -17.9193
# 5 7.8476 11.2416 9.1608 -5.3816 38.5477 -1.0844
# 6 -4.0322 28.3352 20.3972 -17.9193 -1.0844 28.3994
#
#
#
# Elastic Compliance Matrix: (Units=1/GPa)
#
#
# Indices 1 2 3 4 5 6 
#
# 1 0.014019 -0.000500 -0.005163 -0.004288 -0.001984 0.003416
# 2 -0.000500 0.014800 -0.000560 0.019786 -0.001375 -0.002003
# 3 -0.005163 -0.000560 0.013264 0.007487 -0.001034 -0.005016
# 4 -0.004288 0.019786 0.007487 -0.015049 -0.009779 -0.035597
# 5 -0.001984 -0.001375 -0.001034 -0.009779 0.025533 -0.003363
# 6 0.003416 -0.002003 -0.005016 -0.035597 -0.003363 0.018709
#
#
# Mechanical properties :
#
#
# Convention : Reuss Voigt Hill
#
# Bulk Modulus (GPa) = 33.74223 37.27280 35.50751
# Shear Modulus (GPa) = 53.41854 24.73713 39.07783
#
# Velocity S-wave (km/s) = 5.01110 3.41005 4.28600
# Velocity P-wave (km/s) = 7.02446 5.74682 6.41751
#
# Compressibility (1/GPa) = 0.02963646
#
# Stress axis : x y z
#
# Youngs Moduli (GPa) = 71.33270 67.56754 75.39216
#
# Poissons Ratio (x) = 0.03380 0.38922
# Poissons Ratio (y) = 0.03569 0.04224
# Poissons Ratio (z) = 0.36826 0.03786
#
# Static dielectric constant tensor:
#      x y z
#    x 1.807030 -0.063400 -0.003890 
#    y -0.063400 1.870830 0.111100 
#    z -0.003890 0.111100 1.874810 
# 
# From -- ./inp_files/209566.got.cif
#   From: 2010.05.17/outbox.ucp.g08.bks.cvg/sg2_105_cif.got.tgz:209566.got - 2010.06.11 11:32:03.
