data_PCOD9074155
_publ_section_title
;
Structure prediction by ZEFSAII (Michael W. Deem and Ramdas Pophale) SiO2 
 PCOD9074155
Probable space group: P -1
;
_chemical_formula_sum "Si O2"
_cell_formula_units_Z 14
_cell_length_a 6.000000
_cell_length_b 9.000000
_cell_length_c 21.000000
_cell_angle_alpha 40.000000
_cell_angle_beta 90.000000
_cell_angle_gamma 70.000000
_cell_volume 617.169155
_symmetry_space_group_name_H-M "P -1"
_symmetry_group_IT_number 2
_symmetry_cell_setting 'triclinic'
loop_
_space_group_symop_operation_xyz
x,y,z
-x,-y,-z
loop_
_atom_site_type_symbol
_atom_site_label
_atom_site_fract_x
_atom_site_fract_y
_atom_site_fract_z
Si Si1 0.159105 0.533524 0.310480
Si Si2 0.567076 0.428134 0.447065
Si Si3 0.993400 0.164163 0.349781
Si Si4 0.402571 0.374506 0.983082
Si Si5 0.596096 0.916649 0.225416
Si Si6 0.152224 0.322951 0.175823
Si Si7 0.603312 0.434058 0.826136
O O1 0.366915 0.386240 0.416820
O O2 0.257315 0.656053 0.214477
O O3 0.068302 0.341972 0.337794
O O4 0.904789 0.783024 0.262374
O O5 0.500000 0.500000 0.500000
O O6 0.557009 0.679015 0.328466
O O7 0.853573 0.152453 0.526830
O O8 0.682775 0.317676 0.282635
O O9 0.121893 0.145430 0.287156
O O10 0.512569 0.339169 0.921277
O O11 0.087453 0.564803 0.910121
O O12 0.500000 0.500000 0.000000
O O13 0.477627 0.078269 0.106238
O O14 0.436859 0.150612 0.200479
O O15 0.169670 0.543556 0.145013
#
# Coordination Sequence:
#
# PCOD9074155 Si02
#       7
#     2   2   2   2   2   2   2
#     4  11  27  45  70 105 146 186 230 292 355 427
#     4  12  27  45  74 106 143 181 238 300 344 419
#     4  10  23  49  70 100 140 193 232 280 363 413
#     4  11  24  42  75 105 142 189 234 295 352 416
#     4  12  26  41  69 111 139 178 244 287 350 415
#     4  10  22  42  73 102 137 182 238 288 347 414
#     4  10  23  46  73  98 141 193 231 282 353 425
#
# _framework density 22.684218999999999
#
# number of rings (size 3 to 8) (size 9 to 14) (size 15 to 20)
#    0.000    1.143    2.857    1.714    4.000    5.714 
#    0.000   10.000    0.000    0.000    0.000    0.000 
#    0.000    0.000    0.000    0.000    0.000    0.000 
#
# Total GULP energy -77947.233101 kJ/mol
# GULP energy per Si atom -5567.659507 kJ/mol
# Density = 2.263259 g / cm^3
# Si number density = 22.684219 Si / 1000 Ang^3
#
#
#
# Elastic Constant Matrix: (Units=GPa)
#
#
# Indices 1 2 3 4 5 6 
#
# 1 83.7522 53.0886 31.5520 14.2957 18.4177 -2.1375
# 2 53.0886 67.6550 25.0454 39.4888 10.3019 -17.3832
# 3 31.5520 25.0454 125.4102 17.7565 -0.2583 15.0346
# 4 14.2957 39.4888 17.7565 30.3811 5.8485 5.6660
# 5 18.4177 10.3019 -0.2583 5.8485 44.9063 12.0890
# 6 -2.1375 -17.3832 15.0346 5.6660 12.0890 50.5568
#
#
#
# Elastic Compliance Matrix: (Units=1/GPa)
#
#
# Indices 1 2 3 4 5 6 
#
# 1 -0.002620 0.043835 -0.002940 -0.056974 -0.008081 0.024153
# 2 0.043835 -0.104323 -0.002081 0.124632 0.002631 -0.047995
# 3 -0.002940 -0.002081 0.009864 -0.001462 0.003102 -0.004351
# 4 -0.056974 0.124632 -0.001462 -0.110531 -0.005534 0.054589
# 5 -0.008081 0.002631 0.003102 -0.005534 0.027412 -0.006294
# 6 0.024153 -0.047995 -0.004351 0.054589 -0.006294 0.000980
#
#
# Mechanical properties :
#
#
# Convention : Reuss Voigt Hill
#
# Bulk Modulus (GPa) = -51.40745 55.13215 1.86235
# Shear Modulus (GPa) = -18.98767 36.31093 8.66163
#
# Velocity S-wave (km/s) = -2.89631 4.00523 1.95618
# Velocity P-wave (km/s) = 5.82205 6.76359 2.43412
#
# Compressibility (1/GPa) = -0.01945243
#
# Stress axis : x y z
#
# Youngs Moduli (GPa) = -381.67470 -9.58561 101.37521
#
# Poissons Ratio (x) = 0.42019 0.29809
# Poissons Ratio (y) = 16.73076 0.21101
# Poissons Ratio (z) = -1.12231 -0.01995
#
# Static dielectric constant tensor:
#      x y z
#    x 1.886970 -0.010610 -0.053210 
#    y -0.010610 1.890190 -0.021590 
#    z -0.053210 -0.021590 1.874180 
# 
# From -- ./inp_files/88849.got.cif
#   From: 2010.05.17/outbox.ucp.g08.bks.cvg/sg2_45_cif.got.tgz:88849.got - 2010.06.11 11:32:03.
