data_PCOD9074951
_publ_section_title
;
Structure prediction by ZEFSAII (Michael W. Deem and Ramdas Pophale) SiO2 
 PCOD9074951
Probable space group: P -1
;
_chemical_formula_sum "Si O2"
_cell_formula_units_Z 16
_cell_length_a 9.000000
_cell_length_b 15.000000
_cell_length_c 24.000000
_cell_angle_alpha 150.000000
_cell_angle_beta 130.000000
_cell_angle_gamma 30.000000
_cell_volume 731.734496
_symmetry_space_group_name_H-M "P -1"
_symmetry_group_IT_number 2
_symmetry_cell_setting 'triclinic'
loop_
_space_group_symop_operation_xyz
x,y,z
-x,-y,-z
loop_
_atom_site_type_symbol
_atom_site_label
_atom_site_fract_x
_atom_site_fract_y
_atom_site_fract_z
Si Si1 0.357618 0.519731 0.312292
Si Si2 0.803236 0.137885 0.442587
Si Si3 0.460204 0.646077 0.210686
Si Si4 0.786183 0.774100 0.846783
Si Si5 0.417633 0.119146 0.271418
Si Si6 0.531691 0.332026 0.965975
Si Si7 0.164365 0.185348 0.488223
Si Si8 0.282542 0.810078 0.885907
O O1 0.433955 0.589373 0.421346
O O2 0.228086 0.416650 0.237658
O O3 0.657994 0.261120 0.203459
O O4 0.076949 0.831005 0.378220
O O5 0.650001 0.102763 0.344777
O O6 0.957615 0.199101 0.483823
O O7 0.504848 0.495840 0.196223
O O8 0.831657 0.447728 0.183853
O O9 0.254783 0.980778 0.349440
O O10 0.336884 0.587254 0.105465
O O11 0.606294 0.885302 0.803820
O O12 0.636962 0.050208 0.996444
O O13 0.057140 0.473625 0.391921
O O14 0.518077 0.837238 0.158269
O O15 0.500000 0.500000 0.000000
O O16 0.895333 0.057559 0.933369
O O17 0.500000 0.000000 0.500000
#
# Coordination Sequence:
#
# PCOD9074951 Si02
#       8
#     2   2   2   2   2   2   2   2
#     4  11  24  43  65  97 140 182 225 278 343 413
#     4  11  26  42  67  99 145 178 222 285 349 400
#     4  11  21  43  73  97 131 182 235 272 333 421
#     4  11  21  41  71  97 131 183 228 279 342 405
#     4  12  24  44  70 101 139 179 225 288 346 394
#     4  11  25  45  67  99 140 176 229 290 341 395
#     4  12  22  43  74 101 129 181 234 270 334 422
#     4  11  21  43  71  97 130 182 239 273 331 420
#
# _framework density 21.865853999999999
#
# number of rings (size 3 to 8) (size 9 to 14) (size 15 to 20)
#    0.000    0.750    6.250    1.500    3.500    1.000 
#    0.000    2.500    0.000    0.000    0.000    0.000 
#    0.000    0.000    0.000    0.000    0.000    0.000 
#
# Total GULP energy -89264.845413 kJ/mol
# GULP energy per Si atom -5579.052838 kJ/mol
# Density = 2.181609 g / cm^3
# Si number density = 21.865854 Si / 1000 Ang^3
#
#
#
# Elastic Constant Matrix: (Units=GPa)
#
#
# Indices 1 2 3 4 5 6 
#
# 1 65.3493 -8.2112 28.4798 -6.6148 20.8324 7.8139
# 2 -8.2112 47.0339 6.1456 -17.7457 2.3700 -6.4533
# 3 28.4798 6.1456 181.4719 -30.6179 19.3236 -4.6737
# 4 -6.6148 -17.7457 -30.6179 47.4562 1.6729 14.4547
# 5 20.8324 2.3700 19.3236 1.6729 45.2089 -2.5055
# 6 7.8139 -6.4533 -4.6737 14.4547 -2.5055 24.7298
#
#
#
# Elastic Compliance Matrix: (Units=1/GPa)
#
#
# Indices 1 2 3 4 5 6 
#
# 1 0.022538 0.006287 -0.001428 0.008583 -0.011081 -0.011890
# 2 0.006287 0.026822 0.000667 0.012304 -0.005186 -0.002579
# 3 -0.001428 0.000667 0.006771 0.004873 -0.002518 -0.001198
# 4 0.008583 0.012304 0.004873 0.036729 -0.009205 -0.020981
# 5 -0.011081 -0.005186 -0.002518 -0.009205 0.029471 0.010038
# 6 -0.011890 -0.002579 -0.001198 -0.020981 0.010038 0.056575
#
#
# Mechanical properties :
#
#
# Convention : Reuss Voigt Hill
#
# Bulk Modulus (GPa) = 14.88499 38.52040 26.70269
# Shear Modulus (GPa) = 26.28143 41.30835 33.79489
#
# Velocity S-wave (km/s) = 3.47066 4.35118 3.93562
# Velocity P-wave (km/s) = 4.78360 6.54970 5.73504
#
# Compressibility (1/GPa) = 0.06718178
#
# Stress axis : x y z
#
# Youngs Moduli (GPa) = 44.37006 37.28339 147.67912
#
# Poissons Ratio (x) = -0.23439 0.21089
# Poissons Ratio (y) = -0.27894 -0.09849
# Poissons Ratio (z) = 0.06336 -0.02486
#
# Static dielectric constant tensor:
#      x y z
#    x 1.907310 0.026610 -0.097950 
#    y 0.026610 1.790540 0.014460 
#    z -0.097950 0.014460 1.872360 
# 
# From -- ./inp_files/608192.got.cif
#   From: 2010.05.17/outbox.ucp.g08.bks.cvg/sg2_305_cif.got.tgz:608192.got - 2010.06.11 11:32:03.
