data_PCOD9074836
_publ_section_title
;
Structure prediction by ZEFSAII (Michael W. Deem and Ramdas Pophale) SiO2 
 PCOD9074836
Probable space group: P -1
;
_chemical_formula_sum "Si O2"
_cell_formula_units_Z 16
_cell_length_a 8.165305
_cell_length_b 15.129987
_cell_length_c 19.635253
_cell_angle_alpha 139.321574
_cell_angle_beta 32.468066
_cell_angle_gamma 142.175629
_cell_volume 766.792053
_symmetry_space_group_name_H-M "P -1"
_symmetry_group_IT_number 2
_symmetry_cell_setting 'triclinic'
loop_
_space_group_symop_operation_xyz
x,y,z
-x,-y,-z
loop_
_atom_site_type_symbol
_atom_site_label
_atom_site_fract_x
_atom_site_fract_y
_atom_site_fract_z
Si Si1 0.706527 0.445107 0.220260
Si Si2 0.274270 0.941347 0.218929
Si Si3 0.831743 0.685632 0.787922
Si Si4 0.723751 0.128698 0.050701
Si Si5 0.726781 0.934982 0.497324
Si Si6 0.275006 0.024811 0.788255
Si Si7 0.307418 0.597753 0.499012
Si Si8 0.226014 0.631372 0.048178
O O1 0.443160 0.406012 0.226531
O O2 0.730652 0.290771 0.134674
O O3 0.541859 0.510646 0.373431
O O4 0.061303 0.573981 0.145702
O O5 0.178644 0.777342 0.126417
O O6 0.945332 0.964187 0.369155
O O7 0.542433 0.064535 0.148724
O O8 0.463399 0.935329 0.218463
O O9 0.991727 0.858582 0.809508
O O10 0.132804 0.633751 0.647075
O O11 0.615699 0.664442 0.919539
O O12 0.500000 0.000000 0.000000
O O13 0.091547 0.132765 0.915461
O O14 0.464694 0.007844 0.644109
O O15 0.523918 0.757292 0.479406
O O16 0.000000 0.000000 0.500000
O O17 0.000000 0.500000 0.500000
O O18 0.000000 0.500000 0.000000
#
# Coordination Sequence:
#
# PCOD9074836 Si02
#       8
#     2   2   2   2   2   2   2   2
#     4  10  19  33  53  80 117 147 178 238 297 331
#     4  11  21  37  63  84 109 156 203 231 278 356
#     4   9  17  32  56  81 108 143 195 233 270 341
#     4  12  22  37  55  87 125 151 182 243 301 341
#     4   9  19  36  61  85 110 148 206 242 273 340
#     4  10  20  37  61  85 111 151 201 232 280 348
#     4   9  17  31  55  83 109 146 193 237 286 335
#     4  10  18  32  52  83 108 144 193 231 274 339
#
# _framework density 20.866152
#
# number of rings (size 3 to 8) (size 9 to 14) (size 15 to 20)
#    0.000    2.000    3.750    1.125    0.000    0.000 
#    0.000    2.500    0.000    6.750    0.000    0.000 
#    0.000    0.000    0.000    0.000    0.000    0.000 
#
# Total GULP energy -89209.595292 kJ/mol
# GULP energy per Si atom -5575.599706 kJ/mol
# Density = 2.081866 g / cm^3
# Si number density = 20.866152 Si / 1000 Ang^3
#
#
#
# Elastic Constant Matrix: (Units=GPa)
#
#
# Indices 1 2 3 4 5 6 
#
# 1 16.0924 -5.5176 16.1313 -1.1870 -5.2449 -1.1906
# 2 -5.5176 63.9910 57.6749 0.5072 -14.9283 -8.0302
# 3 16.1313 57.6749 239.8532 -2.2366 -27.8557 -28.2209
# 4 -1.1870 0.5072 -2.2366 24.2517 3.8666 -7.4086
# 5 -5.2449 -14.9283 -27.8557 3.8666 16.0609 7.2883
# 6 -1.1906 -8.0302 -28.2209 -7.4086 7.2883 22.7271
#
#
#
# Elastic Compliance Matrix: (Units=1/GPa)
#
#
# Indices 1 2 3 4 5 6 
#
# 1 0.093283 0.025183 -0.008637 -0.009089 0.048022 -0.015304
# 2 0.025183 0.029578 -0.006325 -0.007267 0.030187 -0.008133
# 3 -0.008637 -0.006325 0.007099 0.002535 -0.000180 0.007011
# 4 -0.009089 -0.007267 0.002535 0.054671 -0.031157 0.027917
# 5 0.048022 0.030187 -0.000180 -0.031157 0.130983 -0.039203
# 6 -0.015304 -0.008133 0.007011 0.027917 -0.039203 0.070703
#
#
# Mechanical properties :
#
#
# Convention : Reuss Voigt Hill
#
# Bulk Modulus (GPa) = 6.64892 50.72378 28.68635
# Shear Modulus (GPa) = 12.01894 29.38447 20.70170
#
# Velocity S-wave (km/s) = 2.40261 3.75672 3.15321
# Velocity P-wave (km/s) = 3.30001 6.57108 5.19948
#
# Compressibility (1/GPa) = 0.15040042
#
# Stress axis : x y z
#
# Youngs Moduli (GPa) = 10.72010 33.80848 140.87020
#
# Poissons Ratio (x) = -0.85139 1.21675
# Poissons Ratio (y) = -0.26996 0.89100
# Poissons Ratio (z) = 0.09259 0.21384
#
# Static dielectric constant tensor:
#      x y z
#    x 1.761220 0.028950 0.022700 
#    y 0.028950 1.741940 -0.013530 
#    z 0.022700 -0.013530 1.866280 
# 
# From -- ./inp_files/227579.got.cif
#   From: 2010.05.17/outbox.cif.g08.bks.cpg/sg2_114_cif.got.tgz:227579.got - 2010.06.03 11:33:40.
