data_PCOD9074281
_publ_section_title
;
Structure prediction by ZEFSAII (Michael W. Deem and Ramdas Pophale) SiO2 
 PCOD9074281
Probable space group: P -1
;
_chemical_formula_sum "Si O2"
_cell_formula_units_Z 16
_cell_length_a 9.000000
_cell_length_b 24.000000
_cell_length_c 9.000000
_cell_angle_alpha 130.000000
_cell_angle_beta 120.000000
_cell_angle_gamma 30.000000
_cell_volume 736.400153
_symmetry_space_group_name_H-M "P -1"
_symmetry_group_IT_number 2
_symmetry_cell_setting 'triclinic'
loop_
_space_group_symop_operation_xyz
x,y,z
-x,-y,-z
loop_
_atom_site_type_symbol
_atom_site_label
_atom_site_fract_x
_atom_site_fract_y
_atom_site_fract_z
Si Si1 0.302119 0.003575 0.977596
Si Si2 0.650618 0.630571 0.509091
Si Si3 0.490023 0.637735 0.755079
Si Si4 0.516005 0.184935 0.478534
Si Si5 0.280810 0.626132 0.203491
Si Si6 0.665853 0.178387 0.855993
Si Si7 0.433129 0.100740 0.732580
Si Si8 0.121624 0.636493 0.470301
O O1 0.348580 0.921227 0.744850
O O2 0.421124 0.955758 0.125294
O O3 0.938121 0.124811 0.990016
O O4 0.500000 0.000000 0.000000
O O5 0.491211 0.682255 0.678160
O O6 0.604124 0.715830 0.530036
O O7 0.477689 0.629556 0.328032
O O8 0.000000 0.500000 0.500000
O O9 0.214288 0.674466 0.680811
O O10 0.751450 0.484432 0.615259
O O11 0.561944 0.673890 0.977912
O O12 0.705663 0.152893 0.654642
O O13 0.232679 0.245541 0.518387
O O14 0.252979 0.602762 0.314710
O O15 0.933932 0.761267 0.208997
O O16 0.500000 0.500000 0.000000
O O17 0.572557 0.130004 0.788360
O O18 0.500000 0.000000 0.500000
#
# Coordination Sequence:
#
# PCOD9074281 Si02
#       8
#     2   2   2   2   2   2   2   2
#     4  12  29  47  76 105 148 192 257 309 376 444
#     4  11  25  42  69 107 148 183 237 309 368 444
#     4  10  23  42  71 101 144 193 246 294 380 439
#     4  12  25  44  72 105 147 188 250 303 374 438
#     4  11  28  45  75 109 148 190 251 306 376 445
#     4  12  27  47  74 104 147 201 257 303 378 450
#     4  12  29  51  78 107 153 200 252 316 382 450
#     4  10  22  45  71 103 148 196 237 310 374 453
#
# _framework density 21.727318
#
# number of rings (size 3 to 8) (size 9 to 14) (size 15 to 20)
#    0.000    0.750    2.500    3.000   12.250    0.500 
#    0.000    0.000    0.000    0.000    0.000    0.000 
#    0.000    0.000    0.000    0.000    0.000    0.000 
#
# Total GULP energy -89142.905397 kJ/mol
# GULP energy per Si atom -5571.431587 kJ/mol
# Density = 2.167787 g / cm^3
# Si number density = 21.727318 Si / 1000 Ang^3
#
#
#
# Elastic Constant Matrix: (Units=GPa)
#
#
# Indices 1 2 3 4 5 6 
#
# 1 73.3790 16.4667 11.8515 13.5445 11.9644 12.3255
# 2 16.4667 102.3253 26.8406 -22.1615 4.6171 -6.2689
# 3 11.8515 26.8406 154.4571 0.0619 13.7956 13.7858
# 4 13.5445 -22.1615 0.0619 36.1075 -1.1126 -2.6852
# 5 11.9644 4.6171 13.7956 -1.1126 26.1565 -5.5640
# 6 12.3255 -6.2689 13.7858 -2.6852 -5.5640 43.3175
#
#
#
# Elastic Compliance Matrix: (Units=1/GPa)
#
#
# Indices 1 2 3 4 5 6 
#
# 1 0.020784 -0.006588 0.001462 -0.012920 -0.011715 -0.009638
# 2 -0.006588 0.014358 -0.002877 0.011859 0.003797 0.006091
# 3 0.001462 -0.002877 0.007697 -0.002795 -0.005217 -0.004125
# 4 -0.012920 0.011859 -0.002795 0.040850 0.009154 0.009990
# 5 -0.011715 0.003797 -0.005217 0.009154 0.048691 0.012365
# 6 -0.009638 0.006091 -0.004125 0.009990 0.012365 0.030230
#
#
# Mechanical properties :
#
#
# Convention : Reuss Voigt Hill
#
# Bulk Modulus (GPa) = 37.26829 48.94212 43.10520
# Shear Modulus (GPa) = 26.65798 39.44981 33.05389
#
# Velocity S-wave (km/s) = 3.50656 4.26570 3.90462
# Velocity P-wave (km/s) = 5.79522 6.84369 6.34116
#
# Compressibility (1/GPa) = 0.02683246
#
# Stress axis : x y z
#
# Youngs Moduli (GPa) = 48.11350 69.64851 129.91469
#
# Poissons Ratio (x) = 0.45887 -0.18992
# Poissons Ratio (y) = 0.31699 0.37376
# Poissons Ratio (z) = -0.07034 0.20038
#
# Static dielectric constant tensor:
#      x y z
#    x 2.038080 -0.129590 0.169620 
#    y -0.129590 2.003970 0.079380 
#    z 0.169620 0.079380 2.093690 
# 
# From -- ./inp_files/226534.got.cif
#   From: 2010.05.17/outbox.ucp.g08.bks.cvg/sg2_114_cif.got.tgz:226534.got - 2010.06.11 11:32:03.
