data_PCOD9074528
_publ_section_title
;
Structure prediction by ZEFSAII (Michael W. Deem and Ramdas Pophale) SiO2 
 PCOD9074528
Probable space group: P -1
;
_chemical_formula_sum "Si O2"
_cell_formula_units_Z 15
_cell_length_a 18.000000
_cell_length_b 9.000000
_cell_length_c 21.000000
_cell_angle_alpha 140.000000
_cell_angle_beta 20.000000
_cell_angle_gamma 130.000000
_cell_volume 700.468056
_symmetry_space_group_name_H-M "P -1"
_symmetry_group_IT_number 2
_symmetry_cell_setting 'triclinic'
loop_
_space_group_symop_operation_xyz
x,y,z
-x,-y,-z
loop_
_atom_site_type_symbol
_atom_site_label
_atom_site_fract_x
_atom_site_fract_y
_atom_site_fract_z
Si Si1 0.695972 0.555990 0.401416
Si Si2 0.500000 0.000000 0.000000
Si Si3 0.737761 0.186628 0.773877
Si Si4 0.498876 0.893892 0.280635
Si Si5 0.783343 0.436176 0.559508
Si Si6 0.303843 0.271708 0.064320
Si Si7 0.378388 0.659387 0.481144
Si Si8 0.216265 0.199354 0.847784
O O1 0.500000 0.500000 0.500000
O O2 0.640338 0.524819 0.509750
O O3 0.681911 0.828806 0.483571
O O4 0.948986 0.360910 0.120582
O O5 0.339310 0.842073 0.101853
O O6 0.290995 0.271738 0.272376
O O7 0.724360 0.449889 0.843325
O O8 0.524006 0.146227 0.892643
O O9 0.000000 0.000000 0.500000
O O10 0.361062 0.702061 0.329794
O O11 0.661837 0.853354 0.198094
O O12 0.646741 0.867192 0.088454
O O13 0.725010 0.395676 0.519571
O O14 0.059383 0.298836 0.301908
O O15 0.638466 0.657421 0.259242
O O16 0.249376 0.939531 0.701865
#
# Coordination Sequence:
#
# PCOD9074528 Si02
#       8
#     2   1   2   2   2   2   2   2
#     4  12  25  40  69 100 134 184 228 275 334 399
#     4  12  24  46  70  98 136 176 224 284 350 398
#     4  11  25  46  70  98 133 178 225 284 340 405
#     4  11  25  45  65 107 138 178 229 279 335 401
#     4  11  25  45  70 100 138 180 227 286 342 403
#     4  11  25  44  71  99 134 178 226 280 341 405
#     4  10  23  45  68  97 137 184 222 280 340 392
#     4  10  23  46  67  96 144 177 223 283 331 399
#
# _framework density 21.414252999999999
#
# number of rings (size 3 to 8) (size 9 to 14) (size 15 to 20)
#    0.000    1.067    4.000    1.200    3.733    4.267 
#    2.400    0.000    0.000    0.000    0.000    0.000 
#    0.000    0.000    0.000    0.000    0.000    0.000 
#
# Total GULP energy -83594.312149 kJ/mol
# GULP energy per Si atom -5572.954143 kJ/mol
# Density = 2.136551 g / cm^3
# Si number density = 21.414253 Si / 1000 Ang^3
#
#
#
# Elastic Constant Matrix: (Units=GPa)
#
#
# Indices 1 2 3 4 5 6 
#
# 1 29.5072 -7.7005 39.7298 4.2370 -16.3511 6.5970
# 2 -7.7005 87.2406 32.0421 8.2231 -15.8993 -0.3430
# 3 39.7298 32.0421 145.8642 -16.9987 -18.3672 -8.9633
# 4 4.2370 8.2231 -16.9987 27.5208 1.4762 -0.3927
# 5 -16.3511 -15.8993 -18.3672 1.4762 27.7100 6.4217
# 6 6.5970 -0.3430 -8.9633 -0.3927 6.4217 18.7797
#
#
#
# Elastic Compliance Matrix: (Units=1/GPa)
#
#
# Indices 1 2 3 4 5 6 
#
# 1 -0.102573 -0.043553 0.039116 0.058550 -0.081980 0.083164
# 2 -0.043553 -0.003799 0.013275 0.017950 -0.027283 0.031271
# 3 0.039116 0.013275 -0.006018 -0.015942 0.034135 -0.028377
# 4 0.058550 0.017950 -0.015942 0.009162 0.043663 -0.042588
# 5 -0.081980 -0.027283 0.034135 0.043663 -0.019752 0.052259
# 6 0.083164 0.031271 -0.028377 -0.042588 0.052259 -0.007699
#
#
# Mechanical properties :
#
#
# Convention : Reuss Voigt Hill
#
# Bulk Modulus (GPa) = -10.55823 43.41722 16.42949
# Shear Modulus (GPa) = -27.78911 28.03815 0.12452
#
# Velocity S-wave (km/s) = -3.60626 3.62238 0.24140
# Velocity P-wave (km/s) = 4.72031 6.14935 2.78686
#
# Compressibility (1/GPa) = -0.09471281
#
# Stress axis : x y z
#
# Youngs Moduli (GPa) = -9.74915 -263.24523 -166.16516
#
# Poissons Ratio (x) = -11.46515 6.49980
# Poissons Ratio (y) = -0.42461 2.20587
# Poissons Ratio (z) = 0.38135 3.49462
#
# Static dielectric constant tensor:
#      x y z
#    x 1.798360 -0.014210 0.044180 
#    y -0.014210 1.784890 -0.005770 
#    z 0.044180 -0.005770 1.795260 
# 
# From -- ./inp_files/599607.got.cif
#   From: 2010.05.17/outbox.ucp.g08.bks.cvg/sg2_300_cif.got.tgz:599607.got - 2010.06.11 11:32:03.
