data_PCOD9074142
_publ_section_title
;
Structure prediction by ZEFSAII (Michael W. Deem and Ramdas Pophale) SiO2 
 PCOD9074142
Probable space group: P -1
;
_chemical_formula_sum "Si O2"
_cell_formula_units_Z 16
_cell_length_a 15.000000
_cell_length_b 9.000000
_cell_length_c 27.000000
_cell_angle_alpha 140.000000
_cell_angle_beta 160.000000
_cell_angle_gamma 50.000000
_cell_volume 750.501489
_symmetry_space_group_name_H-M "P -1"
_symmetry_group_IT_number 2
_symmetry_cell_setting 'triclinic'
loop_
_space_group_symop_operation_xyz
x,y,z
-x,-y,-z
loop_
_atom_site_type_symbol
_atom_site_label
_atom_site_fract_x
_atom_site_fract_y
_atom_site_fract_z
Si Si1 0.952732 0.120690 0.769515
Si Si2 0.696360 0.366654 0.328293
Si Si3 0.512123 0.639745 0.623970
Si Si4 0.652466 0.552674 0.015601
Si Si5 0.482826 0.710030 0.369349
Si Si6 0.329320 0.917142 0.968537
Si Si7 0.064199 0.390148 0.241145
Si Si8 0.298797 0.985503 0.666843
O O1 0.793951 0.216939 0.753682
O O2 0.727126 0.972799 0.573098
O O3 0.100641 0.929339 0.813511
O O4 0.190430 0.348603 0.928037
O O5 0.549219 0.555674 0.319817
O O6 0.000000 0.500000 0.500000
O O7 0.721760 0.194700 0.343339
O O8 0.538405 0.190554 0.156234
O O9 0.519998 0.455477 0.625511
O O10 0.279071 0.507428 0.427415
O O11 0.793127 0.685363 0.750805
O O12 0.440672 0.867858 0.668312
O O13 0.474892 0.721535 0.981308
O O14 0.476519 0.265919 0.845238
O O15 0.900100 0.572134 0.188092
O O16 0.166109 0.847061 0.916822
O O17 0.000000 0.000000 0.500000
#
# Coordination Sequence:
#
# PCOD9074142 Si02
#       8
#     2   2   2   2   2   2   2   2
#     4  11  24  43  68  93 128 175 215 263 324 379
#     4  11  26  45  65  95 131 170 213 270 322 379
#     4  10  22  42  70  95 130 168 213 267 321 384
#     4  12  25  42  67  97 130 172 219 262 320 387
#     4  10  22  45  67  95 131 169 216 262 322 386
#     4  12  25  42  65  97 132 170 217 270 313 382
#     4  11  22  42  66  98 128 166 216 264 320 377
#     4  11  26  43  66  95 132 170 212 267 325 381
#
# _framework density 21.319078000000001
#
# number of rings (size 3 to 8) (size 9 to 14) (size 15 to 20)
#    0.000    1.000    3.750    2.250    5.250    2.000 
#    2.250    0.000    0.000    0.000    0.000    0.000 
#    0.000    0.000    0.000    0.000    0.000    0.000 
#
# Total GULP energy -89356.044590 kJ/mol
# GULP energy per Si atom -5584.752787 kJ/mol
# Density = 2.127056 g / cm^3
# Si number density = 21.319078 Si / 1000 Ang^3
#
#
#
# Elastic Constant Matrix: (Units=GPa)
#
#
# Indices 1 2 3 4 5 6 
#
# 1 80.2215 22.0509 40.8478 11.8684 18.8395 -26.0873
# 2 22.0509 95.6604 26.1535 -4.8740 14.1527 -34.0663
# 3 40.8478 26.1535 78.7015 5.3850 23.7366 -13.5459
# 4 11.8684 -4.8740 5.3850 41.6939 -0.6473 -5.8913
# 5 18.8395 14.1527 23.7366 -0.6473 29.9041 2.3267
# 6 -26.0873 -34.0663 -13.5459 -5.8913 2.3267 46.9571
#
#
#
# Elastic Compliance Matrix: (Units=1/GPa)
#
#
# Indices 1 2 3 4 5 6 
#
# 1 0.022350 0.002555 -0.006758 -0.003607 -0.010969 0.012412
# 2 0.002555 0.016893 -0.002059 0.003345 -0.008983 0.013946
# 3 -0.006758 -0.002059 0.020522 -0.000985 -0.011165 0.001102
# 4 -0.003607 0.003345 -0.000985 0.026025 0.001777 0.003315
# 5 -0.010969 -0.008983 -0.011165 0.001777 0.054929 -0.018330
# 6 0.012412 0.013946 0.001102 0.003315 -0.018330 0.039951
#
#
# Mechanical properties :
#
#
# Convention : Reuss Voigt Hill
#
# Bulk Modulus (GPa) = 21.16780 48.07640 34.62210
# Shear Modulus (GPa) = 23.93004 34.74644 29.33824
#
# Velocity S-wave (km/s) = 3.35396 4.04149 3.71367
# Velocity P-wave (km/s) = 4.99493 6.66169 5.88759
#
# Compressibility (1/GPa) = 0.04724156
#
# Stress axis : x y z
#
# Youngs Moduli (GPa) = 44.74264 59.19453 48.72750
#
# Poissons Ratio (x) = -0.15122 0.32928
# Poissons Ratio (y) = -0.11430 0.10034
# Poissons Ratio (z) = 0.30235 0.12189
#
# Static dielectric constant tensor:
#      x y z
#    x 1.780930 0.058920 0.014360 
#    y 0.058920 1.763750 -0.034280 
#    z 0.014360 -0.034280 1.857770 
# 
# From -- ./inp_files/175304.got.cif
#   From: 2010.05.17/outbox.ucp.g08.bks.cvg/sg2_88_cif.got.tgz:175304.got - 2010.06.11 11:32:03.
