data_PCOD9074578
_publ_section_title
;
Structure prediction by ZEFSAII (Michael W. Deem and Ramdas Pophale) SiO2 
 PCOD9074578
Probable space group: P -1
;
_chemical_formula_sum "Si O2"
_cell_formula_units_Z 16
_cell_length_a 11.696801
_cell_length_b 10.922252
_cell_length_c 15.173377
_cell_angle_alpha 39.487910
_cell_angle_beta 50.358487
_cell_angle_gamma 80.365397
_cell_volume 710.040204
_symmetry_space_group_name_H-M "P -1"
_symmetry_group_IT_number 2
_symmetry_cell_setting 'triclinic'
loop_
_space_group_symop_operation_xyz
x,y,z
-x,-y,-z
loop_
_atom_site_type_symbol
_atom_site_label
_atom_site_fract_x
_atom_site_fract_y
_atom_site_fract_z
Si Si1 0.801706 0.563712 0.168252
Si Si2 0.883835 0.893949 0.319249
Si Si3 0.271555 0.839421 0.676936
Si Si4 0.919769 0.732559 0.572605
Si Si5 0.617229 0.721015 0.391842
Si Si6 0.875779 0.301508 0.928021
Si Si7 0.695701 0.749373 0.839067
Si Si8 0.486370 0.781209 0.785932
O O1 0.829526 0.452468 0.129901
O O2 0.568552 0.356251 0.418370
O O3 0.929524 0.587949 0.173734
O O4 0.886501 0.852346 0.952771
O O5 0.850194 0.730298 0.510514
O O6 0.762433 0.733017 0.381112
O O7 0.808919 0.047671 0.293357
O O8 0.500000 0.000000 0.500000
O O9 0.308704 0.957628 0.494951
O O10 0.917854 0.504468 0.723681
O O11 0.804581 0.745264 0.702003
O O12 0.141119 0.009337 0.317348
O O13 0.500000 0.500000 0.500000
O O14 0.758386 0.007621 0.121707
O O15 0.710069 0.259020 0.096618
O O16 0.540116 0.767536 0.866743
O O17 0.575621 0.467968 0.095227
#
# Coordination Sequence:
#
# PCOD9074578 Si02
#       8
#     2   2   2   2   2   2   2   2
#     4  11  23  41  62  91 125 163 200 254 312 369
#     4  11  24  38  60  98 128 163 199 251 310 370
#     4  12  20  33  56  90 134 162 197 242 301 370
#     4  10  20  35  55  90 131 160 206 240 303 368
#     4  11  25  48  69  85 113 162 218 265 309 357
#     4  10  22  39  63  92 119 164 210 248 303 369
#     4   9  19  30  52  82 129 179 189 231 287 369
#     4  10  18  32  51  85 127 169 205 224 287 365
#
# _framework density 22.533935
#
# number of rings (size 3 to 8) (size 9 to 14) (size 15 to 20)
#    0.000    1.500    3.750    1.875    5.250    2.000 
#    0.000    0.625    0.000    1.500    0.000    0.000 
#    0.000    0.000    0.000    0.000    0.000    0.000 
#
# Total GULP energy -89246.331085 kJ/mol
# GULP energy per Si atom -5577.895693 kJ/mol
# Density = 2.248265 g / cm^3
# Si number density = 22.533935 Si / 1000 Ang^3
#
#
#
# Elastic Constant Matrix: (Units=GPa)
#
#
# Indices 1 2 3 4 5 6 
#
# 1 91.1783 6.8286 31.5792 -15.3015 19.3387 22.5115
# 2 6.8286 56.5419 13.8750 -22.6425 3.0422 30.2540
# 3 31.5792 13.8750 85.9511 -25.7369 5.0425 18.1091
# 4 -15.3015 -22.6425 -25.7369 29.7894 3.1413 -16.2565
# 5 19.3387 3.0422 5.0425 3.1413 46.6131 -1.9053
# 6 22.5115 30.2540 18.1091 -16.2565 -1.9053 26.2856
#
#
#
# Elastic Compliance Matrix: (Units=1/GPa)
#
#
# Indices 1 2 3 4 5 6 
#
# 1 0.026010 0.028205 0.000097 0.009031 -0.015308 -0.050331
# 2 0.028205 0.085079 0.009693 0.028532 -0.024841 -0.112912
# 3 0.000097 0.009693 0.017960 0.015590 -0.004250 -0.014279
# 4 0.009031 0.028532 0.015590 0.069699 -0.012365 -0.009105
# 5 -0.015308 -0.024841 -0.004250 -0.012365 0.032326 0.039326
# 6 -0.050331 -0.112912 -0.014279 -0.009105 0.039326 0.218164
#
#
# Mechanical properties :
#
#
# Convention : Reuss Voigt Hill
#
# Bulk Modulus (GPa) = 4.87707 37.58189 21.22948
# Shear Modulus (GPa) = 11.32260 32.63021 21.97641
#
# Velocity S-wave (km/s) = 2.24401 3.80945 3.12630
# Velocity P-wave (km/s) = 2.98046 6.00527 4.74059
#
# Compressibility (1/GPa) = 0.20504118
#
# Stress axis : x y z
#
# Youngs Moduli (GPa) = 38.44624 11.75372 55.67831
#
# Poissons Ratio (x) = -0.33152 -0.00539
# Poissons Ratio (y) = -1.08439 -0.53971
# Poissons Ratio (z) = -0.00372 -0.11393
#
# Static dielectric constant tensor:
#      x y z
#    x 1.962730 0.007760 0.113580 
#    y 0.007760 1.907080 0.076570 
#    z 0.113580 0.076570 2.099300 
# 
# From -- ./inp_files/519529.got.cif
#   From: 2010.05.17/outbox.cif.g08.bks.cpg/sg2_260_cif.got.tgz:519529.got - 2010.06.03 11:33:40.
