data_PCOD9074706
_publ_section_title
;
Structure prediction by ZEFSAII (Michael W. Deem and Ramdas Pophale) SiO2 
 PCOD9074706
Probable space group: P -1
;
_chemical_formula_sum "Si O2"
_cell_formula_units_Z 16
_cell_length_a 21.000000
_cell_length_b 12.000000
_cell_length_c 9.000000
_cell_angle_alpha 40.000000
_cell_angle_beta 130.000000
_cell_angle_gamma 150.000000
_cell_volume 727.418465
_symmetry_space_group_name_H-M "P -1"
_symmetry_group_IT_number 2
_symmetry_cell_setting 'triclinic'
loop_
_space_group_symop_operation_xyz
x,y,z
-x,-y,-z
loop_
_atom_site_type_symbol
_atom_site_label
_atom_site_fract_x
_atom_site_fract_y
_atom_site_fract_z
Si Si1 0.900453 0.150348 0.499154
Si Si2 0.492502 0.303050 0.791234
Si Si3 0.337943 0.417029 0.766728
Si Si4 0.143026 0.234169 0.401496
Si Si5 0.242411 0.321055 0.046528
Si Si6 0.181187 0.582311 0.597935
Si Si7 0.613561 0.893853 0.819709
Si Si8 0.754948 0.253304 0.136807
O O1 0.836656 0.212130 0.257851
O O2 0.046493 0.420259 0.487041
O O3 0.874845 0.943431 0.567436
O O4 0.827786 0.968202 0.724768
O O5 0.500000 0.500000 0.500000
O O6 0.639027 0.477204 0.864602
O O7 0.393227 0.021558 0.844001
O O8 0.437781 0.197240 0.990486
O O9 0.253652 0.359649 0.562459
O O10 0.492526 0.691192 0.729144
O O11 0.296946 0.421334 0.860184
O O12 0.313923 0.174304 0.998947
O O13 0.187626 0.485757 0.129508
O O14 0.000000 0.000000 0.500000
O O15 0.152545 0.344963 0.868661
O O16 0.229440 0.734049 0.673138
O O17 0.290983 0.806873 0.409208
#
# Coordination Sequence:
#
# PCOD9074706 Si02
#       8
#     2   2   2   2   2   2   2   2
#     4  12  26  50  72 101 149 186 241 296 356 421
#     4  11  25  46  74 106 145 183 241 296 358 421
#     4  10  24  45  70  98 145 178 243 289 356 418
#     4  12  29  46  73 108 146 190 238 299 353 427
#     4  11  24  45  72 100 144 190 228 302 352 417
#     4  12  27  44  73 103 142 188 246 287 354 434
#     4  10  25  44  72 103 136 194 233 291 359 423
#     4  12  28  46  75 107 139 196 240 289 365 423
#
# _framework density 21.995591999999998
#
# number of rings (size 3 to 8) (size 9 to 14) (size 15 to 20)
#    0.000    0.750    2.500    3.000   12.250    2.000 
#    0.000    0.000    0.000    0.000    0.000    0.000 
#    0.000    0.000    0.000    0.000    0.000    0.000 
#
# Total GULP energy -89081.098279 kJ/mol
# GULP energy per Si atom -5567.568642 kJ/mol
# Density = 2.194553 g / cm^3
# Si number density = 21.995592 Si / 1000 Ang^3
#
#
#
# Elastic Constant Matrix: (Units=GPa)
#
#
# Indices 1 2 3 4 5 6 
#
# 1 22.8106 17.7766 34.6126 0.6763 -4.4630 -2.6227
# 2 17.7766 147.0453 51.6653 11.1399 -15.1299 9.0204
# 3 34.6126 51.6653 185.3023 -6.0807 -8.0753 8.2882
# 4 0.6763 11.1399 -6.0807 48.9735 7.3659 -2.4436
# 5 -4.4630 -15.1299 -8.0753 7.3659 28.2728 -0.6142
# 6 -2.6227 9.0204 8.2882 -2.4436 -0.6142 33.4117
#
#
#
# Elastic Compliance Matrix: (Units=1/GPa)
#
#
# Indices 1 2 3 4 5 6 
#
# 1 0.066662 -0.003786 -0.011610 -0.001931 0.005881 0.009102
# 2 -0.003786 0.008580 -0.001486 -0.002843 0.004258 -0.002375
# 3 -0.011610 -0.001486 0.008104 0.001497 -0.000756 -0.002425
# 4 -0.001931 -0.002843 0.001497 0.022450 -0.007209 0.001754
# 5 0.005881 0.004258 -0.000756 -0.007209 0.040233 -0.000288
# 6 0.009102 -0.002375 -0.002425 0.001754 -0.000288 0.032010
#
#
# Mechanical properties :
#
#
# Convention : Reuss Voigt Hill
#
# Bulk Modulus (GPa) = 20.16959 62.58524 41.37742
# Shear Modulus (GPa) = 21.89803 38.87185 30.38494
#
# Velocity S-wave (km/s) = 3.15868 4.20844 3.72077
# Velocity P-wave (km/s) = 4.74265 7.22010 6.10830
#
# Compressibility (1/GPa) = 0.04957959
#
# Stress axis : x y z
#
# Youngs Moduli (GPa) = 15.00116 116.55264 123.39088
#
# Poissons Ratio (x) = 0.44132 1.43259
# Poissons Ratio (y) = 0.05680 0.18341
# Poissons Ratio (z) = 0.17417 0.17325
#
# Static dielectric constant tensor:
#      x y z
#    x 2.083720 -0.018990 0.031150 
#    y -0.018990 1.773620 -0.007930 
#    z 0.031150 -0.007930 1.783430 
# 
# From -- ./inp_files/345889.got.cif
#   From: 2010.05.17/outbox.ucp.g08.bks.cvg/sg2_173_cif.got.tgz:345889.got - 2010.06.11 11:32:03.
