data_PCOD9074433
_publ_section_title
;
Structure prediction by ZEFSAII (Michael W. Deem and Ramdas Pophale) SiO2 
 PCOD9074433
Probable space group: P -1
;
_chemical_formula_sum "Si O2"
_cell_formula_units_Z 12
_cell_length_a 9.000000
_cell_length_b 9.000000
_cell_length_c 15.000000
_cell_angle_alpha 70.000000
_cell_angle_beta 60.000000
_cell_angle_gamma 30.000000
_cell_volume 514.363264
_symmetry_space_group_name_H-M "P -1"
_symmetry_group_IT_number 2
_symmetry_cell_setting 'triclinic'
loop_
_space_group_symop_operation_xyz
x,y,z
-x,-y,-z
loop_
_atom_site_type_symbol
_atom_site_label
_atom_site_fract_x
_atom_site_fract_y
_atom_site_fract_z
Si Si1 0.350798 0.189354 0.782725
Si Si2 0.318042 0.381535 0.141702
Si Si3 0.367207 0.793531 0.431133
Si Si4 0.503670 0.604256 0.621547
Si Si5 0.134968 0.804170 0.234741
Si Si6 0.466379 0.209370 0.934676
O O1 0.617186 0.065010 0.665242
O O2 0.292251 0.326259 0.866508
O O3 0.016485 0.451368 0.774367
O O4 0.414130 0.956435 0.837325
O O5 0.297564 0.559684 0.164796
O O6 0.332570 0.394004 0.027735
O O7 0.513019 0.697658 0.507419
O O8 0.597285 0.484695 0.373953
O O9 0.000000 0.000000 0.500000
O O10 0.780287 0.327256 0.664484
O O11 0.256039 0.882678 0.706534
O O12 0.243265 0.898655 0.159717
O O13 0.500000 0.000000 0.000000
#
# Coordination Sequence:
#
# PCOD9074433 Si02
#       6
#     2   2   2   2   2   2
#     4  11  24  43  69  97 132 170 227 275 312 386
#     4  11  26  43  64  98 139 176 212 266 336 388
#     4  11  23  42  72 102 124 169 228 277 322 378
#     4  11  24  39  71  96 128 169 223 266 330 383
#     4  12  24  45  65  99 138 174 210 270 335 393
#     4  10  23  42  71  98 129 174 227 268 315 385
#
# _framework density 23.329815
#
# number of rings (size 3 to 8) (size 9 to 14) (size 15 to 20)
#    0.000    1.000    3.333    2.000    9.333    2.667 
#    0.000   10.833    0.000    0.000    0.000    0.000 
#    0.000    0.000    0.000    0.000    0.000    0.000 
#
# Total GULP energy -66814.272861 kJ/mol
# GULP energy per Si atom -5567.856072 kJ/mol
# Density = 2.327672 g / cm^3
# Si number density = 23.329815 Si / 1000 Ang^3
#
#
#
# Elastic Constant Matrix: (Units=GPa)
#
#
# Indices 1 2 3 4 5 6 
#
# 1 55.7888 3.3562 37.3515 -8.1882 27.1076 12.6709
# 2 3.3562 67.6318 33.1786 -6.3506 8.8266 7.2106
# 3 37.3515 33.1786 113.8219 -14.1934 2.1488 3.3622
# 4 -8.1882 -6.3506 -14.1934 31.9476 14.1019 6.4315
# 5 27.1076 8.8266 2.1488 14.1019 30.3012 10.8362
# 6 12.6709 7.2106 3.3622 6.4315 10.8362 35.3315
#
#
#
# Elastic Compliance Matrix: (Units=1/GPa)
#
#
# Indices 1 2 3 4 5 6 
#
# 1 0.466120 0.167504 -0.142230 0.369731 -0.602633 -0.070289
# 2 0.167504 0.078820 -0.055721 0.137904 -0.223203 -0.027502
# 3 -0.142230 -0.055721 0.054137 -0.108263 0.182522 0.020955
# 4 0.369731 0.137904 -0.108263 0.337632 -0.499382 -0.058737
# 5 -0.602633 -0.223203 0.182522 -0.499382 0.827487 0.081417
# 6 -0.070289 -0.027502 0.020955 -0.058737 0.081417 0.042851
#
#
# Mechanical properties :
#
#
# Convention : Reuss Voigt Hill
#
# Bulk Modulus (GPa) = 1.85810 42.77946 22.31878
# Shear Modulus (GPa) = 2.44220 30.40646 16.42433
#
# Velocity S-wave (km/s) = 1.02425 3.61408 2.65619
# Velocity P-wave (km/s) = 1.48221 5.98265 4.35827
#
# Compressibility (1/GPa) = 0.53818466
#
# Stress axis : x y z
#
# Youngs Moduli (GPa) = 2.14537 12.68708 18.47173
#
# Poissons Ratio (x) = -2.12514 2.62723
# Poissons Ratio (y) = -0.35936 1.02926
# Poissons Ratio (z) = 0.30513 0.70694
#
# Static dielectric constant tensor:
#      x y z
#    x 1.876400 -0.013820 -0.008840 
#    y -0.013820 1.999120 0.025980 
#    z -0.008840 0.025980 1.880880 
# 
# From -- ./inp_files/24936.got.cif
#   From: 2010.05.17/outbox.ucp.g08.bks.cvg/sg2_13_cif.got.tgz:24936.got - 2010.06.11 11:32:03.
