data_PCOD9074178
_publ_section_title
;
Structure prediction by ZEFSAII (Michael W. Deem and Ramdas Pophale) SiO2 
 PCOD9074178
Probable space group: P -1
;
_chemical_formula_sum "Si O2"
_cell_formula_units_Z 16
_cell_length_a 21.000000
_cell_length_b 6.000000
_cell_length_c 9.000000
_cell_angle_alpha 60.000000
_cell_angle_beta 50.000000
_cell_angle_gamma 60.000000
_cell_volume 724.534506
_symmetry_space_group_name_H-M "P -1"
_symmetry_group_IT_number 2
_symmetry_cell_setting 'triclinic'
loop_
_space_group_symop_operation_xyz
x,y,z
-x,-y,-z
loop_
_atom_site_type_symbol
_atom_site_label
_atom_site_fract_x
_atom_site_fract_y
_atom_site_fract_z
Si Si1 0.586040 0.262540 0.941331
Si Si2 0.897090 0.552774 0.115954
Si Si3 0.294168 0.541127 0.093939
Si Si4 0.565416 0.725189 0.277526
Si Si5 0.791288 0.835064 0.465948
Si Si6 0.075121 0.994592 0.609939
Si Si7 0.117375 0.950964 0.212440
Si Si8 0.378236 0.716830 0.461328
O O1 0.668051 0.320688 0.875602
O O2 0.601575 0.225253 0.756334
O O3 0.500000 0.500000 0.000000
O O4 0.571655 0.016672 0.135090
O O5 0.837896 0.697742 0.292726
O O6 0.891927 0.250520 0.241077
O O7 0.000000 0.500000 0.000000
O O8 0.876043 0.751775 0.940876
O O9 0.266884 0.305977 0.299201
O O10 0.205368 0.739030 0.101680
O O11 0.371557 0.449986 0.887549
O O12 0.462051 0.754590 0.414066
O O13 0.608626 0.592983 0.410126
O O14 0.872726 0.814655 0.461830
O O15 0.719524 0.104723 0.429608
O O16 0.105618 0.924005 0.417110
O O17 0.970645 0.081271 0.724218
#
# Coordination Sequence:
#
# PCOD9074178 Si02
#       8
#     2   2   2   2   2   2   2   2
#     4  12  24  44  68  95 135 178 210 271 328 380
#     4  10  23  44  64  95 130 168 219 272 325 383
#     4  12  24  43  67  98 133 173 222 263 329 388
#     4  11  25  46  66 101 134 168 220 271 322 390
#     4  12  24  43  70  95 132 178 217 269 325 392
#     4  10  23  45  64  95 131 171 219 268 330 380
#     4  10  22  43  66  94 132 168 217 276 319 389
#     4  11  24  45  69  99 133 171 221 268 323 389
#
# _framework density 22.083144000000001
#
# number of rings (size 3 to 8) (size 9 to 14) (size 15 to 20)
#    0.000    1.000    3.750    2.625    0.000    4.000 
#    4.500    0.000    0.000    0.000    0.000    0.000 
#    0.000    0.000    0.000    0.000    0.000    0.000 
#
# Total GULP energy -89211.492987 kJ/mol
# GULP energy per Si atom -5575.718312 kJ/mol
# Density = 2.203288 g / cm^3
# Si number density = 22.083144 Si / 1000 Ang^3
#
#
#
# Elastic Constant Matrix: (Units=GPa)
#
#
# Indices 1 2 3 4 5 6 
#
# 1 92.7388 22.8731 -2.2151 -8.4009 -18.6292 -30.0721
# 2 22.8731 63.9722 1.5789 -14.9148 -7.3157 -47.7623
# 3 -2.2151 1.5789 64.1794 -22.3253 -9.5270 -20.1434
# 4 -8.4009 -14.9148 -22.3253 45.7334 -29.6493 -1.3440
# 5 -18.6292 -7.3157 -9.5270 -29.6493 5.1152 1.9971
# 6 -30.0721 -47.7623 -20.1434 -1.3440 1.9971 33.7942
#
#
#
# Elastic Compliance Matrix: (Units=1/GPa)
#
#
# Indices 1 2 3 4 5 6 
#
# 1 0.010289 -0.006436 -0.002518 -0.005127 -0.005631 -0.001313
# 2 -0.006436 0.179058 0.023909 -0.068063 -0.223573 0.272097
# 3 -0.002518 0.023909 0.016145 -0.014945 -0.048492 0.043446
# 4 -0.005127 -0.068063 -0.014945 0.027823 0.061218 -0.112177
# 5 -0.005631 -0.223573 -0.048492 0.061218 0.261454 -0.362913
# 6 -0.001313 0.272097 0.043446 -0.112177 -0.362913 0.455867
#
#
# Mechanical properties :
#
#
# Convention : Reuss Voigt Hill
#
# Bulk Modulus (GPa) = 4.24807 29.48492 16.86649
# Shear Modulus (GPa) = 5.00403 30.17212 17.58808
#
# Velocity S-wave (km/s) = 1.50696 3.70035 2.82520
# Velocity P-wave (km/s) = 2.22615 5.62473 4.27746
#
# Compressibility (1/GPa) = 0.23540114
#
# Stress axis : x y z
#
# Youngs Moduli (GPa) = 97.19186 5.58479 61.93801
#
# Poissons Ratio (x) = 0.03595 0.15597
# Poissons Ratio (y) = 0.62556 -1.48089
# Poissons Ratio (z) = 0.24474 -0.13353
#
# Static dielectric constant tensor:
#      x y z
#    x 1.758830 0.066650 -0.125290 
#    y 0.066650 1.937830 -0.082200 
#    z -0.125290 -0.082200 1.713460 
# 
# From -- ./inp_files/52362.got.cif
#   From: 2010.05.17/outbox.ucp.g08.bks.cvg/sg2_27_cif.got.tgz:52362.got - 2010.06.11 11:32:03.
