data_PCOD9074925
_publ_section_title
;
Structure prediction by ZEFSAII (Michael W. Deem and Ramdas Pophale) SiO2 
 PCOD9074925
Probable space group: P -1
;
_chemical_formula_sum "Si O2"
_cell_formula_units_Z 14
_cell_length_a 12.000000
_cell_length_b 30.000000
_cell_length_c 30.000000
_cell_angle_alpha 10.000000
_cell_angle_beta 20.000000
_cell_angle_gamma 20.000000
_cell_volume 622.618477
_symmetry_space_group_name_H-M "P -1"
_symmetry_group_IT_number 2
_symmetry_cell_setting 'triclinic'
loop_
_space_group_symop_operation_xyz
x,y,z
-x,-y,-z
loop_
_atom_site_type_symbol
_atom_site_label
_atom_site_fract_x
_atom_site_fract_y
_atom_site_fract_z
Si Si1 0.912059 0.108327 0.681826
Si Si2 0.573135 0.433838 0.374921
Si Si3 0.107406 0.023322 0.789459
Si Si4 0.815525 0.601071 0.360114
Si Si5 0.770662 0.795930 0.795164
Si Si6 0.380992 0.946006 0.887395
Si Si7 0.852012 0.489831 0.854442
O O1 0.553269 0.313119 0.607164
O O2 0.921859 0.025967 0.810294
O O3 0.167796 0.295562 0.389652
O O4 0.980874 0.822201 0.912389
O O5 0.260026 0.461705 0.499052
O O6 0.910612 0.392857 0.316875
O O7 0.530924 0.196246 0.594371
O O8 0.559298 0.695410 0.095748
O O9 0.057731 0.331709 0.516803
O O10 0.487512 0.860625 0.799744
O O11 0.943023 0.863112 0.045072
O O12 0.528782 0.864074 0.862693
O O13 0.000000 0.000000 0.500000
O O14 0.000000 0.500000 0.000000
O O15 0.000000 0.000000 0.000000
O O16 0.500000 0.500000 0.000000
#
# Coordination Sequence:
#
# PCOD9074925 Si02
#       7
#     2   2   2   2   2   2   2
#     4  11  23  40  65  99 130 171 221 273 341 416
#     4  11  23  41  67  98 131 170 221 286 336 389
#     4  12  24  42  67  93 133 180 215 274 343 410
#     4  11  21  40  66 101 132 164 218 283 343 404
#     4  12  28  48  67 100 140 180 231 286 340 407
#     4  12  25  45  73 101 130 179 235 284 340 403
#     4  11  24  42  63  94 134 176 222 272 333 417
#
# _framework density 22.485679999999999
#
# number of rings (size 3 to 8) (size 9 to 14) (size 15 to 20)
#    0.000    0.571    0.000   10.286    0.000    3.429 
#    0.000    0.000    0.000    0.000    0.000    0.000 
#    0.000    0.000    0.000    0.000    0.000    0.000 
#
# Total GULP energy -78094.330866 kJ/mol
# GULP energy per Si atom -5578.166490 kJ/mol
# Density = 2.243450 g / cm^3
# Si number density = 22.485680 Si / 1000 Ang^3
#
#
#
# Elastic Constant Matrix: (Units=GPa)
#
#
# Indices 1 2 3 4 5 6 
#
# 1 60.6436 24.5836 49.7433 -1.9406 7.8746 9.0573
# 2 24.5836 106.6638 13.2407 -10.7428 -0.9680 -2.8192
# 3 49.7433 13.2407 267.3589 -12.7050 28.1622 8.9064
# 4 -1.9406 -10.7428 -12.7050 55.8957 12.8456 1.7589
# 5 7.8746 -0.9680 28.1622 12.8456 27.3394 -1.6741
# 6 9.0573 -2.8192 8.9064 1.7589 -1.6741 25.8048
#
#
#
# Elastic Compliance Matrix: (Units=1/GPa)
#
#
# Indices 1 2 3 4 5 6 
#
# 1 0.022967 -0.005098 -0.003340 0.000204 -0.003925 -0.007734
# 2 -0.005098 0.010762 0.000303 0.001658 0.000931 0.002808
# 3 -0.003340 0.000303 0.005066 0.002374 -0.005426 -0.001057
# 4 0.000204 0.001658 0.002374 0.021811 -0.012879 -0.003032
# 5 -0.003925 0.000931 -0.005426 -0.012879 0.049839 0.007463
# 6 -0.007734 0.002808 -0.001057 -0.003032 0.007463 0.042830
#
#
# Mechanical properties :
#
#
# Convention : Reuss Voigt Hill
#
# Bulk Modulus (GPa) = 44.39504 67.75574 56.07539
# Shear Modulus (GPa) = 28.23980 44.94789 36.59385
#
# Velocity S-wave (km/s) = 3.54771 4.47582 4.03852
# Velocity P-wave (km/s) = 6.04717 7.54380 6.83656
#
# Compressibility (1/GPa) = 0.02252504
#
# Stress axis : x y z
#
# Youngs Moduli (GPa) = 43.53980 92.91617 197.38192
#
# Poissons Ratio (x) = 0.47372 0.65925
# Poissons Ratio (y) = 0.22198 -0.05977
# Poissons Ratio (z) = 0.14542 -0.02814
#
# Static dielectric constant tensor:
#      x y z
#    x 2.021440 -0.029930 -0.013540 
#    y -0.029930 1.832360 0.017380 
#    z -0.013540 0.017380 1.811650 
# 
# From -- ./inp_files/533786.got.cif
#   From: 2010.05.17/outbox.ucp.g08.bks.cvg/sg2_267_cif.got.tgz:533786.got - 2010.06.11 11:32:03.
