data_PCOD9074586
_publ_section_title
;
Structure prediction by ZEFSAII (Michael W. Deem and Ramdas Pophale) SiO2 
 PCOD9074586
Probable space group: P -1
;
_chemical_formula_sum "Si O2"
_cell_formula_units_Z 16
_cell_length_a 13.805160
_cell_length_b 8.554705
_cell_length_c 6.934457
_cell_angle_alpha 76.829849
_cell_angle_beta 57.356072
_cell_angle_gamma 105.531188
_cell_volume 590.329661
_symmetry_space_group_name_H-M "P -1"
_symmetry_group_IT_number 2
_symmetry_cell_setting 'triclinic'
loop_
_space_group_symop_operation_xyz
x,y,z
-x,-y,-z
loop_
_atom_site_type_symbol
_atom_site_label
_atom_site_fract_x
_atom_site_fract_y
_atom_site_fract_z
Si Si1 0.860297 0.553215 0.321976
Si Si2 0.049187 0.427995 0.211915
Si Si3 0.144833 0.172191 0.291638
Si Si4 0.209056 0.150635 0.793833
Si Si5 0.486294 0.026036 0.279643
Si Si6 0.197732 0.932015 0.563743
Si Si7 0.486439 0.627604 0.707985
Si Si8 0.560157 0.333482 0.690923
O O1 0.981980 0.552092 0.303732
O O2 0.865005 0.748031 0.247946
O O3 0.709699 0.418967 0.581045
O O4 0.879212 0.506999 0.090622
O O5 0.915945 0.239628 0.367743
O O6 0.137003 0.360836 0.258905
O O7 0.218637 0.116633 0.384878
O O8 0.197924 0.164144 0.027431
O O9 0.000000 0.000000 0.500000
O O10 0.360623 0.250563 0.544251
O O11 0.156067 0.950920 0.819277
O O12 0.544509 0.246299 0.147067
O O13 0.500000 0.000000 0.500000
O O14 0.333313 0.933279 0.425279
O O15 0.523164 0.888601 0.161926
O O16 0.481207 0.436790 0.824614
O O17 0.418309 0.609904 0.578631
#
# Coordination Sequence:
#
# PCOD9074586 Si02
#       8
#     2   2   2   2   2   2   2   2
#     4   9  16  27  46  71  99 128 167 207 249 303
#     4   9  17  29  45  73 100 128 173 204 243 313
#     4   9  19  31  48  73 102 133 168 204 254 307
#     4   9  18  32  50  75 101 126 171 215 244 309
#     4   9  16  27  47  76  98 126 175 209 245 312
#     4  10  18  32  52  72 100 135 164 209 259 296
#     4   8  16  26  45  75  97 124 173 206 250 313
#     4   9  14  26  45  71 101 131 160 213 261 289
#
# _framework density 27.103501000000001
#
# number of rings (size 3 to 8) (size 9 to 14) (size 15 to 20)
#    0.000    3.000    1.250    0.000    0.000    4.500 
#    0.000    0.625    0.000   11.250    0.000  120.750 
#    0.000    0.000    0.000    0.000    0.000    0.000 
#
# Total GULP energy -89423.693863 kJ/mol
# GULP energy per Si atom -5588.980866 kJ/mol
# Density = 2.704181 g / cm^3
# Si number density = 27.103501 Si / 1000 Ang^3
#
#
#
# Elastic Constant Matrix: (Units=GPa)
#
#
# Indices 1 2 3 4 5 6 
#
# 1 121.5122 6.9666 23.9044 -14.0107 5.0678 -30.9470
# 2 6.9666 167.1220 23.1778 13.0456 6.2595 -17.9811
# 3 23.9044 23.1778 97.1949 -3.3624 -4.1971 -8.7011
# 4 -14.0107 13.0456 -3.3624 34.0340 0.8011 0.5136
# 5 5.0678 6.2595 -4.1971 0.8011 20.9020 -1.4156
# 6 -30.9470 -17.9811 -8.7011 0.5136 -1.4156 40.9283
#
#
#
# Elastic Compliance Matrix: (Units=1/GPa)
#
#
# Indices 1 2 3 4 5 6 
#
# 1 0.011307 0.000485 -0.002148 0.004202 -0.002927 0.008152
# 2 0.000485 0.006793 -0.001658 -0.002561 -0.002187 0.002955
# 3 -0.002148 -0.001658 0.011397 0.000797 0.003287 0.000174
# 4 0.004202 -0.002561 0.000797 0.032174 -0.001205 0.001777
# 5 -0.002927 -0.002187 0.003287 -0.001205 0.049863 -0.000735
# 6 0.008152 0.002955 0.000174 0.001777 -0.000735 0.031885
#
#
# Mechanical properties :
#
#
# Convention : Reuss Voigt Hill
#
# Bulk Modulus (GPa) = 43.75031 54.88073 49.31552
# Shear Modulus (GPa) = 31.70987 41.29156 36.50072
#
# Velocity S-wave (km/s) = 3.42417 3.90741 3.67374
# Velocity P-wave (km/s) = 5.64006 6.37571 6.01913
#
# Compressibility (1/GPa) = 0.02285698
#
# Stress axis : x y z
#
# Youngs Moduli (GPa) = 88.43915 147.20777 87.74009
#
# Poissons Ratio (x) = -0.07143 0.18845
# Poissons Ratio (y) = -0.04291 0.14545
# Poissons Ratio (z) = 0.18995 0.24403
#
# Static dielectric constant tensor:
#      x y z
#    x 2.134210 -0.045210 0.075560 
#    y -0.045210 2.760810 0.123490 
#    z 0.075560 0.123490 2.096190 
# 
# From -- ./inp_files/210897.got.cif
#   From: 2010.05.17/outbox.cif.g08.bks.cpg/sg2_106_cif.got.tgz:210897.got - 2010.06.03 11:33:40.
