data_PCOD9074962
_publ_section_title
;
Structure prediction by ZEFSAII (Michael W. Deem and Ramdas Pophale) SiO2 
 PCOD9074962
Probable space group: P -1
;
_chemical_formula_sum "Si O2"
_cell_formula_units_Z 14
_cell_length_a 9.000000
_cell_length_b 12.000000
_cell_length_c 21.000000
_cell_angle_alpha 150.000000
_cell_angle_beta 140.000000
_cell_angle_gamma 60.000000
_cell_volume 627.666119
_symmetry_space_group_name_H-M "P -1"
_symmetry_group_IT_number 2
_symmetry_cell_setting 'triclinic'
loop_
_space_group_symop_operation_xyz
x,y,z
-x,-y,-z
loop_
_atom_site_type_symbol
_atom_site_label
_atom_site_fract_x
_atom_site_fract_y
_atom_site_fract_z
Si Si1 0.064290 0.927690 0.273872
Si Si2 0.389938 0.533908 0.045683
Si Si3 0.389504 0.279821 0.660644
Si Si4 0.821359 0.579243 0.522188
Si Si5 0.056747 0.348536 0.031762
Si Si6 0.715878 0.247537 0.151387
Si Si7 0.757306 0.884317 0.910403
O O1 0.203933 0.015538 0.431880
O O2 0.157720 0.195597 0.402750
O O3 0.755840 0.735186 0.095828
O O4 0.084469 0.783729 0.146780
O O5 0.587449 0.735762 0.263433
O O6 0.500000 0.500000 0.000000
O O7 0.156556 0.591889 0.978854
O O8 0.673952 0.397648 0.776678
O O9 0.312708 0.502373 0.733594
O O10 0.515449 0.365205 0.324545
O O11 0.000000 0.500000 0.500000
O O12 0.987010 0.668764 0.685558
O O13 0.148073 0.197226 0.034100
O O14 0.500000 0.000000 0.000000
O O15 0.685006 0.108305 0.006260
O O16 0.000000 0.000000 0.000000
#
# Coordination Sequence:
#
# PCOD9074962 Si02
#       7
#     2   2   2   2   2   2   2
#     4  11  21  42  71  90 129 168 230 269 316 402
#     4  11  28  44  64  97 132 172 221 281 347 390
#     4  11  22  41  70  99 121 178 226 267 331 399
#     4  12  21  39  69 104 127 178 226 263 329 409
#     4  11  23  45  64  96 131 175 224 273 329 402
#     4  12  20  40  70  99 136 172 226 270 328 415
#     4  12  27  41  65 104 145 174 213 286 345 387
#
# _framework density 22.304852
#
# number of rings (size 3 to 8) (size 9 to 14) (size 15 to 20)
#    0.000    0.571    7.143    2.571    2.000    3.429 
#    0.000    0.000    0.000    0.000    0.000    0.000 
#    0.000    0.000    0.000    0.000    0.000    0.000 
#
# Total GULP energy -77952.197298 kJ/mol
# GULP energy per Si atom -5568.014093 kJ/mol
# Density = 2.225409 g / cm^3
# Si number density = 22.304852 Si / 1000 Ang^3
#
#
#
# Elastic Constant Matrix: (Units=GPa)
#
#
# Indices 1 2 3 4 5 6 
#
# 1 121.0443 24.7406 24.9198 4.9609 6.7651 -18.7361
# 2 24.7406 58.4443 54.6926 -24.5731 -0.5427 -3.0752
# 3 24.9198 54.6926 103.2849 -0.5236 -6.9821 -21.9806
# 4 4.9609 -24.5731 -0.5236 27.2191 4.7604 2.2063
# 5 6.7651 -0.5427 -6.9821 4.7604 21.6557 -1.0752
# 6 -18.7361 -3.0752 -21.9806 2.2063 -1.0752 23.1360
#
#
#
# Elastic Compliance Matrix: (Units=1/GPa)
#
#
# Indices 1 2 3 4 5 6 
#
# 1 0.003257 0.030980 -0.021789 0.030997 -0.014954 -0.017597
# 2 0.030980 -0.147007 0.098342 -0.156144 0.058457 0.116586
# 3 -0.021789 0.098342 -0.053012 0.103014 -0.033759 -0.066331
# 4 0.030997 -0.156144 0.103014 -0.126674 0.053260 0.116772
# 5 -0.014954 0.058457 -0.033759 0.053260 0.027725 -0.040203
# 6 -0.017597 0.116586 -0.066331 0.116772 -0.040203 -0.031554
#
#
# Mechanical properties :
#
#
# Convention : Reuss Voigt Hill
#
# Bulk Modulus (GPa) = 54.63772 54.60886 54.62329
# Shear Modulus (GPa) = -9.32438 26.29687 8.48624
#
# Velocity S-wave (km/s) = -2.04683 3.43735 1.95267
# Velocity P-wave (km/s) = 4.35466 6.34743 5.44302
#
# Compressibility (1/GPa) = 0.01830237
#
# Stress axis : x y z
#
# Youngs Moduli (GPa) = 307.04686 -6.80240 -18.86359
#
# Poissons Ratio (x) = 0.21074 -0.41102
# Poissons Ratio (y) = -9.51219 1.85508
# Poissons Ratio (z) = 6.69024 0.66896
#
# Static dielectric constant tensor:
#      x y z
#    x 1.980640 -0.081190 -0.213480 
#    y -0.081190 2.009390 -0.039860 
#    z -0.213480 -0.039860 1.972510 
# 
# From -- ./inp_files/436362.got.cif
#   From: 2010.05.17/outbox.ucp.g08.bks.cvg/sg2_219_cif.got.tgz:436362.got - 2010.06.11 11:32:03.
