data_PCOD9074114
_publ_section_title
;
Structure prediction by ZEFSAII (Michael W. Deem and Ramdas Pophale) SiO2 
 PCOD9074114
Probable space group: P -1
;
_chemical_formula_sum "Si O2"
_cell_formula_units_Z 16
_cell_length_a 12.000000
_cell_length_b 12.000000
_cell_length_c 15.000000
_cell_angle_alpha 150.000000
_cell_angle_beta 120.000000
_cell_angle_gamma 80.000000
_cell_volume 748.962810
_symmetry_space_group_name_H-M "P -1"
_symmetry_group_IT_number 2
_symmetry_cell_setting 'triclinic'
loop_
_space_group_symop_operation_xyz
x,y,z
-x,-y,-z
loop_
_atom_site_type_symbol
_atom_site_label
_atom_site_fract_x
_atom_site_fract_y
_atom_site_fract_z
Si Si1 0.269910 0.725100 0.253135
Si Si2 0.810969 0.718960 0.951129
Si Si3 0.469503 0.723887 0.173181
Si Si4 0.168843 0.432779 0.324772
Si Si5 0.349824 0.680983 0.910731
Si Si6 0.203401 0.971967 0.095205
Si Si7 0.178978 0.063017 0.339066
Si Si8 0.373675 0.011106 0.897158
O O1 0.180191 0.432396 0.064544
O O2 0.381717 0.695838 0.210756
O O3 0.368591 0.967478 0.534638
O O4 0.184816 0.839183 0.243710
O O5 0.752411 0.502227 0.696221
O O6 0.707145 0.838467 0.000374
O O7 0.998672 0.959114 0.172280
O O8 0.500000 0.500000 0.000000
O O9 0.358775 0.696839 0.031311
O O10 0.241664 0.691868 0.597726
O O11 0.196032 0.208433 0.213122
O O12 0.980630 0.292472 0.146815
O O13 0.256982 0.361784 0.622449
O O14 0.282732 0.860982 0.989860
O O15 0.524103 0.832527 0.042417
O O16 0.270726 0.093022 0.305043
O O17 0.500000 0.000000 0.000000
#
# Coordination Sequence:
#
# PCOD9074114 Si02
#       8
#     2   2   2   2   2   2   2   2
#     4  11  23  40  64  92 130 166 211 256 308 375
#     4  11  25  43  64  93 129 167 209 262 314 371
#     4  11  22  38  61  92 126 162 205 255 308 367
#     4  10  23  44  65  90 127 164 210 260 316 372
#     4  12  23  39  66  92 126 165 210 258 315 372
#     4  10  22  42  67  92 121 168 212 257 311 375
#     4  11  23  42  65  94 128 166 213 257 309 376
#     4  12  26  41  64  97 129 162 210 265 320 371
#
# _framework density 21.362876
#
# number of rings (size 3 to 8) (size 9 to 14) (size 15 to 20)
#    0.000    1.000    2.500    4.125    1.750    4.000 
#    0.000    5.625    0.000    0.000    0.000    0.000 
#    0.000    0.000    0.000    0.000    0.000    0.000 
#
# Total GULP energy -89166.813832 kJ/mol
# GULP energy per Si atom -5572.925865 kJ/mol
# Density = 2.131425 g / cm^3
# Si number density = 21.362876 Si / 1000 Ang^3
#
#
#
# Elastic Constant Matrix: (Units=GPa)
#
#
# Indices 1 2 3 4 5 6 
#
# 1 116.4404 8.8426 26.9182 10.3279 -24.7424 -15.6934
# 2 8.8426 49.8633 -0.4560 0.9288 -10.0872 -6.1141
# 3 26.9182 -0.4560 67.5346 -14.7560 -18.2018 3.1340
# 4 10.3279 0.9288 -14.7560 21.2527 0.0499 -5.8320
# 5 -24.7424 -10.0872 -18.2018 0.0499 27.4129 3.3778
# 6 -15.6934 -6.1141 3.1340 -5.8320 3.3778 33.1161
#
#
#
# Elastic Compliance Matrix: (Units=1/GPa)
#
#
# Indices 1 2 3 4 5 6 
#
# 1 0.012705 -0.000099 -0.005101 -0.008575 0.007541 0.004206
# 2 -0.000099 0.022449 0.003169 0.002112 0.009882 0.003162
# 3 -0.005101 0.003169 0.024612 0.018796 0.013140 -0.002191
# 4 -0.008575 0.002112 0.018796 0.065715 0.004704 0.005641
# 5 0.007541 0.009882 0.013140 0.004704 0.055725 -0.000701
# 6 0.004206 0.003162 -0.002191 0.005641 -0.000701 0.034046
#
#
# Mechanical properties :
#
#
# Convention : Reuss Voigt Hill
#
# Bulk Modulus (GPa) = 17.95192 33.82755 25.88974
# Shear Modulus (GPa) = 21.01904 29.59189 25.30546
#
# Velocity S-wave (km/s) = 3.14013 3.72587 3.44547
# Velocity P-wave (km/s) = 4.64422 5.86332 5.28901
#
# Compressibility (1/GPa) = 0.05570434
#
# Stress axis : x y z
#
# Youngs Moduli (GPa) = 78.71198 44.54574 40.63105
#
# Poissons Ratio (x) = 0.00439 0.20725
# Poissons Ratio (y) = 0.00776 -0.12876
# Poissons Ratio (z) = 0.40149 -0.14116
#
# Static dielectric constant tensor:
#      x y z
#    x 1.767810 0.026310 0.032030 
#    y 0.026310 1.883710 -0.023740 
#    z 0.032030 -0.023740 1.793240 
# 
# From -- ./inp_files/106896.got.cif
#   From: 2010.05.17/outbox.ucp.g08.bks.cvg/sg2_54_cif.got.tgz:106896.got - 2010.06.11 11:32:03.
