data_PCOD9074395
_publ_section_title
;
Structure prediction by ZEFSAII (Michael W. Deem and Ramdas Pophale) SiO2 
 PCOD9074395
Probable space group: P -1
;
_chemical_formula_sum "Si O2"
_cell_formula_units_Z 16
_cell_length_a 15.760905
_cell_length_b 15.034399
_cell_length_c 15.423839
_cell_angle_alpha 53.214219
_cell_angle_beta 61.122728
_cell_angle_gamma 18.553940
_cell_volume 878.339668
_symmetry_space_group_name_H-M "P -1"
_symmetry_group_IT_number 2
_symmetry_cell_setting 'triclinic'
loop_
_space_group_symop_operation_xyz
x,y,z
-x,-y,-z
loop_
_atom_site_type_symbol
_atom_site_label
_atom_site_fract_x
_atom_site_fract_y
_atom_site_fract_z
Si Si1 0.187428 0.710571 0.983406
Si Si2 0.585051 0.467374 0.855829
Si Si3 0.793483 0.493557 0.044312
Si Si4 0.241107 0.851942 0.278333
Si Si5 0.074105 0.050083 0.428943
Si Si6 0.653163 0.686097 0.196226
Si Si7 0.233821 0.824115 0.662291
Si Si8 0.092824 0.389663 0.118004
O O1 0.343603 0.654993 0.911652
O O2 0.296380 0.502679 0.982629
O O3 0.282492 0.589983 0.106486
O O4 0.852017 0.098705 0.917116
O O5 0.408722 0.697723 0.725104
O O6 0.620853 0.705031 0.095599
O O7 0.840389 0.554243 0.929619
O O8 0.076892 0.132681 0.154954
O O9 0.536826 0.513609 0.284872
O O10 0.284070 0.828267 0.372942
O O11 0.041229 0.955759 0.306984
O O12 0.822847 0.400356 0.318373
O O13 0.175850 0.963977 0.526269
O O14 0.000000 0.000000 0.500000
O O15 0.845555 0.589260 0.169876
O O16 0.367793 0.016782 0.195083
O O17 0.000000 0.500000 0.000000
#
# Coordination Sequence:
#
# PCOD9074395 Si02
#       8
#     2   2   2   2   2   2   2   2
#     4  10  20  31  47  71  99 130 160 201 246 290
#     4  10  19  32  46  70 103 127 160 203 244 288
#     4  10  18  32  51  70  95 134 162 193 247 292
#     4  10  20  29  46  72  99 123 165 196 230 288
#     4   9  21  33  50  72  98 131 165 197 237 295
#     4  10  22  35  47  72 103 125 163 205 238 283
#     4  11  18  32  47  69  97 133 158 193 242 287
#     4  10  21  34  50  70  98 131 164 201 241 288
#
# _framework density 18.216187999999999
#
# number of rings (size 3 to 8) (size 9 to 14) (size 15 to 20)
#    0.000    2.000    2.500    1.875    0.000   15.000 
#    0.000    0.000    0.000    0.000    0.000    1.750 
#    0.000    0.000    0.000    0.375    0.000    0.000 
#
# Total GULP energy -89134.558676 kJ/mol
# GULP energy per Si atom -5570.909917 kJ/mol
# Density = 1.817473 g / cm^3
# Si number density = 18.216188 Si / 1000 Ang^3
#
#
#
# Elastic Constant Matrix: (Units=GPa)
#
#
# Indices 1 2 3 4 5 6 
#
# 1 67.7050 -3.3375 40.7601 7.0840 19.5031 0.9010
# 2 -3.3375 43.7396 -4.9263 -3.6933 7.6118 -9.2056
# 3 40.7601 -4.9263 82.0800 0.2533 17.2177 -0.7072
# 4 7.0840 -3.6933 0.2533 17.5173 3.2817 1.4667
# 5 19.5031 7.6118 17.2177 3.2817 33.5140 0.7457
# 6 0.9010 -9.2056 -0.7072 1.4667 0.7457 21.0725
#
#
#
# Elastic Compliance Matrix: (Units=1/GPa)
#
#
# Indices 1 2 3 4 5 6 
#
# 1 0.024184 0.001560 -0.010112 -0.007728 -0.008479 0.000146
# 2 0.001560 0.028099 0.003036 0.006045 -0.009714 0.012233
# 3 -0.010112 0.003036 0.018400 0.005182 -0.004814 0.002186
# 4 -0.007728 0.006045 0.005182 0.062552 -0.005641 -0.001009
# 5 -0.008479 -0.009714 -0.004814 -0.005641 0.040117 -0.005069
# 6 0.000146 0.012233 0.002186 -0.001009 -0.005069 0.053116
#
#
# Mechanical properties :
#
#
# Convention : Reuss Voigt Hill
#
# Bulk Modulus (GPa) = 16.76415 28.72413 22.74414
# Shear Modulus (GPa) = 19.42629 25.15600 22.29114
#
# Velocity S-wave (km/s) = 3.26917 3.72017 3.50194
# Velocity P-wave (km/s) = 4.84487 5.85283 5.37254
#
# Compressibility (1/GPa) = 0.05965108
#
# Stress axis : x y z
#
# Youngs Moduli (GPa) = 41.35002 35.58826 54.34913
#
# Poissons Ratio (x) = -0.05553 0.54958
# Poissons Ratio (y) = -0.06451 -0.16501
# Poissons Ratio (z) = 0.41813 -0.10805
#
# Static dielectric constant tensor:
#      x y z
#    x 1.740960 -0.007670 0.043260 
#    y -0.007670 1.685230 0.021780 
#    z 0.043260 0.021780 1.695080 
# 
# From -- ./inp_files/573845.got.cif
#   From: 2010.05.17/outbox.cif.g08.bks.cpg/sg2_287_cif.got.tgz:573845.got - 2010.06.03 11:33:40.
