data_PCOD9074171
_publ_section_title
;
Structure prediction by ZEFSAII (Michael W. Deem and Ramdas Pophale) SiO2 
 PCOD9074171
Probable space group: P -1
;
_chemical_formula_sum "Si O2"
_cell_formula_units_Z 14
_cell_length_a 12.000000
_cell_length_b 9.000000
_cell_length_c 12.000000
_cell_angle_alpha 120.000000
_cell_angle_beta 40.000000
_cell_angle_gamma 130.000000
_cell_volume 638.079485
_symmetry_space_group_name_H-M "P -1"
_symmetry_group_IT_number 2
_symmetry_cell_setting 'triclinic'
loop_
_space_group_symop_operation_xyz
x,y,z
-x,-y,-z
loop_
_atom_site_type_symbol
_atom_site_label
_atom_site_fract_x
_atom_site_fract_y
_atom_site_fract_z
Si Si1 0.764135 0.377271 0.486324
Si Si2 0.106902 0.229437 0.377152
Si Si3 0.139859 0.377189 0.725437
Si Si4 0.265619 0.780642 0.896661
Si Si5 0.310862 0.108104 0.799488
Si Si6 0.958392 0.819971 0.825988
Si Si7 0.712387 0.889860 0.602227
O O1 0.811368 0.541544 0.603462
O O2 0.809205 0.501909 0.384363
O O3 0.535673 0.214547 0.621570
O O4 0.928875 0.306319 0.329743
O O5 0.127364 0.155746 0.214583
O O6 0.221270 0.173673 0.359948
O O7 0.875680 0.110856 0.537858
O O8 0.218970 0.558773 0.817922
O O9 0.250110 0.243841 0.571074
O O10 0.908940 0.253242 0.893207
O O11 0.498454 0.871123 0.775853
O O12 0.266753 0.923004 0.846879
O O13 0.227937 0.242386 0.973215
O O14 0.145123 0.014550 0.796899
#
# Coordination Sequence:
#
# PCOD9074171 Si02
#       7
#     2   2   2   2   2   2   2
#     4  11  23  43  66 100 130 172 217 271 324 389
#     4  10  23  42  66  97 135 174 220 259 333 390
#     4  10  23  40  66 101 129 161 226 270 325 383
#     4  11  22  42  66  99 129 172 214 274 325 383
#     4  11  25  41  70  99 127 173 222 263 335 377
#     4  11  23  43  64  94 136 169 214 276 313 395
#     4  10  22  43  65  92 132 178 213 269 323 390
#
# _framework density 21.940840000000001
#
# number of rings (size 3 to 8) (size 9 to 14) (size 15 to 20)
#    0.000    1.429    1.429    3.000    2.000    2.857 
#    5.143   15.714    0.000    0.000    0.000    0.000 
#    0.000    0.000    0.000    0.000    0.000    0.000 
#
# Total GULP energy -77977.221424 kJ/mol
# GULP energy per Si atom -5569.801530 kJ/mol
# Density = 2.189090 g / cm^3
# Si number density = 21.940840 Si / 1000 Ang^3
#
#
#
# Elastic Constant Matrix: (Units=GPa)
#
#
# Indices 1 2 3 4 5 6 
#
# 1 37.8514 12.8701 27.5101 -0.3529 3.4018 7.0755
# 2 12.8701 80.4032 25.2353 -5.5782 -3.0961 0.0381
# 3 27.5101 25.2353 115.0779 -15.5821 -11.5762 -2.9106
# 4 -0.3529 -5.5782 -15.5821 33.4179 0.2387 -0.0522
# 5 3.4018 -3.0961 -11.5762 0.2387 37.3849 -4.0909
# 6 7.0755 0.0381 -2.9106 -0.0522 -4.0909 24.3820
#
#
#
# Elastic Compliance Matrix: (Units=1/GPa)
#
#
# Indices 1 2 3 4 5 6 
#
# 1 0.038381 -0.003586 -0.010255 -0.004936 -0.008442 -0.013783
# 2 -0.003586 0.013723 -0.001840 0.001389 0.000990 0.000969
# 3 -0.010255 -0.001840 0.012981 0.005607 0.005360 0.005440
# 4 -0.004936 0.001389 0.005607 0.032706 0.002373 0.002568
# 5 -0.008442 0.000990 0.005360 0.002373 0.030135 0.008149
# 6 -0.013783 0.000969 0.005440 0.002568 0.008149 0.047034
#
#
# Mechanical properties :
#
#
# Convention : Reuss Voigt Hill
#
# Bulk Modulus (GPa) = 29.65340 40.50704 35.08022
# Shear Modulus (GPa) = 22.98195 30.21808 26.60001
#
# Velocity S-wave (km/s) = 3.23995 3.71516 3.48566
# Velocity P-wave (km/s) = 5.24794 6.07497 5.67653
#
# Compressibility (1/GPa) = 0.03372295
#
# Stress axis : x y z
#
# Youngs Moduli (GPa) = 26.05466 72.87133 77.03714
#
# Poissons Ratio (x) = 0.26131 0.79002
# Poissons Ratio (y) = 0.09343 0.14173
# Poissons Ratio (z) = 0.26719 0.13407
#
# Static dielectric constant tensor:
#      x y z
#    x 1.864950 0.011600 0.079870 
#    y 0.011600 1.871780 0.060140 
#    z 0.079870 0.060140 1.838830 
# 
# From -- ./inp_files/419640.got.cif
#   From: 2010.05.17/outbox.ucp.g08.bks.cvg/sg2_210_cif.got.tgz:419640.got - 2010.06.11 11:32:03.
