data_PCOD9074693
_publ_section_title
;
Structure prediction by ZEFSAII (Michael W. Deem and Ramdas Pophale) SiO2 
 PCOD9074693
Probable space group: P -1
;
_chemical_formula_sum "Si O2"
_cell_formula_units_Z 16
_cell_length_a 12.000000
_cell_length_b 21.000000
_cell_length_c 15.000000
_cell_angle_alpha 30.000000
_cell_angle_beta 150.000000
_cell_angle_gamma 150.000000
_cell_volume 837.063958
_symmetry_space_group_name_H-M "P -1"
_symmetry_group_IT_number 2
_symmetry_cell_setting 'triclinic'
loop_
_space_group_symop_operation_xyz
x,y,z
-x,-y,-z
loop_
_atom_site_type_symbol
_atom_site_label
_atom_site_fract_x
_atom_site_fract_y
_atom_site_fract_z
Si Si1 0.083281 0.254433 0.550625
Si Si2 0.518458 0.954902 0.292166
Si Si3 0.470148 0.729003 0.399974
Si Si4 0.926977 0.485975 0.070566
Si Si5 0.626217 0.595676 0.264270
Si Si6 0.765965 0.190328 0.029435
Si Si7 0.931945 0.950162 0.373004
Si Si8 0.089584 0.880240 0.224372
O O1 0.009338 0.372552 0.312041
O O2 0.890056 0.153616 0.615942
O O3 0.332430 0.347170 0.672660
O O4 0.106151 0.144849 0.628438
O O5 0.395931 0.804989 0.334953
O O6 0.336999 0.938348 0.267100
O O7 0.780064 0.982383 0.482790
O O8 0.589567 0.087740 0.111237
O O9 0.385627 0.561203 0.553406
O O10 0.771751 0.825797 0.484850
O O11 0.380035 0.770859 0.195317
O O12 0.624701 0.419653 0.937470
O O13 0.000000 0.500000 0.000000
O O14 0.045491 0.648494 0.997770
O O15 0.871448 0.722653 0.234140
O O16 0.858229 0.080935 0.177628
O O17 0.000000 0.000000 0.000000
#
# Coordination Sequence:
#
# PCOD9074693 Si02
#       8
#     2   2   2   2   2   2   2   2
#     4  10  25  44  64 100 135 174 226 267 335 388
#     4  11  23  41  64  96 132 177 222 268 333 395
#     4  11  22  41  69  97 134 167 221 285 334 396
#     4  12  24  42  72 101 134 174 218 282 337 401
#     4  10  24  45  65  94 135 173 222 275 331 390
#     4  11  23  40  68 102 134 167 221 275 345 392
#     4  11  23  39  66 101 132 172 214 281 336 397
#     4  10  26  44  64  91 135 185 225 267 321 404
#
# _framework density 19.114429999999999
#
# number of rings (size 3 to 8) (size 9 to 14) (size 15 to 20)
#    0.750    0.500    1.250    6.000    8.750    2.000 
#    0.000    0.000    0.000    3.000    0.000    0.000 
#    0.000    0.000    0.000    0.000    0.000    0.000 
#
# Total GULP energy -89166.043315 kJ/mol
# GULP energy per Si atom -5572.877707 kJ/mol
# Density = 1.907092 g / cm^3
# Si number density = 19.114430 Si / 1000 Ang^3
#
#
#
# Elastic Constant Matrix: (Units=GPa)
#
#
# Indices 1 2 3 4 5 6 
#
# 1 115.0920 39.4759 52.2533 -11.2971 -0.0214 -2.2912
# 2 39.4759 120.4929 63.5575 -16.3819 5.3725 -12.9643
# 3 52.2533 63.5575 121.1767 -23.9203 3.4954 6.2023
# 4 -11.2971 -16.3819 -23.9203 36.1617 -0.1327 -1.2705
# 5 -0.0214 5.3725 3.4954 -0.1327 18.2022 -0.3090
# 6 -2.2912 -12.9643 6.2023 -1.2705 -0.3090 45.3022
#
#
#
# Elastic Compliance Matrix: (Units=1/GPa)
#
#
# Indices 1 2 3 4 5 6 
#
# 1 0.011052 -0.001441 -0.004053 0.000149 0.001230 0.000714
# 2 -0.001441 0.012659 -0.005863 0.001551 -0.002526 0.004379
# 3 -0.004053 -0.005863 0.014371 0.005450 -0.001057 -0.003705
# 4 0.000149 0.001551 0.005450 0.032024 -0.001261 0.000595
# 5 0.001230 -0.002526 -0.001057 -0.001261 0.055876 -0.000170
# 6 0.000714 0.004379 -0.003705 0.000595 -0.000170 0.023886
#
#
# Mechanical properties :
#
#
# Convention : Reuss Voigt Hill
#
# Bulk Modulus (GPa) = 65.06999 74.14832 69.60916
# Shear Modulus (GPa) = 28.13658 33.36487 30.75073
#
# Velocity S-wave (km/s) = 3.84084 4.18249 4.01530
# Velocity P-wave (km/s) = 7.33387 7.88672 7.61531
#
# Compressibility (1/GPa) = 0.01536807
#
# Stress axis : x y z
#
# Youngs Moduli (GPa) = 90.48191 78.99723 69.58332
#
# Poissons Ratio (x) = 0.11383 0.28200
# Poissons Ratio (y) = 0.13038 0.40799
# Poissons Ratio (z) = 0.36669 0.46319
#
# Static dielectric constant tensor:
#      x y z
#    x 1.703840 -0.004350 0.025470 
#    y -0.004350 1.697460 0.048610 
#    z 0.025470 0.048610 1.682410 
# 
# From -- ./inp_files/524069.got.cif
#   From: 2010.05.17/outbox.ucp.g08.bks.cvg/sg2_263_cif.got.tgz:524069.got - 2010.06.11 11:32:03.
