data_PCOD9074883
_publ_section_title
;
Structure prediction by ZEFSAII (Michael W. Deem and Ramdas Pophale) SiO2 
 PCOD9074883
Probable space group: P -1
;
_chemical_formula_sum "Si O2"
_cell_formula_units_Z 16
_cell_length_a 9.000000
_cell_length_b 21.000000
_cell_length_c 15.000000
_cell_angle_alpha 20.000000
_cell_angle_beta 50.000000
_cell_angle_gamma 50.000000
_cell_volume 734.602417
_symmetry_space_group_name_H-M "P -1"
_symmetry_group_IT_number 2
_symmetry_cell_setting 'triclinic'
loop_
_space_group_symop_operation_xyz
x,y,z
-x,-y,-z
loop_
_atom_site_type_symbol
_atom_site_label
_atom_site_fract_x
_atom_site_fract_y
_atom_site_fract_z
Si Si1 0.020660 0.801627 0.406777
Si Si2 0.184328 0.832873 0.660179
Si Si3 0.690786 0.957421 0.099962
Si Si4 0.555703 0.635645 0.128840
Si Si5 0.917863 0.604088 0.160853
Si Si6 0.604853 0.949213 0.350438
Si Si7 0.814201 0.390585 0.228356
Si Si8 0.365153 0.290498 0.715519
O O1 0.794460 0.847283 0.462218
O O2 0.108641 0.966429 0.105043
O O3 0.046478 0.619309 0.573118
O O4 0.144920 0.745572 0.522231
O O5 0.391983 0.893780 0.525162
O O6 0.214268 0.725759 0.695127
O O7 0.000000 0.000000 0.500000
O O8 0.108685 0.692073 0.945086
O O9 0.518880 0.129543 0.915180
O O10 0.661722 0.912508 0.272862
O O11 0.668555 0.785314 0.269964
O O12 0.746537 0.671729 0.064867
O O13 0.633101 0.543199 0.127618
O O14 0.456134 0.482328 0.422699
O O15 0.414860 0.828526 0.919107
O O16 0.830282 0.671886 0.200055
O O17 0.000000 0.500000 0.000000
#
# Coordination Sequence:
#
# PCOD9074883 Si02
#       8
#     2   2   2   2   2   2   2   2
#     4  11  25  42  65  96 134 168 204 269 332 376
#     4  12  23  41  70  94 127 168 223 261 303 385
#     4  11  22  39  66  98 129 162 216 269 316 376
#     4  11  20  39  65  93 125 168 213 265 311 378
#     4  11  21  40  64  93 127 172 213 260 317 374
#     4  12  25  42  64  99 133 169 206 265 333 374
#     4  11  21  43  67  93 124 167 219 257 310 375
#     4  11  21  37  69  98 119 166 229 266 298 379
#
# _framework density 21.780488999999999
#
# number of rings (size 3 to 8) (size 9 to 14) (size 15 to 20)
#    0.000    0.750    7.500    2.250    3.500    0.500 
#    0.000    6.250    0.000    0.000    0.000    0.000 
#    0.000    0.000    0.000    0.000    0.000    0.000 
#
# Total GULP energy -89539.611031 kJ/mol
# GULP energy per Si atom -5596.225689 kJ/mol
# Density = 2.173092 g / cm^3
# Si number density = 21.780489 Si / 1000 Ang^3
#
#
#
# Elastic Constant Matrix: (Units=GPa)
#
#
# Indices 1 2 3 4 5 6 
#
# 1 32.8901 25.4911 16.3432 -5.4768 -10.8327 -16.8672
# 2 25.4911 130.8169 16.4145 -4.4570 -0.3517 2.4235
# 3 16.3432 16.4145 58.9831 13.1077 -25.3805 -1.0748
# 4 -5.4768 -4.4570 13.1077 45.8054 -10.0509 -3.5643
# 5 -10.8327 -0.3517 -25.3805 -10.0509 19.5017 5.7259
# 6 -16.8672 2.4235 -1.0748 -3.5643 5.7259 29.0847
#
#
#
# Elastic Compliance Matrix: (Units=1/GPa)
#
#
# Indices 1 2 3 4 5 6 
#
# 1 0.085683 -0.015538 -0.009410 0.022267 0.032770 0.046915
# 2 -0.015538 0.011125 -0.003518 -0.003079 -0.012236 -0.008036
# 3 -0.009410 -0.003518 0.045191 -0.003219 0.056257 -0.014964
# 4 0.022267 -0.003079 -0.003219 0.030522 0.020085 0.012837
# 5 0.032770 -0.012236 0.056257 0.020085 0.154548 -0.005862
# 6 0.046915 -0.008036 -0.014964 0.012837 -0.005862 0.064434
#
#
# Mechanical properties :
#
#
# Convention : Reuss Voigt Hill
#
# Bulk Modulus (GPa) = 11.75551 37.68754 24.72152
# Shear Modulus (GPa) = 10.48679 29.84111 20.16395
#
# Velocity S-wave (km/s) = 2.19664 3.70548 3.04596
# Velocity P-wave (km/s) = 3.44131 5.97062 4.87293
#
# Compressibility (1/GPa) = 0.08506651
#
# Stress axis : x y z
#
# Youngs Moduli (GPa) = 11.67088 89.89142 22.12847
#
# Poissons Ratio (x) = 1.39673 0.20823
# Poissons Ratio (y) = 0.18134 0.07785
# Poissons Ratio (z) = 0.10982 0.31624
#
# Static dielectric constant tensor:
#      x y z
#    x 1.800700 -0.011070 -0.001650 
#    y -0.011070 1.777660 0.004560 
#    z -0.001650 0.004560 1.803350 
# 
# From -- ./inp_files/178853.got.cif
#   From: 2010.05.17/outbox.ucp.g08.bks.cvg/sg2_90_cif.got.tgz:178853.got - 2010.06.11 11:32:03.
