data_PCOD9074328
_publ_section_title
;
Structure prediction by ZEFSAII (Michael W. Deem and Ramdas Pophale) SiO2 
 PCOD9074328
Probable space group: P -1
;
_chemical_formula_sum "Si O2"
_cell_formula_units_Z 16
_cell_length_a 15.000000
_cell_length_b 9.000000
_cell_length_c 12.000000
_cell_angle_alpha 140.000000
_cell_angle_beta 50.000000
_cell_angle_gamma 130.000000
_cell_volume 759.581896
_symmetry_space_group_name_H-M "P -1"
_symmetry_group_IT_number 2
_symmetry_cell_setting 'triclinic'
loop_
_space_group_symop_operation_xyz
x,y,z
-x,-y,-z
loop_
_atom_site_type_symbol
_atom_site_label
_atom_site_fract_x
_atom_site_fract_y
_atom_site_fract_z
Si Si1 0.872504 0.104958 0.283924
Si Si2 0.779676 0.556885 0.622199
Si Si3 0.054851 0.929130 0.303807
Si Si4 0.196490 0.315732 0.739808
Si Si5 0.240855 0.678231 0.107630
Si Si6 0.473018 0.108877 0.205997
Si Si7 0.374503 0.557046 0.539362
Si Si8 0.158082 0.244541 0.089921
O O1 0.851878 0.361727 0.463485
O O2 0.017870 0.141506 0.185165
O O3 0.806130 0.933839 0.340803
O O4 0.822021 0.964883 0.127261
O O5 0.680087 0.437580 0.537758
O O6 0.748878 0.643163 0.819039
O O7 0.870406 0.812238 0.656532
O O8 0.153012 0.804629 0.191630
O O9 0.948334 0.749204 0.210734
O O10 0.000000 0.000000 0.500000
O O11 0.266058 0.401987 0.618647
O O12 0.264450 0.520535 0.893228
O O13 0.168505 0.473689 0.134039
O O14 0.349477 0.885427 0.199749
O O15 0.453093 0.370545 0.351537
O O16 0.559110 0.195262 0.299163
O O17 0.500000 0.000000 0.000000
#
# Coordination Sequence:
#
# PCOD9074328 Si02
#       8
#     2   2   2   2   2   2   2   2
#     4  10  23  38  60  92 134 176 203 241 309 396
#     4  12  23  37  62  91 131 168 195 260 311 373
#     4  12  22  35  59 101 132 161 208 257 319 381
#     4  11  22  40  63  99 131 163 208 256 315 386
#     4  11  23  41  66  91 126 173 209 266 313 369
#     4  11  23  45  69  91 119 163 217 273 316 358
#     4  11  25  41  67  99 119 160 221 265 314 370
#     4  10  23  39  58  92 134 174 207 241 312 386
#
# _framework density 21.064219999999999
#
# number of rings (size 3 to 8) (size 9 to 14) (size 15 to 20)
#    0.000    1.000    5.000    1.500    3.500    2.000 
#    0.000    0.625    0.000    2.250    0.000    0.000 
#    0.000    0.000    0.000    0.000    0.000    0.000 
#
# Total GULP energy -89078.282239 kJ/mol
# GULP energy per Si atom -5567.392640 kJ/mol
# Density = 2.101628 g / cm^3
# Si number density = 21.064220 Si / 1000 Ang^3
#
#
#
# Elastic Constant Matrix: (Units=GPa)
#
#
# Indices 1 2 3 4 5 6 
#
# 1 96.9892 25.1123 29.2455 6.9042 47.2150 15.5324
# 2 25.1123 69.7975 34.8337 17.1570 3.2171 3.7712
# 3 29.2455 34.8337 73.5430 21.5868 27.5780 1.1885
# 4 6.9042 17.1570 21.5868 18.4712 5.0653 10.8629
# 5 47.2150 3.2171 27.5780 5.0653 45.8130 9.0644
# 6 15.5324 3.7712 1.1885 10.8629 9.0644 36.0771
#
#
#
# Elastic Compliance Matrix: (Units=1/GPa)
#
#
# Indices 1 2 3 4 5 6 
#
# 1 0.026218 -0.011401 0.003172 0.008035 -0.027908 -0.005608
# 2 -0.011401 0.026037 -0.009979 -0.014452 0.017014 0.002593
# 3 0.003172 -0.009979 0.036683 -0.037552 -0.023606 0.015707
# 4 0.008035 -0.014452 -0.037552 0.130865 0.009268 -0.042444
# 5 -0.027908 0.017014 -0.023606 0.009268 0.064142 -0.007892
# 6 -0.005608 0.002593 0.015707 -0.042444 -0.007892 0.044107
#
#
# Mechanical properties :
#
#
# Convention : Reuss Voigt Hill
#
# Bulk Modulus (GPa) = 19.03976 46.52365 32.78171
# Shear Modulus (GPa) = 13.08984 30.14813 21.61898
#
# Velocity S-wave (km/s) = 2.49555 3.78729 3.20712
# Velocity P-wave (km/s) = 4.16680 6.42334 5.41394
#
# Compressibility (1/GPa) = 0.05252166
#
# Stress axis : x y z
#
# Youngs Moduli (GPa) = 38.14203 38.40624 27.26047
#
# Poissons Ratio (x) = 0.43789 -0.08646
# Poissons Ratio (y) = 0.43488 0.27202
# Poissons Ratio (z) = -0.12097 0.38324
#
# Static dielectric constant tensor:
#      x y z
#    x 1.839900 -0.005460 0.012940 
#    y -0.005460 1.776460 -0.078060 
#    z 0.012940 -0.078060 1.817250 
# 
# From -- ./inp_files/255921.got.cif
#   From: 2010.05.17/outbox.ucp.g08.bks.cvg/sg2_128_cif.got.tgz:255921.got - 2010.06.11 11:32:03.
