data_PCOD9074234
_publ_section_title
;
Structure prediction by ZEFSAII (Michael W. Deem and Ramdas Pophale) SiO2 
 PCOD9074234
Probable space group: P -1
;
_chemical_formula_sum "Si O2"
_cell_formula_units_Z 16
_cell_length_a 6.000000
_cell_length_b 6.000000
_cell_length_c 27.000000
_cell_angle_alpha 60.000000
_cell_angle_beta 120.000000
_cell_angle_gamma 100.000000
_cell_volume 725.212580
_symmetry_space_group_name_H-M "P -1"
_symmetry_group_IT_number 2
_symmetry_cell_setting 'triclinic'
loop_
_space_group_symop_operation_xyz
x,y,z
-x,-y,-z
loop_
_atom_site_type_symbol
_atom_site_label
_atom_site_fract_x
_atom_site_fract_y
_atom_site_fract_z
Si Si1 0.719224 0.654044 0.032559
Si Si2 0.240021 0.316748 0.158036
Si Si3 0.680263 0.779185 0.399001
Si Si4 0.926825 0.709313 0.535912
Si Si5 0.052456 0.695623 0.660436
Si Si6 0.342318 0.137295 0.780887
Si Si7 0.160725 0.113406 0.281288
Si Si8 0.504872 0.824001 0.097428
O O1 0.655550 0.751098 0.071044
O O2 0.966777 0.436434 0.089544
O O3 0.500000 0.500000 0.000000
O O4 0.700399 0.925030 0.967920
O O5 0.215408 0.276747 0.219426
O O6 0.399668 0.557194 0.134073
O O7 0.390611 0.040804 0.186170
O O8 0.840889 0.521787 0.422499
O O9 0.707766 0.707533 0.468941
O O10 0.816542 0.037052 0.367424
O O11 0.386097 0.875826 0.340200
O O12 0.881072 0.674721 0.593512
O O13 0.000000 0.000000 0.500000
O O14 0.263441 0.440338 0.721302
O O15 0.884556 0.735278 0.688037
O O16 0.336236 0.110543 0.843139
O O17 0.111699 0.995154 0.747753
#
# Coordination Sequence:
#
# PCOD9074234 Si02
#       8
#     2   2   2   2   2   2   2   2
#     4  11  25  47  72 100 131 167 215 269 326 389
#     4  12  25  44  67  96 133 174 215 268 325 384
#     4  10  22  44  68  95 132 172 218 273 328 387
#     4   9  20  41  69  97 130 171 217 271 331 389
#     4  11  23  43  65  95 133 173 221 271 326 390
#     4  12  26  43  65  96 133 173 220 269 320 386
#     4  12  25  41  66  96 132 174 222 271 321 384
#     4  11  25  45  69  98 132 171 217 266 323 392
#
# _framework density 22.062495999999999
#
# number of rings (size 3 to 8) (size 9 to 14) (size 15 to 20)
#    0.000    1.000    0.000    7.125    0.000    9.500 
#    0.000   11.250    0.000    0.000    0.000    0.000 
#    0.000    0.000    0.000    0.000    0.000    0.000 
#
# Total GULP energy -89308.073717 kJ/mol
# GULP energy per Si atom -5581.754607 kJ/mol
# Density = 2.201228 g / cm^3
# Si number density = 22.062496 Si / 1000 Ang^3
#
#
#
# Elastic Constant Matrix: (Units=GPa)
#
#
# Indices 1 2 3 4 5 6 
#
# 1 54.3240 19.3993 49.4705 -7.4961 0.3598 -18.5693
# 2 19.3993 87.1352 48.9379 -25.8956 -5.6282 -22.6193
# 3 49.4705 48.9379 226.3010 -18.3304 -2.6103 -24.6760
# 4 -7.4961 -25.8956 -18.3304 73.7464 -11.0191 -1.1661
# 5 0.3598 -5.6282 -2.6103 -11.0191 61.3861 -2.8667
# 6 -18.5693 -22.6193 -24.6760 -1.1661 -2.8667 30.1210
#
#
#
# Elastic Compliance Matrix: (Units=1/GPa)
#
#
# Indices 1 2 3 4 5 6 
#
# 1 0.027205 0.000744 -0.004401 0.002268 0.000777 0.013887
# 2 0.000744 0.017977 -0.002081 0.006572 0.003334 0.012826
# 3 -0.004401 -0.002081 0.005926 0.000331 0.000175 0.000608
# 4 0.002268 0.006572 0.000331 0.016898 0.003993 0.007639
# 5 0.000777 0.003334 0.000175 0.003993 0.017547 0.004951
# 6 0.013887 0.012826 0.000608 0.007639 0.004951 0.052657
#
#
# Mechanical properties :
#
#
# Convention : Reuss Voigt Hill
#
# Bulk Modulus (GPa) = 25.23162 67.04173 46.13667
# Shear Modulus (GPa) = 30.69416 49.71420 40.20418
#
# Velocity S-wave (km/s) = 3.73398 4.75208 4.27346
# Velocity P-wave (km/s) = 5.48191 7.78221 6.73106
#
# Compressibility (1/GPa) = 0.03963281
#
# Stress axis : x y z
#
# Youngs Moduli (GPa) = 36.75798 55.62531 168.74342
#
# Poissons Ratio (x) = -0.04140 0.74267
# Poissons Ratio (y) = -0.02736 0.35116
# Poissons Ratio (z) = 0.16178 0.11576
#
# Static dielectric constant tensor:
#      x y z
#    x 1.853230 0.028210 0.009360 
#    y 0.028210 1.878610 0.042800 
#    z 0.009360 0.042800 1.784140 
# 
# From -- ./inp_files/13714.got.cif
#   From: 2010.05.17/outbox.ucp.g08.bks.cvg/sg2_7_cif.got.tgz:13714.got - 2010.06.11 11:32:03.
