data_PCOD9074194
_publ_section_title
;
Structure prediction by ZEFSAII (Michael W. Deem and Ramdas Pophale) SiO2 
 PCOD9074194
Probable space group: P -1
;
_chemical_formula_sum "Si O2"
_cell_formula_units_Z 16
_cell_length_a 11.891638
_cell_length_b 11.682263
_cell_length_c 16.738960
_cell_angle_alpha 145.210423
_cell_angle_beta 136.853855
_cell_angle_gamma 56.452801
_cell_volume 900.853220
_symmetry_space_group_name_H-M "P -1"
_symmetry_group_IT_number 2
_symmetry_cell_setting 'triclinic'
loop_
_space_group_symop_operation_xyz
x,y,z
-x,-y,-z
loop_
_atom_site_type_symbol
_atom_site_label
_atom_site_fract_x
_atom_site_fract_y
_atom_site_fract_z
Si Si1 0.715418 0.968943 0.839216
Si Si2 0.000423 0.302770 0.139189
Si Si3 0.446069 0.630367 0.470583
Si Si4 0.077243 0.564883 0.491785
Si Si5 0.537622 0.928954 0.102210
Si Si6 0.072217 0.962877 0.628769
Si Si7 0.923076 0.292561 0.667798
Si Si8 0.536090 0.333675 0.231194
O O1 0.592221 0.066091 0.891054
O O2 0.844057 0.826824 0.863205
O O3 0.589908 0.812490 0.634604
O O4 0.834993 0.146634 0.961783
O O5 0.017826 0.418222 0.301567
O O6 0.006515 0.474599 0.173448
O O7 0.500000 0.500000 0.500000
O O8 0.273721 0.711618 0.446056
O O9 0.424113 0.485926 0.300192
O O10 0.275342 0.571822 0.603329
O O11 0.000000 0.500000 0.500000
O O12 0.051005 0.799073 0.594732
O O13 0.733508 0.958534 0.237873
O O14 0.509772 0.127380 0.150121
O O15 0.496795 0.731602 0.913699
O O16 0.974847 0.158447 0.690963
O O17 0.014298 0.821869 0.442378
#
# Coordination Sequence:
#
# PCOD9074194 Si02
#       8
#     2   2   2   2   2   2   2   2
#     4  11  19  31  53  79 109 133 176 228 263 307
#     4  10  20  31  51  84 110 133 176 228 270 309
#     4  12  17  33  56  79 102 140 185 221 262 313
#     4  10  18  33  52  77 110 141 174 217 272 316
#     4  10  18  32  49  77 108 132 178 219 266 313
#     4   9  19  33  55  79 104 144 181 218 260 326
#     4  10  18  34  57  78 107 139 182 221 265 314
#     4  10  19  29  51  78 101 138 174 223 262 313
#
# _framework density 17.760940000000002
#
# number of rings (size 3 to 8) (size 9 to 14) (size 15 to 20)
#    0.000    1.750    5.000    1.500    0.000    0.000 
#    0.000    1.250    2.750    0.750    0.000    0.000 
#    0.000    0.000    0.000    0.000    0.000    0.000 
#
# Total GULP energy -89098.860758 kJ/mol
# GULP energy per Si atom -5568.678797 kJ/mol
# Density = 1.772052 g / cm^3
# Si number density = 17.760940 Si / 1000 Ang^3
#
#
#
# Elastic Constant Matrix: (Units=GPa)
#
#
# Indices 1 2 3 4 5 6 
#
# 1 53.3751 29.2455 19.8450 8.1426 9.4782 -1.8261
# 2 29.2455 98.8966 17.1884 19.0925 14.7889 -4.7992
# 3 19.8450 17.1884 89.1318 16.6702 8.8453 -2.4683
# 4 8.1426 19.0925 16.6702 16.8485 2.6754 0.6654
# 5 9.4782 14.7889 8.8453 2.6754 38.5499 3.6958
# 6 -1.8261 -4.7992 -2.4683 0.6654 3.6958 15.1828
#
#
#
# Elastic Compliance Matrix: (Units=1/GPa)
#
#
# Indices 1 2 3 4 5 6 
#
# 1 0.023981 -0.005772 -0.003730 -0.000948 -0.002874 0.001194
# 2 -0.005772 0.015625 0.001961 -0.016394 -0.004499 0.006377
# 3 -0.003730 0.001961 0.014804 -0.014810 -0.002574 0.003853
# 4 -0.000948 -0.016394 -0.014810 0.092803 0.004719 -0.012920
# 5 -0.002874 -0.004499 -0.002574 0.004719 0.029555 -0.009587
# 6 0.001194 0.006377 0.003853 -0.012920 -0.009587 0.071550
#
#
# Mechanical properties :
#
#
# Convention : Reuss Voigt Hill
#
# Bulk Modulus (GPa) = 25.42816 41.55125 33.48971
# Shear Modulus (GPa) = 18.08255 25.79120 21.93688
#
# Velocity S-wave (km/s) = 3.19424 3.81482 3.51824
# Velocity P-wave (km/s) = 5.28699 6.54594 5.94985
#
# Compressibility (1/GPa) = 0.03932648
#
# Stress axis : x y z
#
# Youngs Moduli (GPa) = 41.69943 64.00060 67.55057
#
# Poissons Ratio (x) = 0.36944 0.25200
# Poissons Ratio (y) = 0.24071 -0.13249
# Poissons Ratio (z) = 0.15556 -0.12552
#
# Static dielectric constant tensor:
#      x y z
#    x 1.631180 0.001510 -0.024990 
#    y 0.001510 1.637540 0.008740 
#    z -0.024990 0.008740 1.635780 
# 
# From -- ./inp_files/266669.got.cif
#   From: 2010.05.17/outbox.cif.g08.bks.cpg/sg2_134_cif.got.tgz:266669.got - 2010.06.03 11:33:40.
