data_PCOD9074130
_publ_section_title
;
Structure prediction by ZEFSAII (Michael W. Deem and Ramdas Pophale) SiO2 
 PCOD9074130
Probable space group: P -1
;
_chemical_formula_sum "Si O2"
_cell_formula_units_Z 16
_cell_length_a 21.000000
_cell_length_b 12.000000
_cell_length_c 9.000000
_cell_angle_alpha 150.000000
_cell_angle_beta 50.000000
_cell_angle_gamma 140.000000
_cell_volume 727.418465
_symmetry_space_group_name_H-M "P -1"
_symmetry_group_IT_number 2
_symmetry_cell_setting 'triclinic'
loop_
_space_group_symop_operation_xyz
x,y,z
-x,-y,-z
loop_
_atom_site_type_symbol
_atom_site_label
_atom_site_fract_x
_atom_site_fract_y
_atom_site_fract_z
Si Si1 0.262159 0.273551 0.434935
Si Si2 0.980549 0.921743 0.168793
Si Si3 0.475534 0.111763 0.525389
Si Si4 0.392118 0.821982 0.022507
Si Si5 0.847583 0.931822 0.137772
Si Si6 0.206894 0.867736 0.290283
Si Si7 0.084762 0.336823 0.710079
Si Si8 0.660235 0.686119 0.928730
O O1 0.176206 0.298157 0.521255
O O2 0.294697 0.166120 0.125922
O O3 0.223182 0.114205 0.460521
O O4 0.350187 0.544303 0.685560
O O5 0.890092 0.821908 0.073087
O O6 0.964553 0.783355 0.193033
O O7 0.022065 0.217675 0.516336
O O8 0.066591 0.933317 0.957983
O O9 0.583300 0.380147 0.640612
O O10 0.500000 0.000000 0.500000
O O11 0.416986 0.876517 0.222035
O O12 0.403384 0.212290 0.784879
O O13 0.310146 0.888249 0.181088
O O14 0.500000 0.000000 0.000000
O O15 0.834634 0.137962 0.491468
O O16 0.745223 0.736188 0.976458
O O17 0.136473 0.642236 0.018600
#
# Coordination Sequence:
#
# PCOD9074130 Si02
#       8
#     2   2   2   2   2   2   2   2
#     4  11  23  42  66  91 132 169 210 264 316 380
#     4  10  22  42  69  93 131 171 211 275 316 376
#     4  11  26  42  67  97 128 169 213 267 321 383
#     4  11  24  43  64  97 128 166 217 262 317 384
#     4  11  22  42  65  96 130 171 211 264 330 372
#     4  11  25  41  67  94 127 173 213 263 322 382
#     4  10  22  43  65  95 129 166 217 262 314 383
#     4  11  24  44  64  94 134 168 212 265 323 385
#
# _framework density 21.995591999999998
#
# number of rings (size 3 to 8) (size 9 to 14) (size 15 to 20)
#    0.000    1.250    5.000    0.000    3.500    1.500 
#    0.000    1.250    0.000    0.000    0.000    0.000 
#    0.000    0.000    0.000    0.000    0.000    0.000 
#
# Total GULP energy -89085.074523 kJ/mol
# GULP energy per Si atom -5567.817158 kJ/mol
# Density = 2.194553 g / cm^3
# Si number density = 21.995592 Si / 1000 Ang^3
#
#
#
# Elastic Constant Matrix: (Units=GPa)
#
#
# Indices 1 2 3 4 5 6 
#
# 1 89.9531 3.8173 35.8048 11.0866 50.3374 12.7235
# 2 3.8173 60.1522 32.2894 -13.1291 13.3662 10.1599
# 3 35.8048 32.2894 59.5325 -15.0442 32.6353 7.0417
# 4 11.0866 -13.1291 -15.0442 18.9110 -10.7174 9.5167
# 5 50.3374 13.3662 32.6353 -10.7174 25.8450 -4.6017
# 6 12.7235 10.1599 7.0417 9.5167 -4.6017 30.1372
#
#
#
# Elastic Compliance Matrix: (Units=1/GPa)
#
#
# Indices 1 2 3 4 5 6 
#
# 1 -0.006746 0.001074 -0.017451 0.008383 0.039878 0.010005
# 2 0.001074 0.028035 -0.012118 0.017362 0.003777 -0.011979
# 3 -0.017451 -0.012118 0.055249 0.047703 -0.013023 -0.018509
# 4 0.008383 0.017362 0.047703 0.095952 -0.056337 -0.059440
# 5 0.039878 0.003777 -0.013023 -0.056337 -0.048687 -0.004710
# 6 0.010005 -0.011979 -0.018509 -0.059440 -0.004710 0.055371
#
#
# Mechanical properties :
#
#
# Convention : Reuss Voigt Hill
#
# Bulk Modulus (GPa) = 51.15580 39.27343 45.21461
# Shear Modulus (GPa) = 20.60339 24.16039 22.38189
#
# Velocity S-wave (km/s) = 3.06388 3.31784 3.19339
# Velocity P-wave (km/s) = 5.98534 5.70713 5.84789
#
# Compressibility (1/GPa) = 0.01954813
#
# Stress axis : x y z
#
# Youngs Moduli (GPa) = -148.22601 35.67011 18.09998
#
# Poissons Ratio (x) = -0.03833 0.31586
# Poissons Ratio (y) = 0.15926 0.21933
# Poissons Ratio (z) = -2.58668 0.43225
#
# Static dielectric constant tensor:
#      x y z
#    x 1.596760 -0.088360 -0.192680 
#    y -0.088360 1.815650 -0.029510 
#    z -0.192680 -0.029510 1.699720 
# 
# From -- ./inp_files/37769.got.cif
#   From: 2010.05.17/outbox.ucp.g08.bks.cvg/sg2_19_cif.got.tgz:37769.got - 2010.06.11 11:32:03.
