data_PCOD9074022
_publ_section_title
;
Structure prediction by ZEFSAII (Michael W. Deem and Ramdas Pophale) SiO2 
 PCOD9074022
Probable space group: P -1
;
_chemical_formula_sum "Si O2"
_cell_formula_units_Z 16
_cell_length_a 24.000000
_cell_length_b 9.000000
_cell_length_c 21.000000
_cell_angle_alpha 140.000000
_cell_angle_beta 20.000000
_cell_angle_gamma 150.000000
_cell_volume 744.844803
_symmetry_space_group_name_H-M "P -1"
_symmetry_group_IT_number 2
_symmetry_cell_setting 'triclinic'
loop_
_space_group_symop_operation_xyz
x,y,z
-x,-y,-z
loop_
_atom_site_type_symbol
_atom_site_label
_atom_site_fract_x
_atom_site_fract_y
_atom_site_fract_z
Si Si1 0.409962 0.643922 0.108038
Si Si2 0.940196 0.525829 0.251889
Si Si3 0.053253 0.932580 0.557455
Si Si4 0.184391 0.522446 0.775443
Si Si5 0.714057 0.886021 0.499582
Si Si6 0.410151 0.868141 0.392135
Si Si7 0.652748 0.361624 0.103912
Si Si8 0.488624 0.400268 0.160779
O O1 0.531305 0.998151 0.108508
O O2 0.500000 0.500000 0.000000
O O3 0.436625 0.639332 0.000292
O O4 0.165618 0.422087 0.326550
O O5 0.017058 0.863475 0.293161
O O6 0.836074 0.432236 0.262638
O O7 0.767368 0.319211 0.424178
O O8 0.121644 0.503506 0.062374
O O9 0.151129 0.956391 0.528578
O O10 0.242864 0.101373 0.354361
O O11 0.183081 0.241258 0.687007
O O12 0.398259 0.803108 0.674792
O O13 0.000000 0.500000 0.000000
O O14 0.477455 0.608958 0.694576
O O15 0.683081 0.077707 0.550242
O O16 0.487252 0.674340 0.236657
O O17 0.637365 0.467473 0.084879
#
# Coordination Sequence:
#
# PCOD9074022 Si02
#       8
#     2   2   2   2   2   2   2   2
#     4  12  23  40  71  94 131 181 224 262 333 387
#     4  10  22  41  63  94 134 165 215 274 322 388
#     4   9  22  43  62  95 134 173 217 276 318 379
#     4  11  24  42  70  94 128 169 217 267 328 400
#     4  10  23  42  66  94 133 165 219 270 322 394
#     4  11  23  42  66  99 127 177 211 270 332 383
#     4  11  23  44  63  96 133 175 214 274 323 383
#     4  10  25  42  63  98 139 169 226 271 317 393
#
# _framework density 21.480985
#
# number of rings (size 3 to 8) (size 9 to 14) (size 15 to 20)
#    0.000    1.500    1.250    3.375    5.250    2.500 
#    2.250    1.875    0.000    0.000    0.000    0.000 
#    0.000    0.000    0.000    0.000    0.000    0.000 
#
# Total GULP energy -89305.283434 kJ/mol
# GULP energy per Si atom -5581.580215 kJ/mol
# Density = 2.143209 g / cm^3
# Si number density = 21.480985 Si / 1000 Ang^3
#
#
#
# Elastic Constant Matrix: (Units=GPa)
#
#
# Indices 1 2 3 4 5 6 
#
# 1 131.2153 22.5594 22.1594 6.7774 1.5234 -40.1477
# 2 22.5594 61.2685 7.9496 9.5079 -1.8392 -18.4196
# 3 22.1594 7.9496 56.9745 20.8646 -10.3016 -3.0690
# 4 6.7774 9.5079 20.8646 30.8559 -3.0679 -6.0637
# 5 1.5234 -1.8392 -10.3016 -3.0679 47.7008 8.9364
# 6 -40.1477 -18.4196 -3.0690 -6.0637 8.9364 30.6228
#
#
#
# Elastic Compliance Matrix: (Units=1/GPa)
#
#
# Indices 1 2 3 4 5 6 
#
# 1 0.015820 0.001283 -0.008313 0.005774 -0.006313 0.023665
# 2 0.001283 0.020715 -0.002083 -0.002730 -0.002514 0.014126
# 3 -0.008313 -0.002083 0.028726 -0.019187 0.008044 -0.015420
# 4 0.005774 -0.002730 -0.019187 0.047415 -0.004118 0.014596
# 5 -0.006313 -0.002514 0.008044 -0.004118 0.025786 -0.017323
# 6 0.023665 0.014126 -0.015420 0.014596 -0.017323 0.078578
#
#
# Mechanical properties :
#
#
# Convention : Reuss Voigt Hill
#
# Bulk Modulus (GPa) = 21.26157 39.42168 30.34162
# Shear Modulus (GPa) = 19.92470 34.95521 27.43995
#
# Velocity S-wave (km/s) = 3.04888 4.03831 3.57796
# Velocity P-wave (km/s) = 4.72372 6.33527 5.58790
#
# Compressibility (1/GPa) = 0.04703323
#
# Stress axis : x y z
#
# Youngs Moduli (GPa) = 63.20989 48.27534 34.81177
#
# Poissons Ratio (x) = -0.06192 0.28940
# Poissons Ratio (y) = -0.08107 0.07251
# Poissons Ratio (z) = 0.52549 0.10056
#
# Static dielectric constant tensor:
#      x y z
#    x 1.722470 -0.031670 0.007930 
#    y -0.031670 1.682410 0.118840 
#    z 0.007930 0.118840 1.769500 
# 
# From -- ./inp_files/221794.got.cif
#   From: 2010.05.17/outbox.ucp.g08.bks.cvg/sg2_111_cif.got.tgz:221794.got - 2010.06.11 11:32:03.
