data_PCOD9074212
_publ_section_title
;
Structure prediction by ZEFSAII (Michael W. Deem and Ramdas Pophale) SiO2 
 PCOD9074212
Probable space group: P -1
;
_chemical_formula_sum "Si O2"
_cell_formula_units_Z 15
_cell_length_a 15.000000
_cell_length_b 12.000000
_cell_length_c 21.000000
_cell_angle_alpha 30.000000
_cell_angle_beta 20.000000
_cell_angle_gamma 30.000000
_cell_volume 615.533390
_symmetry_space_group_name_H-M "P -1"
_symmetry_group_IT_number 2
_symmetry_cell_setting 'triclinic'
loop_
_space_group_symop_operation_xyz
x,y,z
-x,-y,-z
loop_
_atom_site_type_symbol
_atom_site_label
_atom_site_fract_x
_atom_site_fract_y
_atom_site_fract_z
Si Si1 0.055728 0.111291 0.548376
Si Si2 0.529292 0.062553 0.152694
Si Si3 0.155070 0.695567 0.783967
Si Si4 0.630218 0.263230 0.241610
Si Si5 0.885745 0.551309 0.831855
Si Si6 0.659046 0.316876 0.592930
Si Si7 0.969532 0.858877 0.152856
Si Si8 0.000000 0.500000 0.500000
O O1 0.818458 0.204984 0.606526
O O2 0.080762 0.305914 0.485300
O O3 0.334050 0.060694 0.344863
O O4 0.016223 0.902518 0.723887
O O5 0.539353 0.827079 0.226710
O O6 0.389702 0.257465 0.098091
O O7 0.794726 0.121494 0.968033
O O8 0.238513 0.769004 0.760606
O O9 0.451220 0.569851 0.617178
O O10 0.000000 0.500000 0.000000
O O11 0.315668 0.398611 0.371818
O O12 0.815148 0.399539 0.010472
O O13 0.690754 0.002916 0.301005
O O14 0.980237 0.397372 0.780369
O O15 0.121436 0.677579 0.612682
O O16 0.000000 0.000000 0.000000
#
# Coordination Sequence:
#
# PCOD9074212 Si02
#       8
#     2   2   2   2   2   2   2   1
#     4  11  26  47  75 110 149 200 250 307 377 454
#     4  11  24  46  76 109 144 200 248 317 374 433
#     4  12  29  46  73 110 155 200 245 307 382 460
#     4  11  26  46  70 112 146 197 245 306 381 444
#     4  10  23  44  79 104 143 192 252 312 366 447
#     4  11  26  49  75 111 149 200 254 310 375 444
#     4  10  22  43  72 110 146 184 255 312 371 441
#     4  12  26  50  76 106 158 202 244 312 386 454
#
# _framework density 24.369109000000002
#
# number of rings (size 3 to 8) (size 9 to 14) (size 15 to 20)
#    0.000    1.067    1.333    4.400    9.333    6.933 
#    0.000    0.000    0.000    0.000    0.000    0.000 
#    0.000    0.000    0.000    0.000    0.000    0.000 
#
# Total GULP energy -83599.704098 kJ/mol
# GULP energy per Si atom -5573.313607 kJ/mol
# Density = 2.431364 g / cm^3
# Si number density = 24.369109 Si / 1000 Ang^3
#
#
#
# Elastic Constant Matrix: (Units=GPa)
#
#
# Indices 1 2 3 4 5 6 
#
# 1 -1.8970 -32.9508 10.4531 1.5454 -0.1025 48.7273
# 2 -32.9508 21.7299 -1.9220 3.1058 -4.0687 42.0310
# 3 10.4531 -1.9220 61.2006 -9.3762 -6.6262 -12.9296
# 4 1.5454 3.1058 -9.3762 33.9647 -11.8413 -4.9825
# 5 -0.1025 -4.0687 -6.6262 -11.8413 35.4593 0.1896
# 6 48.7273 42.0310 -12.9296 -4.9825 0.1896 19.3441
#
#
#
# Elastic Compliance Matrix: (Units=1/GPa)
#
#
# Indices 1 2 3 4 5 6 
#
# 1 0.006918 -0.012717 0.001317 0.002838 -0.000308 0.011819
# 2 -0.012717 0.013241 0.004953 0.002980 0.003364 0.007309
# 3 0.001317 0.004953 0.017779 0.006412 0.006039 -0.000604
# 4 0.002838 0.002980 0.006412 0.035425 0.013380 -0.000345
# 5 -0.000308 0.003364 0.006039 0.013380 0.034180 0.000615
# 6 0.011819 0.007309 -0.000604 -0.000345 0.000615 0.005544
#
#
# Mechanical properties :
#
#
# Convention : Reuss Voigt Hill
#
# Bulk Modulus (GPa) = 39.92921 3.57713 21.75317
# Shear Modulus (GPa) = 37.22216 24.78381 31.00299
#
# Velocity S-wave (km/s) = 3.91248 3.19253 3.57070
# Velocity P-wave (km/s) = 6.06883 3.88082 5.09370
#
# Compressibility (1/GPa) = 0.02504432
#
# Stress axis : x y z
#
# Youngs Moduli (GPa) = 144.54555 75.52384 56.24687
#
# Poissons Ratio (x) = 0.96043 -0.07409
# Poissons Ratio (y) = 1.83817 -0.27858
# Poissons Ratio (z) = -0.19041 -0.37405
#
# Static dielectric constant tensor:
#      x y z
#    x 1.908650 0.048000 -0.011850 
#    y 0.048000 2.031920 -0.015390 
#    z -0.011850 -0.015390 1.947090 
# 
# From -- ./inp_files/597919.got.cif
#   From: 2010.05.17/outbox.ucp.g08.bks.cvg/sg2_299_cif.got.tgz:597919.got - 2010.06.11 11:32:03.
