data_PCOD9074968
_publ_section_title
;
Structure prediction by ZEFSAII (Michael W. Deem and Ramdas Pophale) SiO2 
 PCOD9074968
Probable space group: P -1
;
_chemical_formula_sum "Si O2"
_cell_formula_units_Z 16
_cell_length_a 9.000000
_cell_length_b 12.000000
_cell_length_c 18.000000
_cell_angle_alpha 150.000000
_cell_angle_beta 60.000000
_cell_angle_gamma 130.000000
_cell_volume 736.400153
_symmetry_space_group_name_H-M "P -1"
_symmetry_group_IT_number 2
_symmetry_cell_setting 'triclinic'
loop_
_space_group_symop_operation_xyz
x,y,z
-x,-y,-z
loop_
_atom_site_type_symbol
_atom_site_label
_atom_site_fract_x
_atom_site_fract_y
_atom_site_fract_z
Si Si1 0.975667 0.441822 0.824498
Si Si2 0.090196 0.510060 0.667737
Si Si3 0.485966 0.067956 0.191608
Si Si4 0.345828 0.509847 0.863159
Si Si5 0.985778 0.706855 0.675668
Si Si6 0.756734 0.865069 0.581367
Si Si7 0.279776 0.295876 0.909162
Si Si8 0.446871 0.409909 0.293025
O O1 0.060190 0.543001 0.780451
O O2 0.148804 0.489019 0.865099
O O3 0.848780 0.134998 0.672993
O O4 0.853576 0.575544 0.960668
O O5 0.304156 0.724659 0.711094
O O6 0.955430 0.578006 0.690133
O O7 0.092212 0.243267 0.505044
O O8 0.326129 0.086622 0.293863
O O9 0.477801 0.173847 0.173740
O O10 0.456638 0.787650 0.033858
O O11 0.295955 0.302679 0.819605
O O12 0.474412 0.502692 0.758794
O O13 0.000000 0.500000 0.500000
O O14 0.781451 0.693688 0.700039
O O15 0.164796 0.998792 0.792648
O O16 0.581166 0.643097 0.449326
O O17 0.500000 0.500000 0.000000
#
# Coordination Sequence:
#
# PCOD9074968 Si02
#       8
#     2   2   2   2   2   2   2   2
#     4  12  26  45  74 105 139 186 238 296 359 414
#     4  11  25  43  71 103 140 185 236 296 348 425
#     4  11  21  43  71 100 142 179 238 293 356 409
#     4  12  25  46  72 107 137 184 240 301 346 422
#     4  12  28  47  73 103 145 194 238 283 359 434
#     4  11  23  45  72 103 142 186 235 296 356 412
#     4  12  30  49  71 103 151 189 231 291 366 427
#     4  11  25  42  72 106 141 182 241 293 351 421
#
# _framework density 21.727318
#
# number of rings (size 3 to 8) (size 9 to 14) (size 15 to 20)
#    0.000    0.500    3.750    5.625    8.750    0.500 
#    0.000    1.250    0.000    0.000    0.000    0.000 
#    0.000    0.000    0.000    0.000    0.000    0.000 
#
# Total GULP energy -89446.748096 kJ/mol
# GULP energy per Si atom -5590.421756 kJ/mol
# Density = 2.167787 g / cm^3
# Si number density = 21.727318 Si / 1000 Ang^3
#
#
#
# Elastic Constant Matrix: (Units=GPa)
#
#
# Indices 1 2 3 4 5 6 
#
# 1 74.3515 33.2045 16.7717 10.6421 -2.1292 -4.4045
# 2 33.2045 115.4887 32.0104 1.8077 -3.0945 -14.6352
# 3 16.7717 32.0104 88.0698 20.5999 4.2739 -1.6249
# 4 10.6421 1.8077 20.5999 30.8878 -7.0495 2.4370
# 5 -2.1292 -3.0945 4.2739 -7.0495 14.0167 0.1561
# 6 -4.4045 -14.6352 -1.6249 2.4370 0.1561 42.1844
#
#
#
# Elastic Compliance Matrix: (Units=1/GPa)
#
#
# Indices 1 2 3 4 5 6 
#
# 1 0.016296 -0.004565 -0.000044 -0.005668 -0.001374 0.000449
# 2 -0.004565 0.011797 -0.004886 0.005269 0.006016 0.003101
# 3 -0.000044 -0.004886 0.017096 -0.014148 -0.013411 -0.000174
# 4 -0.005668 0.005269 -0.014148 0.050495 0.030038 -0.002337
# 5 -0.001374 0.006016 -0.013411 0.030038 0.091666 -0.000647
# 6 0.000449 0.003101 -0.000174 -0.002337 -0.000647 0.024959
#
#
# Mechanical properties :
#
#
# Convention : Reuss Voigt Hill
#
# Bulk Modulus (GPa) = 38.16656 49.09811 43.63234
# Shear Modulus (GPa) = 20.83061 30.47936 25.65498
#
# Velocity S-wave (km/s) = 3.09969 3.74948 3.43996
# Velocity P-wave (km/s) = 5.51499 6.43360 5.99193
#
# Compressibility (1/GPa) = 0.02620094
#
# Stress axis : x y z
#
# Youngs Moduli (GPa) = 61.36325 84.76583 58.49451
#
# Poissons Ratio (x) = 0.38692 0.00256
# Poissons Ratio (y) = 0.28010 0.28580
# Poissons Ratio (z) = 0.00268 0.41415
#
# Static dielectric constant tensor:
#      x y z
#    x 1.842470 -0.008140 0.029060 
#    y -0.008140 1.792630 0.006230 
#    z 0.029060 0.006230 1.761340 
# 
# From -- ./inp_files/205402.got.cif
#   From: 2010.05.17/outbox.ucp.g08.bks.cvg/sg2_103_cif.got.tgz:205402.got - 2010.06.11 11:32:03.
