data_PCOD9074052
_publ_section_title
;
Structure prediction by ZEFSAII (Michael W. Deem and Ramdas Pophale) SiO2 
 PCOD9074052
Probable space group: P -1
;
_chemical_formula_sum "Si O2"
_cell_formula_units_Z 16
_cell_length_a 9.000000
_cell_length_b 15.000000
_cell_length_c 12.000000
_cell_angle_alpha 150.000000
_cell_angle_beta 70.000000
_cell_angle_gamma 100.000000
_cell_volume 734.803614
_symmetry_space_group_name_H-M "P -1"
_symmetry_group_IT_number 2
_symmetry_cell_setting 'triclinic'
loop_
_space_group_symop_operation_xyz
x,y,z
-x,-y,-z
loop_
_atom_site_type_symbol
_atom_site_label
_atom_site_fract_x
_atom_site_fract_y
_atom_site_fract_z
Si Si1 0.332505 0.075974 0.057548
Si Si2 0.305432 0.407928 0.867947
Si Si3 0.756343 0.028004 0.271540
Si Si4 0.237649 0.052680 0.564604
Si Si5 0.850487 0.260274 0.885289
Si Si6 0.647612 0.526881 0.574559
Si Si7 0.656344 0.452497 0.752594
Si Si8 0.865726 0.168506 0.037602
O O1 0.302319 0.294950 0.291220
O O2 0.338911 0.004852 0.850740
O O3 0.500000 0.000000 0.000000
O O4 0.202867 0.997888 0.076879
O O5 0.185001 0.542658 0.956367
O O6 0.273791 0.454936 0.059652
O O7 0.315958 0.191206 0.625614
O O8 0.479024 0.438567 0.823259
O O9 0.700148 0.987792 0.367607
O O10 0.762547 0.240493 0.492732
O O11 0.939335 0.895801 0.075065
O O12 0.044488 0.162044 0.729561
O O13 0.244506 0.860415 0.293907
O O14 0.807219 0.239166 0.003539
O O15 0.500000 0.500000 0.500000
O O16 0.627434 0.540526 0.730420
O O17 0.790936 0.342475 0.322222
#
# Coordination Sequence:
#
# PCOD9074052 Si02
#       8
#     2   2   2   2   2   2   2   2
#     4  12  25  43  71  98 132 179 219 269 337 392
#     4  11  23  42  65  97 128 175 219 271 334 387
#     4  11  23  47  68  99 137 170 226 274 332 398
#     4  10  22  42  67  95 130 173 214 279 326 391
#     4  10  22  41  66  95 132 169 221 268 330 393
#     4  12  24  45  67  98 138 171 220 276 328 396
#     4  11  24  42  67  94 134 173 218 278 325 392
#     4  11  25  44  69  98 137 179 216 276 330 394
#
# _framework density 21.774525000000001
#
# number of rings (size 3 to 8) (size 9 to 14) (size 15 to 20)
#    0.000    1.000    3.750    2.250    0.000    4.000 
#    4.500    0.000    0.000    0.000    0.000    0.000 
#    0.000    0.000    0.000    0.000    0.000    0.000 
#
# Total GULP energy -89384.291031 kJ/mol
# GULP energy per Si atom -5586.518189 kJ/mol
# Density = 2.172497 g / cm^3
# Si number density = 21.774525 Si / 1000 Ang^3
#
#
#
# Elastic Constant Matrix: (Units=GPa)
#
#
# Indices 1 2 3 4 5 6 
#
# 1 51.4530 33.8166 23.2794 -4.0569 7.3937 -29.7450
# 2 33.8166 184.7464 24.5674 6.7988 12.1551 -24.4257
# 3 23.2794 24.5674 51.4588 4.2955 -5.0641 3.3123
# 4 -4.0569 6.7988 4.2955 48.4764 -5.7380 11.1238
# 5 7.3937 12.1551 -5.0641 -5.7380 28.8900 0.8535
# 6 -29.7450 -24.4257 3.3123 11.1238 0.8535 42.1168
#
#
#
# Elastic Compliance Matrix: (Units=1/GPa)
#
#
# Indices 1 2 3 4 5 6 
#
# 1 0.075775 0.001982 -0.041511 -0.007820 -0.030847 0.060621
# 2 0.001982 0.007004 -0.004951 -0.002487 -0.005011 0.006609
# 3 -0.041511 -0.004951 0.044826 0.004491 0.022560 -0.037357
# 4 -0.007820 -0.002487 0.004491 0.024183 0.009049 -0.013889
# 5 -0.030847 -0.005011 0.022560 0.009049 0.051252 -0.029895
# 6 0.060621 0.006609 -0.037357 -0.013889 -0.029895 0.077602
#
#
# Mechanical properties :
#
#
# Convention : Reuss Voigt Hill
#
# Bulk Modulus (GPa) = 25.87729 50.10944 37.99337
# Shear Modulus (GPa) = 13.07247 37.62963 25.35105
#
# Velocity S-wave (km/s) = 2.45287 4.16161 3.41582
# Velocity P-wave (km/s) = 4.46454 6.79374 5.74835
#
# Compressibility (1/GPa) = 0.03864392
#
# Stress axis : x y z
#
# Youngs Moduli (GPa) = 13.19700 142.78545 22.30853
#
# Poissons Ratio (x) = -0.28302 0.92605
# Poissons Ratio (y) = -0.02616 0.11046
# Poissons Ratio (z) = 0.54782 0.70697
#
# Static dielectric constant tensor:
#      x y z
#    x 1.810330 0.017280 0.003200 
#    y 0.017280 1.786750 -0.017450 
#    z 0.003200 -0.017450 1.824440 
# 
# From -- ./inp_files/398090.got.cif
#   From: 2010.05.17/outbox.ucp.g08.bks.cvg/sg2_200_cif.got.tgz:398090.got - 2010.06.11 11:32:03.
