data_PCOD9074614
_publ_section_title
;
Structure prediction by ZEFSAII (Michael W. Deem and Ramdas Pophale) SiO2 
 PCOD9074614
Probable space group: P -1
;
_chemical_formula_sum "Si O2"
_cell_formula_units_Z 14
_cell_length_a 9.000000
_cell_length_b 12.000000
_cell_length_c 12.000000
_cell_angle_alpha 60.000000
_cell_angle_beta 40.000000
_cell_angle_gamma 50.000000
_cell_volume 638.079485
_symmetry_space_group_name_H-M "P -1"
_symmetry_group_IT_number 2
_symmetry_cell_setting 'triclinic'
loop_
_space_group_symop_operation_xyz
x,y,z
-x,-y,-z
loop_
_atom_site_type_symbol
_atom_site_label
_atom_site_fract_x
_atom_site_fract_y
_atom_site_fract_z
Si Si1 0.198537 0.578237 0.093617
Si Si2 0.867298 0.339173 0.147468
Si Si3 0.762975 0.899029 0.238882
Si Si4 0.929407 0.134220 0.558516
Si Si5 0.820584 0.436132 0.362974
Si Si6 0.702488 0.090870 0.365170
Si Si7 0.436636 0.108401 0.878855
O O1 0.031939 0.750745 0.137613
O O2 0.986974 0.516834 0.272908
O O3 0.500000 0.500000 0.000000
O O4 0.257904 0.563455 0.934940
O O5 0.888519 0.417066 0.204557
O O6 0.747729 0.228821 0.295654
O O7 0.155058 0.234920 0.996141
O O8 0.586339 0.866371 0.446311
O O9 0.591174 0.949117 0.198662
O O10 0.771260 0.036182 0.225393
O O11 0.933257 0.276917 0.436495
O O12 0.632577 0.175983 0.733993
O O13 0.000000 0.000000 0.500000
O O14 0.107206 0.052542 0.602172
O O15 0.500000 0.500000 0.500000
O O16 0.500000 0.000000 0.000000
#
# Coordination Sequence:
#
# PCOD9074614 Si02
#       7
#     2   2   2   2   2   2   2
#     4  11  27  47  67 100 147 193 239 290 362 438
#     4  11  23  43  67 101 137 181 241 298 357 410
#     4  10  24  42  65  99 141 185 230 289 367 419
#     4  12  22  42  69 104 133 181 245 290 348 425
#     4  12  25  46  75 100 144 192 243 294 351 438
#     4  11  22  42  69 102 139 177 232 305 357 423
#     4  11  20  38  65 101 140 168 228 298 353 414
#
# _framework density 21.940840000000001
#
# number of rings (size 3 to 8) (size 9 to 14) (size 15 to 20)
#    0.000    0.857    4.286    3.000    0.000    6.857 
#    2.571    2.143    0.000    0.000    0.000    0.000 
#    0.000    0.000    0.000    0.000    0.000    0.000 
#
# Total GULP energy -78018.217812 kJ/mol
# GULP energy per Si atom -5572.729844 kJ/mol
# Density = 2.189090 g / cm^3
# Si number density = 21.940840 Si / 1000 Ang^3
#
#
#
# Elastic Constant Matrix: (Units=GPa)
#
#
# Indices 1 2 3 4 5 6 
#
# 1 135.8755 41.3623 34.2688 -0.3381 3.9626 -14.5202
# 2 41.3623 66.1688 13.4945 -23.4419 -2.5490 -0.8770
# 3 34.2688 13.4945 54.1149 -10.3823 -1.4583 -2.4893
# 4 -0.3381 -23.4419 -10.3823 31.3895 0.8232 10.0771
# 5 3.9626 -2.5490 -1.4583 0.8232 44.3523 1.6698
# 6 -14.5202 -0.8770 -2.4893 10.0771 1.6698 33.3922
#
#
#
# Elastic Compliance Matrix: (Units=1/GPa)
#
#
# Indices 1 2 3 4 5 6 
#
# 1 0.014495 -0.012709 -0.008553 -0.015337 -0.002401 0.010080
# 2 -0.012709 0.032654 0.005165 0.030230 0.003132 -0.013563
# 3 -0.008553 0.005165 0.025054 0.013934 0.001853 -0.006014
# 4 -0.015337 0.030230 0.013934 0.066876 0.003273 -0.025182
# 5 -0.002401 0.003132 0.001853 0.003273 0.023053 -0.002964
# 6 0.010080 -0.013563 -0.006014 -0.025182 -0.002964 0.041273
#
#
# Mechanical properties :
#
#
# Convention : Reuss Voigt Hill
#
# Bulk Modulus (GPa) = 24.99383 48.26783 36.63083
# Shear Modulus (GPa) = 20.08560 32.96239 26.52400
#
# Velocity S-wave (km/s) = 3.02891 3.88020 3.48068
# Velocity P-wave (km/s) = 4.86298 6.49010 5.73454
#
# Compressibility (1/GPa) = 0.04000987
#
# Stress axis : x y z
#
# Youngs Moduli (GPa) = 68.99143 30.62399 39.91343
#
# Poissons Ratio (x) = 0.38919 0.34139
# Poissons Ratio (y) = 0.87678 -0.20616
# Poissons Ratio (z) = 0.59010 -0.15818
#
# Static dielectric constant tensor:
#      x y z
#    x 2.561860 0.665790 0.980260 
#    y 0.665790 2.481520 1.017550 
#    z 0.980260 1.017550 3.367690 
# 
# From -- ./inp_files/392277.got.cif
#   From: 2010.05.17/outbox.ucp.g08.bks.cvg/sg2_197_cif.got.tgz:392277.got - 2010.06.11 11:32:03.
