data_PCOD9074041
_publ_section_title
;
Structure prediction by ZEFSAII (Michael W. Deem and Ramdas Pophale) SiO2 
 PCOD9074041
Probable space group: P -1
;
_chemical_formula_sum "Si O2"
_cell_formula_units_Z 16
_cell_length_a 9.000000
_cell_length_b 24.000000
_cell_length_c 9.000000
_cell_angle_alpha 130.000000
_cell_angle_beta 60.000000
_cell_angle_gamma 150.000000
_cell_volume 736.400153
_symmetry_space_group_name_H-M "P -1"
_symmetry_group_IT_number 2
_symmetry_cell_setting 'triclinic'
loop_
_space_group_symop_operation_xyz
x,y,z
-x,-y,-z
loop_
_atom_site_type_symbol
_atom_site_label
_atom_site_fract_x
_atom_site_fract_y
_atom_site_fract_z
Si Si1 0.117727 0.062440 0.712709
Si Si2 0.309658 0.092045 0.084858
Si Si3 0.454016 0.041376 0.462678
Si Si4 0.640451 0.307843 0.068612
Si Si5 0.016380 0.275505 0.377473
Si Si6 0.185467 0.416834 0.080277
Si Si7 0.184360 0.842715 0.042701
Si Si8 0.704074 0.484032 0.483179
O O1 0.311548 0.059104 0.649592
O O2 0.369583 0.208525 0.907644
O O3 0.000000 0.000000 0.500000
O O4 0.803926 0.952097 0.767075
O O5 0.514764 0.226576 0.144438
O O6 0.490680 0.080699 0.958964
O O7 0.000000 0.000000 0.000000
O O8 0.756790 0.172282 0.451556
O O9 0.500000 0.000000 0.500000
O O10 0.219416 0.929384 0.263127
O O11 0.740734 0.422792 0.266582
O O12 0.951875 0.371023 0.999915
O O13 0.346019 0.372880 0.445668
O O14 0.076080 0.377905 0.460879
O O15 0.911253 0.191664 0.141265
O O16 0.233995 0.486955 0.320268
O O17 0.500000 0.500000 0.000000
O O18 0.040046 0.291739 0.999073
#
# Coordination Sequence:
#
# PCOD9074041 Si02
#       8
#     2   2   2   2   2   2   2   2
#     4  11  25  40  62 105 141 170 215 286 345 391
#     4   9  19  38  62  92 128 168 219 272 320 408
#     4  12  25  39  68  99 136 170 224 282 346 384
#     4  10  22  41  70  93 130 181 230 263 333 407
#     4  10  24  42  65  95 132 173 230 274 322 418
#     4  10  22  41  67 104 136 167 227 288 326 388
#     4  10  22  41  65  95 128 181 219 269 342 400
#     4  10  23  42  71  90 131 188 228 259 335 403
#
# _framework density 21.727318
#
# number of rings (size 3 to 8) (size 9 to 14) (size 15 to 20)
#    0.000    1.750    0.000    3.750   10.500    0.000 
#    0.000    1.875    0.000    0.000    0.000    0.000 
#    0.000    0.000    0.000    0.000    0.000    0.000 
#
# Total GULP energy -89122.431825 kJ/mol
# GULP energy per Si atom -5570.151989 kJ/mol
# Density = 2.167787 g / cm^3
# Si number density = 21.727318 Si / 1000 Ang^3
#
#
#
# Elastic Constant Matrix: (Units=GPa)
#
#
# Indices 1 2 3 4 5 6 
#
# 1 50.2770 16.8488 19.3628 2.8940 4.5441 8.6335
# 2 16.8488 93.7098 32.9861 2.0428 -10.8797 15.9317
# 3 19.3628 32.9861 122.4701 18.4875 6.6148 -4.0600
# 4 2.8940 2.0428 18.4875 37.5502 4.3937 0.1373
# 5 4.5441 -10.8797 6.6148 4.3937 45.7008 3.5562
# 6 8.6335 15.9317 -4.0600 0.1373 3.5562 27.4207
#
#
#
# Elastic Compliance Matrix: (Units=1/GPa)
#
#
# Indices 1 2 3 4 5 6 
#
# 1 0.023082 -0.002193 -0.003186 0.000152 -0.001887 -0.006221
# 2 -0.002193 0.014698 -0.004327 0.000952 0.004963 -0.009138
# 3 -0.003186 -0.004327 0.010832 -0.004608 -0.002261 0.005437
# 4 0.000152 0.000952 -0.004608 0.029053 -0.001822 -0.001193
# 5 -0.001887 0.004963 -0.002261 -0.001822 0.024201 -0.005754
# 6 -0.006221 -0.009138 0.005437 -0.001193 -0.005754 0.045294
#
#
# Mechanical properties :
#
#
# Convention : Reuss Voigt Hill
#
# Bulk Modulus (GPa) = 34.24679 44.98359 39.61519
# Shear Modulus (GPa) = 28.36006 35.28496 31.82251
#
# Velocity S-wave (km/s) = 3.61677 4.03425 3.83120
# Velocity P-wave (km/s) = 5.76522 6.51528 6.15169
#
# Compressibility (1/GPa) = 0.02919982
#
# Stress axis : x y z
#
# Youngs Moduli (GPa) = 43.32425 68.03869 92.31764
#
# Poissons Ratio (x) = 0.14924 0.29411
# Poissons Ratio (y) = 0.09503 0.39942
# Poissons Ratio (z) = 0.13802 0.29438
#
# Static dielectric constant tensor:
#      x y z
#    x 1.893640 -0.002370 -0.005210 
#    y -0.002370 1.849460 -0.073800 
#    z -0.005210 -0.073800 1.865430 
# 
# From -- ./inp_files/226458.got.cif
#   From: 2010.05.17/outbox.ucp.g08.bks.cvg/sg2_114_cif.got.tgz:226458.got - 2010.06.11 11:32:03.
