data_PCOD9074042
_publ_section_title
;
Structure prediction by ZEFSAII (Michael W. Deem and Ramdas Pophale) SiO2 
 PCOD9074042
Probable space group: P -1
;
_chemical_formula_sum "Si O2"
_cell_formula_units_Z 16
_cell_length_a 9.000000
_cell_length_b 15.000000
_cell_length_c 27.000000
_cell_angle_alpha 160.000000
_cell_angle_beta 40.000000
_cell_angle_gamma 130.000000
_cell_volume 750.501489
_symmetry_space_group_name_H-M "P -1"
_symmetry_group_IT_number 2
_symmetry_cell_setting 'triclinic'
loop_
_space_group_symop_operation_xyz
x,y,z
-x,-y,-z
loop_
_atom_site_type_symbol
_atom_site_label
_atom_site_fract_x
_atom_site_fract_y
_atom_site_fract_z
Si Si1 0.163898 0.593362 0.067350
Si Si2 0.663877 0.863488 0.838750
Si Si3 0.435783 0.471363 0.398516
Si Si4 0.114006 0.464269 0.567795
Si Si5 0.018077 0.984773 0.403381
Si Si6 0.043016 0.079772 0.805288
Si Si7 0.027945 0.705414 0.816061
Si Si8 0.693984 0.364229 0.759272
O O1 0.079885 0.747566 0.221564
O O2 0.428164 0.524763 0.935883
O O3 0.989980 0.797765 0.177567
O O4 0.135130 0.294608 0.923479
O O5 0.546123 0.763823 0.769680
O O6 0.876074 0.577360 0.652521
O O7 0.799203 0.062820 0.885354
O O8 0.500000 0.000000 0.000000
O O9 0.347972 0.401677 0.438937
O O10 0.231996 0.767191 0.592957
O O11 0.700340 0.502129 0.347217
O O12 0.053135 0.710847 0.752771
O O13 0.112977 0.207001 0.467031
O O14 0.169673 0.835419 0.334638
O O15 0.749652 0.166322 0.591750
O O16 0.825097 0.583965 0.824439
O O17 0.000000 0.000000 0.000000
#
# Coordination Sequence:
#
# PCOD9074042 Si02
#       8
#     2   2   2   2   2   2   2   2
#     4  11  23  45  68  94 133 177 221 276 319 403
#     4  11  23  41  66  97 133 172 215 275 328 393
#     4  11  23  43  67  94 137 171 215 278 327 399
#     4  10  22  41  65  96 127 176 218 265 336 390
#     4  10  22  41  67  95 126 176 217 264 342 380
#     4  10  25  42  66  97 127 173 228 259 334 392
#     4  11  25  41  66 103 130 171 219 274 335 394
#     4  10  25  42  67  96 135 168 223 275 327 396
#
# _framework density 21.319078000000001
#
# number of rings (size 3 to 8) (size 9 to 14) (size 15 to 20)
#    0.000    1.500    0.000    4.500   12.250    3.000 
#    0.000    1.250    0.000    0.000    0.000    0.000 
#    0.000    0.000    0.000    0.000    0.000    0.000 
#
# Total GULP energy -89186.503109 kJ/mol
# GULP energy per Si atom -5574.156444 kJ/mol
# Density = 2.127056 g / cm^3
# Si number density = 21.319078 Si / 1000 Ang^3
#
#
#
# Elastic Constant Matrix: (Units=GPa)
#
#
# Indices 1 2 3 4 5 6 
#
# 1 68.6918 37.8630 45.5905 -14.3103 30.5511 -3.1060
# 2 37.8630 99.4764 40.6708 -1.3185 27.9751 0.2519
# 3 45.5905 40.6708 107.2040 -13.8323 35.8706 -3.9781
# 4 -14.3103 -1.3185 -13.8323 34.6911 -13.0861 -0.0132
# 5 30.5511 27.9751 35.8706 -13.0861 43.9137 -7.9680
# 6 -3.1060 0.2519 -3.9781 -0.0132 -7.9680 33.6729
#
#
#
# Elastic Compliance Matrix: (Units=1/GPa)
#
#
# Indices 1 2 3 4 5 6 
#
# 1 0.026006 -0.005061 -0.005520 0.004962 -0.008941 -0.000329
# 2 -0.005061 0.014365 -0.002057 -0.004507 -0.005686 -0.002164
# 3 -0.005520 -0.002057 0.014821 0.001023 -0.006711 -0.000330
# 4 0.004962 -0.004507 0.001023 0.034669 0.009434 0.002858
# 5 -0.008941 -0.005686 -0.006711 0.009434 0.042445 0.008472
# 6 -0.000329 -0.002164 -0.000330 0.002858 0.008472 0.031650
#
#
# Mechanical properties :
#
#
# Convention : Reuss Voigt Hill
#
# Bulk Modulus (GPa) = 33.42619 58.18011 45.80315
# Shear Modulus (GPa) = 25.10003 32.53873 28.81938
#
# Velocity S-wave (km/s) = 3.43498 3.91099 3.68069
# Velocity P-wave (km/s) = 5.60760 6.90970 6.29242
#
# Compressibility (1/GPa) = 0.02991666
#
# Stress axis : x y z
#
# Youngs Moduli (GPa) = 38.45237 69.61587 67.47163
#
# Poissons Ratio (x) = 0.35230 0.37245
# Poissons Ratio (y) = 0.19459 0.13878
# Poissons Ratio (z) = 0.21226 0.14319
#
# Static dielectric constant tensor:
#      x y z
#    x 1.889210 0.031150 -0.001820 
#    y 0.031150 1.723320 -0.011400 
#    z -0.001820 -0.011400 1.830640 
# 
# From -- ./inp_files/617316.got.cif
#   From: 2010.05.17/outbox.ucp.g08.bks.cvg/sg2_309_cif.got.tgz:617316.got - 2010.06.11 11:32:03.
