data_PCOD9074089
_publ_section_title
;
Structure prediction by ZEFSAII (Michael W. Deem and Ramdas Pophale) SiO2 
 PCOD9074089
Probable space group: P -1
;
_chemical_formula_sum "Si O2"
_cell_formula_units_Z 14
_cell_length_a 9.000000
_cell_length_b 12.000000
_cell_length_c 12.000000
_cell_angle_alpha 140.000000
_cell_angle_beta 70.000000
_cell_angle_gamma 90.000000
_cell_volume 705.336177
_symmetry_space_group_name_H-M "P -1"
_symmetry_group_IT_number 2
_symmetry_cell_setting 'triclinic'
loop_
_space_group_symop_operation_xyz
x,y,z
-x,-y,-z
loop_
_atom_site_type_symbol
_atom_site_label
_atom_site_fract_x
_atom_site_fract_y
_atom_site_fract_z
Si Si1 0.030987 0.943621 0.268802
Si Si2 0.345262 0.361031 0.661468
Si Si3 0.273988 0.269882 0.178315
Si Si4 0.992999 0.345056 0.118043
Si Si5 0.345569 0.067846 0.248942
Si Si6 0.297239 0.634314 0.340491
Si Si7 0.176474 0.562656 0.092274
O O1 0.074461 0.781414 0.233579
O O2 0.871354 0.158795 0.475969
O O3 0.979205 0.843482 0.102655
O O4 0.207227 0.975360 0.230194
O O5 0.352658 0.179073 0.447251
O O6 0.538510 0.341950 0.628350
O O7 0.219167 0.532849 0.741908
O O8 0.253172 0.425209 0.857961
O O9 0.103633 0.288059 0.161872
O O10 0.280196 0.208770 0.261950
O O11 0.272104 0.477125 0.306970
O O12 0.457977 0.100480 0.954480
O O13 0.061259 0.479727 0.130874
O O14 0.315922 0.555669 0.146924
#
# Coordination Sequence:
#
# PCOD9074089 Si02
#       7
#     2   2   2   2   2   2   2
#     4  11  22  39  63  93 125 159 201 246 304 363
#     4  11  22  38  61  92 122 159 201 245 302 357
#     4  10  23  44  63  88 122 158 206 254 302 356
#     4  10  22  42  65  90 124 160 201 251 301 359
#     4  11  24  41  64  90 121 160 204 254 302 359
#     4  11  23  40  64  91 124 163 201 248 301 360
#     4  10  22  42  62  90 125 160 201 252 300 358
#
# _framework density 19.848690999999999
#
# number of rings (size 3 to 8) (size 9 to 14) (size 15 to 20)
#    0.000    1.429    0.000    6.857    0.000    5.714 
#    0.000    9.286    0.000    0.000    0.000    0.000 
#    0.000    0.000    0.000    0.000    0.000    0.000 
#
# Total GULP energy -78011.664002 kJ/mol
# GULP energy per Si atom -5572.261714 kJ/mol
# Density = 1.980351 g / cm^3
# Si number density = 19.848691 Si / 1000 Ang^3
#
#
#
# Elastic Constant Matrix: (Units=GPa)
#
#
# Indices 1 2 3 4 5 6 
#
# 1 170.2339 39.4118 30.1712 -4.1354 20.5531 -23.6185
# 2 39.4118 121.3673 29.0913 11.2859 13.4706 -15.4690
# 3 30.1712 29.0913 89.8765 9.2953 14.5543 -0.0666
# 4 -4.1354 11.2859 9.2953 27.5389 -5.7744 5.8310
# 5 20.5531 13.4706 14.5543 -5.7744 44.3584 2.0030
# 6 -23.6185 -15.4690 -0.0666 5.8310 2.0030 36.1050
#
#
#
# Elastic Compliance Matrix: (Units=1/GPa)
#
#
# Indices 1 2 3 4 5 6 
#
# 1 0.007396 -0.001212 -0.001745 0.000734 -0.002587 0.004341
# 2 -0.001212 0.010543 -0.001964 -0.005461 -0.002922 0.004765
# 3 -0.001745 -0.001964 0.013382 -0.004493 -0.003524 -0.001037
# 4 0.000734 -0.005461 -0.004493 0.044063 0.008956 -0.009481
# 5 -0.002587 -0.002922 -0.003524 0.008956 0.027219 -0.005907
# 6 0.004341 0.004765 -0.001037 -0.009481 -0.005907 0.034435
#
#
# Mechanical properties :
#
#
# Convention : Reuss Voigt Hill
#
# Bulk Modulus (GPa) = 46.55257 64.31402 55.43330
# Shear Modulus (GPa) = 32.45907 40.45404 36.45655
#
# Velocity S-wave (km/s) = 4.04830 4.51945 4.29035
# Velocity P-wave (km/s) = 6.73471 7.72699 7.24785
#
# Compressibility (1/GPa) = 0.02148109
#
# Stress axis : x y z
#
# Youngs Moduli (GPa) = 135.19995 94.84767 74.72451
#
# Poissons Ratio (x) = 0.11491 0.13036
# Poissons Ratio (y) = 0.16380 0.14679
# Poissons Ratio (z) = 0.23587 0.18632
#
# Static dielectric constant tensor:
#      x y z
#    x 1.723080 0.017070 -0.012820 
#    y 0.017070 1.691610 -0.013560 
#    z -0.012820 -0.013560 1.779410 
# 
# From -- ./inp_files/226702.got.cif
#   From: 2010.05.17/outbox.ucp.g08.bks.cvg/sg2_114_cif.got.tgz:226702.got - 2010.06.11 11:32:03.
