data_PCOD9074792
_publ_section_title
;
Structure prediction by ZEFSAII (Michael W. Deem and Ramdas Pophale) SiO2 
 PCOD9074792
Probable space group: P -1
;
_chemical_formula_sum "Si O2"
_cell_formula_units_Z 13
_cell_length_a 7.561527
_cell_length_b 10.162586
_cell_length_c 12.336685
_cell_angle_alpha 117.771795
_cell_angle_beta 130.540654
_cell_angle_gamma 42.514368
_cell_volume 486.691645
_symmetry_space_group_name_H-M "P -1"
_symmetry_group_IT_number 2
_symmetry_cell_setting 'triclinic'
loop_
_space_group_symop_operation_xyz
x,y,z
-x,-y,-z
loop_
_atom_site_type_symbol
_atom_site_label
_atom_site_fract_x
_atom_site_fract_y
_atom_site_fract_z
Si Si1 0.695705 0.626767 0.570296
Si Si2 0.566977 0.267294 0.727895
Si Si3 0.036389 0.784099 0.452370
Si Si4 0.786895 0.905540 0.818622
Si Si5 0.430919 0.785386 0.978963
Si Si6 0.145187 0.978599 0.728444
Si Si7 0.500000 0.500000 0.000000
O O1 0.642452 0.659497 0.432996
O O2 0.375024 0.697792 0.517910
O O3 0.947123 0.397309 0.602553
O O4 0.762151 0.751984 0.704319
O O5 0.484986 0.421132 0.843143
O O6 0.900730 0.168828 0.774286
O O7 0.635230 0.081201 0.740198
O O8 0.815778 0.939273 0.332044
O O9 0.989156 0.891646 0.586513
O O10 0.157241 0.786710 0.920651
O O11 0.658452 0.023098 0.925898
O O12 0.688638 0.572762 0.044524
O O13 0.402926 0.820624 0.853673
#
# Coordination Sequence:
#
# PCOD9074792 Si02
#       7
#     2   2   2   2   2   2   1
#     4  10  18  33  53  79 105 132 171 211 241 298
#     4   9  18  31  54  78 104 133 163 209 260 301
#     4   9  19  32  53  76 102 137 172 203 245 297
#     4   9  18  33  52  77 104 132 164 207 263 307
#     4   9  18  33  53  73 101 133 165 212 261 300
#     4   9  17  35  53  72 103 138 167 205 254 299
#     4  10  18  32  52  80 100 128 168 204 258 312
#
# _framework density 26.710957000000001
#
# number of rings (size 3 to 8) (size 9 to 14) (size 15 to 20)
#    0.000    2.769    0.000    2.308    0.000    0.000 
#    0.000   17.692    0.000    0.000    0.000    0.000 
#    0.000    0.000    0.000    0.000    0.000    0.000 
#
# Total GULP energy -72546.452475 kJ/mol
# GULP energy per Si atom -5580.496344 kJ/mol
# Density = 2.665016 g / cm^3
# Si number density = 26.710957 Si / 1000 Ang^3
#
#
#
# Elastic Constant Matrix: (Units=GPa)
#
#
# Indices 1 2 3 4 5 6 
#
# 1 39.9804 7.4028 30.3427 6.6501 -3.6758 -7.1420
# 2 7.4028 138.5828 90.0116 23.0494 -16.9742 15.6316
# 3 30.3427 90.0116 223.7234 28.2218 -14.6558 20.8151
# 4 6.6501 23.0494 28.2218 62.5668 8.2429 -0.6746
# 5 -3.6758 -16.9742 -14.6558 8.2429 46.8889 -1.9235
# 6 -7.1420 15.6316 20.8151 -0.6746 -1.9235 35.9366
#
#
#
# Elastic Compliance Matrix: (Units=1/GPa)
#
#
# Indices 1 2 3 4 5 6 
#
# 1 0.030644 0.001206 -0.005125 -0.001542 0.001861 0.008605
# 2 0.001206 0.010649 -0.003680 -0.002837 0.003210 -0.002142
# 3 -0.005125 -0.003680 0.007206 -0.001471 0.000630 -0.003586
# 4 -0.001542 -0.002837 -0.001471 0.018506 -0.004784 0.001871
# 5 0.001861 0.003210 0.000630 -0.004784 0.023664 -0.000214
# 6 0.008605 -0.002142 -0.003586 0.001871 -0.000214 0.032569
#
#
# Mechanical properties :
#
#
# Convention : Reuss Voigt Hill
#
# Bulk Modulus (GPa) = 30.03149 73.08897 51.56023
# Shear Modulus (GPa) = 33.43657 47.38045 40.40851
#
# Velocity S-wave (km/s) = 3.54191 4.21624 3.89370
# Velocity P-wave (km/s) = 5.29097 7.15015 6.28963
#
# Compressibility (1/GPa) = 0.03329838
#
# Stress axis : x y z
#
# Youngs Moduli (GPa) = 32.63331 93.90922 138.76976
#
# Poissons Ratio (x) = -0.11324 0.71126
# Poissons Ratio (y) = -0.03935 0.51073
# Poissons Ratio (z) = 0.16726 0.34562
#
# Static dielectric constant tensor:
#      x y z
#    x 2.188380 0.353100 0.019000 
#    y 0.353100 0.852700 0.203770 
#    z 0.019000 0.203770 1.997820 
# 
# From -- ./inp_files/159728.got.cif
#   From: 2010.05.17/outbox.cif.g08.bks.cpg/sg2_80_cif.got.tgz:159728.got - 2010.06.03 11:33:40.
