data_PCOD9074323
_publ_section_title
;
Structure prediction by ZEFSAII (Michael W. Deem and Ramdas Pophale) SiO2 
 PCOD9074323
Probable space group: P -1
;
_chemical_formula_sum "Si O2"
_cell_formula_units_Z 15
_cell_length_a 9.000000
_cell_length_b 12.000000
_cell_length_c 21.000000
_cell_angle_alpha 30.000000
_cell_angle_beta 40.000000
_cell_angle_gamma 60.000000
_cell_volume 627.666119
_symmetry_space_group_name_H-M "P -1"
_symmetry_group_IT_number 2
_symmetry_cell_setting 'triclinic'
loop_
_space_group_symop_operation_xyz
x,y,z
-x,-y,-z
loop_
_atom_site_type_symbol
_atom_site_label
_atom_site_fract_x
_atom_site_fract_y
_atom_site_fract_z
Si Si1 0.794613 0.775626 0.956401
Si Si2 0.833258 0.619760 0.460363
Si Si3 0.000000 0.500000 0.000000
Si Si4 0.318788 0.794202 0.387747
Si Si5 0.572047 0.944753 0.638005
Si Si6 0.211975 0.429915 0.284689
Si Si7 0.886317 0.194204 0.954046
Si Si8 0.311762 0.586214 0.715441
O O1 0.918904 0.712446 0.887050
O O2 0.481987 0.668764 0.106198
O O3 0.765150 0.516834 0.134650
O O4 0.964749 0.073705 0.771816
O O5 0.714520 0.462569 0.510257
O O6 0.581969 0.589469 0.600356
O O7 0.000000 0.500000 0.500000
O O8 0.259450 0.752939 0.825783
O O9 0.019723 0.747363 0.501495
O O10 0.382793 0.891129 0.392860
O O11 0.569789 0.021318 0.156246
O O12 0.711842 0.765831 0.678973
O O13 0.664034 0.148869 0.447860
O O14 0.086693 0.582983 0.213236
O O15 0.060646 0.355124 0.876780
O O16 0.000000 0.000000 0.000000
#
# Coordination Sequence:
#
# PCOD9074323 Si02
#       8
#     2   2   1   2   2   2   2   2
#     4  11  26  47  76 111 149 200 247 311 380 444
#     4  12  27  48  75 113 152 201 255 311 379 449
#     4  10  22  48  74 106 146 192 248 304 370 450
#     4  12  26  47  74 106 152 201 245 318 373 445
#     4  11  25  50  75 113 150 199 257 310 383 449
#     4  11  27  49  73 108 155 194 252 318 370 464
#     4  12  27  45  72 110 145 195 249 309 377 446
#     4  12  26  46  75 111 150 195 252 315 373 452
#
# _framework density 23.898056
#
# number of rings (size 3 to 8) (size 9 to 14) (size 15 to 20)
#    0.000    0.533    4.000    2.800    1.867    4.800 
#    7.200    0.000    0.000    0.000    0.000    0.000 
#    0.000    0.000    0.000    0.000    0.000    0.000 
#
# Total GULP energy -83524.297235 kJ/mol
# GULP energy per Si atom -5568.286482 kJ/mol
# Density = 2.384366 g / cm^3
# Si number density = 23.898056 Si / 1000 Ang^3
#
#
#
# Elastic Constant Matrix: (Units=GPa)
#
#
# Indices 1 2 3 4 5 6 
#
# 1 77.3919 38.5729 45.2318 -15.5352 -0.0340 2.8519
# 2 38.5729 122.3565 76.3930 -10.5615 5.3796 -5.9352
# 3 45.2318 76.3930 181.8441 -19.3989 -31.1481 9.0369
# 4 -15.5352 -10.5615 -19.3989 57.9603 -4.4441 -8.6927
# 5 -0.0340 5.3796 -31.1481 -4.4441 61.6023 -11.0497
# 6 2.8519 -5.9352 9.0369 -8.6927 -11.0497 47.2888
#
#
#
# Elastic Compliance Matrix: (Units=1/GPa)
#
#
# Indices 1 2 3 4 5 6 
#
# 1 0.016704 -0.003435 -0.002527 0.002842 -0.000878 -0.000638
# 2 -0.003435 0.012724 -0.005207 -0.000316 -0.003420 0.001942
# 3 -0.002527 -0.005207 0.009442 0.001822 0.005224 -0.000750
# 4 0.002842 -0.000316 0.001822 0.019353 0.003011 0.003702
# 5 -0.000878 -0.003420 0.005224 0.003011 0.020085 0.003872
# 6 -0.000638 0.001942 -0.000750 0.003702 0.003872 0.023157
#
#
# Mechanical properties :
#
#
# Convention : Reuss Voigt Hill
#
# Bulk Modulus (GPa) = 60.49192 77.99865 69.24528
# Shear Modulus (GPa) = 38.66537 48.12993 43.39765
#
# Velocity S-wave (km/s) = 4.02671 4.49259 4.26602
# Velocity P-wave (km/s) = 6.85468 7.72141 7.30092
#
# Compressibility (1/GPa) = 0.01653113
#
# Stress axis : x y z
#
# Youngs Moduli (GPa) = 59.86542 78.59131 105.91098
#
# Poissons Ratio (x) = 0.26996 0.26768
# Poissons Ratio (y) = 0.20564 0.55148
# Poissons Ratio (z) = 0.15130 0.40923
#
# Static dielectric constant tensor:
#      x y z
#    x 2.011760 -0.046360 0.016260 
#    y -0.046360 2.268770 0.177060 
#    z 0.016260 0.177060 1.993650 
# 
# From -- ./inp_files/589344.got.cif
#   From: 2010.05.17/outbox.ucp.g08.bks.cvg/sg2_295_cif.got.tgz:589344.got - 2010.06.11 11:32:03.
