data_PCOD9074332
_publ_section_title
;
Structure prediction by ZEFSAII (Michael W. Deem and Ramdas Pophale) SiO2 
 PCOD9074332
Probable space group: P -1
;
_chemical_formula_sum "Si O2"
_cell_formula_units_Z 16
_cell_length_a 17.350545
_cell_length_b 21.881190
_cell_length_c 5.519883
_cell_angle_alpha 111.137353
_cell_angle_beta 54.379170
_cell_angle_gamma 151.421998
_cell_volume 751.060435
_symmetry_space_group_name_H-M "P -1"
_symmetry_group_IT_number 2
_symmetry_cell_setting 'triclinic'
loop_
_space_group_symop_operation_xyz
x,y,z
-x,-y,-z
loop_
_atom_site_type_symbol
_atom_site_label
_atom_site_fract_x
_atom_site_fract_y
_atom_site_fract_z
Si Si1 0.283571 0.903264 0.230053
Si Si2 0.839131 0.460184 0.264117
Si Si3 0.981143 0.566327 0.655881
Si Si4 0.745331 0.852143 0.499223
Si Si5 0.012341 0.134677 0.901323
Si Si6 0.599449 0.809966 0.206215
Si Si7 0.263748 0.842192 0.679418
Si Si8 0.935364 0.110485 0.506263
O O1 0.194489 0.843086 0.577352
O O2 0.264661 0.967186 0.272560
O O3 0.181953 0.805808 0.046389
O O4 0.500000 0.000000 0.000000
O O5 0.621478 0.298480 0.491335
O O6 0.900357 0.539023 0.502356
O O7 0.000000 0.500000 0.000000
O O8 0.844756 0.497300 0.042673
O O9 0.194976 0.728797 0.558473
O O10 0.000000 0.500000 0.500000
O O11 0.647458 0.793651 0.328088
O O12 0.873470 0.865036 0.317609
O O13 0.883792 0.001906 0.455159
O O14 0.610310 0.781182 0.884136
O O15 0.040931 0.190510 0.679961
O O16 0.061522 0.197449 0.156430
O O17 0.773831 0.970957 0.111092
O O18 0.500000 0.000000 0.500000
#
# Coordination Sequence:
#
# PCOD9074332 Si02
#       8
#     2   2   2   2   2   2   2   2
#     4  10  21  37  52  81 118 158 214 244 286 363
#     4  10  21  37  52  81 118 158 214 244 286 363
#     4  10  21  40  58  80 112 158 213 260 299 343
#     4  10  19  33  54  85 123 155 197 261 326 374
#     4  10  19  33  54  85 123 155 197 261 326 374
#     4  10  18  32  50  78 117 159 197 236 309 374
#     4  10  21  40  58  80 112 158 213 260 299 343
#     4  10  18  32  50  78 117 159 197 236 309 374
#
# _framework density 21.303213
#
# number of rings (size 3 to 8) (size 9 to 14) (size 15 to 20)
#    0.000    2.000    0.000    6.000    0.000    0.000 
#   54.000    0.000    0.000    0.000    0.000    0.000 
#    0.000  116.000    0.000    0.000    0.000    0.000 
#
# Total GULP energy -89079.774364 kJ/mol
# GULP energy per Si atom -5567.485898 kJ/mol
# Density = 2.125473 g / cm^3
# Si number density = 21.303213 Si / 1000 Ang^3
#
#
#
# Elastic Constant Matrix: (Units=GPa)
#
#
# Indices 1 2 3 4 5 6 
#
# 1 115.8330 10.3148 36.1955 29.0719 28.8078 21.6318
# 2 10.3148 63.5211 16.6190 9.8590 16.5408 8.1270
# 3 36.1955 16.6190 98.4407 20.8652 38.5317 23.0746
# 4 29.0719 9.8590 20.8652 32.9593 19.6251 14.5203
# 5 28.8078 16.5408 38.5317 19.6251 54.6592 20.6104
# 6 21.6318 8.1270 23.0746 14.5203 20.6104 24.1810
#
#
#
# Elastic Compliance Matrix: (Units=1/GPa)
#
#
# Indices 1 2 3 4 5 6 
#
# 1 0.011928 0.000411 -0.001502 -0.007183 -0.001274 -0.003976
# 2 0.000411 0.017348 -0.000972 -0.002468 -0.003635 -0.000691
# 3 -0.001502 -0.000972 0.015311 -0.001172 -0.006886 -0.006367
# 4 -0.007183 -0.002468 -0.001172 0.048744 -0.006282 -0.015542
# 5 -0.001274 -0.003635 -0.006886 -0.006282 0.032988 -0.015412
# 6 -0.003976 -0.000691 -0.006367 -0.015542 -0.015412 0.073689
#
#
# Mechanical properties :
#
#
# Convention : Reuss Voigt Hill
#
# Bulk Modulus (GPa) = 24.71499 44.89484 34.80491
# Shear Modulus (GPa) = 22.97568 36.67094 29.82331
#
# Velocity S-wave (km/s) = 3.28763 4.15345 3.74564
# Velocity P-wave (km/s) = 5.10275 6.64240 5.92282
#
# Compressibility (1/GPa) = 0.04046128
#
# Stress axis : x y z
#
# Youngs Moduli (GPa) = 83.83589 57.64256 65.31262
#
# Poissons Ratio (x) = -0.02371 0.09811
# Poissons Ratio (y) = -0.03449 0.06350
# Poissons Ratio (z) = 0.12593 0.05605
#
# Static dielectric constant tensor:
#      x y z
#    x 1.838850 0.031240 0.060370 
#    y 0.031240 1.785960 0.036040 
#    z 0.060370 0.036040 1.898640 
# 
# From -- ./inp_files/96894.got.cif
#   From: 2010.05.17/outbox.cif.g08.bks.cpg/sg2_49_cif.got.tgz:96894.got - 2010.06.03 11:33:40.
