data_PCOD9074617
_publ_section_title
;
Structure prediction by ZEFSAII (Michael W. Deem and Ramdas Pophale) SiO2 
 PCOD9074617
Probable space group: P -1
;
_chemical_formula_sum "Si O2"
_cell_formula_units_Z 16
_cell_length_a 21.000000
_cell_length_b 12.000000
_cell_length_c 18.000000
_cell_angle_alpha 140.000000
_cell_angle_beta 30.000000
_cell_angle_gamma 160.000000
_cell_volume 744.844803
_symmetry_space_group_name_H-M "P -1"
_symmetry_group_IT_number 2
_symmetry_cell_setting 'triclinic'
loop_
_space_group_symop_operation_xyz
x,y,z
-x,-y,-z
loop_
_atom_site_type_symbol
_atom_site_label
_atom_site_fract_x
_atom_site_fract_y
_atom_site_fract_z
Si Si1 0.910380 0.502879 0.494134
Si Si2 0.609970 0.294028 0.090996
Si Si3 0.477163 0.476324 0.600282
Si Si4 0.388070 0.721095 0.576061
Si Si5 0.510778 0.364743 0.073320
Si Si6 0.943233 0.688498 0.723349
Si Si7 0.781389 0.643010 0.582869
Si Si8 0.073072 0.595654 0.066741
O O1 0.949117 0.636779 0.604208
O O2 0.914221 0.661241 0.512096
O O3 0.086975 0.538939 0.324084
O O4 0.637302 0.095429 0.550926
O O5 0.493647 0.303808 0.273610
O O6 0.624742 0.439588 0.077377
O O7 0.818917 0.444743 0.012876
O O8 0.500000 0.000000 0.000000
O O9 0.500000 0.500000 0.500000
O O10 0.649317 0.515846 0.472288
O O11 0.196373 0.076109 0.692648
O O12 0.382880 0.664808 0.465571
O O13 0.172624 0.607212 0.752583
O O14 0.394092 0.419818 0.231466
O O15 0.287949 0.986765 0.070369
O O16 0.730088 0.575712 0.901602
O O17 0.000000 0.000000 0.500000
O O18 0.000000 0.500000 0.000000
#
# Coordination Sequence:
#
# PCOD9074617 Si02
#       8
#     2   2   2   2   2   2   2   2
#     4  10  25  46  69 101 141 182 235 293 353 430
#     4  10  24  42  66 103 141 186 228 299 353 419
#     4  11  24  44  74 102 139 187 240 292 354 432
#     4  11  23  44  66 103 136 186 237 284 358 417
#     4  11  24  44  66 100 141 181 238 288 352 429
#     4  10  25  45  71 100 139 188 232 292 361 416
#     4  12  25  42  70 101 141 184 234 289 353 422
#     4  11  23  40  68 102 141 182 233 292 355 421
#
# _framework density 21.480985
#
# number of rings (size 3 to 8) (size 9 to 14) (size 15 to 20)
#    0.000    1.250    2.500    1.875    3.500    9.000 
#    0.000    0.000    0.000    0.000    0.000    0.000 
#    0.000    0.000    0.000    0.000    0.000    0.000 
#
# Total GULP energy -89083.637946 kJ/mol
# GULP energy per Si atom -5567.727372 kJ/mol
# Density = 2.143209 g / cm^3
# Si number density = 21.480985 Si / 1000 Ang^3
#
#
#
# Elastic Constant Matrix: (Units=GPa)
#
#
# Indices 1 2 3 4 5 6 
#
# 1 140.1246 9.7584 16.5851 24.0896 -14.1416 6.3140
# 2 9.7584 79.0428 17.9744 19.5846 -4.2478 9.5348
# 3 16.5851 17.9744 141.2146 32.3639 -14.0342 -0.7559
# 4 24.0896 19.5846 32.3639 38.6088 8.8470 -1.8332
# 5 -14.1416 -4.2478 -14.0342 8.8470 44.9520 12.7360
# 6 6.3140 9.5348 -0.7559 -1.8332 12.7360 45.2150
#
#
#
# Elastic Compliance Matrix: (Units=1/GPa)
#
#
# Indices 1 2 3 4 5 6 
#
# 1 0.009340 0.001720 0.001537 -0.009683 0.006588 -0.003889
# 2 0.001720 0.016223 0.001087 -0.011975 0.006455 -0.005947
# 3 0.001537 0.001087 0.010093 -0.011652 0.006784 -0.002658
# 4 -0.009683 -0.011975 -0.011652 0.053323 -0.021698 0.011956
# 5 0.006588 0.006455 0.006784 -0.021698 0.034971 -0.012898
# 6 -0.003889 -0.005947 -0.002658 0.011956 -0.012898 0.027987
#
#
# Mechanical properties :
#
#
# Convention : Reuss Voigt Hill
#
# Bulk Modulus (GPa) = 22.55093 49.89087 36.22090
# Shear Modulus (GPa) = 31.63950 46.82609 39.23279
#
# Velocity S-wave (km/s) = 3.84201 4.67399 4.27827
# Velocity P-wave (km/s) = 5.49566 7.23908 6.42676
#
# Compressibility (1/GPa) = 0.04434408
#
# Stress axis : x y z
#
# Youngs Moduli (GPa) = 107.07166 61.63996 99.08047
#
# Poissons Ratio (x) = -0.10600 -0.15231
# Poissons Ratio (y) = -0.18413 -0.10773
# Poissons Ratio (z) = -0.16459 -0.06702
#
# Static dielectric constant tensor:
#      x y z
#    x 1.855150 -0.030640 -0.004570 
#    y -0.030640 1.839730 -0.055300 
#    z -0.004570 -0.055300 1.800970 
# 
# From -- ./inp_files/577989.got.cif
#   From: 2010.05.17/outbox.ucp.g08.bks.cvg/sg2_289_cif.got.tgz:577989.got - 2010.06.11 11:32:03.
