data_PCOD9074464
_publ_section_title
;
Structure prediction by ZEFSAII (Michael W. Deem and Ramdas Pophale) SiO2 
 PCOD9074464
Probable space group: P -1
;
_chemical_formula_sum "Si O2"
_cell_formula_units_Z 14
_cell_length_a 21.000000
_cell_length_b 9.000000
_cell_length_c 9.000000
_cell_angle_alpha 50.000000
_cell_angle_beta 150.000000
_cell_angle_gamma 120.000000
_cell_volume 644.350134
_symmetry_space_group_name_H-M "P -1"
_symmetry_group_IT_number 2
_symmetry_cell_setting 'triclinic'
loop_
_space_group_symop_operation_xyz
x,y,z
-x,-y,-z
loop_
_atom_site_type_symbol
_atom_site_label
_atom_site_fract_x
_atom_site_fract_y
_atom_site_fract_z
Si Si1 0.897493 0.015838 0.418143
Si Si2 0.542702 0.779692 0.790646
Si Si3 0.731481 0.291557 0.697332
Si Si4 0.944218 0.216025 0.680556
Si Si5 0.443986 0.198796 0.840615
Si Si6 0.311192 0.607285 0.783029
Si Si7 0.158573 0.323466 0.240102
O O1 0.937005 0.168278 0.522429
O O2 0.872087 0.825189 0.590102
O O3 0.774787 0.114296 0.012230
O O4 0.000000 0.000000 0.500000
O O5 0.420313 0.661771 0.608998
O O6 0.500000 0.000000 0.500000
O O7 0.561886 0.807918 0.986986
O O8 0.658446 0.625662 0.050253
O O9 0.734873 0.268529 0.540529
O O10 0.814438 0.466058 0.781618
O O11 0.802301 0.317593 0.379884
O O12 0.043537 0.342007 0.876531
O O13 0.000000 0.000000 0.000000
O O14 0.291576 0.247643 0.469162
O O15 0.551743 0.334099 0.928752
O O16 0.500000 0.000000 0.000000
#
# Coordination Sequence:
#
# PCOD9074464 Si02
#       7
#     2   2   2   2   2   2   2
#     4  11  25  43  66 100 138 183 233 281 354 424
#     4  11  23  44  67 101 143 184 232 285 343 419
#     4  11  22  42  70  99 135 180 232 285 344 413
#     4  10  23  43  69 102 139 180 230 290 350 415
#     4  11  21  41  69 100 134 180 227 283 350 412
#     4  11  22  44  70 101 141 184 230 282 352 422
#     4  11  22  44  68  99 139 178 229 286 346 411
#
# _framework density 21.727318
#
# number of rings (size 3 to 8) (size 9 to 14) (size 15 to 20)
#    0.000    1.143    2.857    5.143    0.000    4.000 
#    2.571    1.429    0.000    0.000    0.000    0.000 
#    0.000    0.000    0.000    0.000    0.000    0.000 
#
# Total GULP energy -78059.809560 kJ/mol
# GULP energy per Si atom -5575.700683 kJ/mol
# Density = 2.167787 g / cm^3
# Si number density = 21.727318 Si / 1000 Ang^3
#
#
#
# Elastic Constant Matrix: (Units=GPa)
#
#
# Indices 1 2 3 4 5 6 
#
# 1 132.3570 40.4785 51.7499 7.1363 29.5956 -21.2811
# 2 40.4785 104.9187 12.5718 6.7591 11.3762 1.4708
# 3 51.7499 12.5718 81.3259 3.8219 12.2688 -2.8872
# 4 7.1363 6.7591 3.8219 40.6142 4.9129 7.1084
# 5 29.5956 11.3762 12.2688 4.9129 41.8586 -6.2197
# 6 -21.2811 1.4708 -2.8872 7.1084 -6.2197 38.3208
#
#
#
# Elastic Compliance Matrix: (Units=1/GPa)
#
#
# Indices 1 2 3 4 5 6 
#
# 1 0.013947 -0.003919 -0.007120 -0.001647 -0.005510 0.006771
# 2 -0.003919 0.011109 0.000838 -0.000699 -0.000789 -0.002538
# 3 -0.007120 0.000838 0.016669 0.000101 -0.000512 -0.002832
# 4 -0.001647 -0.000699 0.000101 0.026434 -0.002702 -0.006222
# 5 -0.005510 -0.000789 -0.000512 -0.002702 0.028780 0.002104
# 6 0.006771 -0.002538 -0.002832 -0.006222 0.002104 0.031235
#
#
# Mechanical properties :
#
#
# Convention : Reuss Voigt Hill
#
# Bulk Modulus (GPa) = 46.89646 58.68911 52.79278
# Shear Modulus (GPa) = 32.11615 38.41214 35.26414
#
# Velocity S-wave (km/s) = 3.84884 4.20922 4.03306
# Velocity P-wave (km/s) = 6.43291 7.11995 6.78513
#
# Compressibility (1/GPa) = 0.02132357
#
# Stress axis : x y z
#
# Youngs Moduli (GPa) = 71.69846 90.01733 59.99032
#
# Poissons Ratio (x) = 0.35280 0.42714
# Poissons Ratio (y) = 0.28100 -0.05030
# Poissons Ratio (z) = 0.51051 -0.07547
#
# Static dielectric constant tensor:
#      x y z
#    x 1.768460 0.019860 0.004280 
#    y 0.019860 1.831750 0.037510 
#    z 0.004280 0.037510 1.814090 
# 
# From -- ./inp_files/343360.got.cif
#   From: 2010.05.17/outbox.ucp.g08.bks.cvg/sg2_172_cif.got.tgz:343360.got - 2010.06.11 11:32:03.
