data_PCOD9074080
_publ_section_title
;
Structure prediction by ZEFSAII (Michael W. Deem and Ramdas Pophale) SiO2 
 PCOD9074080
Probable space group: P -1
;
_chemical_formula_sum "Si O2"
_cell_formula_units_Z 16
_cell_length_a 15.000000
_cell_length_b 12.000000
_cell_length_c 12.000000
_cell_angle_alpha 100.000000
_cell_angle_beta 30.000000
_cell_angle_gamma 120.000000
_cell_volume 748.962810
_symmetry_space_group_name_H-M "P -1"
_symmetry_group_IT_number 2
_symmetry_cell_setting 'triclinic'
loop_
_space_group_symop_operation_xyz
x,y,z
-x,-y,-z
loop_
_atom_site_type_symbol
_atom_site_label
_atom_site_fract_x
_atom_site_fract_y
_atom_site_fract_z
Si Si1 0.256102 0.160746 0.398648
Si Si2 0.789146 0.324156 0.252713
Si Si3 0.150309 0.346878 0.420393
Si Si4 0.459566 0.302707 0.446570
Si Si5 0.131864 0.205288 0.193268
Si Si6 0.371148 0.819080 0.129774
Si Si7 0.634126 0.319628 0.668128
Si Si8 0.860606 0.686538 0.041590
O O1 0.158701 0.237144 0.468392
O O2 0.331918 0.211479 0.453480
O O3 0.481279 0.222821 0.084970
O O4 0.091567 0.971222 0.543858
O O5 0.566050 0.244662 0.392159
O O6 0.743374 0.346166 0.432221
O O7 0.000000 0.500000 0.000000
O O8 0.892584 0.245291 0.147422
O O9 0.208239 0.329886 0.228459
O O10 0.296688 0.521747 0.339461
O O11 0.875736 0.276944 0.692831
O O12 0.673703 0.492321 0.212172
O O13 0.277445 0.283243 0.727870
O O14 0.335943 0.198271 0.954002
O O15 0.094383 0.249076 0.121824
O O16 0.312752 0.753730 0.309509
O O17 0.500000 0.000000 0.000000
#
# Coordination Sequence:
#
# PCOD9074080 Si02
#       8
#     2   2   2   2   2   2   2   2
#     4  12  27  43  69 100 141 187 218 278 348 408
#     4  10  23  42  67  99 133 167 226 289 336 387
#     4  12  26  44  71 102 134 176 233 282 333 407
#     4  10  23  43  67  95 131 175 231 280 336 396
#     4  12  23  45  67  97 141 178 221 279 344 405
#     4  12  26  46  70 102 146 178 221 278 350 410
#     4  12  25  44  75 103 131 184 230 282 340 402
#     4  10  22  41  70  93 132 174 225 288 332 392
#
# _framework density 21.362876
#
# number of rings (size 3 to 8) (size 9 to 14) (size 15 to 20)
#    0.000    0.750    3.750    3.375    8.750    0.500 
#    0.000    0.625    0.000    0.000    0.000    0.000 
#    0.000    0.000    0.000    0.000    0.000    0.000 
#
# Total GULP energy -89232.448700 kJ/mol
# GULP energy per Si atom -5577.028044 kJ/mol
# Density = 2.131425 g / cm^3
# Si number density = 21.362876 Si / 1000 Ang^3
#
#
#
# Elastic Constant Matrix: (Units=GPa)
#
#
# Indices 1 2 3 4 5 6 
#
# 1 188.4868 9.3025 24.4129 2.8127 13.4078 -31.6183
# 2 9.3025 -3.4903 -10.5082 -6.4616 5.0724 -20.6183
# 3 24.4129 -10.5082 59.1244 6.3599 5.9128 -5.6591
# 4 2.8127 -6.4616 6.3599 7.7235 -5.2920 0.0535
# 5 13.4078 5.0724 5.9128 -5.2920 40.5691 7.5497
# 6 -31.6183 -20.6183 -5.6591 0.0535 7.5497 37.3850
#
#
#
# Elastic Compliance Matrix: (Units=1/GPa)
#
#
# Indices 1 2 3 4 5 6 
#
# 1 0.006797 -0.001982 -0.001809 -0.004955 -0.003323 0.005059
# 2 -0.001982 -0.043178 -0.008238 -0.021735 0.009755 -0.028675
# 3 -0.001809 -0.008238 0.018998 -0.024532 -0.003899 -0.002375
# 4 -0.004955 -0.021735 -0.024532 0.156311 0.033316 -0.026843
# 5 -0.003323 0.009755 -0.003899 0.033316 0.030218 -0.004170
# 6 0.005059 -0.028675 -0.002375 -0.026843 -0.004170 0.015734
#
#
# Mechanical properties :
#
#
# Convention : Reuss Voigt Hill
#
# Bulk Modulus (GPa) = -24.13036 32.28168 4.07566
# Shear Modulus (GPa) = 25.62497 31.86311 28.74404
#
# Velocity S-wave (km/s) = 3.46715 3.86621 3.67210
# Velocity P-wave (km/s) = 2.16984 5.92233 4.45994
#
# Compressibility (1/GPa) = -0.04144156
#
# Stress axis : x y z
#
# Youngs Moduli (GPa) = 147.13402 -23.15982 52.63765
#
# Poissons Ratio (x) = -0.04590 0.09522
# Poissons Ratio (y) = 0.29160 0.43363
# Poissons Ratio (z) = 0.26617 -0.19079
#
# Static dielectric constant tensor:
#      x y z
#    x 1.762540 0.040710 -0.108550 
#    y 0.040710 1.764250 -0.092260 
#    z -0.108550 -0.092260 2.102510 
# 
# From -- ./inp_files/306260.got.cif
#   From: 2010.05.17/outbox.ucp.g08.bks.cvg/sg2_154_cif.got.tgz:306260.got - 2010.06.11 11:32:03.
