data_PCOD9074447
_publ_section_title
;
Structure prediction by ZEFSAII (Michael W. Deem and Ramdas Pophale) SiO2 
 PCOD9074447
Probable space group: P -1
;
_chemical_formula_sum "Si O2"
_cell_formula_units_Z 14
_cell_length_a 27.000000
_cell_length_b 9.000000
_cell_length_c 6.000000
_cell_angle_alpha 120.000000
_cell_angle_beta 120.000000
_cell_angle_gamma 30.000000
_cell_volume 623.732165
_symmetry_space_group_name_H-M "P -1"
_symmetry_group_IT_number 2
_symmetry_cell_setting 'triclinic'
loop_
_space_group_symop_operation_xyz
x,y,z
-x,-y,-z
loop_
_atom_site_type_symbol
_atom_site_label
_atom_site_fract_x
_atom_site_fract_y
_atom_site_fract_z
Si Si1 0.223616 0.492888 0.345533
Si Si2 0.514399 0.605276 0.909375
Si Si3 0.832217 0.128535 0.880095
Si Si4 0.038748 0.757631 0.067750
Si Si5 0.335147 0.964323 0.495542
Si Si6 0.691660 0.374582 0.143438
Si Si7 0.815358 0.840910 0.345397
O O1 0.206395 0.606139 0.140151
O O2 0.119233 0.665001 0.325024
O O3 0.265676 0.558563 0.602170
O O4 0.299480 0.161263 0.350212
O O5 0.406357 0.894901 0.771659
O O6 0.590020 0.356078 0.693477
O O7 0.500000 0.500000 0.000000
O O8 0.573411 0.636001 0.118783
O O9 0.857896 0.910136 0.604049
O O10 0.744042 0.268171 0.939819
O O11 0.940307 0.911849 0.067921
O O12 0.102827 0.470201 0.839655
O O13 0.000000 0.000000 0.000000
O O14 0.246325 0.107646 0.560163
O O15 0.739564 0.097155 0.178092
#
# Coordination Sequence:
#
# PCOD9074447 Si02
#       7
#     2   2   2   2   2   2   2
#     4  10  25  41  64  98 135 172 215 268 330 382
#     4  11  23  43  71  97 128 171 222 266 332 394
#     4  10  23  44  65  95 135 172 226 268 321 385
#     4  10  23  43  65  97 135 178 219 266 321 391
#     4  11  24  41  69 100 127 171 219 274 327 389
#     4  11  23  43  68  97 132 173 216 278 321 393
#     4  11  22  42  68  96 133 171 225 268 325 384
#
# _framework density 22.445532
#
# number of rings (size 3 to 8) (size 9 to 14) (size 15 to 20)
#    0.000    1.429    2.857    1.286    4.000    1.714 
#    5.143    1.429    0.000    0.000    0.000    0.000 
#    0.000    0.000    0.000    0.000    0.000    0.000 
#
# Total GULP energy -78000.535072 kJ/mol
# GULP energy per Si atom -5571.466791 kJ/mol
# Density = 2.239444 g / cm^3
# Si number density = 22.445532 Si / 1000 Ang^3
#
#
#
# Elastic Constant Matrix: (Units=GPa)
#
#
# Indices 1 2 3 4 5 6 
#
# 1 157.1460 28.4498 28.5855 -12.0547 6.7046 -19.9494
# 2 28.4498 57.9688 -1.6975 -6.9760 14.9055 0.1416
# 3 28.5855 -1.6975 47.0352 -9.2932 22.1252 -8.6357
# 4 -12.0547 -6.9760 -9.2932 25.1364 -11.7358 9.0673
# 5 6.7046 14.9055 22.1252 -11.7358 45.5361 -8.9390
# 6 -19.9494 0.1416 -8.6357 9.0673 -8.9390 39.5761
#
#
#
# Elastic Compliance Matrix: (Units=1/GPa)
#
#
# Indices 1 2 3 4 5 6 
#
# 1 0.009109 -0.005892 -0.007240 0.001032 0.005148 0.003959
# 2 -0.005892 0.023867 0.009830 0.003562 -0.011659 -0.004360
# 3 -0.007240 0.009830 0.035310 0.004079 -0.018470 -0.001086
# 4 0.001032 0.003562 0.004079 0.049366 0.007824 -0.008145
# 5 0.005148 -0.011659 -0.018470 0.007824 0.037026 0.005177
# 6 0.003959 -0.004360 -0.001086 -0.008145 0.005177 0.030078
#
#
# Mechanical properties :
#
#
# Convention : Reuss Voigt Hill
#
# Bulk Modulus (GPa) = 16.21187 41.42505 28.81846
# Shear Modulus (GPa) = 23.59376 35.83720 29.71548
#
# Velocity S-wave (km/s) = 3.24567 4.00012 3.64248
# Velocity P-wave (km/s) = 4.61349 6.31114 5.52787
#
# Compressibility (1/GPa) = 0.06168321
#
# Stress axis : x y z
#
# Youngs Moduli (GPa) = 109.77845 41.89847 28.32052
#
# Poissons Ratio (x) = 0.24686 0.20503
# Poissons Ratio (y) = 0.64680 -0.27838
# Poissons Ratio (z) = 0.79475 -0.41185
#
# Static dielectric constant tensor:
#      x y z
#    x 1.810130 -0.030250 0.073850 
#    y -0.030250 1.889020 -0.045320 
#    z 0.073850 -0.045320 2.011130 
# 
# From -- ./inp_files/31607.got.cif
#   From: 2010.05.17/outbox.ucp.g08.bks.cvg/sg2_16_cif.got.tgz:31607.got - 2010.06.11 11:32:03.
