data_PCOD9074956
_publ_section_title
;
Structure prediction by ZEFSAII (Michael W. Deem and Ramdas Pophale) SiO2 
 PCOD9074956
Probable space group: P -1
;
_chemical_formula_sum "Si O2"
_cell_formula_units_Z 14
_cell_length_a 12.000000
_cell_length_b 9.000000
_cell_length_c 12.000000
_cell_angle_alpha 140.000000
_cell_angle_beta 130.000000
_cell_angle_gamma 60.000000
_cell_volume 638.079485
_symmetry_space_group_name_H-M "P -1"
_symmetry_group_IT_number 2
_symmetry_cell_setting 'triclinic'
loop_
_space_group_symop_operation_xyz
x,y,z
-x,-y,-z
loop_
_atom_site_type_symbol
_atom_site_label
_atom_site_fract_x
_atom_site_fract_y
_atom_site_fract_z
Si Si1 0.755239 0.390037 0.041855
Si Si2 0.058466 0.425016 0.372336
Si Si3 0.715402 0.874985 0.399916
Si Si4 0.339778 0.100993 0.371216
Si Si5 0.161053 0.403556 0.023757
Si Si6 0.592520 0.334175 0.541151
Si Si7 0.048204 0.928214 0.612706
O O1 0.690267 0.612230 0.194558
O O2 0.914813 0.343574 0.169515
O O3 0.785205 0.495244 0.000445
O O4 0.670658 0.149976 0.839330
O O5 0.185799 0.237513 0.336077
O O6 0.113846 0.671058 0.503162
O O7 0.000000 0.500000 0.500000
O O8 0.645861 0.923689 0.501883
O O9 0.887566 0.908653 0.551713
O O10 0.658069 0.081656 0.401815
O O11 0.467501 0.263079 0.506497
O O12 0.273322 0.512774 0.244063
O O13 0.000000 0.500000 0.000000
O O14 0.143959 0.126325 0.843750
O O15 0.500000 0.500000 0.500000
O O16 0.000000 0.000000 0.500000
#
# Coordination Sequence:
#
# PCOD9074956 Si02
#       7
#     2   2   2   2   2   2   2
#     4  11  24  43  78 106 135 200 245 285 363 435
#     4  11  23  42  72 113 142 184 243 302 354 424
#     4  11  23  48  73 103 144 195 240 292 363 436
#     4  12  25  48  72 101 157 182 241 302 364 436
#     4  12  24  44  76 102 140 196 247 285 365 438
#     4  12  30  47  71 109 149 190 239 314 366 421
#     4  11  21  41  75 103 139 184 246 296 343 424
#
# _framework density 21.940840000000001
#
# number of rings (size 3 to 8) (size 9 to 14) (size 15 to 20)
#    0.000    0.571    8.571    0.857    4.000    1.714 
#    0.000    1.429    0.000    0.000    0.000    0.000 
#    0.000    0.000    0.000    0.000    0.000    0.000 
#
# Total GULP energy -78159.175928 kJ/mol
# GULP energy per Si atom -5582.798281 kJ/mol
# Density = 2.189090 g / cm^3
# Si number density = 21.940840 Si / 1000 Ang^3
#
#
#
# Elastic Constant Matrix: (Units=GPa)
#
#
# Indices 1 2 3 4 5 6 
#
# 1 66.0394 29.6824 37.2081 3.1033 13.5076 0.9874
# 2 29.6824 149.4208 61.8257 9.4545 -1.5322 -14.6947
# 3 37.2081 61.8257 167.7779 25.4146 16.5279 -10.0217
# 4 3.1033 9.4545 25.4146 35.5655 -3.3771 6.8535
# 5 13.5076 -1.5322 16.5279 -3.3771 27.7800 6.3446
# 6 0.9874 -14.6947 -10.0217 6.8535 6.3446 35.1344
#
#
#
# Elastic Compliance Matrix: (Units=1/GPa)
#
#
# Indices 1 2 3 4 5 6 
#
# 1 0.019564 -0.003045 -0.002591 0.000453 -0.007800 -0.001242
# 2 -0.003045 0.008674 -0.002591 -0.000404 0.002873 0.002534
# 3 -0.002591 -0.002591 0.009477 -0.007285 -0.006381 0.004265
# 4 0.000453 -0.000404 -0.007285 0.036651 0.011156 -0.011424
# 5 -0.007800 0.002873 -0.006381 0.011156 0.047655 -0.011181
# 6 -0.001242 0.002534 0.004265 -0.011424 -0.011181 0.035021
#
#
# Mechanical properties :
#
#
# Convention : Reuss Voigt Hill
#
# Bulk Modulus (GPa) = 47.03806 71.18560 59.11183
# Shear Modulus (GPa) = 27.68819 36.66411 32.17615
#
# Velocity S-wave (km/s) = 3.55624 4.09228 3.83364
# Velocity P-wave (km/s) = 6.19255 7.40566 6.82610
#
# Compressibility (1/GPa) = 0.02125938
#
# Stress axis : x y z
#
# Youngs Moduli (GPa) = 51.11527 115.28807 105.52250
#
# Poissons Ratio (x) = 0.35106 0.27339
# Poissons Ratio (y) = 0.15565 0.27346
# Poissons Ratio (z) = 0.13243 0.29877
#
# Static dielectric constant tensor:
#      x y z
#    x 1.884270 0.006360 -0.045700 
#    y 0.006360 1.868450 -0.027400 
#    z -0.045700 -0.027400 1.759360 
# 
# From -- ./inp_files/420200.got.cif
#   From: 2010.05.17/outbox.ucp.g08.bks.cvg/sg2_211_cif.got.tgz:420200.got - 2010.06.11 11:32:03.
