data_PCOD9074170
_publ_section_title
;
Structure prediction by ZEFSAII (Michael W. Deem and Ramdas Pophale) SiO2 
 PCOD9074170
Probable space group: P -1
;
_chemical_formula_sum "Si O2"
_cell_formula_units_Z 14
_cell_length_a 9.000000
_cell_length_b 15.000000
_cell_length_c 9.000000
_cell_angle_alpha 50.000000
_cell_angle_beta 120.000000
_cell_angle_gamma 90.000000
_cell_volume 705.144057
_symmetry_space_group_name_H-M "P -1"
_symmetry_group_IT_number 2
_symmetry_cell_setting 'triclinic'
loop_
_space_group_symop_operation_xyz
x,y,z
-x,-y,-z
loop_
_atom_site_type_symbol
_atom_site_label
_atom_site_fract_x
_atom_site_fract_y
_atom_site_fract_z
Si Si1 0.563318 0.247867 0.666336
Si Si2 0.873581 0.564156 0.724228
Si Si3 0.525982 0.077827 0.065696
Si Si4 0.873641 0.953608 0.587794
Si Si5 0.069895 0.269854 0.667997
Si Si6 0.154028 0.889166 0.305316
Si Si7 0.867459 0.326267 0.820835
O O1 0.332934 0.312835 0.467641
O O2 0.657303 0.180635 0.629726
O O3 0.663781 0.337234 0.654781
O O4 0.616405 0.158270 0.937398
O O5 0.964524 0.614530 0.587717
O O6 0.827733 0.455543 0.748450
O O7 0.000000 0.500000 0.000000
O O8 0.679650 0.984539 0.364542
O O9 0.304289 0.174138 0.905128
O O10 0.500000 0.000000 0.000000
O O11 0.811728 0.046870 0.601637
O O12 0.000000 0.000000 0.500000
O O13 0.004016 0.804112 0.874222
O O14 0.952507 0.197751 0.620319
O O15 0.985773 0.314042 0.742528
O O16 0.000000 0.000000 0.000000
#
# Coordination Sequence:
#
# PCOD9074170 Si02
#       7
#     2   2   2   2   2   2   2
#     4  10  22  43  65  89 127 172 204 263 315 378
#     4  11  26  42  64  92 126 170 221 261 308 368
#     4  11  23  37  61  95 134 162 203 264 327 373
#     4  12  23  37  68  98 127 166 211 258 320 392
#     4  10  23  42  64  90 130 168 204 272 315 366
#     4  11  20  42  67  97 128 161 210 257 325 380
#     4  11  23  43  64  90 126 173 212 251 318 381
#
# _framework density 19.854099000000001
#
# number of rings (size 3 to 8) (size 9 to 14) (size 15 to 20)
#    0.000    1.143    4.286    2.571    6.000    1.714 
#    0.000    2.857    0.000    0.000    0.000    0.000 
#    0.000    0.000    0.000    0.000    0.000    0.000 
#
# Total GULP energy -78119.616067 kJ/mol
# GULP energy per Si atom -5579.972576 kJ/mol
# Density = 1.980891 g / cm^3
# Si number density = 19.854099 Si / 1000 Ang^3
#
#
#
# Elastic Constant Matrix: (Units=GPa)
#
#
# Indices 1 2 3 4 5 6 
#
# 1 88.3946 11.7939 21.6370 -0.4150 -19.6038 0.7342
# 2 11.7939 58.0013 2.6577 11.5231 4.5485 -19.9256
# 3 21.6370 2.6577 105.4521 19.7361 -11.8377 -5.5252
# 4 -0.4150 11.5231 19.7361 28.4321 5.7412 -0.6475
# 5 -19.6038 4.5485 -11.8377 5.7412 14.6139 20.7819
# 6 0.7342 -19.9256 -5.5252 -0.6475 20.7819 -31.0464
#
#
#
# Elastic Compliance Matrix: (Units=1/GPa)
#
#
# Indices 1 2 3 4 5 6 
#
# 1 0.013526 -0.001112 -0.001592 0.000328 0.007792 0.006526
# 2 -0.001112 0.016716 0.002195 -0.009955 0.007454 -0.005948
# 3 -0.001592 0.002195 0.013080 -0.011738 0.008918 0.002440
# 4 0.000328 -0.009955 -0.011738 0.051025 -0.018735 -0.005119
# 5 0.007792 0.007454 0.008918 -0.018735 0.050918 0.028288
# 6 0.006526 -0.005948 0.002440 -0.005119 0.028288 -0.009630
#
#
# Mechanical properties :
#
#
# Convention : Reuss Voigt Hill
#
# Bulk Modulus (GPa) = 23.63798 36.00281 29.82040
# Shear Modulus (GPa) = 33.16633 16.78388 24.97510
#
# Velocity S-wave (km/s) = 4.09161 2.91066 3.55058
# Velocity P-wave (km/s) = 5.85264 5.42854 5.64457
#
# Compressibility (1/GPa) = 0.04230480
#
# Stress axis : x y z
#
# Youngs Moduli (GPa) = 73.92928 59.82178 76.45252
#
# Poissons Ratio (x) = 0.06652 0.12173
# Poissons Ratio (y) = 0.08220 -0.16782
# Poissons Ratio (z) = 0.11771 -0.13132
#
# Static dielectric constant tensor:
#      x y z
#    x 1.539620 0.056470 0.046830 
#    y 0.056470 1.709390 -0.068330 
#    z 0.046830 -0.068330 1.671240 
# 
# From -- ./inp_files/156677.got.cif
#   From: 2010.05.17/outbox.ucp.g08.bks.cvg/sg2_79_cif.got.tgz:156677.got - 2010.06.11 11:32:03.
