data_PCOD9074670
_publ_section_title
;
Structure prediction by ZEFSAII (Michael W. Deem and Ramdas Pophale) SiO2 
 PCOD9074670
Probable space group: P -1
;
_chemical_formula_sum "Si O2"
_cell_formula_units_Z 14
_cell_length_a 12.000000
_cell_length_b 18.000000
_cell_length_c 9.000000
_cell_angle_alpha 130.000000
_cell_angle_beta 140.000000
_cell_angle_gamma 30.000000
_cell_volume 623.501542
_symmetry_space_group_name_H-M "P -1"
_symmetry_group_IT_number 2
_symmetry_cell_setting 'triclinic'
loop_
_space_group_symop_operation_xyz
x,y,z
-x,-y,-z
loop_
_atom_site_type_symbol
_atom_site_label
_atom_site_fract_x
_atom_site_fract_y
_atom_site_fract_z
Si Si1 0.770704 0.831658 0.101934
Si Si2 0.077413 0.726349 0.574092
Si Si3 0.948688 0.114893 0.704245
Si Si4 0.597840 0.429308 0.843103
Si Si5 0.066358 0.389531 0.226544
Si Si6 0.210180 0.895867 0.951664
Si Si7 0.784471 0.704286 0.414938
O O1 0.869930 0.784924 0.310252
O O2 0.972614 0.823545 0.227264
O O3 0.776425 0.722589 0.895228
O O4 0.500000 0.000000 0.000000
O O5 0.353815 0.550787 0.637413
O O6 0.163151 0.802140 0.744298
O O7 0.912790 0.756054 0.586562
O O8 0.690438 0.276695 0.727888
O O9 0.000000 0.000000 0.500000
O O10 0.136092 0.002181 0.883878
O O11 0.500000 0.500000 0.000000
O O12 0.814480 0.422686 0.024639
O O13 0.974306 0.539728 0.327549
O O14 0.229410 0.305507 0.435954
O O15 0.500689 0.801143 0.181151
O O16 0.000000 0.000000 0.000000
#
# Coordination Sequence:
#
# PCOD9074670 Si02
#       7
#     2   2   2   2   2   2   2
#     4  11  26  46  68 102 147 187 234 294 362 427
#     4  12  25  45  76 104 138 194 238 291 358 427
#     4  11  25  45  69 104 145 187 233 299 365 421
#     4  11  22  45  74 104 141 187 246 291 358 432
#     4  10  24  44  70 102 143 186 233 301 354 421
#     4  12  27  44  72 108 142 189 241 298 359 427
#     4  11  25  44  71 105 140 182 246 290 350 429
#
# _framework density 22.453834000000001
#
# number of rings (size 3 to 8) (size 9 to 14) (size 15 to 20)
#    0.000    0.857    4.286    1.714    4.000    5.714 
#    0.000    0.000    0.000    0.000    0.000    0.000 
#    0.000    0.000    0.000    0.000    0.000    0.000 
#
# Total GULP energy -78053.970241 kJ/mol
# GULP energy per Si atom -5575.283589 kJ/mol
# Density = 2.240273 g / cm^3
# Si number density = 22.453834 Si / 1000 Ang^3
#
#
#
# Elastic Constant Matrix: (Units=GPa)
#
#
# Indices 1 2 3 4 5 6 
#
# 1 33.6975 -8.9730 -6.6809 -10.2522 4.7068 9.5710
# 2 -8.9730 98.3811 47.4410 -6.9557 -19.9174 8.0870
# 3 -6.6809 47.4410 95.4534 -14.5123 -10.8674 -0.2213
# 4 -10.2522 -6.9557 -14.5123 46.6487 17.4499 -5.1385
# 5 4.7068 -19.9174 -10.8674 17.4499 28.0459 4.4779
# 6 9.5710 8.0870 -0.2213 -5.1385 4.4779 26.4376
#
#
#
# Elastic Compliance Matrix: (Units=1/GPa)
#
#
# Indices 1 2 3 4 5 6 
#
# 1 0.038805 0.002129 0.002345 0.012118 -0.009932 -0.010642
# 2 0.002129 0.017315 -0.007745 -0.005648 0.013985 -0.009599
# 3 0.002345 -0.007745 0.014912 0.006062 -0.004459 0.003578
# 4 0.012118 -0.005648 0.006062 0.036620 -0.027957 0.009244
# 5 -0.009932 0.013985 -0.004459 -0.027957 0.065680 -0.017278
# 6 -0.010642 -0.009599 0.003578 0.009244 -0.017278 0.049367
#
#
# Mechanical properties :
#
#
# Convention : Reuss Voigt Hill
#
# Bulk Modulus (GPa) = 15.50659 32.34512 23.92585
# Shear Modulus (GPa) = 19.94127 33.27609 26.60868
#
# Velocity S-wave (km/s) = 2.98334 3.85382 3.44617
# Velocity P-wave (km/s) = 4.33452 5.85141 5.14913
#
# Compressibility (1/GPa) = 0.06448873
#
# Stress axis : x y z
#
# Youngs Moduli (GPa) = 25.77017 57.75492 67.05955
#
# Poissons Ratio (x) = -0.12298 -0.15723
# Poissons Ratio (y) = -0.05487 0.51939
# Poissons Ratio (z) = -0.06042 0.44733
#
# Static dielectric constant tensor:
#      x y z
#    x 1.916120 -0.138930 -0.005940 
#    y -0.138930 1.914910 0.009440 
#    z -0.005940 0.009440 1.790680 
# 
# From -- ./inp_files/238018.got.cif
#   From: 2010.05.17/outbox.ucp.g08.bks.cvg/sg2_120_cif.got.tgz:238018.got - 2010.06.11 11:32:03.
