data_PCOD9074169
_publ_section_title
;
Structure prediction by ZEFSAII (Michael W. Deem and Ramdas Pophale) SiO2 
 PCOD9074169
Probable space group: P -1
;
_chemical_formula_sum "Si O2"
_cell_formula_units_Z 16
_cell_length_a 12.000000
_cell_length_b 15.000000
_cell_length_c 6.000000
_cell_angle_alpha 130.000000
_cell_angle_beta 90.000000
_cell_angle_gamma 70.000000
_cell_volume 740.289630
_symmetry_space_group_name_H-M "P -1"
_symmetry_group_IT_number 2
_symmetry_cell_setting 'triclinic'
loop_
_space_group_symop_operation_xyz
x,y,z
-x,-y,-z
loop_
_atom_site_type_symbol
_atom_site_label
_atom_site_fract_x
_atom_site_fract_y
_atom_site_fract_z
Si Si1 0.774688 0.610783 0.692315
Si Si2 0.305414 0.115809 0.678639
Si Si3 0.563967 0.539179 0.760122
Si Si4 0.099181 0.949364 0.722402
Si Si5 0.486870 0.903389 0.668729
Si Si6 0.027951 0.534491 0.813869
Si Si7 0.622944 0.277685 0.595715
Si Si8 0.052689 0.163537 0.737335
O O1 0.669843 0.576596 0.732922
O O2 0.824014 0.559115 0.365091
O O3 0.910370 0.528482 0.674599
O O4 0.742496 0.760554 0.958965
O O5 0.388221 0.148252 0.556915
O O6 0.188735 0.114293 0.546849
O O7 0.382870 0.987005 0.616722
O O8 0.500000 0.500000 0.500000
O O9 0.620338 0.406438 0.692099
O O10 0.454071 0.661598 0.079793
O O11 0.237713 0.838233 0.588977
O O12 0.041815 0.881518 0.444622
O O13 0.093910 0.081676 0.834185
O O14 0.000000 0.000000 0.000000
O O15 0.456932 0.795138 0.614073
O O16 0.500000 0.000000 0.000000
O O17 0.000000 0.500000 0.000000
O O18 0.006529 0.681853 0.011833
#
# Coordination Sequence:
#
# PCOD9074169 Si02
#       8
#     2   2   2   2   2   2   2   2
#     4  10  23  43  64  95 129 169 222 275 336 392
#     4  10  22  43  64  94 132 163 225 272 331 403
#     4  11  27  44  73  95 138 181 221 288 340 407
#     4  11  26  43  68  95 138 176 224 278 336 411
#     4  11  24  40  69  95 129 175 215 283 330 396
#     4  10  24  41  68  94 133 172 220 278 333 405
#     4  11  26  47  66 105 131 175 240 274 338 416
#     4  10  24  43  65  98 128 177 220 277 336 395
#
# _framework density 21.613161999999999
#
# number of rings (size 3 to 8) (size 9 to 14) (size 15 to 20)
#    0.000    1.500    2.500    0.000    8.750    6.000 
#    0.000    0.000    0.000    0.000    0.000    0.000 
#    0.000    0.000    0.000    0.000    0.000    0.000 
#
# Total GULP energy -89111.495753 kJ/mol
# GULP energy per Si atom -5569.468485 kJ/mol
# Density = 2.156397 g / cm^3
# Si number density = 21.613162 Si / 1000 Ang^3
#
#
#
# Elastic Constant Matrix: (Units=GPa)
#
#
# Indices 1 2 3 4 5 6 
#
# 1 107.1185 21.7034 24.8469 2.3356 -22.6997 22.0211
# 2 21.7034 47.1946 19.5937 22.6443 -23.1400 18.9485
# 3 24.8469 19.5937 79.1241 23.4073 -21.8975 10.0432
# 4 2.3356 22.6443 23.4073 19.4268 1.9631 3.7879
# 5 -22.6997 -23.1400 -21.8975 1.9631 46.5410 5.3918
# 6 22.0211 18.9485 10.0432 3.7879 5.3918 31.1846
#
#
#
# Elastic Compliance Matrix: (Units=1/GPa)
#
#
# Indices 1 2 3 4 5 6 
#
# 1 0.012991 -0.003025 -0.003423 0.007218 0.003817 -0.007770
# 2 -0.003025 -0.045908 -0.032438 0.090424 -0.047750 0.037750
# 3 -0.003423 -0.032438 0.004964 0.030239 -0.019072 0.020153
# 4 0.007218 0.090424 0.030239 -0.084654 0.074665 -0.072406
# 5 0.003817 -0.047750 -0.019072 0.074665 -0.015537 0.026078
# 6 -0.007770 0.037750 0.020153 -0.072406 0.026078 0.012412
#
#
# Mechanical properties :
#
#
# Convention : Reuss Voigt Hill
#
# Bulk Modulus (GPa) = -9.45842 40.63611 15.58885
# Shear Modulus (GPa) = -68.30638 30.58336 -18.86151
#
# Velocity S-wave (km/s) = -5.62785 3.76577 -2.95733
# Velocity P-wave (km/s) = 6.82759 6.14414 2.10541
#
# Compressibility (1/GPa) = -0.10572591
#
# Stress axis : x y z
#
# Youngs Moduli (GPa) = 76.97462 -21.78286 201.43820
#
# Poissons Ratio (x) = -0.06590 0.68956
# Poissons Ratio (y) = 0.23287 6.53433
# Poissons Ratio (z) = 0.26350 -0.70660
#
# Static dielectric constant tensor:
#      x y z
#    x 1.813840 0.026150 -0.101970 
#    y 0.026150 1.954250 -0.467340 
#    z -0.101970 -0.467340 2.945690 
# 
# From -- ./inp_files/78773.got.cif
#   From: 2010.05.17/outbox.ucp.g08.bks.cvg/sg2_40_cif.got.tgz:78773.got - 2010.06.11 11:32:03.
