data_PCOD9074565
_publ_section_title
;
Structure prediction by ZEFSAII (Michael W. Deem and Ramdas Pophale) SiO2 
 PCOD9074565
Probable space group: P -1
;
_chemical_formula_sum "Si O2"
_cell_formula_units_Z 10
_cell_length_a 9.000000
_cell_length_b 9.000000
_cell_length_c 9.000000
_cell_angle_alpha 60.000000
_cell_angle_beta 130.000000
_cell_angle_gamma 130.000000
_cell_volume 423.086434
_symmetry_space_group_name_H-M "P -1"
_symmetry_group_IT_number 2
_symmetry_cell_setting 'triclinic'
loop_
_space_group_symop_operation_xyz
x,y,z
-x,-y,-z
loop_
_atom_site_type_symbol
_atom_site_label
_atom_site_fract_x
_atom_site_fract_y
_atom_site_fract_z
Si Si1 0.813725 0.351688 0.567700
Si Si2 0.936918 0.025602 0.780710
Si Si3 0.405777 0.403986 0.323160
Si Si4 0.706421 0.280174 0.878163
Si Si5 0.801205 0.988293 0.273339
O O1 0.803672 0.145332 0.628339
O O2 0.607345 0.388260 0.386785
O O3 0.827281 0.354112 0.758315
O O4 0.000000 0.500000 0.500000
O O5 0.167745 0.129034 0.786111
O O6 0.791214 0.815858 0.714252
O O7 0.000000 0.000000 0.000000
O O8 0.500000 0.500000 0.500000
O O9 0.311347 0.545244 0.137637
O O10 0.444900 0.121777 0.759446
O O11 0.806156 0.178294 0.102585
O O12 0.000000 0.000000 0.500000
#
# Coordination Sequence:
#
# PCOD9074565 Si02
#       5
#     2   2   2   2   2
#     4  11  23  46  76 108 152 195 245 310 379 438
#     4  12  25  47  75 109 153 191 244 316 376 435
#     4  10  23  46  74 106 148 196 250 300 370 456
#     4  10  23  47  73 108 148 195 257 306 364 455
#     4  11  23  45  79 104 147 201 253 301 376 445
#
# _framework density 23.635832000000001
#
# number of rings (size 3 to 8) (size 9 to 14) (size 15 to 20)
#    0.000    1.200    2.000    4.200    0.000    2.400 
#    7.200    2.000    0.000    0.000    0.000    0.000 
#    0.000    0.000    0.000    0.000    0.000    0.000 
#
# Total GULP energy -55774.042695 kJ/mol
# GULP energy per Si atom -5577.404269 kJ/mol
# Density = 2.358204 g / cm^3
# Si number density = 23.635832 Si / 1000 Ang^3
#
#
#
# Elastic Constant Matrix: (Units=GPa)
#
#
# Indices 1 2 3 4 5 6 
#
# 1 179.4660 60.8332 69.3375 -21.2566 23.3778 6.3197
# 2 60.8332 139.5728 70.5498 -24.5764 21.4922 -17.4026
# 3 69.3375 70.5498 168.1840 -26.8617 17.6121 6.4325
# 4 -21.2566 -24.5764 -26.8617 48.2990 -10.2456 14.9275
# 5 23.3778 21.4922 17.6121 -10.2456 56.9390 -20.9071
# 6 6.3197 -17.4026 6.4325 14.9275 -20.9071 51.6339
#
#
#
# Elastic Compliance Matrix: (Units=1/GPa)
#
#
# Indices 1 2 3 4 5 6 
#
# 1 0.007558 -0.002191 -0.001530 0.001746 -0.002602 -0.003031
# 2 -0.002191 0.010618 -0.003442 0.001278 -0.000445 0.003726
# 3 -0.001530 -0.003442 0.008851 0.003298 -0.001561 -0.003661
# 4 0.001746 0.001278 0.003298 0.026334 -0.000408 -0.007972
# 5 -0.002602 -0.000445 -0.001561 -0.000408 0.022771 0.009701
# 6 -0.003031 0.003726 -0.003661 -0.007972 0.009701 0.027683
#
#
# Mechanical properties :
#
#
# Convention : Reuss Voigt Hill
#
# Bulk Modulus (GPa) = 78.73640 98.74045 88.73842
# Shear Modulus (GPa) = 40.85819 50.47453 45.66636
#
# Velocity S-wave (km/s) = 4.16222 4.62617 4.40031
# Velocity P-wave (km/s) = 7.51554 8.39057 7.96508
#
# Compressibility (1/GPa) = 0.01270061
#
# Stress axis : x y z
#
# Youngs Moduli (GPa) = 132.30649 94.18079 112.98375
#
# Poissons Ratio (x) = 0.20634 0.17284
# Poissons Ratio (y) = 0.28987 0.38894
# Poissons Ratio (z) = 0.20240 0.32421
#
# Static dielectric constant tensor:
#      x y z
#    x 1.993520 0.091200 -0.016770 
#    y 0.091200 2.020990 -0.037770 
#    z -0.016770 -0.037770 1.949560 
# 
# From -- ./inp_files/145207.got.cif
#   From: 2010.05.17/outbox.ucp.g08.bks.cvg/sg2_73_cif.got.tgz:145207.got - 2010.06.11 11:32:03.
