data_PCOD9074862
_publ_section_title
;
Structure prediction by ZEFSAII (Michael W. Deem and Ramdas Pophale) SiO2 
 PCOD9074862
Probable space group: P -1
;
_chemical_formula_sum "Si O2"
_cell_formula_units_Z 16
_cell_length_a 18.844306
_cell_length_b 5.479762
_cell_length_c 12.555199
_cell_angle_alpha 51.473112
_cell_angle_beta 135.510243
_cell_angle_gamma 123.301116
_cell_volume 697.692441
_symmetry_space_group_name_H-M "P -1"
_symmetry_group_IT_number 2
_symmetry_cell_setting 'triclinic'
loop_
_space_group_symop_operation_xyz
x,y,z
-x,-y,-z
loop_
_atom_site_type_symbol
_atom_site_label
_atom_site_fract_x
_atom_site_fract_y
_atom_site_fract_z
Si Si1 0.109310 0.082488 0.183041
Si Si2 0.910758 0.354815 0.525346
Si Si3 0.158130 0.685774 0.173776
Si Si4 0.627416 0.838645 0.110023
Si Si5 0.200483 0.267468 0.537817
Si Si6 0.595469 0.456487 0.985587
Si Si7 0.329826 0.445951 0.350938
Si Si8 0.512261 0.642624 0.632939
O O1 0.058463 0.847500 0.285284
O O2 0.103639 0.953946 0.091602
O O3 0.094955 0.440761 0.088906
O O4 0.235046 0.147801 0.322840
O O5 0.863719 0.630245 0.458960
O O6 0.000000 0.500000 0.500000
O O7 0.833960 0.089712 0.446417
O O8 0.177766 0.485653 0.355406
O O9 0.272065 0.744869 0.226981
O O10 0.683937 0.682715 0.306499
O O11 0.502379 0.755345 0.999554
O O12 0.657435 0.701925 0.067800
O O13 0.656360 0.213189 0.060377
O O14 0.541089 0.618694 0.791499
O O15 0.406676 0.426825 0.535700
O O16 0.398237 0.455965 0.316924
O O17 0.500000 0.000000 0.500000
#
# Coordination Sequence:
#
# PCOD9074862 Si02
#       8
#     2   2   2   2   2   2   2   2
#     4   8  16  29  44  66 100 135 160 194 246 328
#     4  10  19  30  50  82 112 137 166 219 270 333
#     4   8  15  28  44  69  89 130 169 197 235 316
#     4  10  21  39  54  74 100 153 189 220 257 303
#     4  10  18  32  53  72 105 146 174 207 265 330
#     4  10  23  37  53  75 107 136 197 234 245 307
#     4   9  19  30  47  70  96 140 168 204 267 326
#     4  11  22  33  50  76 106 139 175 232 277 310
#
# _framework density 22.932742000000001
#
# number of rings (size 3 to 8) (size 9 to 14) (size 15 to 20)
#    0.750    1.750    0.000    2.625    3.500    1.000 
#    4.500    0.000    0.000    0.000    0.000    0.000 
#    0.000    6.000    0.000    0.000    0.000    0.000 
#
# Total GULP energy -89141.371431 kJ/mol
# GULP energy per Si atom -5571.335714 kJ/mol
# Density = 2.288055 g / cm^3
# Si number density = 22.932742 Si / 1000 Ang^3
#
#
#
# Elastic Constant Matrix: (Units=GPa)
#
#
# Indices 1 2 3 4 5 6 
#
# 1 104.6377 35.1884 -6.1983 10.7995 -2.1195 -33.5057
# 2 35.1884 99.8201 17.1311 26.5578 -13.2372 -46.6523
# 3 -6.1983 17.1311 55.7891 15.3998 -8.8228 -9.3870
# 4 10.7995 26.5578 15.3998 28.4342 -8.8971 -5.8581
# 5 -2.1195 -13.2372 -8.8228 -8.8971 24.9530 5.8706
# 6 -33.5057 -46.6523 -9.3870 -5.8581 5.8706 55.0504
#
#
#
# Elastic Compliance Matrix: (Units=1/GPa)
#
#
# Indices 1 2 3 4 5 6 
#
# 1 0.013015 -0.000219 0.004239 -0.005850 -0.001478 0.007994
# 2 -0.000219 0.023126 0.001082 -0.017817 0.002156 0.017523
# 3 0.004239 0.001082 0.023103 -0.012975 0.003130 0.005722
# 4 -0.005850 -0.017817 -0.012975 0.061295 0.010970 -0.015520
# 5 -0.001478 0.002156 0.003130 0.010970 0.046664 -0.002348
# 6 0.007994 0.017523 0.005722 -0.015520 -0.002348 0.037455
#
#
# Mechanical properties :
#
#
# Convention : Reuss Voigt Hill
#
# Bulk Modulus (GPa) = 14.39923 39.16550 26.78237
# Shear Modulus (GPa) = 22.97779 35.96257 29.47018
#
# Velocity S-wave (km/s) = 3.16882 3.96432 3.58868
# Velocity P-wave (km/s) = 4.43633 6.17008 5.37359
#
# Compressibility (1/GPa) = 0.06944813
#
# Stress axis : x y z
#
# Youngs Moduli (GPa) = 76.83368 43.24226 43.28487
#
# Poissons Ratio (x) = 0.00948 -0.18350
# Poissons Ratio (y) = 0.01684 -0.04684
# Poissons Ratio (z) = -0.32573 -0.04680
#
# Static dielectric constant tensor:
#      x y z
#    x 1.913200 -0.029490 0.041600 
#    y -0.029490 1.950090 0.020660 
#    z 0.041600 0.020660 1.870030 
# 
# From -- ./inp_files/468021.got.cif
#   From: 2010.05.17/outbox.cif.g08.bks.cpg/sg2_235_cif.got.tgz:468021.got - 2010.06.03 11:33:40.
