data_PCOD9074911
_publ_section_title
;
Structure prediction by ZEFSAII (Michael W. Deem and Ramdas Pophale) SiO2 
 PCOD9074911
Probable space group: P -1
;
_chemical_formula_sum "Si O2"
_cell_formula_units_Z 14
_cell_length_a 12.000000
_cell_length_b 9.000000
_cell_length_c 24.000000
_cell_angle_alpha 40.000000
_cell_angle_beta 150.000000
_cell_angle_gamma 120.000000
_cell_volume 717.332707
_symmetry_space_group_name_H-M "P -1"
_symmetry_group_IT_number 2
_symmetry_cell_setting 'triclinic'
loop_
_space_group_symop_operation_xyz
x,y,z
-x,-y,-z
loop_
_atom_site_type_symbol
_atom_site_label
_atom_site_fract_x
_atom_site_fract_y
_atom_site_fract_z
Si Si1 0.496448 0.947184 0.351286
Si Si2 0.892420 0.093552 0.229360
Si Si3 0.295371 0.781743 0.204215
Si Si4 0.495337 0.364706 0.150119
Si Si5 0.926120 0.409978 0.261876
Si Si6 0.463454 0.049819 0.118215
Si Si7 0.415831 0.832198 0.473383
O O1 0.370839 0.871735 0.268146
O O2 0.379271 0.945815 0.361693
O O3 0.792242 0.711462 0.555820
O O4 0.492717 0.214603 0.248759
O O5 0.942897 0.231187 0.266103
O O6 0.708718 0.987204 0.204141
O O7 0.737818 0.333581 0.048753
O O8 0.151283 0.877500 0.373088
O O9 0.367251 0.479591 0.335075
O O10 0.441402 0.807713 0.204969
O O11 0.000000 0.000000 0.000000
O O12 0.750798 0.378114 0.242260
O O13 0.478687 0.197857 0.138325
O O14 0.781987 0.717371 0.089240
O O15 0.500000 0.000000 0.500000
#
# Coordination Sequence:
#
# PCOD9074911 Si02
#       7
#     2   2   2   2   2   2   2
#     4  11  21  36  61  86 120 159 202 239 291 356
#     4   9  18  36  58  89 123 151 192 240 302 345
#     4  11  25  43  62  85 117 162 206 241 296 357
#     4   8  17  31  58  91 116 154 195 241 286 355
#     4   9  15  33  62  90 117 149 199 242 289 350
#     4   8  17  35  62  83 116 161 192 239 291 355
#     4  12  25  39  60  89 125 157 193 253 297 346
#
# _framework density 19.516746000000001
#
# number of rings (size 3 to 8) (size 9 to 14) (size 15 to 20)
#    0.000    2.286    1.429    3.429    4.000    1.143 
#    0.000    0.000    0.000    2.571    0.000    0.000 
#    0.000    0.000    0.000    0.000    0.000    0.000 
#
# Total GULP energy -78056.384680 kJ/mol
# GULP energy per Si atom -5575.456049 kJ/mol
# Density = 1.947232 g / cm^3
# Si number density = 19.516746 Si / 1000 Ang^3
#
#
#
# Elastic Constant Matrix: (Units=GPa)
#
#
# Indices 1 2 3 4 5 6 
#
# 1 147.6802 32.6193 70.0482 -8.0135 -28.1595 18.8882
# 2 32.6193 45.1758 28.3627 3.0534 -13.1099 4.3697
# 3 70.0482 28.3627 114.8153 17.8608 -10.2844 0.5880
# 4 -8.0135 3.0534 17.8608 30.6871 5.5974 -8.3191
# 5 -28.1595 -13.1099 -10.2844 5.5974 42.1003 -5.5876
# 6 18.8882 4.3697 0.5880 -8.3191 -5.5876 19.2508
#
#
#
# Elastic Compliance Matrix: (Units=1/GPa)
#
#
# Indices 1 2 3 4 5 6 
#
# 1 0.013317 -0.003027 -0.007757 0.005169 0.004230 -0.008680
# 2 -0.003027 0.029324 -0.004352 -0.003132 0.006041 -0.003153
# 3 -0.007757 -0.004352 0.015931 -0.009713 -0.000875 0.003661
# 4 0.005169 -0.003132 -0.009713 0.044411 -0.003939 0.013985
# 5 0.004230 0.006041 -0.000875 -0.003939 0.028933 0.001201
# 6 -0.008680 -0.003153 0.003661 0.013985 0.001201 0.067459
#
#
# Mechanical properties :
#
#
# Convention : Reuss Voigt Hill
#
# Bulk Modulus (GPa) = 35.33834 63.30353 49.32093
# Shear Modulus (GPa) = 20.91331 30.18371 25.54851
#
# Velocity S-wave (km/s) = 3.27702 3.93689 3.62201
# Velocity P-wave (km/s) = 5.69776 7.29187 6.54354
#
# Compressibility (1/GPa) = 0.02829788
#
# Stress axis : x y z
#
# Youngs Moduli (GPa) = 75.09238 34.10177 62.76878
#
# Poissons Ratio (x) = 0.10324 0.48693
# Poissons Ratio (y) = 0.22733 0.27320
# Poissons Ratio (z) = 0.58253 0.14843
#
# Static dielectric constant tensor:
#      x y z
#    x 1.701260 0.052380 0.037720 
#    y 0.052380 1.708240 0.015920 
#    z 0.037720 0.015920 1.685090 
# 
# From -- ./inp_files/178158.got.cif
#   From: 2010.05.17/outbox.ucp.g08.bks.cvg/sg2_90_cif.got.tgz:178158.got - 2010.06.11 11:32:03.
