data_PCOD9074415
_publ_section_title
;
Structure prediction by ZEFSAII (Michael W. Deem and Ramdas Pophale) SiO2 
 PCOD9074415
Probable space group: P -1
;
_chemical_formula_sum "Si O2"
_cell_formula_units_Z 16
_cell_length_a 21.000000
_cell_length_b 18.000000
_cell_length_c 9.000000
_cell_angle_alpha 60.000000
_cell_angle_beta 50.000000
_cell_angle_gamma 20.000000
_cell_volume 818.070593
_symmetry_space_group_name_H-M "P -1"
_symmetry_group_IT_number 2
_symmetry_cell_setting 'triclinic'
loop_
_space_group_symop_operation_xyz
x,y,z
-x,-y,-z
loop_
_atom_site_type_symbol
_atom_site_label
_atom_site_fract_x
_atom_site_fract_y
_atom_site_fract_z
Si Si1 0.764290 0.631479 0.674231
Si Si2 0.685330 0.217007 0.758379
Si Si3 0.012792 0.980877 0.253718
Si Si4 0.128409 0.741157 0.054645
Si Si5 0.722708 0.984397 0.996815
Si Si6 0.433112 0.111290 0.754774
Si Si7 0.044553 0.382675 0.202297
Si Si8 0.846070 0.835034 0.308024
O O1 0.943871 0.454451 0.443078
O O2 0.946309 0.434416 0.727444
O O3 0.613643 0.863566 0.681741
O O4 0.552541 0.767869 0.851135
O O5 0.776396 0.187408 0.790744
O O6 0.775341 0.032620 0.829993
O O7 0.409245 0.470325 0.903050
O O8 0.808780 0.143801 0.505360
O O9 0.069565 0.847920 0.189481
O O10 0.942006 0.128983 0.106857
O O11 0.975974 0.798550 0.209621
O O12 0.861049 0.786265 0.876086
O O13 0.781684 0.909961 0.156162
O O14 0.201683 0.346194 0.765882
O O15 0.610355 0.024284 0.557244
O O16 0.273614 0.225407 0.018352
#
# Coordination Sequence:
#
# PCOD9074415 Si02
#       8
#     2   2   2   2   2   2   2   2
#     4  11  23  45  67  90 133 175 219 268 322 379
#     4  11  22  44  68  95 130 170 211 262 325 384
#     4  10  24  43  70  97 126 169 214 260 324 393
#     4  11  23  44  66  98 132 166 212 268 322 385
#     4  11  24  42  63  97 134 171 215 267 322 383
#     4  10  23  43  65  96 129 175 219 270 321 379
#     4  10  23  42  68  91 130 176 222 266 318 381
#     4  12  24  42  65  96 135 170 214 271 325 377
#
# _framework density 19.558214
#
# number of rings (size 3 to 8) (size 9 to 14) (size 15 to 20)
#    0.000    1.250    3.750    1.500    5.250    0.500 
#    6.750    1.250    0.000    0.000    0.000    0.000 
#    0.000    0.000    0.000    0.000    0.000    0.000 
#
# Total GULP energy -89093.902984 kJ/mol
# GULP energy per Si atom -5568.368937 kJ/mol
# Density = 1.951370 g / cm^3
# Si number density = 19.558214 Si / 1000 Ang^3
#
#
#
# Elastic Constant Matrix: (Units=GPa)
#
#
# Indices 1 2 3 4 5 6 
#
# 1 104.8282 33.5030 62.1870 7.7801 -20.4787 -0.8334
# 2 33.5030 108.3498 41.7778 22.4247 -4.3147 -11.9682
# 3 62.1870 41.7778 155.9845 22.2819 -19.1770 4.9109
# 4 7.7801 22.4247 22.2819 36.2926 -3.8949 -8.9669
# 5 -20.4787 -4.3147 -19.1770 -3.8949 48.8013 5.5663
# 6 -0.8334 -11.9682 4.9109 -8.9669 5.5663 38.7203
#
#
#
# Elastic Compliance Matrix: (Units=1/GPa)
#
#
# Indices 1 2 3 4 5 6 
#
# 1 0.013723 -0.002753 -0.004527 0.001934 0.003901 -0.000094
# 2 -0.002753 0.012073 -0.001651 -0.005307 -0.001487 0.002867
# 3 -0.004527 -0.001651 0.009610 -0.004494 0.001727 -0.003116
# 4 0.001934 -0.005307 -0.004494 0.034965 0.000570 0.006986
# 5 0.003901 -0.001487 0.001727 0.000570 0.023154 -0.003791
# 6 -0.000094 0.002867 -0.003116 0.006986 -0.003791 0.029268
#
#
# Mechanical properties :
#
#
# Convention : Reuss Voigt Hill
#
# Bulk Modulus (GPa) = 57.00006 71.56647 64.28326
# Shear Modulus (GPa) = 34.12884 40.20916 37.16900
#
# Velocity S-wave (km/s) = 4.18184 4.53909 4.36412
# Velocity P-wave (km/s) = 7.24735 8.00887 7.63761
#
# Compressibility (1/GPa) = 0.01754384
#
# Stress axis : x y z
#
# Youngs Moduli (GPa) = 72.87141 82.82904 104.05360
#
# Poissons Ratio (x) = 0.22803 0.47108
# Poissons Ratio (y) = 0.20061 0.17179
# Poissons Ratio (z) = 0.32991 0.13675
#
# Static dielectric constant tensor:
#      x y z
#    x 1.728770 -0.006310 0.011250 
#    y -0.006310 1.716920 -0.064960 
#    z 0.011250 -0.064960 1.726520 
# 
# From -- ./inp_files/348413.got.cif
#   From: 2010.05.17/outbox.ucp.g08.bks.cvg/sg2_175_cif.got.tgz:348413.got - 2010.06.11 11:32:03.
