data_PCOD9074036
_publ_section_title
;
Structure prediction by ZEFSAII (Michael W. Deem and Ramdas Pophale) SiO2 
 PCOD9074036
Probable space group: P -1
;
_chemical_formula_sum "Si O2"
_cell_formula_units_Z 16
_cell_length_a 9.000000
_cell_length_b 12.000000
_cell_length_c 18.000000
_cell_angle_alpha 30.000000
_cell_angle_beta 130.000000
_cell_angle_gamma 120.000000
_cell_volume 736.400153
_symmetry_space_group_name_H-M "P -1"
_symmetry_group_IT_number 2
_symmetry_cell_setting 'triclinic'
loop_
_space_group_symop_operation_xyz
x,y,z
-x,-y,-z
loop_
_atom_site_type_symbol
_atom_site_label
_atom_site_fract_x
_atom_site_fract_y
_atom_site_fract_z
Si Si1 0.795836 0.642415 0.261791
Si Si2 0.823660 0.774711 0.739978
Si Si3 0.516229 0.805138 0.340277
Si Si4 0.815672 0.094009 0.940006
Si Si5 0.382021 0.744057 0.648176
Si Si6 0.742552 0.471661 0.504136
Si Si7 0.022171 0.353696 0.976453
Si Si8 0.526420 0.754758 0.850004
O O1 0.729599 0.465832 0.283714
O O2 0.717100 0.584966 0.350040
O O3 0.030593 0.632797 0.353715
O O4 0.727820 0.889333 0.067536
O O5 0.609651 0.688039 0.726316
O O6 0.954011 0.734500 0.879941
O O7 0.751396 0.039776 0.554969
O O8 0.950454 0.622174 0.806902
O O9 0.351647 0.788899 0.234737
O O10 0.701141 0.651004 0.454192
O O11 0.412653 0.703908 0.435796
O O12 0.547247 0.057475 0.221814
O O13 0.879971 0.248469 0.936385
O O14 0.000000 0.000000 0.000000
O O15 0.415685 0.816130 0.701826
O O16 0.239098 0.265327 0.067132
O O17 0.500000 0.500000 0.000000
#
# Coordination Sequence:
#
# PCOD9074036 Si02
#       8
#     2   2   2   2   2   2   2   2
#     4  11  24  43  65  97 126 165 218 268 315 371
#     4   9  22  42  62  94 122 164 207 262 316 378
#     4  11  24  44  65  95 131 170 212 257 327 381
#     4  12  23  41  69  93 129 172 208 263 321 383
#     4  10  23  38  67  90 125 163 212 261 311 379
#     4  10  25  42  67  93 129 168 208 274 316 374
#     4  10  22  41  65  88 127 165 208 258 322 375
#     4  11  23  41  62  90 129 169 208 258 314 379
#
# _framework density 21.727318
#
# number of rings (size 3 to 8) (size 9 to 14) (size 15 to 20)
#    0.000    1.500    2.500    0.750   10.500    2.500 
#    4.500    1.250    0.000    0.000    0.000    0.000 
#    0.000    0.000    0.000    0.000    0.000    0.000 
#
# Total GULP energy -89311.471976 kJ/mol
# GULP energy per Si atom -5581.966999 kJ/mol
# Density = 2.167787 g / cm^3
# Si number density = 21.727318 Si / 1000 Ang^3
#
#
#
# Elastic Constant Matrix: (Units=GPa)
#
#
# Indices 1 2 3 4 5 6 
#
# 1 20.2669 1.4715 25.0782 3.6109 0.7694 -11.4892
# 2 1.4715 100.2840 3.2793 -15.7445 -15.1847 -12.4912
# 3 25.0782 3.2793 53.7674 -6.1202 -18.2798 -13.1197
# 4 3.6109 -15.7445 -6.1202 29.9136 -7.1748 4.1545
# 5 0.7694 -15.1847 -18.2798 -7.1748 14.6767 -11.1219
# 6 -11.4892 -12.4912 -13.1197 4.1545 -11.1219 16.6442
#
#
#
# Elastic Compliance Matrix: (Units=1/GPa)
#
#
# Indices 1 2 3 4 5 6 
#
# 1 0.190848 0.016247 -0.047397 -0.034798 0.036671 0.139762
# 2 0.016247 0.007310 -0.013475 -0.003815 -0.013384 -0.001911
# 3 -0.047397 -0.013475 0.012859 -0.000253 -0.041106 -0.060098
# 4 -0.034798 -0.003815 -0.000253 0.037089 -0.023995 -0.052374
# 5 0.036671 -0.013384 -0.041106 -0.023995 -0.038502 -0.036871
# 6 0.139762 -0.001911 -0.060098 -0.052374 -0.036871 0.096185
#
#
# Mechanical properties :
#
#
# Convention : Reuss Voigt Hill
#
# Bulk Modulus (GPa) = 8.21230 25.99737 17.10483
# Shear Modulus (GPa) = 11.47770 21.87951 16.67860
#
# Velocity S-wave (km/s) = 2.30089 3.17678 2.77362
# Velocity P-wave (km/s) = 3.29343 5.04452 4.25992
#
# Compressibility (1/GPa) = 0.12176864
#
# Stress axis : x y z
#
# Youngs Moduli (GPa) = 5.23977 136.79077 77.76691
#
# Poissons Ratio (x) = -2.22246 3.68593
# Poissons Ratio (y) = -0.08513 1.04787
# Poissons Ratio (z) = 0.24835 1.84319
#
# Static dielectric constant tensor:
#      x y z
#    x 1.912520 -0.117700 -0.165100 
#    y -0.117700 1.389020 -0.183780 
#    z -0.165100 -0.183780 1.713780 
# 
# From -- ./inp_files/559582.got.cif
#   From: 2010.05.17/outbox.ucp.g08.bks.cvg/sg2_280_cif.got.tgz:559582.got - 2010.06.11 11:32:03.
