data_PCOD9074552
_publ_section_title
;
Structure prediction by ZEFSAII (Michael W. Deem and Ramdas Pophale) SiO2 
 PCOD9074552
Probable space group: P -1
;
_chemical_formula_sum "Si O2"
_cell_formula_units_Z 12
_cell_length_a 13.361317
_cell_length_b 12.185229
_cell_length_c 15.862942
_cell_angle_alpha 48.783676
_cell_angle_beta 17.348129
_cell_angle_gamma 55.824813
_cell_volume 552.666927
_symmetry_space_group_name_H-M "P -1"
_symmetry_group_IT_number 2
_symmetry_cell_setting 'triclinic'
loop_
_space_group_symop_operation_xyz
x,y,z
-x,-y,-z
loop_
_atom_site_type_symbol
_atom_site_label
_atom_site_fract_x
_atom_site_fract_y
_atom_site_fract_z
Si Si1 0.741404 0.351739 0.731823
Si Si2 0.131629 0.773226 0.068799
Si Si3 0.914007 0.529271 0.149144
Si Si4 0.920858 0.880565 0.348476
Si Si5 0.948981 0.573013 0.731099
Si Si6 0.124985 0.873263 0.849095
O O1 0.846279 0.198097 0.744091
O O2 0.000000 0.500000 0.500000
O O3 0.767693 0.368277 0.600713
O O4 0.360398 0.350860 0.070667
O O5 0.970251 0.834976 0.086809
O O6 0.544094 0.868791 0.698660
O O7 0.894770 0.777795 0.336698
O O8 0.163887 0.606971 0.108850
O O9 0.500000 0.500000 0.500000
O O10 0.977005 0.427655 0.228205
O O11 0.000000 0.500000 0.000000
O O12 0.125145 0.707165 0.903937
O O13 0.064446 0.049212 0.106574
O O14 0.500000 0.000000 0.500000
#
# Coordination Sequence:
#
# PCOD9074552 Si02
#       6
#     2   2   2   2   2   2
#     4  12  20  32  56  87 131 164 199 250 316 379
#     4  10  18  32  51  81 119 158 190 251 305 365
#     4  11  25  45  69  91 124 172 215 260 316 379
#     4  11  20  31  52  84 124 155 192 244 319 364
#     4  11  21  36  56  86 121 162 211 253 301 371
#     4   9  22  39  63  94 126 158 209 270 321 361
#
# _framework density 21.712897999999999
#
# number of rings (size 3 to 8) (size 9 to 14) (size 15 to 20)
#    0.000    1.333    3.333    3.000    0.000    9.333 
#    0.000    0.000    0.000    6.000    0.000    0.000 
#    0.000    0.000    0.000    0.000    0.000    0.000 
#
# Total GULP energy -66858.243487 kJ/mol
# GULP energy per Si atom -5571.520291 kJ/mol
# Density = 2.166348 g / cm^3
# Si number density = 21.712898 Si / 1000 Ang^3
#
#
#
# Elastic Constant Matrix: (Units=GPa)
#
#
# Indices 1 2 3 4 5 6 
#
# 1 112.5653 28.0806 12.3497 -3.8991 24.7157 -0.7418
# 2 28.0806 74.9655 17.4833 6.8007 8.0677 -14.1412
# 3 12.3497 17.4833 65.6163 16.8627 10.0548 8.4282
# 4 -3.8991 6.8007 16.8627 32.4962 -0.9409 11.0907
# 5 24.7157 8.0677 10.0548 -0.9409 29.6300 3.4660
# 6 -0.7418 -14.1412 8.4282 11.0907 3.4660 51.4256
#
#
#
# Elastic Compliance Matrix: (Units=1/GPa)
#
#
# Indices 1 2 3 4 5 6 
#
# 1 0.011824 -0.003771 -0.000449 0.002449 -0.008519 -0.000747
# 2 -0.003771 0.017271 -0.003340 -0.004524 -0.001305 0.006306
# 3 -0.000449 -0.003340 0.019614 -0.009071 -0.005448 -0.001816
# 4 0.002449 -0.004524 -0.009071 0.039790 0.004538 -0.008609
# 5 -0.008519 -0.001305 -0.005448 0.004538 0.043614 -0.003507
# 6 -0.000747 0.006306 -0.001816 -0.008609 -0.003507 0.023559
#
#
# Mechanical properties :
#
#
# Convention : Reuss Voigt Hill
#
# Bulk Modulus (GPa) = 29.77003 40.99714 35.38359
# Shear Modulus (GPa) = 27.47457 35.72593 31.60025
#
# Velocity S-wave (km/s) = 3.56104 4.06073 3.81907
# Velocity P-wave (km/s) = 5.53612 6.39597 5.98151
#
# Compressibility (1/GPa) = 0.03359083
#
# Stress axis : x y z
#
# Youngs Moduli (GPa) = 84.57421 57.90036 50.98527
#
# Poissons Ratio (x) = 0.21832 0.02288
# Poissons Ratio (y) = 0.31889 0.17027
# Poissons Ratio (z) = 0.03795 0.19336
#
# Static dielectric constant tensor:
#      x y z
#    x 1.912330 -0.054670 0.013910 
#    y -0.054670 1.822460 -0.011180 
#    z 0.013910 -0.011180 1.801940 
# 
# From -- ./inp_files/43357.got.cif
#   From: 2010.05.17/outbox.cif.g08.bks.cpg/sg2_22_cif.got.tgz:43357.got - 2010.06.03 11:33:40.
