data_PCOD9074025
_publ_section_title
;
Structure prediction by ZEFSAII (Michael W. Deem and Ramdas Pophale) SiO2 
 PCOD9074025
Probable space group: P -1
;
_chemical_formula_sum "Si O2"
_cell_formula_units_Z 14
_cell_length_a 21.000000
_cell_length_b 9.000000
_cell_length_c 6.000000
_cell_angle_alpha 90.000000
_cell_angle_beta 70.000000
_cell_angle_gamma 140.000000
_cell_volume 617.169155
_symmetry_space_group_name_H-M "P -1"
_symmetry_group_IT_number 2
_symmetry_cell_setting 'triclinic'
loop_
_space_group_symop_operation_xyz
x,y,z
-x,-y,-z
loop_
_atom_site_type_symbol
_atom_site_label
_atom_site_fract_x
_atom_site_fract_y
_atom_site_fract_z
Si Si1 0.561659 0.966422 0.656847
Si Si2 0.488973 0.331728 0.656180
Si Si3 0.239175 0.194210 0.552627
Si Si4 0.686271 0.419760 0.811897
Si Si5 0.888603 0.563157 0.692614
Si Si6 0.716719 0.019117 0.752113
Si Si7 0.993959 0.164099 0.956444
O O1 0.552020 0.894280 0.415108
O O2 0.648236 0.998618 0.656910
O O3 0.626323 0.227895 0.672067
O O4 0.427978 0.729125 0.912920
O O5 0.500000 0.500000 0.500000
O O6 0.622923 0.544410 0.561178
O O7 0.390751 0.200704 0.951817
O O8 0.226346 0.300089 0.385896
O O9 0.230286 0.023523 0.439783
O O10 0.143611 0.036680 0.861462
O O11 0.775191 0.470829 0.835630
O O12 0.952687 0.707321 0.363292
O O13 0.824339 0.291427 0.741611
O O14 0.950945 0.677674 0.865871
O O15 0.000000 0.000000 0.000000
#
# Coordination Sequence:
#
# PCOD9074025 Si02
#       7
#     2   2   2   2   2   2   2
#     4  10  22  41  64 104 143 179 231 286 370 431
#     4  12  24  40  73 106 144 182 232 300 366 433
#     4  12  25  43  71 101 142 186 239 294 362 427
#     4  10  22  42  68 103 143 185 231 294 360 430
#     4  11  28  49  76 102 148 189 246 298 349 423
#     4  11  25  46  68 103 142 185 234 301 360 429
#     4  12  28  50  74 108 142 192 246 298 352 420
#
# _framework density 22.684218999999999
#
# number of rings (size 3 to 8) (size 9 to 14) (size 15 to 20)
#    0.000    0.857    4.286    1.714    6.000    2.857 
#    0.000    0.000    0.000    0.000    0.000    0.000 
#    0.000    0.000    0.000    0.000    0.000    0.000 
#
# Total GULP energy -78036.295667 kJ/mol
# GULP energy per Si atom -5574.021119 kJ/mol
# Density = 2.263259 g / cm^3
# Si number density = 22.684219 Si / 1000 Ang^3
#
#
#
# Elastic Constant Matrix: (Units=GPa)
#
#
# Indices 1 2 3 4 5 6 
#
# 1 24.8527 10.6868 11.7905 1.8244 -4.9605 -15.3119
# 2 10.6868 24.8901 61.0307 -15.8521 -0.1521 -37.3797
# 3 11.7905 61.0307 49.7978 11.2375 -27.1484 46.7830
# 4 1.8244 -15.8521 11.2375 27.5072 4.1032 -19.5426
# 5 -4.9605 -0.1521 -27.1484 4.1032 41.0544 9.9755
# 6 -15.3119 -37.3797 46.7830 -19.5426 9.9755 -6.0822
#
#
#
# Elastic Compliance Matrix: (Units=1/GPa)
#
#
# Indices 1 2 3 4 5 6 
#
# 1 0.054783 -0.016495 0.001920 -0.007125 0.005913 0.010811
# 2 -0.016495 0.015273 0.002707 -0.002922 0.003950 -0.015655
# 3 0.001920 0.002707 0.006254 0.005839 0.001345 0.010081
# 4 -0.007125 -0.002922 0.005839 0.028002 0.001729 -0.006331
# 5 0.005913 0.003950 0.001345 0.001729 0.024422 0.005683
# 6 0.010811 -0.015655 0.010081 -0.006331 0.005683 0.011787
#
#
# Mechanical properties :
#
#
# Convention : Reuss Voigt Hill
#
# Bulk Modulus (GPa) = 19.02071 29.61738 24.31905
# Shear Modulus (GPa) = 27.50544 13.56475 20.53510
#
# Velocity S-wave (km/s) = 3.48593 2.44802 3.01202
# Velocity P-wave (km/s) = 4.96039 4.59076 4.77915
#
# Compressibility (1/GPa) = 0.05257428
#
# Stress axis : x y z
#
# Youngs Moduli (GPa) = 18.25391 65.47324 159.89474
#
# Poissons Ratio (x) = 1.07995 -0.30693
# Poissons Ratio (y) = 0.30109 -0.43282
# Poissons Ratio (z) = -0.03504 -0.17723
#
# Static dielectric constant tensor:
#      x y z
#    x 1.876020 -0.114940 0.210040 
#    y -0.114940 1.806110 0.214910 
#    z 0.210040 0.214910 1.617560 
# 
# From -- ./inp_files/68181.got.cif
#   From: 2010.05.17/outbox.ucp.g08.bks.cvg/sg2_35_cif.got.tgz:68181.got - 2010.06.11 11:32:03.
