data_PCOD9074735
_publ_section_title
;
Structure prediction by ZEFSAII (Michael W. Deem and Ramdas Pophale) SiO2 
 PCOD9074735
Probable space group: P -1
;
_chemical_formula_sum "Si O2"
_cell_formula_units_Z 13
_cell_length_a 9.000000
_cell_length_b 9.000000
_cell_length_c 9.000000
_cell_angle_alpha 130.000000
_cell_angle_beta 110.000000
_cell_angle_gamma 80.000000
_cell_volume 523.686142
_symmetry_space_group_name_H-M "P -1"
_symmetry_group_IT_number 2
_symmetry_cell_setting 'triclinic'
loop_
_space_group_symop_operation_xyz
x,y,z
-x,-y,-z
loop_
_atom_site_type_symbol
_atom_site_label
_atom_site_fract_x
_atom_site_fract_y
_atom_site_fract_z
Si Si1 0.854133 0.781915 0.667758
Si Si2 0.327099 0.701491 0.454276
Si Si3 0.508117 0.290671 0.944999
Si Si4 0.500000 0.000000 0.500000
Si Si5 0.214607 0.666364 0.719529
Si Si6 0.251187 0.258639 0.078226
Si Si7 0.942582 0.116526 0.697830
O O1 0.792858 0.569087 0.450742
O O2 0.784862 0.839821 0.839500
O O3 0.041138 0.744659 0.726642
O O4 0.843932 0.958576 0.664073
O O5 0.473621 0.819238 0.506596
O O6 0.288096 0.748459 0.641966
O O7 0.320873 0.471114 0.291547
O O8 0.181032 0.745183 0.324028
O O9 0.467621 0.152085 0.708750
O O10 0.500000 0.500000 0.000000
O O11 0.680096 0.281869 0.069427
O O12 0.386581 0.215937 0.982804
O O13 0.086161 0.225754 0.907968
O O14 0.000000 0.000000 0.500000
#
# Coordination Sequence:
#
# PCOD9074735 Si02
#       7
#     2   2   2   1   2   2   2
#     4  10  24  46  76 111 146 196 248 306 370 446
#     4  11  25  46  73 109 147 197 244 312 369 445
#     4  12  28  50  76 107 149 198 248 311 372 441
#     4  12  28  48  74 112 148 196 258 294 384 440
#     4  10  25  48  74 107 152 192 242 308 380 437
#     4  11  26  47  71 107 152 196 248 305 381 431
#     4  12  24  42  75 107 151 189 254 300 363 442
#
# _framework density 24.824028999999999
#
# number of rings (size 3 to 8) (size 9 to 14) (size 15 to 20)
#    0.000    0.923    3.077    1.846    6.462    4.308 
#    0.000    0.000    0.000    0.000    0.000    0.000 
#    0.000    0.000    0.000    0.000    0.000    0.000 
#
# Total GULP energy -72533.992338 kJ/mol
# GULP energy per Si atom -5579.537872 kJ/mol
# Density = 2.476753 g / cm^3
# Si number density = 24.824029 Si / 1000 Ang^3
#
#
#
# Elastic Constant Matrix: (Units=GPa)
#
#
# Indices 1 2 3 4 5 6 
#
# 1 70.0213 23.0949 31.8918 -9.5787 -22.4478 35.6906
# 2 23.0949 86.4164 26.7716 5.3820 -11.2514 43.2004
# 3 31.8918 26.7716 -7.1176 13.5991 -33.3369 -2.5354
# 4 -9.5787 5.3820 13.5991 36.8011 0.8274 2.5884
# 5 -22.4478 -11.2514 -33.3369 0.8274 38.3281 -14.6290
# 6 35.6906 43.2004 -2.5354 2.5884 -14.6290 38.4691
#
#
#
# Elastic Compliance Matrix: (Units=1/GPa)
#
#
# Indices 1 2 3 4 5 6 
#
# 1 0.020716 -0.001898 0.011105 0.001867 0.017434 -0.009853
# 2 -0.001898 0.016771 0.010322 -0.006029 0.007975 -0.012955
# 3 0.011105 0.010322 -0.006335 0.005592 -0.005564 -0.024804
# 4 0.001867 -0.006029 0.005592 0.025927 0.005878 0.005898
# 5 0.017434 0.007975 -0.005564 0.005878 0.027833 -0.015309
# 6 -0.009853 -0.012955 -0.024804 0.005898 -0.015309 0.041831
#
#
# Mechanical properties :
#
#
# Convention : Reuss Voigt Hill
#
# Bulk Modulus (GPa) = 14.24295 34.75960 24.50127
# Shear Modulus (GPa) = 45.00938 27.22378 36.11658
#
# Velocity S-wave (km/s) = 4.26271 3.31519 3.81846
# Velocity P-wave (km/s) = 5.47519 5.35601 5.41592
#
# Compressibility (1/GPa) = 0.07021018
#
# Stress axis : x y z
#
# Youngs Moduli (GPa) = 48.27257 59.62511 -157.84720
#
# Poissons Ratio (x) = 0.11315 1.75288
# Poissons Ratio (y) = 0.09160 1.62927
# Poissons Ratio (z) = -0.53606 -0.61544
#
# Static dielectric constant tensor:
#      x y z
#    x 1.401190 -0.344070 0.336910 
#    y -0.344070 1.767670 0.245020 
#    z 0.336910 0.245020 1.702110 
# 
# From -- ./inp_files/153305.got.cif
#   From: 2010.05.17/outbox.ucp.g08.bks.cvg/sg2_77_cif.got.tgz:153305.got - 2010.06.11 11:32:03.
