data_PCOD9074443
_publ_section_title
;
Structure prediction by ZEFSAII (Michael W. Deem and Ramdas Pophale) SiO2 
 PCOD9074443
Probable space group: P -1
;
_chemical_formula_sum "Si O2"
_cell_formula_units_Z 12
_cell_length_a 9.000000
_cell_length_b 9.000000
_cell_length_c 12.000000
_cell_angle_alpha 130.000000
_cell_angle_beta 110.000000
_cell_angle_gamma 50.000000
_cell_volume 566.184258
_symmetry_space_group_name_H-M "P -1"
_symmetry_group_IT_number 2
_symmetry_cell_setting 'triclinic'
loop_
_space_group_symop_operation_xyz
x,y,z
-x,-y,-z
loop_
_atom_site_type_symbol
_atom_site_label
_atom_site_fract_x
_atom_site_fract_y
_atom_site_fract_z
Si Si1 0.589658 0.528947 0.815415
Si Si2 0.082787 0.621241 0.012562
Si Si3 0.191603 0.986754 0.015043
Si Si4 0.217371 0.288222 0.674767
Si Si5 0.450363 0.269028 0.514109
Si Si6 0.227125 0.383645 0.292861
O O1 0.552383 0.374197 0.651986
O O2 0.661322 0.645610 0.806418
O O3 0.392894 0.730420 0.926643
O O4 0.762540 0.371965 0.872255
O O5 0.193078 0.462111 0.852772
O O6 0.000000 0.500000 0.000000
O O7 0.884497 0.875688 0.055351
O O8 0.213852 0.157519 0.183675
O O9 0.000000 0.000000 0.000000
O O10 0.290898 0.315909 0.587983
O O11 0.994127 0.376731 0.651160
O O12 0.383360 0.009535 0.606581
O O13 0.339087 0.388636 0.428972
#
# Coordination Sequence:
#
# PCOD9074443 Si02
#       6
#     2   2   2   2   2   2
#     4  12  24  40  68 100 128 173 218 269 329 384
#     4  11  23  44  69  94 130 170 218 277 319 378
#     4  11  25  42  69 100 128 172 223 270 323 384
#     4  10  23  43  64  90 130 176 214 263 328 378
#     4  11  25  40  64  95 134 172 212 263 327 396
#     4  11  23  42  64  92 133 171 214 269 321 386
#
# _framework density 21.194514000000002
#
# number of rings (size 3 to 8) (size 9 to 14) (size 15 to 20)
#    0.000    1.000    3.333    4.500    2.333    7.333 
#    0.000    0.000    0.000    0.000    0.000    0.000 
#    0.000    0.000    0.000    0.000    0.000    0.000 
#
# Total GULP energy -66986.734294 kJ/mol
# GULP energy per Si atom -5582.227858 kJ/mol
# Density = 2.114627 g / cm^3
# Si number density = 21.194514 Si / 1000 Ang^3
#
#
#
# Elastic Constant Matrix: (Units=GPa)
#
#
# Indices 1 2 3 4 5 6 
#
# 1 64.3055 -3.7388 -0.8121 3.6030 -11.7804 -19.5485
# 2 -3.7388 46.4047 2.7432 -25.3188 1.9487 -25.9290
# 3 -0.8121 2.7432 77.6893 -19.9007 -2.2266 -29.5545
# 4 3.6030 -25.3188 -19.9007 35.2828 -13.9162 7.1649
# 5 -11.7804 1.9487 -2.2266 -13.9162 35.3452 -5.2788
# 6 -19.5485 -25.9290 -29.5545 7.1649 -5.2788 35.5706
#
#
#
# Elastic Compliance Matrix: (Units=1/GPa)
#
#
# Indices 1 2 3 4 5 6 
#
# 1 0.007404 -0.023049 -0.013474 -0.024637 -0.009861 -0.020428
# 2 -0.023049 -0.029110 -0.031229 -0.036819 -0.031058 -0.057027
# 3 -0.013474 -0.031229 -0.005094 -0.024266 -0.017438 -0.032101
# 4 -0.024637 -0.036819 -0.024266 -0.003881 -0.018575 -0.062516
# 5 -0.009861 -0.031058 -0.017438 -0.018575 0.012794 -0.036908
# 6 -0.020428 -0.057027 -0.032101 -0.062516 -0.036908 -0.044240
#
#
# Mechanical properties :
#
#
# Convention : Reuss Voigt Hill
#
# Bulk Modulus (GPa) = -6.16127 20.53160 7.18516
# Shear Modulus (GPa) = 259.40974 33.92021 146.66497
#
# Velocity S-wave (km/s) = 11.07522 4.00487 8.32765
# Velocity P-wave (km/s) = 12.67415 5.57616 9.79100
#
# Compressibility (1/GPa) = -0.16230408
#
# Stress axis : x y z
#
# Youngs Moduli (GPa) = 135.05688 -34.35191 -196.30621
#
# Poissons Ratio (x) = -0.79179 -2.64495
# Poissons Ratio (y) = 3.11298 -6.13042
# Poissons Ratio (z) = 1.81970 -1.07277
#
# Static dielectric constant tensor:
#      x y z
#    x 1.851180 0.172690 0.065640 
#    y 0.172690 1.991590 0.033450 
#    z 0.065640 0.033450 1.732980 
# 
# From -- ./inp_files/148537.got.cif
#   From: 2010.05.17/outbox.ucp.g08.bks.cvg/sg2_75_cif.got.tgz:148537.got - 2010.06.11 11:32:03.
