data_PCOD9074343
_publ_section_title
;
Structure prediction by ZEFSAII (Michael W. Deem and Ramdas Pophale) SiO2 
 PCOD9074343
Probable space group: P -1
;
_chemical_formula_sum "Si O2"
_cell_formula_units_Z 16
_cell_length_a 15.000000
_cell_length_b 15.000000
_cell_length_c 15.000000
_cell_angle_alpha 160.000000
_cell_angle_beta 140.000000
_cell_angle_gamma 40.000000
_cell_volume 725.414092
_symmetry_space_group_name_H-M "P -1"
_symmetry_group_IT_number 2
_symmetry_cell_setting 'triclinic'
loop_
_space_group_symop_operation_xyz
x,y,z
-x,-y,-z
loop_
_atom_site_type_symbol
_atom_site_label
_atom_site_fract_x
_atom_site_fract_y
_atom_site_fract_z
Si Si1 0.950906 0.140216 0.348512
Si Si2 0.584692 0.725670 0.757044
Si Si3 0.791457 0.154955 0.837844
Si Si4 0.878809 0.761098 0.066483
Si Si5 0.279642 0.364016 0.416485
Si Si6 0.662286 0.750724 0.235166
Si Si7 0.131933 0.261589 0.765673
Si Si8 0.328280 0.795758 0.007457
O O1 0.865392 0.436055 0.539293
O O2 0.054831 0.144316 0.515909
O O3 0.850790 0.967328 0.156360
O O4 0.047010 0.989764 0.200683
O O5 0.500000 0.500000 0.500000
O O6 0.614652 0.708605 0.656187
O O7 0.741438 0.632069 0.832896
O O8 0.500000 0.000000 0.000000
O O9 0.753387 0.182329 0.939357
O O10 0.702367 0.972918 0.541751
O O11 0.750127 0.458616 0.056805
O O12 0.869397 0.871949 0.264281
O O13 0.030204 0.556537 0.977782
O O14 0.268959 0.077275 0.177589
O O15 0.320676 0.547344 0.701867
O O16 0.713062 0.767389 0.186704
O O17 0.495030 0.770865 0.131576
#
# Coordination Sequence:
#
# PCOD9074343 Si02
#       8
#     2   2   2   2   2   2   2   2
#     4  11  23  45  68 100 148 185 242 287 358 414
#     4  12  27  47  70 100 140 190 227 282 353 422
#     4  11  24  44  75 101 139 186 235 297 362 404
#     4  11  22  44  68 100 138 182 235 290 348 418
#     4  12  27  45  70  98 146 186 233 293 348 423
#     4  11  23  45  69 104 141 180 235 299 356 415
#     4  10  23  39  70 100 134 184 237 290 349 414
#     4  12  26  45  70 106 140 187 239 291 350 428
#
# _framework density 22.056367999999999
#
# number of rings (size 3 to 8) (size 9 to 14) (size 15 to 20)
#    0.000    0.750    2.500    4.875    3.500    1.000 
#    0.000    0.000    0.000    0.000    0.000    0.000 
#    0.000    0.000    0.000    0.000    0.000    0.000 
#
# Total GULP energy -89399.095421 kJ/mol
# GULP energy per Si atom -5587.443464 kJ/mol
# Density = 2.200617 g / cm^3
# Si number density = 22.056368 Si / 1000 Ang^3
#
#
#
# Elastic Constant Matrix: (Units=GPa)
#
#
# Indices 1 2 3 4 5 6 
#
# 1 199.4778 28.8342 37.3653 -2.1743 -39.8591 12.2149
# 2 28.8342 52.4463 2.5422 8.5941 -4.0049 -4.8443
# 3 37.3653 2.5422 110.5734 1.8553 -25.9779 4.2143
# 4 -2.1743 8.5941 1.8553 44.4660 -1.5454 -9.0692
# 5 -39.8591 -4.0049 -25.9779 -1.5454 46.1504 -2.2221
# 6 12.2149 -4.8443 4.2143 -9.0692 -2.2221 33.3711
#
#
#
# Elastic Compliance Matrix: (Units=1/GPa)
#
#
# Indices 1 2 3 4 5 6 
#
# 1 0.006884 -0.003705 -0.000994 0.000780 0.004975 -0.002389
# 2 -0.003705 0.021938 0.000445 -0.003784 -0.001009 0.003389
# 3 -0.000994 0.000445 0.010603 -0.000547 0.005096 -0.000720
# 4 0.000780 -0.003784 -0.000547 0.024541 0.001147 0.005980
# 5 0.004975 -0.001009 0.005096 0.001147 0.028766 -0.000384
# 6 -0.002389 0.003389 -0.000720 0.005980 -0.000384 0.033023
#
#
# Mechanical properties :
#
#
# Convention : Reuss Voigt Hill
#
# Bulk Modulus (GPa) = 32.34469 55.55342 43.94905
# Shear Modulus (GPa) = 34.58544 44.38122 39.48333
#
# Velocity S-wave (km/s) = 3.96415 4.49059 4.23556
# Velocity P-wave (km/s) = 5.97069 7.22004 6.62488
#
# Compressibility (1/GPa) = 0.03091697
#
# Stress axis : x y z
#
# Youngs Moduli (GPa) = 145.26903 45.58201 94.31087
#
# Poissons Ratio (x) = 0.16888 0.09376
# Poissons Ratio (y) = 0.53821 -0.04195
# Poissons Ratio (z) = 0.14442 -0.02028
#
# Static dielectric constant tensor:
#      x y z
#    x 1.878140 0.003570 0.092650 
#    y 0.003570 1.821850 -0.052340 
#    z 0.092650 -0.052340 1.880860 
# 
# From -- ./inp_files/94377.got.cif
#   From: 2010.05.17/outbox.ucp.g08.bks.cvg/sg2_48_cif.got.tgz:94377.got - 2010.06.11 11:32:03.
