data_PCOD9074984
_publ_section_title
;
Structure prediction by ZEFSAII (Michael W. Deem and Ramdas Pophale) SiO2 
 PCOD9074984
Probable space group: P -1
;
_chemical_formula_sum "Si O2"
_cell_formula_units_Z 16
_cell_length_a 18.000000
_cell_length_b 21.000000
_cell_length_c 12.000000
_cell_angle_alpha 30.000000
_cell_angle_beta 20.000000
_cell_angle_gamma 30.000000
_cell_volume 738.640068
_symmetry_space_group_name_H-M "P -1"
_symmetry_group_IT_number 2
_symmetry_cell_setting 'triclinic'
loop_
_space_group_symop_operation_xyz
x,y,z
-x,-y,-z
loop_
_atom_site_type_symbol
_atom_site_label
_atom_site_fract_x
_atom_site_fract_y
_atom_site_fract_z
Si Si1 0.225244 0.544902 0.304304
Si Si2 0.743543 0.745893 0.353294
Si Si3 0.539043 0.142187 0.221384
Si Si4 0.822828 0.255683 0.126972
Si Si5 0.090114 0.042027 0.613941
Si Si6 0.791110 0.764130 0.672851
Si Si7 0.939103 0.876070 0.711740
Si Si8 0.408999 0.649537 0.458731
O O1 0.169041 0.406205 0.580146
O O2 0.037211 0.649616 0.487764
O O3 0.500000 0.500000 0.000000
O O4 0.187192 0.627670 0.119977
O O5 0.534903 0.771412 0.692680
O O6 0.929909 0.786133 0.102724
O O7 0.735390 0.840208 0.117424
O O8 0.361307 0.206954 0.272052
O O9 0.500000 0.000000 0.500000
O O10 0.814048 0.102293 0.893717
O O11 0.659707 0.328024 0.348380
O O12 0.816467 0.120757 0.276502
O O13 0.167135 0.109627 0.511534
O O14 0.158393 0.086890 0.330033
O O15 0.621408 0.706716 0.068256
O O16 0.176274 0.749286 0.576428
O O17 0.000000 0.000000 0.500000
O O18 0.500000 0.500000 0.500000
#
# Coordination Sequence:
#
# PCOD9074984 Si02
#       8
#     2   2   2   2   2   2   2   2
#     4  12  27  47  66 103 148 190 242 295 363 440
#     4  11  23  42  75  97 140 192 239 291 362 430
#     4  12  23  43  72 105 141 187 233 295 365 422
#     4  11  24  46  69 103 140 191 240 290 366 433
#     4  12  25  46  74 109 149 182 243 307 356 439
#     4  12  27  44  71 111 141 186 242 300 359 425
#     4  11  21  46  74 106 141 190 244 290 370 431
#     4  11  25  44  74 104 144 189 243 298 360 434
#
# _framework density 21.661429999999999
#
# number of rings (size 3 to 8) (size 9 to 14) (size 15 to 20)
#    0.000    0.500    6.250    2.625    1.750    5.500 
#    0.000    1.875    0.000    0.000    0.000    0.000 
#    0.000    0.000    0.000    0.000    0.000    0.000 
#
# Total GULP energy -89164.957141 kJ/mol
# GULP energy per Si atom -5572.809821 kJ/mol
# Density = 2.161213 g / cm^3
# Si number density = 21.661430 Si / 1000 Ang^3
#
#
#
# Elastic Constant Matrix: (Units=GPa)
#
#
# Indices 1 2 3 4 5 6 
#
# 1 19.6650 -2.3315 33.7627 1.5525 7.2920 19.3410
# 2 -2.3315 104.3030 16.7106 -8.0012 -0.0113 38.9409
# 3 33.7627 16.7106 81.6650 -1.1738 4.1324 11.7198
# 4 1.5525 -8.0012 -1.1738 39.5770 1.8580 -5.9698
# 5 7.2920 -0.0113 4.1324 1.8580 38.5420 -1.2404
# 6 19.3410 38.9409 11.7198 -5.9698 -1.2404 41.9020
#
#
#
# Elastic Compliance Matrix: (Units=1/GPa)
#
#
# Indices 1 2 3 4 5 6 
#
# 1 -0.120722 -0.039866 0.045415 0.009448 0.020143 0.082012
# 2 -0.039866 0.001650 0.013912 0.004088 0.006297 0.013746
# 3 0.045415 0.013912 -0.004162 -0.003725 -0.009041 -0.033525
# 4 0.009448 0.004088 -0.003725 0.025196 -0.002718 -0.003609
# 5 0.020143 0.006297 -0.009041 -0.002718 0.022840 -0.012332
# 6 0.082012 0.013746 -0.033525 -0.003609 -0.012332 -0.018266
#
#
# Mechanical properties :
#
#
# Convention : Reuss Voigt Hill
#
# Bulk Modulus (GPa) = -11.86043 33.54630 10.84293
# Shear Modulus (GPa) = -31.15452 34.50361 1.67455
#
# Velocity S-wave (km/s) = -3.79654 3.99539 0.88019
# Velocity P-wave (km/s) = 4.97047 6.06667 2.45957
#
# Compressibility (1/GPa) = -0.08431395
#
# Stress axis : x y z
#
# Youngs Moduli (GPa) = -8.28347 606.12255 -240.25977
#
# Poissons Ratio (x) = 24.16377 10.91135
# Poissons Ratio (y) = -0.33023 3.34243
# Poissons Ratio (z) = 0.37619 -8.43221
#
# Static dielectric constant tensor:
#      x y z
#    x 1.909450 0.107800 0.117630 
#    y 0.107800 1.823320 0.073440 
#    z 0.117630 0.073440 1.906920 
# 
# From -- ./inp_files/467011.got.cif
#   From: 2010.05.17/outbox.ucp.g08.bks.cvg/sg2_234_cif.got.tgz:467011.got - 2010.06.11 11:32:03.
