data_PCOD9074626
_publ_section_title
;
Structure prediction by ZEFSAII (Michael W. Deem and Ramdas Pophale) SiO2 
 PCOD9074626
Probable space group: P -1
;
_chemical_formula_sum "Si O2"
_cell_formula_units_Z 16
_cell_length_a 12.000000
_cell_length_b 9.000000
_cell_length_c 9.000000
_cell_angle_alpha 90.000000
_cell_angle_beta 100.000000
_cell_angle_gamma 50.000000
_cell_volume 725.212580
_symmetry_space_group_name_H-M "P -1"
_symmetry_group_IT_number 2
_symmetry_cell_setting 'triclinic'
loop_
_space_group_symop_operation_xyz
x,y,z
-x,-y,-z
loop_
_atom_site_type_symbol
_atom_site_label
_atom_site_fract_x
_atom_site_fract_y
_atom_site_fract_z
Si Si1 0.736463 0.108944 0.982314
Si Si2 0.717874 0.148075 0.637554
Si Si3 0.981498 0.343028 0.977349
Si Si4 0.818644 0.405422 0.643549
Si Si5 0.521851 0.821187 0.931450
Si Si6 0.533208 0.814514 0.581308
Si Si7 0.979092 0.180601 0.427853
Si Si8 0.233780 0.598954 0.866206
O O1 0.675219 0.154419 0.799708
O O2 0.629770 0.137343 0.082547
O O3 0.761092 0.257154 0.034122
O O4 0.880016 0.882052 0.018978
O O5 0.754786 0.291806 0.635406
O O6 0.592105 0.196167 0.497844
O O7 0.870768 0.930693 0.631928
O O8 0.867259 0.407232 0.819146
O O9 0.000000 0.500000 0.000000
O O10 0.913955 0.356268 0.117265
O O11 0.689657 0.621907 0.557839
O O12 0.959585 0.299291 0.567067
O O13 0.551294 0.809795 0.763614
O O14 0.636251 0.623207 0.054756
O O15 0.500000 0.000000 0.000000
O O16 0.500000 0.000000 0.500000
O O17 0.815395 0.320494 0.311318
O O18 0.000000 0.000000 0.500000
#
# Coordination Sequence:
#
# PCOD9074626 Si02
#       8
#     2   2   2   2   2   2   2   2
#     4  12  24  43  76 102 138 183 240 292 349 415
#     4  11  23  45  71 104 138 180 232 293 349 413
#     4  12  25  45  72 102 142 185 231 296 355 417
#     4  11  25  46  70 101 139 184 235 287 350 417
#     4  12  28  47  69 104 144 185 237 292 356 418
#     4  12  28  46  69  99 147 188 230 285 355 421
#     4  10  24  42  71 106 139 172 233 292 347 408
#     4  12  24  47  74 102 138 190 242 288 345 421
#
# _framework density 22.062495999999999
#
# number of rings (size 3 to 8) (size 9 to 14) (size 15 to 20)
#    0.000    0.500    3.750    4.125   10.500    0.000 
#    0.000    1.250    0.000    0.000    0.000    0.000 
#    0.000    0.000    0.000    0.000    0.000    0.000 
#
# Total GULP energy -89232.578169 kJ/mol
# GULP energy per Si atom -5577.036136 kJ/mol
# Density = 2.201228 g / cm^3
# Si number density = 22.062496 Si / 1000 Ang^3
#
#
#
# Elastic Constant Matrix: (Units=GPa)
#
#
# Indices 1 2 3 4 5 6 
#
# 1 42.6290 31.4729 -4.3919 0.2252 -2.7175 26.3026
# 2 31.4729 150.3862 28.0105 -25.9521 -3.2307 14.9548
# 3 -4.3919 28.0105 93.9844 -10.1538 2.6996 10.8002
# 4 0.2252 -25.9521 -10.1538 37.2856 -5.8677 7.4017
# 5 -2.7175 -3.2307 2.6996 -5.8677 33.4255 13.0966
# 6 26.3026 14.9548 10.8002 7.4017 13.0966 32.5278
#
#
#
# Elastic Compliance Matrix: (Units=1/GPa)
#
#
# Indices 1 2 3 4 5 6 
#
# 1 0.128043 -0.008623 0.027894 0.041470 0.072359 -0.147406
# 2 -0.008623 0.009868 -0.002927 0.005918 0.000855 0.001717
# 3 0.027894 -0.002927 0.017953 0.012755 0.017284 -0.037033
# 4 0.041470 0.005918 0.012755 0.053951 0.039251 -0.068569
# 5 0.072359 0.000855 0.017284 0.039251 0.083355 -0.107136
# 6 -0.147406 0.001717 -0.037033 -0.068569 -0.107136 0.220183
#
#
# Mechanical properties :
#
#
# Convention : Reuss Voigt Hill
#
# Bulk Modulus (GPa) = 5.30354 44.13143 24.71748
# Shear Modulus (GPa) = 9.19939 36.10832 22.65386
#
# Velocity S-wave (km/s) = 2.04420 4.04993 3.20785
# Velocity P-wave (km/s) = 2.82502 6.47422 4.99481
#
# Compressibility (1/GPa) = 0.18855346
#
# Stress axis : x y z
#
# Youngs Moduli (GPa) = 7.80988 101.33652 55.70125
#
# Poissons Ratio (x) = 0.87383 -1.55375
# Poissons Ratio (y) = 0.06734 0.16301
# Poissons Ratio (z) = -0.21785 0.29656
#
# Static dielectric constant tensor:
#      x y z
#    x 1.951100 0.081680 0.020700 
#    y 0.081680 1.908060 0.040410 
#    z 0.020700 0.040410 1.980370 
# 
# From -- ./inp_files/244104.got.cif
#   From: 2010.05.17/outbox.ucp.g08.bks.cvg/sg2_123_cif.got.tgz:244104.got - 2010.06.11 11:32:03.
