data_PCOD9074378
_publ_section_title
;
Structure prediction by ZEFSAII (Michael W. Deem and Ramdas Pophale) SiO2 
 PCOD9074378
Probable space group: P -1
;
_chemical_formula_sum "Si O2"
_cell_formula_units_Z 12
_cell_length_a 21.000000
_cell_length_b 12.000000
_cell_length_c 18.000000
_cell_angle_alpha 30.000000
_cell_angle_beta 160.000000
_cell_angle_gamma 160.000000
_cell_volume 524.980204
_symmetry_space_group_name_H-M "P -1"
_symmetry_group_IT_number 2
_symmetry_cell_setting 'triclinic'
loop_
_space_group_symop_operation_xyz
x,y,z
-x,-y,-z
loop_
_atom_site_type_symbol
_atom_site_label
_atom_site_fract_x
_atom_site_fract_y
_atom_site_fract_z
Si Si1 0.062288 0.443736 0.679913
Si Si2 0.000951 0.251562 0.285456
Si Si3 0.071941 0.307052 0.501444
Si Si4 0.622315 0.689923 0.946365
Si Si5 0.472326 0.322734 0.457631
Si Si6 0.805039 0.540839 0.849170
O O1 0.094275 0.673607 0.639262
O O2 0.000000 0.500000 0.500000
O O3 0.791358 0.061787 0.619484
O O4 0.298160 0.466001 0.920517
O O5 0.952953 0.217741 0.339905
O O6 0.329375 0.549715 0.466189
O O7 0.939818 0.968470 0.339172
O O8 0.856259 0.330393 0.043489
O O9 0.395424 0.632987 0.685921
O O10 0.500000 0.500000 0.000000
O O11 0.900350 0.072943 0.047882
O O12 0.643856 0.417449 0.665971
O O13 0.373451 0.487767 0.267801
#
# Coordination Sequence:
#
# PCOD9074378 Si02
#       6
#     2   2   2   2   2   2
#     4  11  24  40  67  96 126 165 212 270 316 372
#     4  11  25  43  65  91 135 175 210 259 321 382
#     4  11  26  43  62  97 131 172 216 259 317 385
#     4  11  22  40  68  95 127 167 214 267 317 374
#     4  10  23  41  66  97 127 165 216 266 316 380
#     4  10  23  41  66  98 126 170 213 264 320 374
#
# _framework density 22.858004999999999
#
# number of rings (size 3 to 8) (size 9 to 14) (size 15 to 20)
#    0.000    1.333    1.667    2.500    7.000    4.000 
#    0.000    6.667    0.000    0.000    0.000    0.000 
#    0.000    0.000    0.000    0.000    0.000    0.000 
#
# Total GULP energy -67079.266591 kJ/mol
# GULP energy per Si atom -5589.938883 kJ/mol
# Density = 2.280598 g / cm^3
# Si number density = 22.858005 Si / 1000 Ang^3
#
#
#
# Elastic Constant Matrix: (Units=GPa)
#
#
# Indices 1 2 3 4 5 6 
#
# 1 103.3438 30.8062 19.4016 -30.9323 25.9500 -31.8397
# 2 30.8062 80.7250 33.7973 -20.2255 21.7369 -19.8265
# 3 19.4016 33.7973 72.5556 -8.5025 33.6786 -7.9531
# 4 -30.9323 -20.2255 -8.5025 29.0616 -17.2031 10.0909
# 5 25.9500 21.7369 33.6786 -17.2031 26.5765 -3.6980
# 6 -31.8397 -19.8265 -7.9531 10.0909 -3.6980 26.9894
#
#
#
# Elastic Compliance Matrix: (Units=1/GPa)
#
#
# Indices 1 2 3 4 5 6 
#
# 1 0.026997 0.002717 0.018036 -0.005960 -0.050499 0.034468
# 2 0.002717 0.020091 -0.004576 0.006809 -0.007056 0.013103
# 3 0.018036 -0.004576 0.074590 -0.061297 -0.142036 0.043352
# 4 -0.005960 0.006809 -0.061297 0.117711 0.148025 -0.043820
# 5 -0.050499 -0.007056 -0.142036 0.148025 0.352705 -0.113630
# 6 0.034468 0.013103 0.043352 -0.043820 -0.113630 0.100928
#
#
# Mechanical properties :
#
#
# Convention : Reuss Voigt Hill
#
# Bulk Modulus (GPa) = 6.49221 47.18162 26.83692
# Shear Modulus (GPa) = 7.02237 28.03345 17.52791
#
# Velocity S-wave (km/s) = 1.75466 3.50582 2.77215
# Velocity P-wave (km/s) = 2.63657 6.08882 4.69176
#
# Compressibility (1/GPa) = 0.15403064
#
# Stress axis : x y z
#
# Youngs Moduli (GPa) = 37.04162 49.77446 13.40668
#
# Poissons Ratio (x) = -0.13522 -0.24180
# Poissons Ratio (y) = -0.10063 0.06135
# Poissons Ratio (z) = -0.66808 0.22776
#
# Static dielectric constant tensor:
#      x y z
#    x 1.842590 0.054090 0.035180 
#    y 0.054090 1.959940 0.027390 
#    z 0.035180 0.027390 1.826090 
# 
# From -- ./inp_files/177466.got.cif
#   From: 2010.05.17/outbox.ucp.g08.bks.cvg/sg2_89_cif.got.tgz:177466.got - 2010.06.11 11:32:03.
