data_PCOD9074808
_publ_section_title
;
Structure prediction by ZEFSAII (Michael W. Deem and Ramdas Pophale) SiO2 
 PCOD9074808
Probable space group: P -1
;
_chemical_formula_sum "Si O2"
_cell_formula_units_Z 16
_cell_length_a 9.000000
_cell_length_b 15.000000
_cell_length_c 15.000000
_cell_angle_alpha 130.000000
_cell_angle_beta 140.000000
_cell_angle_gamma 80.000000
_cell_volume 759.999475
_symmetry_space_group_name_H-M "P -1"
_symmetry_group_IT_number 2
_symmetry_cell_setting 'triclinic'
loop_
_space_group_symop_operation_xyz
x,y,z
-x,-y,-z
loop_
_atom_site_type_symbol
_atom_site_label
_atom_site_fract_x
_atom_site_fract_y
_atom_site_fract_z
Si Si1 0.200619 0.325976 0.116784
Si Si2 0.192655 0.071074 0.040750
Si Si3 0.784789 0.316122 0.780490
Si Si4 0.747439 0.235769 0.996090
Si Si5 0.150529 0.153440 0.613540
Si Si6 0.102669 0.408323 0.450893
Si Si7 0.883285 0.818456 0.582608
Si Si8 0.350669 0.863767 0.576525
O O1 0.193087 0.192463 0.065934
O O2 0.546482 0.472119 0.345847
O O3 0.972146 0.279495 0.899085
O O4 0.040170 0.340592 0.134218
O O5 0.522342 0.151583 0.284506
O O6 0.000000 0.000000 0.000000
O O7 0.057407 0.938577 0.820862
O O8 0.466168 0.255394 0.633998
O O9 0.663186 0.224908 0.571904
O O10 0.000000 0.500000 0.000000
O O11 0.503911 0.250295 0.857828
O O12 0.568001 0.051218 0.784396
O O13 0.874844 0.296218 0.193418
O O14 0.014393 0.110908 0.423530
O O15 0.000641 0.217783 0.627543
O O16 0.000000 0.000000 0.500000
O O17 0.095646 0.309613 0.462618
O O18 0.000000 0.500000 0.500000
#
# Coordination Sequence:
#
# PCOD9074808 Si02
#       8
#     2   2   2   2   2   2   2   2
#     4  12  26  44  75 106 143 193 238 296 359 428
#     4  12  24  44  76 111 144 185 246 302 349 431
#     4  12  26  45  73 106 144 189 243 299 356 430
#     4  11  23  48  72 102 144 189 240 296 346 436
#     4  10  26  44  71 108 142 185 238 302 358 415
#     4  12  29  47  71 108 148 189 238 295 366 426
#     4  12  24  49  74 103 146 195 241 294 361 428
#     4  11  25  46  71 106 147 184 242 297 358 420
#
# _framework density 21.052645999999999
#
# number of rings (size 3 to 8) (size 9 to 14) (size 15 to 20)
#    0.000    0.500    6.250    0.375    7.000    3.500 
#    0.000    1.250    0.000    0.000    0.000    0.000 
#    0.000    0.000    0.000    0.000    0.000    0.000 
#
# Total GULP energy -89257.826154 kJ/mol
# GULP energy per Si atom -5578.614135 kJ/mol
# Density = 2.100473 g / cm^3
# Si number density = 21.052646 Si / 1000 Ang^3
#
#
#
# Elastic Constant Matrix: (Units=GPa)
#
#
# Indices 1 2 3 4 5 6 
#
# 1 79.4559 40.5374 32.1300 -5.0637 -0.4948 5.7957
# 2 40.5374 164.3473 50.5455 -26.8854 3.0543 9.1427
# 3 32.1300 50.5455 108.3757 -19.5398 -11.2204 -2.0828
# 4 -5.0637 -26.8854 -19.5398 40.7281 -5.8961 2.1605
# 5 -0.4948 3.0543 -11.2204 -5.8961 28.8458 -17.1727
# 6 5.7957 9.1427 -2.0828 2.1605 -17.1727 35.0324
#
#
#
# Elastic Compliance Matrix: (Units=1/GPa)
#
#
# Indices 1 2 3 4 5 6 
#
# 1 0.015812 -0.002629 -0.004351 -0.002221 -0.003980 -0.004002
# 2 -0.002629 0.008543 -0.003049 0.003509 -0.003846 -0.004078
# 3 -0.004351 -0.003049 0.014278 0.005554 0.011496 0.007657
# 4 -0.002221 0.003509 0.005554 0.030499 0.009511 0.002563
# 5 -0.003980 -0.003846 0.011496 0.009511 0.059970 0.031156
# 6 -0.004002 -0.004078 0.007657 0.002563 0.031156 0.045841
#
#
# Mechanical properties :
#
#
# Convention : Reuss Voigt Hill
#
# Bulk Modulus (GPa) = 53.83380 66.51164 60.17272
# Shear Modulus (GPa) = 24.85191 36.18565 30.51878
#
# Velocity S-wave (km/s) = 3.43952 4.15036 3.81155
# Velocity P-wave (km/s) = 6.43430 7.39114 6.92926
#
# Compressibility (1/GPa) = 0.01857569
#
# Stress axis : x y z
#
# Youngs Moduli (GPa) = 63.24411 117.05251 70.03827
#
# Poissons Ratio (x) = 0.30768 0.30474
# Poissons Ratio (y) = 0.16624 0.21354
# Poissons Ratio (z) = 0.27518 0.35689
#
# Static dielectric constant tensor:
#      x y z
#    x 1.890430 -0.018810 0.067700 
#    y -0.018810 1.888200 -0.018520 
#    z 0.067700 -0.018520 1.732940 
# 
# From -- ./inp_files/505519.got.cif
#   From: 2010.05.17/outbox.ucp.g08.bks.cvg/sg2_253_cif.got.tgz:505519.got - 2010.06.11 11:32:03.
