data_PCOD9074739
_publ_section_title
;
Structure prediction by ZEFSAII (Michael W. Deem and Ramdas Pophale) SiO2 
 PCOD9074739
Probable space group: P -1
;
_chemical_formula_sum "Si O2"
_cell_formula_units_Z 16
_cell_length_a 12.000000
_cell_length_b 9.000000
_cell_length_c 15.000000
_cell_angle_alpha 70.000000
_cell_angle_beta 130.000000
_cell_angle_gamma 140.000000
_cell_volume 759.581896
_symmetry_space_group_name_H-M "P -1"
_symmetry_group_IT_number 2
_symmetry_cell_setting 'triclinic'
loop_
_space_group_symop_operation_xyz
x,y,z
-x,-y,-z
loop_
_atom_site_type_symbol
_atom_site_label
_atom_site_fract_x
_atom_site_fract_y
_atom_site_fract_z
Si Si1 0.899961 0.421012 0.731243
Si Si2 0.244501 0.849984 0.967926
Si Si3 0.418378 0.181237 0.565912
Si Si4 0.673009 0.630015 0.375633
Si Si5 0.504848 0.255019 0.868379
Si Si6 0.062197 0.176687 0.072127
Si Si7 0.051335 0.678419 0.563938
Si Si8 0.740712 0.930999 0.696535
O O1 0.674201 0.336841 0.650585
O O2 0.075529 0.616913 0.859812
O O3 0.006516 0.566082 0.661592
O O4 0.826763 0.172401 0.731838
O O5 0.111354 0.836164 0.978120
O O6 0.385461 0.096245 0.931292
O O7 0.400970 0.841281 0.092861
O O8 0.387887 0.323519 0.573744
O O9 0.301523 0.084803 0.427921
O O10 0.295632 0.947029 0.610819
O O11 0.660085 0.763914 0.269134
O O12 0.491046 0.337101 0.329311
O O13 0.899443 0.714215 0.473649
O O14 0.725709 0.549256 0.913365
O O15 0.103564 0.090478 0.194479
O O16 0.000000 0.000000 0.000000
O O17 0.000000 0.500000 0.500000
#
# Coordination Sequence:
#
# PCOD9074739 Si02
#       8
#     2   2   2   2   2   2   2   2
#     4  12  24  44  69 100 138 180 229 277 338 402
#     4  11  25  45  75  96 133 182 227 282 338 403
#     4  12  24  42  67  99 138 181 227 275 343 407
#     4  11  24  42  68  99 138 180 225 282 337 404
#     4  10  24  47  68 102 134 176 234 273 337 404
#     4  11  25  44  71 103 135 176 226 284 338 398
#     4  12  25  41  66 100 139 178 222 276 337 401
#     4  11  23  41  66  98 140 177 221 279 339 406
#
# _framework density 21.064219999999999
#
# number of rings (size 3 to 8) (size 9 to 14) (size 15 to 20)
#    0.000    0.750    2.500    5.250    3.500    1.500 
#    0.000    5.000    0.000    0.000    0.000    0.000 
#    0.000    0.000    0.000    0.000    0.000    0.000 
#
# Total GULP energy -89321.449024 kJ/mol
# GULP energy per Si atom -5582.590564 kJ/mol
# Density = 2.101628 g / cm^3
# Si number density = 21.064220 Si / 1000 Ang^3
#
#
#
# Elastic Constant Matrix: (Units=GPa)
#
#
# Indices 1 2 3 4 5 6 
#
# 1 117.7940 31.3761 24.3693 4.1362 0.6276 -12.4574
# 2 31.3761 151.9605 23.9153 -17.7199 -6.9205 -2.3170
# 3 24.3693 23.9153 76.5233 -23.0625 5.7351 -6.2332
# 4 4.1362 -17.7199 -23.0625 34.1630 -4.7064 3.5528
# 5 0.6276 -6.9205 5.7351 -4.7064 29.6044 -1.2748
# 6 -12.4574 -2.3170 -6.2332 3.5528 -1.2748 45.9261
#
#
#
# Elastic Compliance Matrix: (Units=1/GPa)
#
#
# Indices 1 2 3 4 5 6 
#
# 1 0.010350 -0.002132 -0.004004 -0.005423 -0.000694 0.002557
# 2 -0.002132 0.007736 -0.000711 0.004209 0.002637 -0.000537
# 3 -0.004004 -0.000711 0.018424 0.012282 -0.001682 0.000382
# 4 -0.005423 0.004209 0.012282 0.041393 0.005186 -0.002650
# 5 -0.000694 0.002637 -0.001682 0.005186 0.035573 0.000303
# 6 0.002557 -0.000537 0.000382 -0.002650 0.000303 0.022706
#
#
# Mechanical properties :
#
#
# Convention : Reuss Voigt Hill
#
# Bulk Modulus (GPa) = 43.83083 56.17769 50.00426
# Shear Modulus (GPa) = 31.74985 39.71319 35.73152
#
# Velocity S-wave (km/s) = 3.88659 4.34676 4.12310
# Velocity P-wave (km/s) = 6.40267 7.20556 6.81595
#
# Compressibility (1/GPa) = 0.02281499
#
# Stress axis : x y z
#
# Youngs Moduli (GPa) = 96.61692 129.27262 54.27711
#
# Poissons Ratio (x) = 0.27560 0.21733
# Poissons Ratio (y) = 0.20598 0.03861
# Poissons Ratio (z) = 0.38685 0.09196
#
# Static dielectric constant tensor:
#      x y z
#    x 1.750910 0.028170 0.004660 
#    y 0.028170 1.767380 0.035490 
#    z 0.004660 0.035490 1.867490 
# 
# From -- ./inp_files/427996.got.cif
#   From: 2010.05.17/outbox.ucp.g08.bks.cvg/sg2_214_cif.got.tgz:427996.got - 2010.06.11 11:32:03.
