data_PCOD9074002
_publ_section_title
;
Structure prediction by ZEFSAII (Michael W. Deem and Ramdas Pophale) SiO2 
 PCOD9074002
Probable space group: P -1
;
_chemical_formula_sum "Si O2"
_cell_formula_units_Z 12
_cell_length_a 12.000000
_cell_length_b 9.000000
_cell_length_c 9.000000
_cell_angle_alpha 50.000000
_cell_angle_beta 50.000000
_cell_angle_gamma 50.000000
_cell_volume 524.916880
_symmetry_space_group_name_H-M "P -1"
_symmetry_group_IT_number 2
_symmetry_cell_setting 'triclinic'
loop_
_space_group_symop_operation_xyz
x,y,z
-x,-y,-z
loop_
_atom_site_type_symbol
_atom_site_label
_atom_site_fract_x
_atom_site_fract_y
_atom_site_fract_z
Si Si1 0.214603 0.893940 0.165302
Si Si2 0.982606 0.729068 0.305248
Si Si3 0.332365 0.688708 0.495880
Si Si4 0.356064 0.929742 0.709432
Si Si5 0.235817 0.590666 0.925661
Si Si6 0.672940 0.895009 0.846227
O O1 0.066996 0.848310 0.259753
O O2 0.293570 0.712117 0.338955
O O3 0.197040 0.097784 0.149259
O O4 0.327265 0.900675 0.928794
O O5 0.000000 0.500000 0.500000
O O6 0.079733 0.694809 0.090248
O O7 0.803447 0.880239 0.330487
O O8 0.500000 0.500000 0.500000
O O9 0.215321 0.633731 0.739455
O O10 0.328009 0.923485 0.384446
O O11 0.352749 0.709406 0.790991
O O12 0.500000 0.000000 0.500000
O O13 0.298227 0.341828 0.067780
O O14 0.500000 0.000000 0.000000
#
# Coordination Sequence:
#
# PCOD9074002 Si02
#       6
#     2   2   2   2   2   2
#     4   9  23  46  71 108 153 189 250 301 372 439
#     4  11  27  50  73 108 154 196 251 308 373 449
#     4  10  22  40  73 109 157 190 249 302 370 433
#     4  11  27  49  79 108 147 201 255 305 374 444
#     4  11  23  45  76 109 150 195 246 309 369 438
#     4  10  22  40  71 110 156 189 251 300 368 433
#
# _framework density 22.860762000000001
#
# number of rings (size 3 to 8) (size 9 to 14) (size 15 to 20)
#    1.000    0.667    1.667    2.000    4.667    5.333 
#    0.000   20.000    0.000    0.000    0.000    0.000 
#    0.000    0.000    0.000    0.000    0.000    0.000 
#
# Total GULP energy -67005.822898 kJ/mol
# GULP energy per Si atom -5583.818575 kJ/mol
# Density = 2.280873 g / cm^3
# Si number density = 22.860762 Si / 1000 Ang^3
#
#
#
# Elastic Constant Matrix: (Units=GPa)
#
#
# Indices 1 2 3 4 5 6 
#
# 1 135.9708 67.6542 70.5548 -0.3169 -12.6030 -13.7428
# 2 67.6542 149.0266 55.3169 -24.3517 -11.0353 -2.3719
# 3 70.5548 55.3169 187.5054 -13.1230 -1.4853 -11.9456
# 4 -0.3169 -24.3517 -13.1230 49.4005 2.2349 -9.2936
# 5 -12.6030 -11.0353 -1.4853 2.2349 52.3613 -6.8982
# 6 -13.7428 -2.3719 -11.9456 -9.2936 -6.8982 32.3895
#
#
#
# Elastic Compliance Matrix: (Units=1/GPa)
#
#
# Indices 1 2 3 4 5 6 
#
# 1 0.011618 -0.004303 -0.003035 -0.002333 0.002341 0.003324
# 2 -0.004303 0.009817 -0.000953 0.004524 0.000815 0.000013
# 3 -0.003035 -0.000953 0.006970 0.001684 -0.000599 0.001568
# 4 -0.002333 0.004524 0.001684 0.024203 0.000326 0.006976
# 5 0.002341 0.000815 -0.000599 0.000326 0.020499 0.005291
# 6 0.003324 0.000013 0.001568 0.006976 0.005291 0.035993
#
#
# Mechanical properties :
#
#
# Convention : Reuss Voigt Hill
#
# Bulk Modulus (GPa) = 84.58551 95.50607 90.04579
# Shear Modulus (GPa) = 38.57351 45.42873 42.00112
#
# Velocity S-wave (km/s) = 4.11216 4.46263 4.29097
# Velocity P-wave (km/s) = 7.72186 8.27172 8.00152
#
# Compressibility (1/GPa) = 0.01182236
#
# Stress axis : x y z
#
# Youngs Moduli (GPa) = 86.07489 101.86262 143.48087
#
# Poissons Ratio (x) = 0.43827 0.43550
# Poissons Ratio (y) = 0.37034 0.13678
# Poissons Ratio (z) = 0.26126 0.09710
#
# Static dielectric constant tensor:
#      x y z
#    x 1.926620 0.045270 0.052430 
#    y 0.045270 1.875890 0.046840 
#    z 0.052430 0.046840 1.873070 
# 
# From -- ./inp_files/233131.got.cif
#   From: 2010.05.17/outbox.ucp.g08.bks.cvg/sg2_117_cif.got.tgz:233131.got - 2010.06.11 11:32:03.
