data_PCOD9074715
_publ_section_title
;
Structure prediction by ZEFSAII (Michael W. Deem and Ramdas Pophale) SiO2 
 PCOD9074715
Probable space group: P -1
;
_chemical_formula_sum "Si O2"
_cell_formula_units_Z 16
_cell_length_a 15.000000
_cell_length_b 24.000000
_cell_length_c 6.000000
_cell_angle_alpha 80.000000
_cell_angle_beta 100.000000
_cell_angle_gamma 160.000000
_cell_volume 727.188304
_symmetry_space_group_name_H-M "P -1"
_symmetry_group_IT_number 2
_symmetry_cell_setting 'triclinic'
loop_
_space_group_symop_operation_xyz
x,y,z
-x,-y,-z
loop_
_atom_site_type_symbol
_atom_site_label
_atom_site_fract_x
_atom_site_fract_y
_atom_site_fract_z
Si Si1 0.122573 0.162207 0.834663
Si Si2 0.632936 0.904788 0.081595
Si Si3 0.837134 0.074092 0.454697
Si Si4 0.347207 0.510502 0.959951
Si Si5 0.266472 0.409396 0.493711
Si Si6 0.212409 0.540269 0.643967
Si Si7 0.284398 0.714701 0.679052
Si Si8 0.287043 0.162994 0.618911
O O1 0.245499 0.174364 0.815682
O O2 0.050918 0.152731 0.579351
O O3 0.337659 0.311031 0.995804
O O4 0.840588 0.999645 0.935648
O O5 0.611482 0.840612 0.288819
O O6 0.783461 0.040878 0.190745
O O7 0.367043 0.766887 0.940990
O O8 0.979238 0.213270 0.500806
O O9 0.550681 0.894775 0.557381
O O10 0.292742 0.448788 0.734319
O O11 0.211306 0.492496 0.871933
O O12 0.273157 0.447589 0.229601
O O13 0.500000 0.500000 0.500000
O O14 0.248614 0.625975 0.687420
O O15 0.477446 0.675838 0.538193
O O16 0.964478 0.400054 0.463371
O O17 0.000000 0.000000 0.500000
#
# Coordination Sequence:
#
# PCOD9074715 Si02
#       8
#     2   2   2   2   2   2   2   2
#     4  11  22  36  65  98 141 174 224 291 360 430
#     4  11  21  38  65  96 135 185 230 285 350 429
#     4  11  23  43  67  99 136 184 235 283 352 419
#     4  12  26  45  70 107 142 186 236 296 362 419
#     4  12  26  45  72 104 144 189 236 296 357 430
#     4  11  24  46  69 100 143 180 238 290 352 428
#     4  10  24  46  68  99 135 190 236 287 352 421
#     4  12  20  37  64 105 143 176 219 290 367 426
#
# _framework density 22.002554
#
# number of rings (size 3 to 8) (size 9 to 14) (size 15 to 20)
#    0.000    0.750    3.750    4.500    3.500    0.500 
#    4.500    1.250    0.000    0.000    0.000    0.000 
#    0.000    0.000    0.000    0.000    0.000    0.000 
#
# Total GULP energy -89108.109488 kJ/mol
# GULP energy per Si atom -5569.256843 kJ/mol
# Density = 2.195248 g / cm^3
# Si number density = 22.002554 Si / 1000 Ang^3
#
#
#
# Elastic Constant Matrix: (Units=GPa)
#
#
# Indices 1 2 3 4 5 6 
#
# 1 50.2484 33.8999 42.6181 10.9035 15.1128 7.3099
# 2 33.8999 134.1493 58.2510 38.1832 15.6630 5.8223
# 3 42.6181 58.2510 145.8497 40.8507 16.9255 -6.0625
# 4 10.9035 38.1832 40.8507 48.3906 5.5173 3.6087
# 5 15.1128 15.6630 16.9255 5.5173 43.7671 14.1398
# 6 7.3099 5.8223 -6.0625 3.6087 14.1398 27.0952
#
#
#
# Elastic Compliance Matrix: (Units=1/GPa)
#
#
# Indices 1 2 3 4 5 6 
#
# 1 0.031785 -0.004918 -0.008618 0.005042 -0.003908 -0.008079
# 2 -0.004918 0.011176 -0.000996 -0.006755 -0.001126 0.000190
# 3 -0.008618 -0.000996 0.012824 -0.008342 -0.003226 0.008203
# 4 0.005042 -0.006755 -0.008342 0.032191 0.002169 -0.007195
# 5 -0.003908 -0.001126 -0.003226 0.002169 0.030650 -0.015709
# 6 -0.008079 0.000190 0.008203 -0.007195 -0.015709 0.050037
#
#
# Mechanical properties :
#
#
# Convention : Reuss Voigt Hill
#
# Bulk Modulus (GPa) = 37.42364 66.64283 52.03324
# Shear Modulus (GPa) = 24.19738 36.88246 30.53992
#
# Velocity S-wave (km/s) = 3.31985 4.09868 3.72965
# Velocity P-wave (km/s) = 5.63391 7.26315 6.49978
#
# Compressibility (1/GPa) = 0.02672108
#
# Stress axis : x y z
#
# Youngs Moduli (GPa) = 31.46116 89.48099 77.97776
#
# Poissons Ratio (x) = 0.44009 0.67201
# Poissons Ratio (y) = 0.15473 0.07764
# Poissons Ratio (z) = 0.27113 0.08909
#
# Static dielectric constant tensor:
#      x y z
#    x 1.867170 -0.138030 0.008720 
#    y -0.138030 1.904740 -0.064940 
#    z 0.008720 -0.064940 1.961500 
# 
# From -- ./inp_files/101098.got.cif
#   From: 2010.05.17/outbox.ucp.g08.bks.cvg/sg2_51_cif.got.tgz:101098.got - 2010.06.11 11:32:03.
