data_PCOD9074282
_publ_section_title
;
Structure prediction by ZEFSAII (Michael W. Deem and Ramdas Pophale) SiO2 
 PCOD9074282
Probable space group: P -1
;
_chemical_formula_sum "Si O2"
_cell_formula_units_Z 16
_cell_length_a 9.000000
_cell_length_b 15.000000
_cell_length_c 9.000000
_cell_angle_alpha 40.000000
_cell_angle_beta 100.000000
_cell_angle_gamma 110.000000
_cell_volume 725.993766
_symmetry_space_group_name_H-M "P -1"
_symmetry_group_IT_number 2
_symmetry_cell_setting 'triclinic'
loop_
_space_group_symop_operation_xyz
x,y,z
-x,-y,-z
loop_
_atom_site_type_symbol
_atom_site_label
_atom_site_fract_x
_atom_site_fract_y
_atom_site_fract_z
Si Si1 0.997718 0.872970 0.837743
Si Si2 0.512053 0.783050 0.565415
Si Si3 0.214498 0.660108 0.467520
Si Si4 0.142293 0.199099 0.416455
Si Si5 0.331879 0.885906 0.941798
Si Si6 0.133689 0.420744 0.343241
Si Si7 0.260299 0.373929 0.712136
Si Si8 0.555164 0.309170 0.990131
O O1 0.166267 0.849231 0.868909
O O2 0.899185 0.844403 0.705219
O O3 0.055592 0.043149 0.681830
O O4 0.886365 0.757254 0.078342
O O5 0.344868 0.689940 0.582840
O O6 0.666142 0.734116 0.623883
O O7 0.573082 0.942987 0.290887
O O8 0.489554 0.771592 0.755084
O O9 0.237574 0.530774 0.536206
O O10 0.032245 0.598756 0.574032
O O11 0.266539 0.810655 0.185722
O O12 0.079045 0.321774 0.314332
O O13 0.442834 0.804520 0.993054
O O14 0.238893 0.353636 0.557465
O O15 0.264785 0.574779 0.124248
O O16 0.420748 0.375634 0.822679
#
# Coordination Sequence:
#
# PCOD9074282 Si02
#       8
#     2   2   2   2   2   2   2   2
#     4  10  22  45  71  95 138 175 218 281 334 394
#     4  11  26  45  68 101 135 177 222 281 332 394
#     4  12  26  45  68 101 138 178 221 277 336 393
#     4  10  24  44  69 102 134 175 223 276 338 393
#     4  11  24  47  70  96 139 176 224 273 339 397
#     4  12  26  43  69 103 134 179 224 274 333 403
#     4  12  24  45  69  98 137 178 222 279 332 395
#     4  12  26  43  71 101 132 181 225 276 332 398
#
# _framework density 22.038757
#
# number of rings (size 3 to 8) (size 9 to 14) (size 15 to 20)
#    0.000    0.750    3.750    3.000    5.250    3.000 
#    0.000    0.000    0.000    0.000    0.000    0.000 
#    0.000    0.000    0.000    0.000    0.000    0.000 
#
# Total GULP energy -89291.696550 kJ/mol
# GULP energy per Si atom -5580.731034 kJ/mol
# Density = 2.198860 g / cm^3
# Si number density = 22.038757 Si / 1000 Ang^3
#
#
#
# Elastic Constant Matrix: (Units=GPa)
#
#
# Indices 1 2 3 4 5 6 
#
# 1 105.3100 28.5393 8.9133 -0.9884 -8.8349 21.2855
# 2 28.5393 33.1556 -32.4551 2.8045 -2.3257 18.1639
# 3 8.9133 -32.4551 5.9414 -1.9678 -18.3239 11.7734
# 4 -0.9884 2.8045 -1.9678 15.6408 1.9426 2.1664
# 5 -8.8349 -2.3257 -18.3239 1.9426 35.2802 0.4246
# 6 21.2855 18.1639 11.7734 2.1664 0.4246 39.3879
#
#
#
# Elastic Compliance Matrix: (Units=1/GPa)
#
#
# Indices 1 2 3 4 5 6 
#
# 1 0.011371 -0.001520 0.004382 0.001878 0.005003 -0.006911
# 2 -0.001520 0.004551 -0.023512 -0.003195 -0.012189 0.006058
# 3 0.004382 -0.023512 -0.012628 0.002116 -0.007275 0.012211
# 4 0.001878 -0.003195 0.002116 0.065689 -0.002213 -0.003763
# 5 0.005003 -0.012189 -0.007275 -0.002213 0.025078 0.004943
# 6 -0.006911 0.006058 0.012211 -0.003763 0.004943 0.022833
#
#
# Mechanical properties :
#
#
# Convention : Reuss Voigt Hill
#
# Bulk Modulus (GPa) = -26.31216 17.15576 -4.57820
# Shear Modulus (GPa) = 34.35787 27.35577 30.85682
#
# Velocity S-wave (km/s) = 3.95267 3.52697 3.74587
# Velocity P-wave (km/s) = 2.97767 4.93835 4.07761
#
# Compressibility (1/GPa) = -0.03800524
#
# Stress axis : x y z
#
# Youngs Moduli (GPa) = 87.94192 219.71515 -79.19136
#
# Poissons Ratio (x) = 0.33406 0.34701
# Poissons Ratio (y) = 0.13371 -1.86191
# Poissons Ratio (z) = -0.38536 5.16584
#
# Static dielectric constant tensor:
#      x y z
#    x 1.796210 -0.014930 0.046200 
#    y -0.014930 1.816560 -0.000570 
#    z 0.046200 -0.000570 1.880650 
# 
# From -- ./inp_files/205159.got.cif
#   From: 2010.05.17/outbox.ucp.g08.bks.cvg/sg2_103_cif.got.tgz:205159.got - 2010.06.11 11:32:03.
