data_PCOD9074256
_publ_section_title
;
Structure prediction by ZEFSAII (Michael W. Deem and Ramdas Pophale) SiO2 
 PCOD9074256
Probable space group: P -1
;
_chemical_formula_sum "Si O2"
_cell_formula_units_Z 16
_cell_length_a 9.000000
_cell_length_b 15.000000
_cell_length_c 6.000000
_cell_angle_alpha 70.000000
_cell_angle_beta 80.000000
_cell_angle_gamma 80.000000
_cell_volume 743.852236
_symmetry_space_group_name_H-M "P -1"
_symmetry_group_IT_number 2
_symmetry_cell_setting 'triclinic'
loop_
_space_group_symop_operation_xyz
x,y,z
-x,-y,-z
loop_
_atom_site_type_symbol
_atom_site_label
_atom_site_fract_x
_atom_site_fract_y
_atom_site_fract_z
Si Si1 0.336781 0.546918 0.919896
Si Si2 0.039769 0.384706 0.575726
Si Si3 0.255243 0.366809 0.903828
Si Si4 0.534600 0.322774 0.565958
Si Si5 0.951127 0.118926 0.173065
Si Si6 0.104462 0.094194 0.650684
Si Si7 0.694926 0.751601 0.613185
Si Si8 0.223402 0.709101 0.146453
O O1 0.236788 0.463945 0.963506
O O2 0.367724 0.605237 0.642822
O O3 0.500000 0.500000 0.000000
O O4 0.273710 0.613964 0.076899
O O5 0.100569 0.355937 0.831346
O O6 0.176398 0.334241 0.431336
O O7 0.000000 0.500000 0.500000
O O8 0.902674 0.323434 0.626100
O O9 0.390625 0.378429 0.685083
O O10 0.310713 0.272098 0.106591
O O11 0.461532 0.263052 0.448818
O O12 0.639832 0.262575 0.766410
O O13 0.022242 0.124909 0.401677
O O14 0.879627 0.019766 0.272956
O O15 0.833107 0.211354 0.084292
O O16 0.039964 0.116316 0.905304
O O17 0.250663 0.149432 0.550635
#
# Coordination Sequence:
#
# PCOD9074256 Si02
#       8
#     2   2   2   2   2   2   2   2
#     4  12  23  39  59  87 124 181 217 262 316 390
#     4  11  24  36  57  93 126 161 209 277 321 382
#     4  11  23  40  60  84 128 170 221 259 330 384
#     4  11  24  39  60  88 130 173 220 263 321 393
#     4  10  23  43  70 103 130 170 214 276 333 400
#     4  10  22  44  71  99 135 167 215 269 345 398
#     4  11  22  40  63  91 124 170 211 266 333 393
#     4  12  24  39  63  95 129 167 220 271 324 388
#
# _framework density 21.509647999999999
#
# number of rings (size 3 to 8) (size 9 to 14) (size 15 to 20)
#    0.000    1.000    3.750    2.625    5.250    4.000 
#    0.000    0.625    0.000    3.000    0.000    0.000 
#    0.000    0.000    0.000    0.000    0.000    0.000 
#
# Total GULP energy -89144.822064 kJ/mol
# GULP energy per Si atom -5571.551379 kJ/mol
# Density = 2.146069 g / cm^3
# Si number density = 21.509648 Si / 1000 Ang^3
#
#
#
# Elastic Constant Matrix: (Units=GPa)
#
#
# Indices 1 2 3 4 5 6 
#
# 1 79.9629 21.6343 31.6501 -15.5342 19.5053 8.2987
# 2 21.6343 28.0969 10.4202 -10.9220 4.6414 16.6591
# 3 31.6501 10.4202 100.1377 -16.1622 8.7923 11.8321
# 4 -15.5342 -10.9220 -16.1622 31.4715 0.9217 -6.6681
# 5 19.5053 4.6414 8.7923 0.9217 34.4467 2.5102
# 6 8.2987 16.6591 11.8321 -6.6681 2.5102 9.9752
#
#
#
# Elastic Compliance Matrix: (Units=1/GPa)
#
#
# Indices 1 2 3 4 5 6 
#
# 1 0.006020 0.070627 0.006926 0.004317 -0.005562 -0.126888
# 2 0.070627 -0.427327 -0.061599 0.012706 -0.021085 0.741764
# 3 0.006926 -0.061599 0.003873 0.004594 -0.003768 0.096536
# 4 0.004317 0.012706 0.004594 0.040523 -0.006298 -0.001587
# 5 -0.005562 -0.021085 -0.003768 -0.006298 0.033850 0.031582
# 6 -0.126888 0.741764 0.096536 -0.001587 0.031582 -1.156484
#
#
# Mechanical properties :
#
#
# Convention : Reuss Voigt Hill
#
# Bulk Modulus (GPa) = -2.59386 37.28966 17.34790
# Shear Modulus (GPa) = -3.01212 24.81154 10.89971
#
# Velocity S-wave (km/s) = -1.18465 3.40002 2.25352
# Velocity P-wave (km/s) = 1.75491 5.72603 3.85407
#
# Compressibility (1/GPa) = -0.38552634
#
# Stress axis : x y z
#
# Youngs Moduli (GPa) = 166.10952 -2.34013 258.19900
#
# Poissons Ratio (x) = 0.16528 -1.78824
# Poissons Ratio (y) = -11.73178 15.90471
# Poissons Ratio (z) = -1.15044 -0.14415
#
# Static dielectric constant tensor:
#      x y z
#    x 1.805040 -0.002960 0.018510 
#    y -0.002960 1.781670 0.032150 
#    z 0.018510 0.032150 1.849680 
# 
# From -- ./inp_files/37238.got.cif
#   From: 2010.05.17/outbox.ucp.g08.bks.cvg/sg2_19_cif.got.tgz:37238.got - 2010.06.11 11:32:03.
