data_PCOD9074342
_publ_section_title
;
Structure prediction by ZEFSAII (Michael W. Deem and Ramdas Pophale) SiO2 
 PCOD9074342
Probable space group: P -1
;
_chemical_formula_sum "Si O2"
_cell_formula_units_Z 14
_cell_length_a 9.000000
_cell_length_b 6.000000
_cell_length_c 15.000000
_cell_angle_alpha 90.000000
_cell_angle_beta 110.000000
_cell_angle_gamma 60.000000
_cell_volume 644.457818
_symmetry_space_group_name_H-M "P -1"
_symmetry_group_IT_number 2
_symmetry_cell_setting 'triclinic'
loop_
_space_group_symop_operation_xyz
x,y,z
-x,-y,-z
loop_
_atom_site_type_symbol
_atom_site_label
_atom_site_fract_x
_atom_site_fract_y
_atom_site_fract_z
Si Si1 0.412536 0.358453 0.875990
Si Si2 0.113106 0.218197 0.783325
Si Si3 0.548587 0.340292 0.708126
Si Si4 0.698638 0.702686 0.487731
Si Si5 0.177363 0.866097 0.961865
Si Si6 0.288227 0.277044 0.303321
Si Si7 0.076020 0.141772 0.576975
O O1 0.306241 0.206846 0.835423
O O2 0.439344 0.437438 0.780577
O O3 0.277897 0.584923 0.923096
O O4 0.629220 0.183354 0.954580
O O5 0.115060 0.080283 0.690283
O O6 0.936761 0.520369 0.745634
O O7 0.095357 0.076513 0.865653
O O8 0.420956 0.384286 0.594753
O O9 0.640545 0.522992 0.713927
O O10 0.660333 0.007805 0.731080
O O11 0.645090 0.795059 0.579333
O O12 0.745247 0.879738 0.433997
O O13 0.902402 0.440470 0.542422
O O14 0.000000 0.000000 0.000000
O O15 0.000000 0.000000 0.500000
#
# Coordination Sequence:
#
# PCOD9074342 Si02
#       7
#     2   2   2   2   2   2   2
#     4  11  27  47  79 111 149 202 263 314 406 459
#     4  11  25  47  76 107 150 207 252 325 387 470
#     4  12  26  48  72 112 154 202 260 321 384 461
#     4  10  23  41  65 105 149 206 254 318 374 459
#     4  11  27  51  77 111 152 197 261 333 393 469
#     4  11  28  43  75 111 156 204 260 314 385 459
#     4  10  23  39  69 107 150 202 258 314 382 460
#
# _framework density 21.723687000000002
#
# number of rings (size 3 to 8) (size 9 to 14) (size 15 to 20)
#    0.000    1.143    1.429    2.143   14.000    0.571 
#    0.000    0.000    0.000    0.000    0.000    0.000 
#    0.000    0.000    0.000    0.000    0.000    0.000 
#
# Total GULP energy -77976.068663 kJ/mol
# GULP energy per Si atom -5569.719190 kJ/mol
# Density = 2.167424 g / cm^3
# Si number density = 21.723687 Si / 1000 Ang^3
#
#
#
# Elastic Constant Matrix: (Units=GPa)
#
#
# Indices 1 2 3 4 5 6 
#
# 1 128.3679 36.1573 45.7750 13.7507 -11.6698 -2.0288
# 2 36.1573 105.8771 32.4637 8.3825 -7.6420 -10.1744
# 3 45.7750 32.4637 153.6526 12.3167 -14.2558 -2.1682
# 4 13.7507 8.3825 12.3167 46.0381 -4.1461 3.2690
# 5 -11.6698 -7.6420 -14.2558 -4.1461 54.4348 2.4861
# 6 -2.0288 -10.1744 -2.1682 3.2690 2.4861 43.5093
#
#
#
# Elastic Compliance Matrix: (Units=1/GPa)
#
#
# Indices 1 2 3 4 5 6 
#
# 1 0.009488 -0.002404 -0.002087 -0.001735 0.001025 -0.000152
# 2 -0.002404 0.011065 -0.001461 -0.001038 0.000464 0.002454
# 3 -0.002087 -0.001461 0.007639 -0.001036 0.001272 -0.000053
# 4 -0.001735 -0.001038 -0.001036 0.022954 0.001058 -0.002160
# 5 0.001025 0.000464 0.001272 0.001058 0.019113 -0.000952
# 6 -0.000152 0.002454 -0.000053 -0.002160 -0.000952 0.023764
#
#
# Mechanical properties :
#
#
# Convention : Reuss Voigt Hill
#
# Bulk Modulus (GPa) = 61.38892 68.52107 64.95500
# Shear Modulus (GPa) = 44.90133 47.02986 45.96559
#
# Velocity S-wave (km/s) = 4.55128 4.65791 4.60490
# Velocity P-wave (km/s) = 7.47925 7.78066 7.63145
#
# Compressibility (1/GPa) = 0.01628958
#
# Stress axis : x y z
#
# Youngs Moduli (GPa) = 105.39813 90.37318 130.91111
#
# Poissons Ratio (x) = 0.21722 0.27317
# Poissons Ratio (y) = 0.25333 0.19124
# Poissons Ratio (z) = 0.21994 0.13202
#
# Static dielectric constant tensor:
#      x y z
#    x 1.852930 -0.023980 -0.004210 
#    y -0.023980 1.875300 -0.024660 
#    z -0.004210 -0.024660 1.806190 
# 
# From -- ./inp_files/488455.got.cif
#   From: 2010.05.17/outbox.ucp.g08.bks.cvg/sg2_245_cif.got.tgz:488455.got - 2010.06.11 11:32:03.
