data_PCOD9074115
_publ_section_title
;
Structure prediction by ZEFSAII (Michael W. Deem and Ramdas Pophale) SiO2 
 PCOD9074115
Probable space group: P -1
;
_chemical_formula_sum "Si O2"
_cell_formula_units_Z 16
_cell_length_a 15.000000
_cell_length_b 12.000000
_cell_length_c 21.000000
_cell_angle_alpha 130.000000
_cell_angle_beta 30.000000
_cell_angle_gamma 150.000000
_cell_volume 853.690245
_symmetry_space_group_name_H-M "P -1"
_symmetry_group_IT_number 2
_symmetry_cell_setting 'triclinic'
loop_
_space_group_symop_operation_xyz
x,y,z
-x,-y,-z
loop_
_atom_site_type_symbol
_atom_site_label
_atom_site_fract_x
_atom_site_fract_y
_atom_site_fract_z
Si Si1 0.083916 0.955125 0.372928
Si Si2 0.821222 0.364327 0.905996
Si Si3 0.880726 0.503355 0.351570
Si Si4 0.198776 0.423669 0.362296
Si Si5 0.668470 0.500097 0.152458
Si Si6 0.193816 0.711597 0.556225
Si Si7 0.124736 0.874333 0.123978
Si Si8 0.204564 0.108061 0.586581
O O1 0.072084 0.778530 0.333331
O O2 0.824472 0.809878 0.427121
O O3 0.402436 0.224518 0.247510
O O4 0.000000 0.000000 0.500000
O O5 0.920410 0.287130 0.856616
O O6 0.048333 0.535930 0.770954
O O7 0.808991 0.489815 0.007934
O O8 0.490831 0.123281 0.988837
O O9 0.942273 0.449343 0.355418
O O10 0.526751 0.309389 0.494432
O O11 0.493611 0.519397 0.232979
O O12 0.251763 0.610187 0.436035
O O13 0.063535 0.369778 0.354954
O O14 0.926407 0.133813 0.444758
O O15 0.920051 0.708708 0.126855
O O16 0.500000 0.000000 0.500000
O O17 0.015079 0.955391 0.250919
#
# Coordination Sequence:
#
# PCOD9074115 Si02
#       8
#     2   2   2   2   2   2   2   2
#     4  11  21  34  59  97 129 158 209 256 306 376
#     4  11  23  40  58  95 136 164 211 249 306 391
#     4  12  23  38  63  94 129 165 206 264 316 365
#     4  10  22  42  67  93 119 159 220 260 306 379
#     4  11  23  41  64  91 129 178 203 250 319 379
#     4  11  23  43  66  93 123 164 209 272 323 354
#     4  11  21  41  63  89 131 178 202 245 316 379
#     4  11  20  39  63  93 129 162 204 258 313 377
#
# _framework density 18.742160999999999
#
# number of rings (size 3 to 8) (size 9 to 14) (size 15 to 20)
#    0.000    1.000    5.000    4.500    1.750    0.000 
#    2.250    0.625    0.000    1.500    0.000    0.000 
#    0.000    0.000    0.000    0.000    0.000    0.000 
#
# Total GULP energy -89161.436789 kJ/mol
# GULP energy per Si atom -5572.589799 kJ/mol
# Density = 1.869950 g / cm^3
# Si number density = 18.742161 Si / 1000 Ang^3
#
#
#
# Elastic Constant Matrix: (Units=GPa)
#
#
# Indices 1 2 3 4 5 6 
#
# 1 145.0975 36.6488 31.4079 -0.0185 -13.0355 5.1819
# 2 36.6488 100.3021 15.0307 15.8297 -3.6451 14.2808
# 3 31.4079 15.0307 68.3253 16.2705 -3.6701 0.7324
# 4 -0.0185 15.8297 16.2705 20.5857 9.9410 -1.6979
# 5 -13.0355 -3.6451 -3.6701 9.9410 28.0691 -4.1901
# 6 5.1819 14.2808 0.7324 -1.6979 -4.1901 39.8319
#
#
#
# Elastic Compliance Matrix: (Units=1/GPa)
#
#
# Indices 1 2 3 4 5 6 
#
# 1 0.008865 -0.003522 -0.004671 0.005961 0.001021 0.000557
# 2 -0.003522 0.014306 0.002691 -0.016234 0.005604 -0.004823
# 3 -0.004671 0.002691 0.022615 -0.024736 0.009778 -0.000799
# 4 0.005961 -0.016234 -0.024736 0.098823 -0.036700 0.005852
# 5 0.001021 0.005604 0.009778 -0.036700 0.051330 0.001514
# 6 0.000557 -0.004823 -0.000799 0.005852 0.001514 0.027185
#
#
# Mechanical properties :
#
#
# Convention : Reuss Voigt Hill
#
# Bulk Modulus (GPa) = 28.75107 53.32217 41.03662
# Shear Modulus (GPa) = 20.34799 33.07318 26.71059
#
# Velocity S-wave (km/s) = 3.29854 4.20532 3.77923
# Velocity P-wave (km/s) = 5.46633 7.21746 6.40205
#
# Compressibility (1/GPa) = 0.03478132
#
# Stress axis : x y z
#
# Youngs Moduli (GPa) = 112.79991 69.90033 44.21757
#
# Poissons Ratio (x) = 0.24621 0.20654
# Poissons Ratio (y) = 0.39731 -0.11897
# Poissons Ratio (z) = 0.52690 -0.18807
#
# Static dielectric constant tensor:
#      x y z
#    x 1.671380 -0.018020 0.011810 
#    y -0.018020 1.665080 0.006890 
#    z 0.011810 0.006890 1.666550 
# 
# From -- ./inp_files/315391.got.cif
#   From: 2010.05.17/outbox.ucp.g08.bks.cvg/sg2_158_cif.got.tgz:315391.got - 2010.06.11 11:32:03.
