data_PCOD9074222
_publ_section_title
;
Structure prediction by ZEFSAII (Michael W. Deem and Ramdas Pophale) SiO2 
 PCOD9074222
Probable space group: P -1
;
_chemical_formula_sum "Si O2"
_cell_formula_units_Z 14
_cell_length_a 6.000000
_cell_length_b 12.000000
_cell_length_c 24.000000
_cell_angle_alpha 150.000000
_cell_angle_beta 130.000000
_cell_angle_gamma 50.000000
_cell_volume 644.916474
_symmetry_space_group_name_H-M "P -1"
_symmetry_group_IT_number 2
_symmetry_cell_setting 'triclinic'
loop_
_space_group_symop_operation_xyz
x,y,z
-x,-y,-z
loop_
_atom_site_type_symbol
_atom_site_label
_atom_site_fract_x
_atom_site_fract_y
_atom_site_fract_z
Si Si1 0.963514 0.367751 0.181309
Si Si2 0.167190 0.544138 0.987217
Si Si3 0.315283 0.648086 0.176197
Si Si4 0.824359 0.254614 0.565027
Si Si5 0.138932 0.067329 0.968721
Si Si6 0.795356 0.828614 0.616706
Si Si7 0.855238 0.432366 0.531207
O O1 0.625204 0.520314 0.196086
O O2 0.167834 0.548386 0.303488
O O3 0.985707 0.159670 0.138470
O O4 0.027701 0.241230 0.077522
O O5 0.251968 0.512498 0.052612
O O6 0.986811 0.796580 0.048364
O O7 0.500000 0.500000 0.000000
O O8 0.991180 0.374303 0.853273
O O9 0.303352 0.906873 0.270918
O O10 0.493613 0.240691 0.487152
O O11 0.964204 0.348701 0.573418
O O12 0.000000 0.000000 0.500000
O O13 0.500000 0.000000 0.000000
O O14 0.932950 0.659092 0.615506
O O15 0.035382 0.776674 0.583728
O O16 0.500000 0.500000 0.500000
#
# Coordination Sequence:
#
# PCOD9074222 Si02
#       7
#     2   2   2   2   2   2   2
#     4  11  24  42  65  98 132 167 221 267 329 400
#     4  11  24  43  66  95 126 171 220 269 330 385
#     4  11  23  41  67  96 126 166 222 272 326 395
#     4  11  23  41  67  98 131 168 215 269 334 395
#     4  11  24  45  66  91 134 178 216 275 329 384
#     4  10  22  44  65  92 131 171 220 269 324 399
#     4   9  22  43  60  89 129 173 218 263 322 390
#
# _framework density 21.708238000000001
#
# number of rings (size 3 to 8) (size 9 to 14) (size 15 to 20)
#    0.000    1.429    4.286    0.000    2.000    5.143 
#   10.286    0.000    0.000    0.000    0.000    0.000 
#    0.000    0.000    0.000    0.000    0.000    0.000 
#
# Total GULP energy -77999.268855 kJ/mol
# GULP energy per Si atom -5571.376347 kJ/mol
# Density = 2.165883 g / cm^3
# Si number density = 21.708238 Si / 1000 Ang^3
#
#
#
# Elastic Constant Matrix: (Units=GPa)
#
#
# Indices 1 2 3 4 5 6 
#
# 1 24.0952 12.2629 7.4608 -2.5394 2.8848 -9.1039
# 2 12.2629 137.3664 22.1183 16.1308 6.2606 12.9093
# 3 7.4608 22.1183 91.6279 17.6609 21.4557 7.0345
# 4 -2.5394 16.1308 17.6609 31.8439 -3.7956 7.4237
# 5 2.8848 6.2606 21.4557 -3.7956 25.7909 -6.4798
# 6 -9.1039 12.9093 7.0345 7.4237 -6.4798 35.4814
#
#
#
# Elastic Compliance Matrix: (Units=1/GPa)
#
#
# Indices 1 2 3 4 5 6 
#
# 1 0.053683 -0.006552 -0.007516 0.008645 0.007431 0.017196
# 2 -0.006552 0.008948 0.000519 -0.004684 -0.003753 -0.004745
# 3 -0.007516 0.000519 0.018344 -0.011635 -0.017914 -0.006592
# 4 0.008645 -0.004684 -0.011635 0.042795 0.016206 0.000235
# 5 0.007431 -0.003753 -0.017914 0.016206 0.059745 0.014344
# 6 0.017196 -0.004745 -0.006592 0.000235 0.014344 0.038200
#
#
# Mechanical properties :
#
#
# Convention : Reuss Voigt Hill
#
# Bulk Modulus (GPa) = 18.56084 37.41926 27.99005
# Shear Modulus (GPa) = 18.74271 32.70639 25.72455
#
# Velocity S-wave (km/s) = 2.94154 3.88575 3.44614
# Velocity P-wave (km/s) = 4.48392 6.11611 5.36248
#
# Compressibility (1/GPa) = 0.05387686
#
# Stress axis : x y z
#
# Youngs Moduli (GPa) = 18.62804 111.75524 54.51484
#
# Poissons Ratio (x) = 0.73223 0.40974
# Poissons Ratio (y) = 0.12205 -0.02832
# Poissons Ratio (z) = 0.14001 -0.05805
#
# Static dielectric constant tensor:
#      x y z
#    x 1.953600 -0.261130 0.070540 
#    y -0.261130 1.822300 -0.095600 
#    z 0.070540 -0.095600 1.828950 
# 
# From -- ./inp_files/48237.got.cif
#   From: 2010.05.17/outbox.ucp.g08.bks.cvg/sg2_25_cif.got.tgz:48237.got - 2010.06.11 11:32:03.
