data_PCOD9074825
_publ_section_title
;
Structure prediction by ZEFSAII (Michael W. Deem and Ramdas Pophale) SiO2 
 PCOD9074825
Probable space group: P -1
;
_chemical_formula_sum "Si O2"
_cell_formula_units_Z 16
_cell_length_a 9.000000
_cell_length_b 15.000000
_cell_length_c 15.000000
_cell_angle_alpha 30.000000
_cell_angle_beta 90.000000
_cell_angle_gamma 110.000000
_cell_volume 738.562284
_symmetry_space_group_name_H-M "P -1"
_symmetry_group_IT_number 2
_symmetry_cell_setting 'triclinic'
loop_
_space_group_symop_operation_xyz
x,y,z
-x,-y,-z
loop_
_atom_site_type_symbol
_atom_site_label
_atom_site_fract_x
_atom_site_fract_y
_atom_site_fract_z
Si Si1 0.654786 0.970303 0.500985
Si Si2 0.245268 0.182918 0.863569
Si Si3 0.134286 0.798902 0.887880
Si Si4 0.469712 0.229547 0.644361
Si Si5 0.281943 0.531505 0.118669
Si Si6 0.279339 0.443188 0.983625
Si Si7 0.905172 0.097779 0.559595
Si Si8 0.328305 0.996311 0.193625
O O1 0.500000 0.000000 0.500000
O O2 0.765131 0.092764 0.302790
O O3 0.817844 0.109782 0.458691
O O4 0.508243 0.677102 0.751320
O O5 0.367549 0.193765 0.770930
O O6 0.367673 0.473035 0.631213
O O7 0.266524 0.064894 0.049377
O O8 0.000000 0.000000 0.000000
O O9 0.892392 0.616102 0.030085
O O10 0.270739 0.036889 0.746464
O O11 0.170651 0.624778 0.064057
O O12 0.588134 0.133813 0.719366
O O13 0.274332 0.499675 0.039021
O O14 0.145197 0.271166 0.392827
O O15 0.499193 0.749970 0.972453
O O16 0.211817 0.185030 0.199597
O O17 0.850231 0.154753 0.600998
#
# Coordination Sequence:
#
# PCOD9074825 Si02
#       8
#     2   2   2   2   2   2   2   2
#     4  12  22  39  61  89 134 183 232 276 323 399
#     4  11  27  48  80 105 133 172 232 293 366 424
#     4  11  24  40  68  95 135 187 227 283 340 401
#     4  10  26  49  72 107 138 178 231 289 355 420
#     4  11  23  43  62  97 142 189 233 274 342 405
#     4  12  24  37  62  95 140 185 230 277 326 396
#     4  12  26  37  62  99 137 186 234 277 338 402
#     4  11  26  47  71 104 143 184 227 293 348 417
#
# _framework density 21.663710999999999
#
# number of rings (size 3 to 8) (size 9 to 14) (size 15 to 20)
#    0.000    0.750    3.750    3.000    5.250    3.500 
#    0.000    0.000    0.000    0.000    0.000    0.000 
#    0.000    0.000    0.000    0.000    0.000    0.000 
#
# Total GULP energy -89374.134626 kJ/mol
# GULP energy per Si atom -5585.883414 kJ/mol
# Density = 2.161440 g / cm^3
# Si number density = 21.663711 Si / 1000 Ang^3
#
#
#
# Elastic Constant Matrix: (Units=GPa)
#
#
# Indices 1 2 3 4 5 6 
#
# 1 77.3257 41.3661 22.0543 -6.3155 -3.3353 8.2272
# 2 41.3661 121.7340 32.4048 0.3295 11.4644 -0.8324
# 3 22.0543 32.4048 121.0244 -9.9687 -10.6563 -6.8204
# 4 -6.3155 0.3295 -9.9687 42.2163 -5.4822 0.0370
# 5 -3.3353 11.4644 -10.6563 -5.4822 34.5258 -2.7686
# 6 8.2272 -0.8324 -6.8204 0.0370 -2.7686 40.4440
#
#
#
# Elastic Compliance Matrix: (Units=1/GPa)
#
#
# Indices 1 2 3 4 5 6 
#
# 1 0.017171 -0.005854 -0.001240 0.002763 0.003371 -0.003594
# 2 -0.005854 0.011432 -0.002633 -0.002300 -0.005491 0.000608
# 3 -0.001240 -0.002633 0.009933 0.002754 0.004432 0.002174
# 4 0.002763 -0.002300 0.002754 0.025542 0.005956 0.000240
# 5 0.003371 -0.005491 0.004432 0.005956 0.033606 0.002244
# 6 -0.003594 0.000608 0.002174 0.000240 0.002244 0.025989
#
#
# Mechanical properties :
#
#
# Convention : Reuss Voigt Hill
#
# Bulk Modulus (GPa) = 52.40329 56.85940 54.63134
# Shear Modulus (GPa) = 33.44713 38.38783 35.91748
#
# Velocity S-wave (km/s) = 3.93354 4.21407 4.07622
# Velocity P-wave (km/s) = 6.69868 7.06973 6.88671
#
# Compressibility (1/GPa) = 0.01908277
#
# Stress axis : x y z
#
# Youngs Moduli (GPa) = 58.23706 87.47125 100.67114
#
# Poissons Ratio (x) = 0.51209 0.12481
# Poissons Ratio (y) = 0.34094 0.26505
# Poissons Ratio (z) = 0.07220 0.23030
#
# Static dielectric constant tensor:
#      x y z
#    x 2.395870 0.209960 -0.386230 
#    y 0.209960 1.827440 -0.173360 
#    z -0.386230 -0.173360 2.209530 
# 
# From -- ./inp_files/333448.got.cif
#   From: 2010.05.17/outbox.ucp.g08.bks.cvg/sg2_167_cif.got.tgz:333448.got - 2010.06.11 11:32:03.
