data_PCOD9074403
_publ_section_title
;
Structure prediction by ZEFSAII (Michael W. Deem and Ramdas Pophale) SiO2 
 PCOD9074403
Probable space group: P -1
;
_chemical_formula_sum "Si O2"
_cell_formula_units_Z 15
_cell_length_a 21.000000
_cell_length_b 9.000000
_cell_length_c 12.000000
_cell_angle_alpha 60.000000
_cell_angle_beta 30.000000
_cell_angle_gamma 40.000000
_cell_volume 627.666119
_symmetry_space_group_name_H-M "P -1"
_symmetry_group_IT_number 2
_symmetry_cell_setting 'triclinic'
loop_
_space_group_symop_operation_xyz
x,y,z
-x,-y,-z
loop_
_atom_site_type_symbol
_atom_site_label
_atom_site_fract_x
_atom_site_fract_y
_atom_site_fract_z
Si Si1 0.000000 0.500000 0.500000
Si Si2 0.171126 0.723215 0.412958
Si Si3 0.011129 0.307016 0.995278
Si Si4 0.688008 0.261716 0.185569
Si Si5 0.316515 0.439913 0.757717
Si Si6 0.201082 0.301960 0.506773
Si Si7 0.635812 0.957593 0.043723
Si Si8 0.501183 0.534932 0.837772
O O1 0.130045 0.336628 0.477895
O O2 0.182488 0.223434 0.249588
O O3 0.119505 0.577357 0.559925
O O4 0.267485 0.706057 0.385128
O O5 0.369346 0.534866 0.105990
O O6 0.000000 0.000000 0.500000
O O7 0.805902 0.433489 0.218672
O O8 0.125561 0.236569 0.732576
O O9 0.000000 0.500000 0.000000
O O10 0.125942 0.054864 0.993852
O O11 0.534337 0.296128 0.469892
O O12 0.765707 0.347948 0.101541
O O13 0.562590 0.437848 0.201060
O O14 0.313802 0.245362 0.869126
O O15 0.437541 0.085565 0.238856
O O16 0.582409 0.188949 0.102974
#
# Coordination Sequence:
#
# PCOD9074403 Si02
#       8
#     1   2   2   2   2   2   2   2
#     4  12  24  42  68 100 136 188 234 290 358 426
#     4  10  23  42  65  99 142 177 232 295 345 427
#     4  12  26  44  76 108 144 191 244 296 356 438
#     4  11  26  46  72 105 142 191 234 308 359 424
#     4  11  25  46  69 104 146 184 240 293 368 425
#     4  11  25  44  67 105 139 187 235 293 362 424
#     4  11  23  45  69  99 142 182 241 295 350 436
#     4  10  24  44  69 103 138 184 243 290 361 423
#
# _framework density 23.898056
#
# number of rings (size 3 to 8) (size 9 to 14) (size 15 to 20)
#    0.000    1.067    2.667    2.400    7.467    1.067 
#    4.800    0.000    0.000    0.000    0.000    0.000 
#    0.000    0.000    0.000    0.000    0.000    0.000 
#
# Total GULP energy -83589.555696 kJ/mol
# GULP energy per Si atom -5572.637046 kJ/mol
# Density = 2.384366 g / cm^3
# Si number density = 23.898056 Si / 1000 Ang^3
#
#
#
# Elastic Constant Matrix: (Units=GPa)
#
#
# Indices 1 2 3 4 5 6 
#
# 1 123.2995 0.4658 -0.6687 13.9251 -18.4771 -25.9706
# 2 0.4658 65.9792 -0.8810 2.3369 -13.8938 -15.7397
# 3 -0.6687 -0.8810 49.5496 6.7582 -10.9883 1.1810
# 4 13.9251 2.3369 6.7582 40.8939 -7.6420 -11.1891
# 5 -18.4771 -13.8938 -10.9883 -7.6420 32.5418 5.1587
# 6 -25.9706 -15.7397 1.1810 -11.1891 5.1587 43.2762
#
#
#
# Elastic Compliance Matrix: (Units=1/GPa)
#
#
# Indices 1 2 3 4 5 6 
#
# 1 0.010520 0.002843 0.001632 -0.001092 0.006492 0.006247
# 2 0.002843 0.018984 0.002100 0.001521 0.009548 0.007809
# 3 0.001632 0.002100 0.022629 -0.002946 0.008883 -0.000695
# 4 -0.001092 0.001521 -0.002946 0.027891 0.004530 0.006649
# 5 0.006492 0.009548 0.008883 0.004530 0.042035 0.003287
# 6 0.006247 0.007809 -0.000695 0.006649 0.003287 0.031043
#
#
# Mechanical properties :
#
#
# Convention : Reuss Voigt Hill
#
# Bulk Modulus (GPa) = 15.31753 26.29560 20.80656
# Shear Modulus (GPa) = 30.91908 39.33654 35.12781
#
# Velocity S-wave (km/s) = 3.60083 4.06151 3.83809
# Velocity P-wave (km/s) = 4.86944 5.74644 5.32602
#
# Compressibility (1/GPa) = 0.06528467
#
# Stress axis : x y z
#
# Youngs Moduli (GPa) = 95.05338 52.67657 44.19024
#
# Poissons Ratio (x) = -0.14978 -0.07213
# Poissons Ratio (y) = -0.27028 -0.09279
# Poissons Ratio (z) = -0.15515 -0.11061
#
# Static dielectric constant tensor:
#      x y z
#    x 1.946380 -0.063990 0.053480 
#    y -0.063990 1.960220 0.039420 
#    z 0.053480 0.039420 1.972720 
# 
# From -- ./inp_files/305786.got.cif
#   From: 2010.05.17/outbox.ucp.g08.bks.cvg/sg2_153_cif.got.tgz:305786.got - 2010.06.11 11:32:03.
