data_PCOD9074406
_publ_section_title
;
Structure prediction by ZEFSAII (Michael W. Deem and Ramdas Pophale) SiO2 
 PCOD9074406
Probable space group: P -1
;
_chemical_formula_sum "Si O2"
_cell_formula_units_Z 16
_cell_length_a 9.150009
_cell_length_b 17.079725
_cell_length_c 9.889686
_cell_angle_alpha 42.358131
_cell_angle_beta 65.469300
_cell_angle_gamma 38.998877
_cell_volume 607.436199
_symmetry_space_group_name_H-M "P -1"
_symmetry_group_IT_number 2
_symmetry_cell_setting 'triclinic'
loop_
_space_group_symop_operation_xyz
x,y,z
-x,-y,-z
loop_
_atom_site_type_symbol
_atom_site_label
_atom_site_fract_x
_atom_site_fract_y
_atom_site_fract_z
Si Si1 0.140417 0.772558 0.205869
Si Si2 0.695506 0.939750 0.350664
Si Si3 0.397327 0.326349 0.914278
Si Si4 0.218147 0.476367 0.521968
Si Si5 0.965418 0.127179 0.151421
Si Si6 0.562853 0.493264 0.138439
Si Si7 0.353023 0.178052 0.738177
Si Si8 0.919858 0.898859 0.563665
O O1 0.353043 0.752868 0.145733
O O2 0.295615 0.564249 0.412018
O O3 0.952735 0.853553 0.299736
O O4 0.935155 0.925968 0.971059
O O5 0.641338 0.863351 0.367977
O O6 0.761685 0.897025 0.538076
O O7 0.478363 0.154067 0.142599
O O8 0.194344 0.436015 0.733253
O O9 0.334727 0.443009 0.917562
O O10 0.400614 0.288647 0.608636
O O11 0.947662 0.649356 0.335018
O O12 0.103969 0.097318 0.268884
O O13 0.860401 0.061894 0.326973
O O14 0.729207 0.336669 0.930349
O O15 0.785605 0.281299 0.352825
O O16 0.500000 0.500000 0.000000
O O17 0.500000 0.000000 0.000000
#
# Coordination Sequence:
#
# PCOD9074406 Si02
#       8
#     2   2   2   2   2   2   2   2
#     4  10  20  34  51  83 115 142 168 217 273 327
#     4  11  20  33  57  80 108 144 181 219 266 311
#     4  11  19  33  50  82 117 137 169 219 271 326
#     4  10  21  34  54  75 107 143 176 218 274 306
#     4   9  19  33  48  73 109 142 174 210 260 325
#     4   9  17  29  46  70 104 141 174 204 251 319
#     4  10  20  37  53  76 104 139 185 227 257 307
#     4  10  18  32  51  72 105 144 175 215 259 312
#
# _framework density 26.340216000000002
#
# number of rings (size 3 to 8) (size 9 to 14) (size 15 to 20)
#    0.000    2.000    3.750    2.250    0.000    1.000 
#    0.000    0.000    0.000    0.750    0.000    5.250 
#    0.000    0.000    0.000    0.000    0.000    0.000 
#
# Total GULP energy -89079.446423 kJ/mol
# GULP energy per Si atom -5567.465401 kJ/mol
# Density = 2.628026 g / cm^3
# Si number density = 26.340216 Si / 1000 Ang^3
#
#
#
# Elastic Constant Matrix: (Units=GPa)
#
#
# Indices 1 2 3 4 5 6 
#
# 1 76.8940 19.3173 24.0726 -1.3003 14.5727 3.0969
# 2 19.3173 122.7964 57.1073 9.9580 1.1854 56.2848
# 3 24.0726 57.1073 160.0938 16.1956 27.6672 -3.5473
# 4 -1.3003 9.9580 16.1956 52.2933 12.6557 14.3103
# 5 14.5727 1.1854 27.6672 12.6557 36.4501 8.9734
# 6 3.0969 56.2848 -3.5473 14.3103 8.9734 28.4843
#
#
#
# Elastic Compliance Matrix: (Units=1/GPa)
#
#
# Indices 1 2 3 4 5 6 
#
# 1 0.014256 0.002444 -0.003066 0.003626 -0.002816 -0.007697
# 2 0.002444 -0.018779 0.011372 -0.008783 -0.017837 0.048289
# 3 -0.003066 0.011372 0.000850 0.003119 0.005353 -0.025285
# 4 0.003626 -0.008783 0.003119 0.019993 -0.013303 0.011495
# 5 -0.002816 -0.017837 0.005353 -0.013303 0.020744 0.036367
# 6 -0.007697 0.048289 -0.025285 0.011495 0.036367 -0.079855
#
#
# Mechanical properties :
#
#
# Convention : Reuss Voigt Hill
#
# Bulk Modulus (GPa) = 56.09351 62.30874 59.20113
# Shear Modulus (GPa) = -85.69281 40.73133 -22.48074
#
# Velocity S-wave (km/s) = -5.70996 3.93664 -2.92460
# Velocity P-wave (km/s) = 4.70421 6.66105 3.33466
#
# Compressibility (1/GPa) = 0.01782737
#
# Stress axis : x y z
#
# Youngs Moduli (GPa) = 70.14730 -53.25197 1176.34708
#
# Poissons Ratio (x) = 0.13017 3.60707
# Poissons Ratio (y) = -0.17147 -13.37740
# Poissons Ratio (z) = 0.21509 0.60558
#
# Static dielectric constant tensor:
#      x y z
#    x 2.145860 0.122810 0.005910 
#    y 0.122810 7.147970 0.072740 
#    z 0.005910 0.072740 1.991020 
# 
# From -- ./inp_files/432726.got.cif
#   From: 2010.05.17/outbox.cif.g08.bks.cpg/sg2_217_cif.got.tgz:432726.got - 2010.06.03 11:33:40.
