data_PCOD9074334
_publ_section_title
;
Structure prediction by ZEFSAII (Michael W. Deem and Ramdas Pophale) SiO2 
 PCOD9074334
Probable space group: P -1
;
_chemical_formula_sum "Si O2"
_cell_formula_units_Z 16
_cell_length_a 6.000000
_cell_length_b 9.000000
_cell_length_c 18.000000
_cell_angle_alpha 80.000000
_cell_angle_beta 50.000000
_cell_angle_gamma 80.000000
_cell_volume 730.800219
_symmetry_space_group_name_H-M "P -1"
_symmetry_group_IT_number 2
_symmetry_cell_setting 'triclinic'
loop_
_space_group_symop_operation_xyz
x,y,z
-x,-y,-z
loop_
_atom_site_type_symbol
_atom_site_label
_atom_site_fract_x
_atom_site_fract_y
_atom_site_fract_z
Si Si1 0.246982 0.422684 0.786854
Si Si2 0.888521 0.600310 0.445491
Si Si3 0.855231 0.855188 0.787249
Si Si4 0.729460 0.379619 0.370767
Si Si5 0.991898 0.656367 0.918010
Si Si6 0.793040 0.151243 0.023729
Si Si7 0.299237 0.808099 0.258216
Si Si8 0.363182 0.666087 0.095737
O O1 0.379180 0.512015 0.683751
O O2 0.376410 0.248090 0.774442
O O3 0.246719 0.532551 0.848729
O O4 0.901834 0.437347 0.844449
O O5 0.871353 0.484913 0.390743
O O6 0.562435 0.673764 0.525594
O O7 0.000000 0.500000 0.500000
O O8 0.091576 0.727411 0.365354
O O9 0.972645 0.792636 0.848657
O O10 0.509423 0.842325 0.867881
O O11 0.040331 0.748964 0.698990
O O12 0.845977 0.027861 0.746359
O O13 0.044339 0.719679 0.982700
O O14 0.669907 0.601744 0.002737
O O15 0.717950 0.188575 0.952095
O O16 0.000000 0.000000 0.000000
O O17 0.346305 0.723532 0.177433
#
# Coordination Sequence:
#
# PCOD9074334 Si02
#       8
#     2   2   2   2   2   2   2   2
#     4  11  22  38  63  93 123 165 211 259 305 372
#     4  11  23  44  71  92 120 160 206 264 321 378
#     4  10  24  41  63  95 129 167 207 257 303 373
#     4  10  23  44  66  92 124 160 207 259 321 370
#     4  10  23  39  61  88 129 174 211 247 310 362
#     4  11  22  39  59  88 135 174 208 250 306 364
#     4  12  24  39  66  94 124 163 211 255 317 368
#     4  11  22  37  58  91 130 164 213 259 298 362
#
# _framework density 21.893808
#
# number of rings (size 3 to 8) (size 9 to 14) (size 15 to 20)
#    0.000    1.250    2.500    3.375    1.750    5.500 
#    0.000    0.625    0.000    0.000    0.000    0.000 
#    0.000    0.000    0.000    0.000    0.000    0.000 
#
# Total GULP energy -89199.826666 kJ/mol
# GULP energy per Si atom -5574.989167 kJ/mol
# Density = 2.184398 g / cm^3
# Si number density = 21.893808 Si / 1000 Ang^3
#
#
#
# Elastic Constant Matrix: (Units=GPa)
#
#
# Indices 1 2 3 4 5 6 
#
# 1 4.0278 10.9137 -10.2288 -10.6548 -5.1252 -22.6577
# 2 10.9137 100.7875 30.2414 0.1245 -3.7573 -43.3267
# 3 -10.2288 30.2414 82.1363 -12.9976 -10.2872 -14.3798
# 4 -10.6548 0.1245 -12.9976 33.9515 -0.7275 -9.1724
# 5 -5.1252 -3.7573 -10.2872 -0.7275 26.0695 2.2797
# 6 -22.6577 -43.3267 -14.3798 -9.1724 2.2797 23.4241
#
#
#
# Elastic Compliance Matrix: (Units=1/GPa)
#
#
# Indices 1 2 3 4 5 6 
#
# 1 -0.003953 -0.017142 -0.004381 -0.014732 -0.001554 -0.043838
# 2 -0.017142 0.020220 -0.008559 -0.005033 -0.005207 0.014101
# 3 -0.004381 -0.008559 0.013277 0.000557 0.004219 -0.012112
# 4 -0.014732 -0.005033 0.000557 0.021022 -0.001518 -0.014837
# 5 -0.001554 -0.005207 0.004219 -0.001518 0.040066 -0.013038
# 6 -0.043838 0.014101 -0.012112 -0.014837 -0.013038 0.014393
#
#
# Mechanical properties :
#
#
# Convention : Reuss Voigt Hill
#
# Bulk Modulus (GPa) = -32.65665 27.64492 -2.50587
# Shear Modulus (GPa) = 32.26157 27.09069 29.67613
#
# Velocity S-wave (km/s) = 3.84285 3.52144 3.68565
# Velocity P-wave (km/s) = 2.17753 5.40262 4.11885
#
# Compressibility (1/GPa) = -0.03062163
#
# Stress axis : x y z
#
# Youngs Moduli (GPa) = -252.97692 49.45560 75.31928
#
# Poissons Ratio (x) = 0.84777 0.33001
# Poissons Ratio (y) = -4.33653 0.64469
# Poissons Ratio (z) = -1.10840 0.42331
#
# Static dielectric constant tensor:
#      x y z
#    x 1.957850 0.057080 -0.020240 
#    y 0.057080 1.853470 -0.053070 
#    z -0.020240 -0.053070 1.808400 
# 
# From -- ./inp_files/39180.got.cif
#   From: 2010.05.17/outbox.ucp.g08.bks.cvg/sg2_20_cif.got.tgz:39180.got - 2010.06.11 11:32:03.
