data_PCOD9074085
_publ_section_title
;
Structure prediction by ZEFSAII (Michael W. Deem and Ramdas Pophale) SiO2 
 PCOD9074085
Probable space group: P -1
;
_chemical_formula_sum "Si O2"
_cell_formula_units_Z 16
_cell_length_a 9.000000
_cell_length_b 9.000000
_cell_length_c 12.000000
_cell_angle_alpha 100.000000
_cell_angle_beta 80.000000
_cell_angle_gamma 130.000000
_cell_volume 730.800219
_symmetry_space_group_name_H-M "P -1"
_symmetry_group_IT_number 2
_symmetry_cell_setting 'triclinic'
loop_
_space_group_symop_operation_xyz
x,y,z
-x,-y,-z
loop_
_atom_site_type_symbol
_atom_site_label
_atom_site_fract_x
_atom_site_fract_y
_atom_site_fract_z
Si Si1 0.017362 0.737580 0.521040
Si Si2 0.946940 0.920031 0.727854
Si Si3 0.475373 0.237996 0.329643
Si Si4 0.344725 0.698142 0.446535
Si Si5 0.140643 0.338080 0.714733
Si Si6 0.874408 0.309707 0.917902
Si Si7 0.494302 0.899315 0.213482
Si Si8 0.900818 0.081434 0.078764
O O1 0.208810 0.755603 0.504436
O O2 0.048582 0.904150 0.609263
O O3 0.823207 0.535358 0.569608
O O4 0.956376 0.734408 0.403209
O O5 0.734205 0.841742 0.702279
O O6 0.953654 0.809939 0.818096
O O7 0.087265 0.151583 0.762091
O O8 0.509603 0.247149 0.461721
O O9 0.640867 0.462061 0.298187
O O10 0.513233 0.092574 0.258954
O O11 0.435940 0.789736 0.326206
O O12 0.010965 0.375392 0.801579
O O13 0.668508 0.221619 0.878079
O O14 0.861858 0.163819 0.987664
O O15 0.000000 0.500000 0.000000
O O16 0.692386 0.952942 0.149733
O O17 0.000000 0.000000 0.000000
#
# Coordination Sequence:
#
# PCOD9074085 Si02
#       8
#     2   2   2   2   2   2   2   2
#     4  10  22  41  73 106 155 182 239 307 370 437
#     4  12  25  45  71 106 156 195 239 305 373 430
#     4  11  24  44  74 109 153 189 242 297 371 456
#     4  10  22  41  72 113 143 192 243 293 370 459
#     4  11  23  45  70 106 145 191 244 301 366 438
#     4  12  26  48  76 104 142 197 252 306 365 434
#     4  12  24  46  76 103 143 196 249 303 373 433
#     4  12  27  48  70 102 146 193 253 308 358 431
#
# _framework density 21.893808
#
# number of rings (size 3 to 8) (size 9 to 14) (size 15 to 20)
#    0.000    0.750    3.750    2.625    1.750    6.000 
#    0.000    1.250    0.000    0.000    0.000    0.000 
#    0.000    0.000    0.000    0.000    0.000    0.000 
#
# Total GULP energy -89308.359589 kJ/mol
# GULP energy per Si atom -5581.772474 kJ/mol
# Density = 2.184398 g / cm^3
# Si number density = 21.893808 Si / 1000 Ang^3
#
#
#
# Elastic Constant Matrix: (Units=GPa)
#
#
# Indices 1 2 3 4 5 6 
#
# 1 141.0705 39.4244 58.6199 -7.9441 22.0337 25.7986
# 2 39.4244 49.5201 28.9093 -16.2207 -1.7942 23.7199
# 3 58.6199 28.9093 134.7637 -7.3413 8.8132 18.6808
# 4 -7.9441 -16.2207 -7.3413 37.7189 -3.5678 2.0544
# 5 22.0337 -1.7942 8.8132 -3.5678 45.3603 5.9900
# 6 25.7986 23.7199 18.6808 2.0544 5.9900 20.0723
#
#
#
# Elastic Compliance Matrix: (Units=1/GPa)
#
#
# Indices 1 2 3 4 5 6 
#
# 1 0.011338 -0.007572 -0.002905 -0.001865 -0.005235 -0.001168
# 2 -0.007572 0.111803 -0.000654 0.056715 0.030748 -0.136761
# 3 -0.002905 -0.000654 0.009504 0.001226 0.000234 -0.004534
# 4 -0.001865 0.056715 0.001226 0.056585 0.017501 -0.076780
# 5 -0.005235 0.030748 0.000234 0.017501 0.032596 -0.041343
# 6 -0.001168 -0.136761 -0.004534 -0.076780 -0.041343 0.237351
#
#
# Mechanical properties :
#
#
# Convention : Reuss Voigt Hill
#
# Bulk Modulus (GPa) = 9.05926 64.36239 36.71083
# Shear Modulus (GPa) = 9.64818 33.85702 21.75260
#
# Velocity S-wave (km/s) = 2.10152 3.93672 3.15548
# Velocity P-wave (km/s) = 3.16785 7.07990 5.48454
#
# Compressibility (1/GPa) = 0.11038427
#
# Stress axis : x y z
#
# Youngs Moduli (GPa) = 88.19864 8.94429 105.21575
#
# Poissons Ratio (x) = 0.06772 0.30564
# Poissons Ratio (y) = 0.66782 0.06880
# Poissons Ratio (z) = 0.25621 0.00585
#
# Static dielectric constant tensor:
#      x y z
#    x 1.778620 -0.058660 -0.023800 
#    y -0.058660 1.853410 -0.011420 
#    z -0.023800 -0.011420 1.780110 
# 
# From -- ./inp_files/382603.got.cif
#   From: 2010.05.17/outbox.ucp.g08.bks.cvg/sg2_192_cif.got.tgz:382603.got - 2010.06.11 11:32:03.
