data_PCOD9074666
_publ_section_title
;
Structure prediction by ZEFSAII (Michael W. Deem and Ramdas Pophale) SiO2 
 PCOD9074666
Probable space group: P -1
;
_chemical_formula_sum "Si O2"
_cell_formula_units_Z 16
_cell_length_a 9.318505
_cell_length_b 5.758538
_cell_length_c 20.872005
_cell_angle_alpha 129.422602
_cell_angle_beta 44.839248
_cell_angle_gamma 121.738805
_cell_volume 604.134609
_symmetry_space_group_name_H-M "P -1"
_symmetry_group_IT_number 2
_symmetry_cell_setting 'triclinic'
loop_
_space_group_symop_operation_xyz
x,y,z
-x,-y,-z
loop_
_atom_site_type_symbol
_atom_site_label
_atom_site_fract_x
_atom_site_fract_y
_atom_site_fract_z
Si Si1 0.309663 0.126309 0.658274
Si Si2 0.900150 0.154724 0.970747
Si Si3 0.672383 0.284230 0.949858
Si Si4 0.421495 0.673673 0.183896
Si Si5 0.334891 0.200670 0.510223
Si Si6 0.984281 0.541664 0.660709
Si Si7 0.885960 0.311087 0.140970
Si Si8 0.392205 0.246790 0.228481
O O1 0.300247 0.150259 0.588202
O O2 0.255537 0.440737 0.756023
O O3 0.536458 0.066432 0.597476
O O4 0.139890 0.843607 0.680799
O O5 0.822134 0.128405 0.063659
O O6 0.727376 0.100749 0.963633
O O7 0.000000 0.500000 0.000000
O O8 0.077598 0.949726 0.867138
O O9 0.884602 0.502562 0.905177
O O10 0.642641 0.031193 0.860594
O O11 0.516071 0.504662 0.064843
O O12 0.503602 0.523129 0.196353
O O13 0.176302 0.569478 0.251226
O O14 0.452222 0.040468 0.232912
O O15 0.500000 0.500000 0.500000
O O16 0.127324 0.280779 0.557754
O O17 0.830581 0.637204 0.671385
#
# Coordination Sequence:
#
# PCOD9074666 Si02
#       8
#     2   2   2   2   2   2   2   2
#     4  10  18  32  52  76 106 143 177 218 271 316
#     4   9  22  36  47  75  99 139 190 227 267 309
#     4  11  21  32  52  72 108 146 181 221 255 315
#     4  10  22  33  48  79 110 149 181 214 257 322
#     4   9  19  31  47  78 105 139 177 216 267 330
#     4   9  19  30  50  75 112 141 171 215 252 327
#     4  10  20  34  55  72 105 142 184 228 263 314
#     4  10  21  31  48  76 109 145 182 209 255 316
#
# _framework density 26.484165999999998
#
# number of rings (size 3 to 8) (size 9 to 14) (size 15 to 20)
#    0.750    1.500    1.250    1.500    5.250    1.000 
#    0.000    0.000    0.000    0.000    0.000    0.875 
#    0.000   19.000    0.000    0.500    0.000    0.000 
#
# Total GULP energy -89390.857537 kJ/mol
# GULP energy per Si atom -5586.928596 kJ/mol
# Density = 2.642389 g / cm^3
# Si number density = 26.484166 Si / 1000 Ang^3
#
#
#
# Elastic Constant Matrix: (Units=GPa)
#
#
# Indices 1 2 3 4 5 6 
#
# 1 68.7309 35.8535 33.4876 16.3412 -28.1308 -12.1029
# 2 35.8535 152.3423 52.0167 10.6979 -27.7928 -5.6284
# 3 33.4876 52.0167 133.8779 22.4110 -52.3903 -8.5843
# 4 16.3412 10.6979 22.4110 47.4625 -17.6659 -17.5130
# 5 -28.1308 -27.7928 -52.3903 -17.6659 54.9750 18.0245
# 6 -12.1029 -5.6284 -8.5843 -17.5130 18.0245 45.2868
#
#
#
# Elastic Compliance Matrix: (Units=1/GPa)
#
#
# Indices 1 2 3 4 5 6 
#
# 1 0.020141 -0.003029 -0.000577 -0.003045 0.006931 0.000961
# 2 -0.003029 0.008118 -0.002219 0.000387 0.000676 -0.000341
# 3 -0.000577 -0.002219 0.013156 -0.002534 0.011444 -0.003471
# 4 -0.003045 0.000387 -0.002534 0.027134 0.002196 0.008373
# 5 0.006931 0.000676 0.011444 0.002196 0.036878 -0.009723
# 6 0.000961 -0.000341 -0.003471 0.008373 -0.009723 0.028746
#
#
# Mechanical properties :
#
#
# Convention : Reuss Voigt Hill
#
# Bulk Modulus (GPa) = 33.59687 66.40740 50.00214
# Shear Modulus (GPa) = 32.10383 45.11774 38.61078
#
# Velocity S-wave (km/s) = 3.48543 4.13192 3.82236
# Velocity P-wave (km/s) = 5.37688 6.92044 6.19690
#
# Compressibility (1/GPa) = 0.02976468
#
# Stress axis : x y z
#
# Youngs Moduli (GPa) = 49.65027 123.18049 76.01080
#
# Poissons Ratio (x) = 0.37314 0.04389
# Poissons Ratio (y) = 0.15040 0.16864
# Poissons Ratio (z) = 0.02867 0.27329
#
# Static dielectric constant tensor:
#      x y z
#    x 2.230680 -0.086050 -0.074820 
#    y -0.086050 2.223610 -0.054550 
#    z -0.074820 -0.054550 2.083890 
# 
# From -- ./inp_files/609112.got.cif
#   From: 2010.05.17/outbox.cif.g08.bks.cpg/sg2_305_cif.got.tgz:609112.got - 2010.06.03 11:33:40.
