data_PCOD9074854
_publ_section_title
;
Structure prediction by ZEFSAII (Michael W. Deem and Ramdas Pophale) SiO2 
 PCOD9074854
Probable space group: P -1
;
_chemical_formula_sum "Si O2"
_cell_formula_units_Z 16
_cell_length_a 15.000000
_cell_length_b 21.000000
_cell_length_c 9.000000
_cell_angle_alpha 130.000000
_cell_angle_beta 130.000000
_cell_angle_gamma 20.000000
_cell_volume 734.602417
_symmetry_space_group_name_H-M "P -1"
_symmetry_group_IT_number 2
_symmetry_cell_setting 'triclinic'
loop_
_space_group_symop_operation_xyz
x,y,z
-x,-y,-z
loop_
_atom_site_type_symbol
_atom_site_label
_atom_site_fract_x
_atom_site_fract_y
_atom_site_fract_z
Si Si1 0.940453 0.894841 0.242250
Si Si2 0.409825 0.219312 0.318668
Si Si3 0.732167 0.285082 0.393216
Si Si4 0.905311 0.406416 0.437015
Si Si5 0.622407 0.331052 0.841740
Si Si6 0.210541 0.058849 0.399018
Si Si7 0.978826 0.673319 0.905405
Si Si8 0.434784 0.750868 0.053921
O O1 0.102088 0.832747 0.456562
O O2 0.092414 0.834126 0.171626
O O3 0.631443 0.102473 0.259396
O O4 0.984808 0.765863 0.099730
O O5 0.186390 0.436607 0.408788
O O6 0.258842 0.229747 0.141723
O O7 0.579892 0.088714 0.458319
O O8 0.500000 0.500000 0.500000
O O9 0.645165 0.254912 0.179733
O O10 0.934567 0.198670 0.368039
O O11 0.610317 0.555309 0.343424
O O12 0.114438 0.213575 0.468465
O O13 0.020956 0.326482 0.273892
O O14 0.500000 0.500000 0.000000
O O15 0.643133 0.253463 0.886599
O O16 0.323310 0.916435 0.191166
O O17 0.249047 0.454575 0.911438
#
# Coordination Sequence:
#
# PCOD9074854 Si02
#       8
#     2   2   2   2   2   2   2   2
#     4  11  23  41  72 100 138 187 219 287 356 406
#     4  11  25  45  67 102 137 184 235 280 341 407
#     4  11  21  39  64 103 140 175 219 286 349 403
#     4  11  23  42  71 100 136 181 230 288 336 407
#     4  11  19  40  69 100 135 177 226 275 348 414
#     4  11  24  42  66 102 137 180 232 279 342 409
#     4  11  22  44  71  95 139 186 229 279 340 414
#     4  11  22  41  69 101 142 181 224 285 345 408
#
# _framework density 21.780488999999999
#
# number of rings (size 3 to 8) (size 9 to 14) (size 15 to 20)
#    0.000    1.000    6.250    2.625    0.000    1.000 
#    2.250    0.000    0.000    3.750    0.000    0.000 
#    0.000    0.000    0.000    0.000    0.000    0.000 
#
# Total GULP energy -89326.183826 kJ/mol
# GULP energy per Si atom -5582.886489 kJ/mol
# Density = 2.173092 g / cm^3
# Si number density = 21.780489 Si / 1000 Ang^3
#
#
#
# Elastic Constant Matrix: (Units=GPa)
#
#
# Indices 1 2 3 4 5 6 
#
# 1 68.6348 31.8829 21.3101 -8.5013 12.8506 -4.9883
# 2 31.8829 116.5207 35.4063 17.4521 3.8488 11.9666
# 3 21.3101 35.4063 70.4823 9.3846 12.1404 -5.7892
# 4 -8.5013 17.4521 9.3846 35.8131 -3.0884 10.8413
# 5 12.8506 3.8488 12.1404 -3.0884 28.0884 6.0611
# 6 -4.9883 11.9666 -5.7892 10.8413 6.0611 49.0964
#
#
#
# Elastic Compliance Matrix: (Units=1/GPa)
#
#
# Indices 1 2 3 4 5 6 
#
# 1 0.020557 -0.005865 -0.002772 0.007086 -0.007166 0.002511
# 2 -0.005865 0.012632 -0.004761 -0.004950 0.003230 -0.003542
# 3 -0.002772 -0.004761 0.020196 -0.006101 -0.008706 0.005682
# 4 0.007086 -0.004950 -0.006101 0.036387 0.005700 -0.007531
# 5 -0.007166 0.003230 -0.008706 0.005700 0.044842 -0.009336
# 6 0.002511 -0.003542 0.005682 -0.007531 -0.009336 0.024972
#
#
# Mechanical properties :
#
#
# Convention : Reuss Voigt Hill
#
# Bulk Modulus (GPa) = 37.60847 48.09293 42.85070
# Shear Modulus (GPa) = 25.60890 33.73548 29.67219
#
# Velocity S-wave (km/s) = 3.43267 3.93986 3.69498
# Velocity P-wave (km/s) = 5.74591 6.54410 6.15796
#
# Compressibility (1/GPa) = 0.02658976
#
# Stress axis : x y z
#
# Youngs Moduli (GPa) = 48.64533 79.16431 49.51453
#
# Poissons Ratio (x) = 0.46431 0.13725
# Poissons Ratio (y) = 0.28531 0.23571
# Poissons Ratio (z) = 0.13484 0.37686
#
# Static dielectric constant tensor:
#      x y z
#    x 1.809570 0.008890 -0.027250 
#    y 0.008890 1.805080 -0.005900 
#    z -0.027250 -0.005900 1.864530 
# 
# From -- ./inp_files/319497.got.cif
#   From: 2010.05.17/outbox.ucp.g08.bks.cvg/sg2_160_cif.got.tgz:319497.got - 2010.06.11 11:32:03.
