data_PCOD9074600
_publ_section_title
;
Structure prediction by ZEFSAII (Michael W. Deem and Ramdas Pophale) SiO2 
 PCOD9074600
Probable space group: P -1
;
_chemical_formula_sum "Si O2"
_cell_formula_units_Z 14
_cell_length_a 15.000000
_cell_length_b 27.000000
_cell_length_c 15.000000
_cell_angle_alpha 20.000000
_cell_angle_beta 160.000000
_cell_angle_gamma 160.000000
_cell_volume 621.679612
_symmetry_space_group_name_H-M "P -1"
_symmetry_group_IT_number 2
_symmetry_cell_setting 'triclinic'
loop_
_space_group_symop_operation_xyz
x,y,z
-x,-y,-z
loop_
_atom_site_type_symbol
_atom_site_label
_atom_site_fract_x
_atom_site_fract_y
_atom_site_fract_z
Si Si1 0.851621 0.616831 0.640767
Si Si2 0.545283 0.229153 0.574477
Si Si3 0.292262 0.855317 0.960352
Si Si4 0.824143 0.105141 0.670163
Si Si5 0.743205 0.743933 0.502372
Si Si6 0.819586 0.282454 0.545557
Si Si7 0.492143 0.505692 0.153904
O O1 0.500000 0.500000 0.500000
O O2 0.858360 0.736747 0.524733
O O3 0.000292 0.726414 0.507659
O O4 0.000000 0.500000 0.000000
O O5 0.648253 0.235413 0.559432
O O6 0.431538 0.357723 0.276826
O O7 0.333916 0.034593 0.721806
O O8 0.775240 0.255987 0.825893
O O9 0.025581 0.791086 0.750044
O O10 0.574315 0.850235 0.185368
O O11 0.779757 0.150404 0.653896
O O12 0.500000 0.000000 0.500000
O O13 0.000000 0.000000 0.000000
O O14 0.521748 0.564154 0.640706
O O15 0.164342 0.362836 0.760377
O O16 0.713347 0.408445 0.192319
#
# Coordination Sequence:
#
# PCOD9074600 Si02
#       7
#     2   2   2   2   2   2   2
#     4  12  25  45  75 104 137 186 243 293 349 419
#     4  10  24  41  67  95 138 173 225 266 341 403
#     4  10  24  41  62  99 130 174 219 277 321 415
#     4  12  28  48  71 106 144 183 239 298 354 419
#     4  11  23  41  69  91 138 169 227 270 345 387
#     4  12  25  42  69  92 139 173 224 269 351 393
#     4  11  23  42  63 102 128 178 215 280 324 419
#
# _framework density 22.519638
#
# number of rings (size 3 to 8) (size 9 to 14) (size 15 to 20)
#    0.000    0.857    0.000    6.857    4.000    9.714 
#    0.000    0.000    0.000    0.000    0.000    0.000 
#    0.000    0.000    0.000    0.000    0.000    0.000 
#
# Total GULP energy -78194.158677 kJ/mol
# GULP energy per Si atom -5585.297048 kJ/mol
# Density = 2.246838 g / cm^3
# Si number density = 22.519638 Si / 1000 Ang^3
#
#
#
# Elastic Constant Matrix: (Units=GPa)
#
#
# Indices 1 2 3 4 5 6 
#
# 1 147.1294 19.0407 25.4696 5.4508 25.7212 -29.4833
# 2 19.0407 49.8752 51.7144 12.1199 7.3514 -13.6774
# 3 25.4696 51.7144 147.4066 11.6712 39.1865 -14.8392
# 4 5.4508 12.1199 11.6712 36.3076 -1.2869 5.2897
# 5 25.7212 7.3514 39.1865 -1.2869 42.0273 -7.6024
# 6 -29.4833 -13.6774 -14.8392 5.2897 -7.6024 38.4326
#
#
#
# Elastic Compliance Matrix: (Units=1/GPa)
#
#
# Indices 1 2 3 4 5 6 
#
# 1 0.009042 -0.001787 0.001285 -0.002245 -0.005395 0.006038
# 2 -0.001787 0.038954 -0.013934 -0.009423 0.008820 0.010154
# 3 0.001285 -0.013934 0.014665 -0.000594 -0.012156 -0.000634
# 4 -0.002245 -0.009423 -0.000594 0.032663 0.002907 -0.009225
# 5 -0.005395 0.008820 -0.012156 0.002907 0.037205 0.001266
# 6 0.006038 0.010154 -0.000634 -0.009225 0.001266 0.035541
#
#
# Mechanical properties :
#
#
# Convention : Reuss Voigt Hill
#
# Bulk Modulus (GPa) = 29.59635 59.65116 44.62376
# Shear Modulus (GPa) = 24.01462 39.89928 31.95695
#
# Velocity S-wave (km/s) = 3.26910 4.21379 3.77114
# Velocity P-wave (km/s) = 5.23644 7.08666 6.23061
#
# Compressibility (1/GPa) = 0.03378795
#
# Stress axis : x y z
#
# Youngs Moduli (GPa) = 110.59442 25.67106 68.18901
#
# Poissons Ratio (x) = 0.04588 -0.08760
# Poissons Ratio (y) = 0.19767 0.95015
# Poissons Ratio (z) = -0.14207 0.35770
#
# Static dielectric constant tensor:
#      x y z
#    x 1.732560 0.149490 -0.074210 
#    y 0.149490 1.764050 0.049850 
#    z -0.074210 0.049850 1.807380 
# 
# From -- ./inp_files/535715.got.cif
#   From: 2010.05.17/outbox.ucp.g08.bks.cvg/sg2_268_cif.got.tgz:535715.got - 2010.06.11 11:32:03.
