data_PCOD9074985
_publ_section_title
;
Structure prediction by ZEFSAII (Michael W. Deem and Ramdas Pophale) SiO2 
 PCOD9074985
Probable space group: P -1
;
_chemical_formula_sum "Si O2"
_cell_formula_units_Z 16
_cell_length_a 12.000000
_cell_length_b 15.000000
_cell_length_c 15.000000
_cell_angle_alpha 140.000000
_cell_angle_beta 60.000000
_cell_angle_gamma 150.000000
_cell_volume 747.221570
_symmetry_space_group_name_H-M "P -1"
_symmetry_group_IT_number 2
_symmetry_cell_setting 'triclinic'
loop_
_space_group_symop_operation_xyz
x,y,z
-x,-y,-z
loop_
_atom_site_type_symbol
_atom_site_label
_atom_site_fract_x
_atom_site_fract_y
_atom_site_fract_z
Si Si1 0.987658 0.881361 0.830434
Si Si2 0.433532 0.251529 0.528509
Si Si3 0.531866 0.167437 0.246814
Si Si4 0.235960 0.288013 0.891043
Si Si5 0.986508 0.320674 0.686173
Si Si6 0.723373 0.612470 0.252260
Si Si7 0.974459 0.325227 0.053234
Si Si8 0.304638 0.989907 0.898741
O O1 0.709964 0.551610 0.686956
O O2 0.188273 0.943842 0.819141
O O3 0.036429 0.009976 0.816969
O O4 0.000000 0.000000 0.000000
O O5 0.476788 0.213415 0.388345
O O6 0.304933 0.283409 0.590754
O O7 0.280972 0.010740 0.475470
O O8 0.559450 0.034267 0.170670
O O9 0.787679 0.456776 0.309568
O O10 0.292794 0.945086 0.102432
O O11 0.234326 0.272848 0.772718
O O12 0.500000 0.500000 0.000000
O O13 0.174295 0.393662 0.001354
O O14 0.079052 0.313972 0.728533
O O15 0.939028 0.436959 0.817097
O O16 0.478054 0.280664 0.086461
O O17 0.915192 0.242681 0.117497
#
# Coordination Sequence:
#
# PCOD9074985 Si02
#       8
#     2   2   2   2   2   2   2   2
#     4  12  24  48  71  95 143 190 239 287 349 421
#     4  12  28  43  69 108 146 188 233 298 354 411
#     4  11  25  46  75 108 143 186 236 290 363 416
#     4  12  25  39  73 108 130 189 248 285 342 428
#     4  11  25  46  71 110 148 180 235 296 357 423
#     4  12  23  44  68 104 142 180 238 288 350 421
#     4  11  22  44  76 104 140 190 234 289 356 426
#     4  11  21  46  77  99 136 192 239 286 346 430
#
# _framework density 21.412658
#
# number of rings (size 3 to 8) (size 9 to 14) (size 15 to 20)
#    0.000    0.500    6.250    1.875    3.500    2.000 
#    0.000    2.500    0.000    0.000    0.000    0.000 
#    0.000    0.000    0.000    0.000    0.000    0.000 
#
# Total GULP energy -89323.473363 kJ/mol
# GULP energy per Si atom -5582.717085 kJ/mol
# Density = 2.136392 g / cm^3
# Si number density = 21.412658 Si / 1000 Ang^3
#
#
#
# Elastic Constant Matrix: (Units=GPa)
#
#
# Indices 1 2 3 4 5 6 
#
# 1 161.5551 46.5571 45.1469 -1.1506 -23.5984 -6.7155
# 2 46.5571 92.1903 49.7261 14.5896 -18.9116 -11.8436
# 3 45.1469 49.7261 103.8742 21.8559 -35.3097 -3.9003
# 4 -1.1506 14.5896 21.8559 46.5505 -4.4319 -4.0048
# 5 -23.5984 -18.9116 -35.3097 -4.4319 30.4216 0.5637
# 6 -6.7155 -11.8436 -3.9003 -4.0048 0.5637 45.0492
#
#
#
# Elastic Compliance Matrix: (Units=1/GPa)
#
#
# Indices 1 2 3 4 5 6 
#
# 1 0.007890 -0.002855 -0.001505 0.002111 0.002898 0.000447
# 2 -0.002855 0.016285 -0.005650 -0.002157 0.000978 0.003163
# 3 -0.001505 -0.005650 0.020429 -0.006193 0.018143 -0.000718
# 4 0.002111 -0.002157 -0.006193 0.024931 -0.003286 0.001469
# 5 0.002898 0.000978 0.018143 -0.003286 0.056285 0.001264
# 6 0.000447 0.003163 -0.000718 0.001469 0.001264 0.023149
#
#
# Mechanical properties :
#
#
# Convention : Reuss Voigt Hill
#
# Bulk Modulus (GPa) = 40.67517 71.16442 55.91979
# Shear Modulus (GPa) = 28.21966 38.81690 33.51828
#
# Velocity S-wave (km/s) = 3.63422 4.26232 3.96074
# Velocity P-wave (km/s) = 6.05369 7.58486 6.86211
#
# Compressibility (1/GPa) = 0.02458502
#
# Stress axis : x y z
#
# Youngs Moduli (GPa) = 126.74208 61.40769 48.95008
#
# Poissons Ratio (x) = 0.17532 0.07365
# Poissons Ratio (y) = 0.36186 0.27655
# Poissons Ratio (z) = 0.19069 0.34693
#
# Static dielectric constant tensor:
#      x y z
#    x 1.802410 0.093450 0.035450 
#    y 0.093450 1.900120 0.019140 
#    z 0.035450 0.019140 1.811680 
# 
# From -- ./inp_files/398819.got.cif
#   From: 2010.05.17/outbox.ucp.g08.bks.cvg/sg2_200_cif.got.tgz:398819.got - 2010.06.11 11:32:03.
