data_PCOD9074362
_publ_section_title
;
Structure prediction by ZEFSAII (Michael W. Deem and Ramdas Pophale) SiO2 
 PCOD9074362
Probable space group: P -1
;
_chemical_formula_sum "Si O2"
_cell_formula_units_Z 16
_cell_length_a 24.000000
_cell_length_b 6.000000
_cell_length_c 12.000000
_cell_angle_alpha 120.000000
_cell_angle_beta 30.000000
_cell_angle_gamma 110.000000
_cell_volume 731.538865
_symmetry_space_group_name_H-M "P -1"
_symmetry_group_IT_number 2
_symmetry_cell_setting 'triclinic'
loop_
_space_group_symop_operation_xyz
x,y,z
-x,-y,-z
loop_
_atom_site_type_symbol
_atom_site_label
_atom_site_fract_x
_atom_site_fract_y
_atom_site_fract_z
Si Si1 0.190038 0.731976 0.840913
Si Si2 0.302021 0.188668 0.398899
Si Si3 0.507895 0.194964 0.882825
Si Si4 0.164366 0.300430 0.091179
Si Si5 0.321978 0.582307 0.802640
Si Si6 0.915069 0.931203 0.376599
Si Si7 0.515015 0.073131 0.363657
Si Si8 0.926785 0.560558 0.484101
O O1 0.259495 0.499844 0.583630
O O2 0.240887 0.630522 0.848134
O O3 0.050707 0.800040 0.084168
O O4 0.213663 0.028762 0.873528
O O5 0.182781 0.113917 0.551160
O O6 0.377753 0.001368 0.315416
O O7 0.393852 0.140560 0.127002
O O8 0.497977 0.148879 0.756752
O O9 0.500000 0.500000 0.000000
O O10 0.116651 0.266114 0.287739
O O11 0.062605 0.473994 0.239927
O O12 0.258066 0.472954 0.985683
O O13 0.428309 0.338544 0.538213
O O14 0.363765 0.843351 0.827249
O O15 0.896542 0.755515 0.477038
O O16 0.901814 0.257391 0.472041
O O17 0.500000 0.000000 0.500000
#
# Coordination Sequence:
#
# PCOD9074362 Si02
#       8
#     2   2   2   2   2   2   2   2
#     4  11  23  45  72 107 147 193 246 312 385 456
#     4  11  27  48  74 102 145 201 260 313 379 461
#     4  11  28  50  75 103 149 201 255 322 387 450
#     4  10  23  40  70 103 149 199 234 311 380 460
#     4  11  23  42  71 103 146 183 247 309 380 454
#     4  11  25  47  75 113 152 201 253 314 382 467
#     4  11  26  45  73 109 142 191 256 317 379 456
#     4  10  24  43  70 110 156 194 252 302 386 459
#
# _framework density 21.871701999999999
#
# number of rings (size 3 to 8) (size 9 to 14) (size 15 to 20)
#    0.000    1.250    2.500    1.125    8.750    3.500 
#    0.000    1.875    0.000    0.000    0.000    0.000 
#    0.000    0.000    0.000    0.000    0.000    0.000 
#
# Total GULP energy -89170.877958 kJ/mol
# GULP energy per Si atom -5573.179872 kJ/mol
# Density = 2.182192 g / cm^3
# Si number density = 21.871702 Si / 1000 Ang^3
#
#
#
# Elastic Constant Matrix: (Units=GPa)
#
#
# Indices 1 2 3 4 5 6 
#
# 1 119.8678 37.8545 52.6287 -0.7297 -0.2841 6.6426
# 2 37.8545 117.0970 34.8404 5.4093 5.3384 12.1833
# 3 52.6287 34.8404 86.3606 17.3229 -14.7598 12.7000
# 4 -0.7297 5.4093 17.3229 38.5414 4.0585 -1.3706
# 5 -0.2841 5.3384 -14.7598 4.0585 36.6379 4.0641
# 6 6.6426 12.1833 12.7000 -1.3706 4.0641 35.1052
#
#
#
# Elastic Compliance Matrix: (Units=1/GPa)
#
#
# Indices 1 2 3 4 5 6 
#
# 1 0.012807 -0.001679 -0.009184 0.005121 -0.004163 0.002164
# 2 -0.001679 0.010400 -0.003450 0.000289 -0.002760 -0.001713
# 3 -0.009184 -0.003450 0.024276 -0.012185 0.012422 -0.007761
# 4 0.005121 0.000289 -0.012185 0.032645 -0.009157 0.005673
# 5 -0.004163 -0.002760 0.012422 -0.009157 0.034470 -0.007096
# 6 0.002164 -0.001713 -0.007761 0.005673 -0.007096 0.032522
#
#
# Mechanical properties :
#
#
# Convention : Reuss Voigt Hill
#
# Bulk Modulus (GPa) = 53.03269 63.77472 58.40370
# Shear Modulus (GPa) = 27.46773 35.25703 31.36238
#
# Velocity S-wave (km/s) = 3.54765 4.01932 3.79083
# Velocity P-wave (km/s) = 6.40944 7.12473 6.77653
#
# Compressibility (1/GPa) = 0.01885629
#
# Stress axis : x y z
#
# Youngs Moduli (GPa) = 78.08534 96.15339 41.19213
#
# Poissons Ratio (x) = 0.16148 0.37830
# Poissons Ratio (y) = 0.13114 0.14212
# Poissons Ratio (z) = 0.71712 0.33174
#
# Static dielectric constant tensor:
#      x y z
#    x 1.796490 0.025200 -0.004470 
#    y 0.025200 1.850170 -0.045750 
#    z -0.004470 -0.045750 1.846920 
# 
# From -- ./inp_files/473467.got.cif
#   From: 2010.05.17/outbox.ucp.g08.bks.cvg/sg2_237_cif.got.tgz:473467.got - 2010.06.11 11:32:03.
