data_PCOD9074713
_publ_section_title
;
Structure prediction by ZEFSAII (Michael W. Deem and Ramdas Pophale) SiO2 
 PCOD9074713
Probable space group: P -1
;
_chemical_formula_sum "Si O2"
_cell_formula_units_Z 16
_cell_length_a 21.000000
_cell_length_b 12.000000
_cell_length_c 9.000000
_cell_angle_alpha 110.000000
_cell_angle_beta 40.000000
_cell_angle_gamma 140.000000
_cell_volume 754.890988
_symmetry_space_group_name_H-M "P -1"
_symmetry_group_IT_number 2
_symmetry_cell_setting 'triclinic'
loop_
_space_group_symop_operation_xyz
x,y,z
-x,-y,-z
loop_
_atom_site_type_symbol
_atom_site_label
_atom_site_fract_x
_atom_site_fract_y
_atom_site_fract_z
Si Si1 0.413788 0.038275 0.711318
Si Si2 0.477758 0.312661 0.503283
Si Si3 0.394196 0.055516 0.282488
Si Si4 0.921213 0.000331 0.914777
Si Si5 0.644297 0.232584 0.664016
Si Si6 0.011661 0.718255 0.284695
Si Si7 0.030669 0.670114 0.561968
Si Si8 0.882875 0.731076 0.007047
O O1 0.481269 0.206940 0.560985
O O2 0.498948 0.141622 0.769427
O O3 0.500000 0.000000 0.500000
O O4 0.199213 0.833895 0.983619
O O5 0.673689 0.561030 0.301538
O O6 0.441531 0.221683 0.362734
O O7 0.294772 0.201188 0.809325
O O8 0.355353 0.909797 0.400838
O O9 0.222621 0.882427 0.398623
O O10 0.571166 0.195768 0.939777
O O11 0.988760 0.151938 0.729640
O O12 0.007065 0.141498 0.978120
O O13 0.966506 0.906790 0.816194
O O14 0.844191 0.481431 0.404955
O O15 0.002615 0.709033 0.474360
O O16 0.000000 0.500000 0.500000
O O17 0.894573 0.604644 0.883123
#
# Coordination Sequence:
#
# PCOD9074713 Si02
#       8
#     2   2   2   2   2   2   2   2
#     4  11  23  35  56  89 129 162 199 254 314 377
#     4  11  22  40  64  94 124 164 210 260 315 370
#     4  11  22  38  60  91 130 163 210 254 309 380
#     4  10  24  46  64  96 123 166 220 261 307 372
#     4  11  22  38  58  87 129 170 202 252 312 379
#     4  11  24  41  62  89 130 164 211 262 310 371
#     4  12  24  41  65  97 128 168 210 257 320 380
#     4  11  24  43  72  89 125 170 213 262 314 374
#
# _framework density 21.195112999999999
#
# number of rings (size 3 to 8) (size 9 to 14) (size 15 to 20)
#    0.000    1.000    5.000    1.875    3.500    1.000 
#    0.000    0.000    0.000    1.500    0.000    0.000 
#    0.000    0.000    0.000    0.000    0.000    0.000 
#
# Total GULP energy -89174.143071 kJ/mol
# GULP energy per Si atom -5573.383942 kJ/mol
# Density = 2.114687 g / cm^3
# Si number density = 21.195113 Si / 1000 Ang^3
#
#
#
# Elastic Constant Matrix: (Units=GPa)
#
#
# Indices 1 2 3 4 5 6 
#
# 1 146.9481 35.8677 6.9074 -16.8073 4.2895 3.8891
# 2 35.8677 -10.4468 29.2816 2.9764 -18.1974 -19.4765
# 3 6.9074 29.2816 40.8762 -27.0972 1.9913 7.5494
# 4 -16.8073 2.9764 -27.0972 31.7521 14.0501 -3.2947
# 5 4.2895 -18.1974 1.9913 14.0501 12.7703 -10.3668
# 6 3.8891 -19.4765 7.5494 -3.2947 -10.3668 26.2259
#
#
#
# Elastic Compliance Matrix: (Units=1/GPa)
#
#
# Indices 1 2 3 4 5 6 
#
# 1 0.006329 0.001471 -0.003373 -0.000965 0.003493 0.002384
# 2 0.001471 0.004956 0.012467 0.020831 -0.023961 -0.006980
# 3 -0.003373 0.012467 0.020985 0.010884 0.011454 0.009613
# 4 -0.000965 0.020831 0.010884 0.042557 -0.005949 0.015475
# 5 0.003493 -0.023961 0.011454 -0.005949 0.043586 -0.005128
# 6 0.002384 -0.006980 0.009613 0.015475 -0.005128 0.029743
#
#
# Mechanical properties :
#
#
# Convention : Reuss Voigt Hill
#
# Bulk Modulus (GPa) = 18.72676 35.72121 27.22398
# Shear Modulus (GPa) = 34.52369 21.17106 27.84738
#
# Velocity S-wave (km/s) = 4.04028 3.16391 3.62865
# Velocity P-wave (km/s) = 5.53351 5.49884 5.51620
#
# Compressibility (1/GPa) = 0.05339953
#
# Stress axis : x y z
#
# Youngs Moduli (GPa) = 157.99660 201.76493 47.65213
#
# Poissons Ratio (x) = -0.29679 0.16074
# Poissons Ratio (y) = -0.23241 -0.59406
# Poissons Ratio (z) = 0.53296 -2.51531
#
# Static dielectric constant tensor:
#      x y z
#    x 1.727550 0.048410 0.037040 
#    y 0.048410 1.655580 0.020350 
#    z 0.037040 0.020350 1.847560 
# 
# From -- ./inp_files/346192.got.cif
#   From: 2010.05.17/outbox.ucp.g08.bks.cvg/sg2_174_cif.got.tgz:346192.got - 2010.06.11 11:32:03.
