data_PCOD9074986
_publ_section_title
;
Structure prediction by ZEFSAII (Michael W. Deem and Ramdas Pophale) SiO2 
 PCOD9074986
Probable space group: P -1
;
_chemical_formula_sum "Si O2"
_cell_formula_units_Z 15
_cell_length_a 15.000000
_cell_length_b 9.000000
_cell_length_c 12.000000
_cell_angle_alpha 60.000000
_cell_angle_beta 30.000000
_cell_angle_gamma 60.000000
_cell_volume 693.035739
_symmetry_space_group_name_H-M "P -1"
_symmetry_group_IT_number 2
_symmetry_cell_setting 'triclinic'
loop_
_space_group_symop_operation_xyz
x,y,z
-x,-y,-z
loop_
_atom_site_type_symbol
_atom_site_label
_atom_site_fract_x
_atom_site_fract_y
_atom_site_fract_z
Si Si1 0.678148 0.871565 0.655998
Si Si2 0.591631 0.807684 0.518458
Si Si3 0.156251 0.843077 0.357455
Si Si4 0.954676 0.688711 0.030870
Si Si5 0.767671 0.302754 0.084766
Si Si6 0.900125 0.593734 0.680004
Si Si7 0.926862 0.036614 0.833791
Si Si8 0.500000 0.000000 0.000000
O O1 0.616406 0.810135 0.625774
O O2 0.740853 0.735908 0.743980
O O3 0.526174 0.001975 0.834044
O O4 0.864079 0.942139 0.405833
O O5 0.782932 0.732759 0.283120
O O6 0.445944 0.686773 0.686615
O O7 0.500000 0.000000 0.500000
O O8 0.055614 0.676974 0.545019
O O9 0.172902 0.859267 0.199977
O O10 0.000000 0.000000 0.500000
O O11 0.336984 0.876875 0.207836
O O12 0.915698 0.834859 0.923166
O O13 0.000000 0.500000 0.000000
O O14 0.131484 0.712355 0.901644
O O15 0.823173 0.460971 0.893735
O O16 0.844817 0.127783 0.999776
O O17 0.000000 0.500000 0.500000
#
# Coordination Sequence:
#
# PCOD9074986 Si02
#       8
#     2   2   2   2   2   2   2   1
#     4  11  24  43  71 108 139 192 241 292 366 438
#     4  12  25  48  77 104 143 201 251 292 366 445
#     4  11  23  43  66 100 140 185 232 291 367 420
#     4  12  28  46  72 108 142 187 250 314 363 428
#     4  12  24  46  74 100 143 193 243 298 368 440
#     4  11  22  44  70 102 144 186 236 294 360 434
#     4  11  21  47  72  93 145 195 235 295 363 445
#     4  12  24  42  68 106 142 184 238 294 356 430
#
# _framework density 21.643905
#
# number of rings (size 3 to 8) (size 9 to 14) (size 15 to 20)
#    0.000    0.533    8.000    2.000    1.867    1.067 
#    4.800    0.000    0.000    0.000    0.000    0.000 
#    0.000    0.000    0.000    0.000    0.000    0.000 
#
# Total GULP energy -83539.910965 kJ/mol
# GULP energy per Si atom -5569.327398 kJ/mol
# Density = 2.159464 g / cm^3
# Si number density = 21.643905 Si / 1000 Ang^3
#
#
#
# Elastic Constant Matrix: (Units=GPa)
#
#
# Indices 1 2 3 4 5 6 
#
# 1 97.1395 11.3867 33.0390 -3.3399 -21.7459 13.5479
# 2 11.3867 76.0533 9.9391 -24.8964 -4.2019 7.6470
# 3 33.0390 9.9391 97.4688 -14.2406 -27.9679 9.3781
# 4 -3.3399 -24.8964 -14.2406 35.6045 9.1696 10.7101
# 5 -21.7459 -4.2019 -27.9679 9.1696 40.8913 -7.7773
# 6 13.5479 7.6470 9.3781 10.7101 -7.7773 35.5707
#
#
#
# Elastic Compliance Matrix: (Units=1/GPa)
#
#
# Indices 1 2 3 4 5 6 
#
# 1 0.012737 -0.001540 -0.002847 -0.001497 0.004562 -0.002321
# 2 -0.001540 0.020172 0.000978 0.018621 -0.004258 -0.010546
# 3 -0.002847 0.000978 0.014030 0.005279 0.006426 -0.003009
# 4 -0.001497 0.018621 0.005279 0.053095 -0.011620 -0.023352
# 5 0.004562 -0.004258 0.006426 -0.011620 0.035091 0.008655
# 6 -0.002321 -0.010546 -0.003009 -0.023352 0.008655 0.040981
#
#
# Mechanical properties :
#
#
# Convention : Reuss Voigt Hill
#
# Bulk Modulus (GPa) = 24.92343 42.15461 33.53902
# Shear Modulus (GPa) = 25.47179 36.83309 31.15244
#
# Velocity S-wave (km/s) = 3.43426 4.12973 3.79795
# Velocity P-wave (km/s) = 5.22166 6.50064 5.89593
#
# Compressibility (1/GPa) = 0.04012288
#
# Stress axis : x y z
#
# Youngs Moduli (GPa) = 78.51286 49.57323 71.27787
#
# Poissons Ratio (x) = 0.07632 0.20290
# Poissons Ratio (y) = 0.12087 -0.06973
# Poissons Ratio (z) = 0.22350 -0.04850
#
# Static dielectric constant tensor:
#      x y z
#    x 1.718400 0.212740 0.011380 
#    y 0.212740 1.395240 -0.003990 
#    z 0.011380 -0.003990 1.849140 
# 
# From -- ./inp_files/389837.got.cif
#   From: 2010.05.17/outbox.ucp.g08.bks.cvg/sg2_195_cif.got.tgz:389837.got - 2010.06.11 11:32:03.
