data_PCOD9074380
_publ_section_title
;
Structure prediction by ZEFSAII (Michael W. Deem and Ramdas Pophale) SiO2 
 PCOD9074380
Probable space group: P -1
;
_chemical_formula_sum "Si O2"
_cell_formula_units_Z 16
_cell_length_a 9.000000
_cell_length_b 30.000000
_cell_length_c 12.000000
_cell_angle_alpha 150.000000
_cell_angle_beta 50.000000
_cell_angle_gamma 150.000000
_cell_volume 731.734496
_symmetry_space_group_name_H-M "P -1"
_symmetry_group_IT_number 2
_symmetry_cell_setting 'triclinic'
loop_
_space_group_symop_operation_xyz
x,y,z
-x,-y,-z
loop_
_atom_site_type_symbol
_atom_site_label
_atom_site_fract_x
_atom_site_fract_y
_atom_site_fract_z
Si Si1 0.563325 0.752397 0.853998
Si Si2 0.662678 0.467724 0.892656
Si Si3 0.820858 0.697825 0.052931
Si Si4 0.799661 0.015509 0.641439
Si Si5 0.258128 0.991536 0.089647
Si Si6 0.291239 0.793962 0.225582
Si Si7 0.552281 0.244497 0.339672
Si Si8 0.266928 0.465273 0.449273
O O1 0.506689 0.765842 0.785844
O O2 0.311723 0.586906 0.665900
O O3 0.551795 0.834265 0.115735
O O4 0.901376 0.825887 0.866123
O O5 0.507560 0.389854 0.918670
O O6 0.563580 0.348201 0.605947
O O7 0.500000 0.500000 0.000000
O O8 0.043222 0.632234 0.053478
O O9 0.084296 0.774722 0.192312
O O10 0.724726 0.574535 0.763899
O O11 0.966102 0.817220 0.148678
O O12 0.486027 0.911878 0.487210
O O13 0.721259 0.975393 0.720751
O O14 0.000000 0.000000 0.500000
O O15 0.311630 0.092706 0.197429
O O16 0.500000 0.000000 0.000000
O O17 0.896302 0.322018 0.360869
O O18 0.500000 0.500000 0.500000
#
# Coordination Sequence:
#
# PCOD9074380 Si02
#       8
#     2   2   2   2   2   2   2   2
#     4  12  23  45  73 101 137 182 235 276 346 418
#     4  10  23  41  67 106 133 166 232 290 339 398
#     4  11  24  45  68 102 136 180 232 284 340 415
#     4  12  25  45  68  95 142 183 226 279 349 415
#     4  12  28  46  66 105 142 181 233 292 350 406
#     4  11  23  43  72 100 133 183 227 283 339 414
#     4  12  24  46  72 101 140 186 235 288 341 418
#     4  12  25  43  73 104 141 183 226 285 357 414
#
# _framework density 21.865853999999999
#
# number of rings (size 3 to 8) (size 9 to 14) (size 15 to 20)
#    0.000    0.500    3.750    5.625    0.000    4.000 
#    0.000    1.875    0.000    0.000    0.000    0.000 
#    0.000    0.000    0.000    0.000    0.000    0.000 
#
# Total GULP energy -89202.795444 kJ/mol
# GULP energy per Si atom -5575.174715 kJ/mol
# Density = 2.181609 g / cm^3
# Si number density = 21.865854 Si / 1000 Ang^3
#
#
#
# Elastic Constant Matrix: (Units=GPa)
#
#
# Indices 1 2 3 4 5 6 
#
# 1 92.2640 1.4188 0.0629 -9.1647 7.0600 -0.1288
# 2 1.4188 57.8690 17.1476 -9.8540 2.1547 6.9024
# 3 0.0629 17.1476 33.1842 -5.7962 1.1962 -1.6127
# 4 -9.1647 -9.8540 -5.7962 25.2887 -1.7324 -6.1762
# 5 7.0600 2.1547 1.1962 -1.7324 24.3285 1.9989
# 6 -0.1288 6.9024 -1.6127 -6.1762 1.9989 37.0146
#
#
#
# Elastic Compliance Matrix: (Units=1/GPa)
#
#
# Indices 1 2 3 4 5 6 
#
# 1 0.011521 0.000249 0.000789 0.004467 -0.003164 0.000944
# 2 0.000249 0.021721 -0.010457 0.005225 -0.000815 -0.003589
# 3 0.000789 -0.010457 0.036790 0.005684 -0.001082 0.004562
# 4 0.004467 0.005225 0.005684 0.046250 0.000682 0.006969
# 5 -0.003164 -0.000815 -0.001082 0.000682 0.042367 -0.002080
# 6 0.000944 -0.003589 0.004562 0.006969 -0.002080 0.029163
#
#
# Mechanical properties :
#
#
# Convention : Reuss Voigt Hill
#
# Bulk Modulus (GPa) = 19.53258 24.50845 22.02052
# Shear Modulus (GPa) = 22.34991 28.30555 25.32773
#
# Velocity S-wave (km/s) = 3.20056 3.60183 3.40711
# Velocity P-wave (km/s) = 4.75504 5.34139 5.05672
#
# Compressibility (1/GPa) = 0.05119651
#
# Stress axis : x y z
#
# Youngs Moduli (GPa) = 86.79612 46.03814 27.18101
#
# Poissons Ratio (x) = -0.01149 -0.02146
# Poissons Ratio (y) = -0.02165 0.28423
# Poissons Ratio (z) = -0.06852 0.48142
#
# Static dielectric constant tensor:
#      x y z
#    x 1.714510 0.018700 0.042740 
#    y 0.018700 1.871510 -0.005890 
#    z 0.042740 -0.005890 1.763280 
# 
# From -- ./inp_files/207759.got.cif
#   From: 2010.05.17/outbox.ucp.g08.bks.cvg/sg2_104_cif.got.tgz:207759.got - 2010.06.11 11:32:03.
