data_PCOD9074422
_publ_section_title
;
Structure prediction by ZEFSAII (Michael W. Deem and Ramdas Pophale) SiO2 
 PCOD9074422
Probable space group: P -1
;
_chemical_formula_sum "Si O2"
_cell_formula_units_Z 14
_cell_length_a 9.000000
_cell_length_b 18.000000
_cell_length_c 12.000000
_cell_angle_alpha 140.000000
_cell_angle_beta 40.000000
_cell_angle_gamma 110.000000
_cell_volume 647.049418
_symmetry_space_group_name_H-M "P -1"
_symmetry_group_IT_number 2
_symmetry_cell_setting 'triclinic'
loop_
_space_group_symop_operation_xyz
x,y,z
-x,-y,-z
loop_
_atom_site_type_symbol
_atom_site_label
_atom_site_fract_x
_atom_site_fract_y
_atom_site_fract_z
Si Si1 0.152728 0.101772 0.323166
Si Si2 0.569568 0.634975 0.465845
Si Si3 0.026113 0.298966 0.812731
Si Si4 0.037409 0.257492 0.181187
Si Si5 0.899353 0.652457 0.498484
Si Si6 0.851254 0.029987 0.240505
Si Si7 0.245661 0.322871 0.930891
O O1 0.046966 0.170418 0.587726
O O2 0.048683 0.245952 0.482172
O O3 0.037215 0.023182 0.231848
O O4 0.500000 0.000000 0.000000
O O5 0.729363 0.688972 0.366726
O O6 0.271231 0.696194 0.640916
O O7 0.631173 0.665849 0.596249
O O8 0.740350 0.462471 0.157246
O O9 0.095006 0.278247 0.880243
O O10 0.087290 0.299413 0.325215
O O11 0.136491 0.327765 0.121947
O O12 0.221061 0.085620 0.854572
O O13 0.146490 0.482751 0.146175
O O14 0.577780 0.194772 0.586279
O O15 0.000000 0.000000 0.000000
#
# Coordination Sequence:
#
# PCOD9074422 Si02
#       7
#     2   2   2   2   2   2   2
#     4  11  22  40  68  97 124 168 226 273 323 377
#     4   9  20  41  65  95 126 170 221 267 320 371
#     4   9  20  39  63  93 129 164 218 276 311 382
#     4  12  24  43  68  95 138 177 210 269 328 395
#     4  10  23  42  69  98 130 172 220 270 318 394
#     4  12  24  42  66  94 128 174 217 271 323 380
#     4  11  25  43  63 101 133 168 219 264 332 397
#
# _framework density 21.636678
#
# number of rings (size 3 to 8) (size 9 to 14) (size 15 to 20)
#    0.000    1.429    1.429    5.143    2.000    2.857 
#    2.571    0.714    0.000    0.000    0.000    0.000 
#    0.000    0.000    0.000    0.000    0.000    0.000 
#
# Total GULP energy -77974.531714 kJ/mol
# GULP energy per Si atom -5569.609408 kJ/mol
# Density = 2.158743 g / cm^3
# Si number density = 21.636678 Si / 1000 Ang^3
#
#
#
# Elastic Constant Matrix: (Units=GPa)
#
#
# Indices 1 2 3 4 5 6 
#
# 1 159.0869 0.7542 35.7201 4.3710 47.3569 -6.3834
# 2 0.7542 25.4444 12.4271 11.7214 -2.3083 -4.9920
# 3 35.7201 12.4271 68.5783 26.0582 19.3482 0.8118
# 4 4.3710 11.7214 26.0582 29.3623 -0.7397 13.3540
# 5 47.3569 -2.3083 19.3482 -0.7397 50.6015 7.3728
# 6 -6.3834 -4.9920 0.8118 13.3540 7.3728 36.0868
#
#
#
# Elastic Compliance Matrix: (Units=1/GPa)
#
#
# Indices 1 2 3 4 5 6 
#
# 1 0.009665 0.002352 -0.001557 -0.003631 -0.009165 0.005286
# 2 0.002352 0.059168 0.003582 -0.037992 -0.004862 0.023573
# 3 -0.001557 0.003582 0.033136 -0.038504 -0.014029 0.016589
# 4 -0.003631 -0.037992 -0.038504 0.107253 0.025222 -0.049874
# 5 -0.009165 -0.004862 -0.014029 0.025222 0.036588 -0.018787
# 6 0.005286 0.023573 0.016589 -0.049874 -0.018787 0.053828
#
#
# Mechanical properties :
#
#
# Convention : Reuss Voigt Hill
#
# Bulk Modulus (GPa) = 9.03165 38.99027 24.01096
# Shear Modulus (GPa) = 15.25357 36.82398 26.03878
#
# Velocity S-wave (km/s) = 2.65804 4.12991 3.47285
# Velocity P-wave (km/s) = 3.68829 6.38758 5.21559
#
# Compressibility (1/GPa) = 0.11072179
#
# Stress axis : x y z
#
# Youngs Moduli (GPa) = 103.47007 16.90111 30.17851
#
# Poissons Ratio (x) = -0.03976 0.04700
# Poissons Ratio (y) = -0.24339 -0.10809
# Poissons Ratio (z) = 0.16114 -0.06053
#
# Static dielectric constant tensor:
#      x y z
#    x 1.853290 -0.035990 -0.033090 
#    y -0.035990 1.831650 -0.013490 
#    z -0.033090 -0.013490 1.833720 
# 
# From -- ./inp_files/298578.got.cif
#   From: 2010.05.17/outbox.ucp.g08.bks.cvg/sg2_150_cif.got.tgz:298578.got - 2010.06.11 11:32:03.
