data_PCOD9074087
_publ_section_title
;
Structure prediction by ZEFSAII (Michael W. Deem and Ramdas Pophale) SiO2 
 PCOD9074087
Probable space group: P -1
;
_chemical_formula_sum "Si O2"
_cell_formula_units_Z 14
_cell_length_a 5.491712
_cell_length_b 6.621784
_cell_length_c 21.538682
_cell_angle_alpha 43.933467
_cell_angle_beta 70.300744
_cell_angle_gamma 77.045737
_cell_volume 511.426709
_symmetry_space_group_name_H-M "P -1"
_symmetry_group_IT_number 2
_symmetry_cell_setting 'triclinic'
loop_
_space_group_symop_operation_xyz
x,y,z
-x,-y,-z
loop_
_atom_site_type_symbol
_atom_site_label
_atom_site_fract_x
_atom_site_fract_y
_atom_site_fract_z
Si Si1 0.000000 0.500000 0.500000
Si Si2 0.966369 0.271003 0.989895
Si Si3 0.375654 0.582991 0.277917
Si Si4 0.187830 0.487620 0.658726
Si Si5 0.724117 0.986056 0.691870
Si Si6 0.162213 0.814243 0.773307
Si Si7 0.576277 0.936128 0.936206
Si Si8 0.500000 0.500000 0.500000
O O1 0.771501 0.705400 0.450484
O O2 0.769147 0.237963 0.580134
O O3 0.080542 0.547950 0.882757
O O4 0.659662 0.252139 0.031270
O O5 0.146600 0.207864 0.047235
O O6 0.000000 0.000000 0.000000
O O7 0.634533 0.445741 0.312338
O O8 0.104928 0.396232 0.342884
O O9 0.332886 0.811222 0.288375
O O10 0.399633 0.778627 0.171364
O O11 0.348001 0.573501 0.564619
O O12 0.142799 0.134083 0.736321
O O13 0.468952 0.804587 0.736569
O O14 0.954263 0.800970 0.738859
O O15 0.500000 0.000000 0.000000
#
# Coordination Sequence:
#
# PCOD9074087 Si02
#       8
#     1   2   2   2   2   2   2   1
#     4  12  16  30  48  74 114 146 168 188 252 316
#     4  10  21  37  54  70  94 133 182 233 262 298
#     4  10  18  32  48  72 104 136 174 207 260 308
#     4  10  19  30  48  77 111 141 158 208 253 319
#     4  10  19  30  48  77 111 141 158 208 253 319
#     4  10  18  32  48  72 104 136 174 207 260 308
#     4  10  21  37  54  70  94 133 182 233 262 298
#     4  12  16  30  48  74 114 146 168 188 252 316
#
# _framework density 27.374399
#
# number of rings (size 3 to 8) (size 9 to 14) (size 15 to 20)
#    0.000    1.714    5.714    1.714    0.000    0.000 
#    0.000   17.143    0.000    0.000    0.000    0.000 
#    0.000  109.714    0.000    0.000    0.000    0.000 
#
# Total GULP energy -77946.875309 kJ/mol
# GULP energy per Si atom -5567.633951 kJ/mol
# Density = 2.731209 g / cm^3
# Si number density = 27.374399 Si / 1000 Ang^3
#
#
#
# Elastic Constant Matrix: (Units=GPa)
#
#
# Indices 1 2 3 4 5 6 
#
# 1 292.3512 26.7437 46.8316 8.3625 -3.1015 20.2223
# 2 26.7437 73.2708 35.5688 5.3628 9.5586 13.2286
# 3 46.8316 35.5688 164.4653 9.8314 14.8485 9.8991
# 4 8.3625 5.3628 9.8314 29.0605 6.6598 4.9152
# 5 -3.1015 9.5586 14.8485 6.6598 39.0500 -0.2508
# 6 20.2223 13.2286 9.8991 4.9152 -0.2508 46.8762
#
#
#
# Elastic Compliance Matrix: (Units=1/GPa)
#
#
# Indices 1 2 3 4 5 6 
#
# 1 0.003740 -0.000815 -0.000866 -0.000656 0.000930 -0.001127
# 2 -0.000815 0.016383 -0.002793 -0.000554 -0.002942 -0.003640
# 3 -0.000866 -0.002793 0.007190 -0.001187 -0.001918 -0.000242
# 4 -0.000656 -0.000554 -0.001187 0.036975 -0.005792 -0.003218
# 5 0.000930 -0.002942 -0.001918 -0.005792 0.028129 0.001592
# 6 -0.001127 -0.003640 -0.000242 -0.003218 0.001592 0.023243
#
#
# Mechanical properties :
#
#
# Convention : Reuss Voigt Hill
#
# Bulk Modulus (GPa) = 54.45155 83.15285 68.80220
# Shear Modulus (GPa) = 38.24673 51.06020 44.65346
#
# Velocity S-wave (km/s) = 3.74193 4.32354 4.04321
# Velocity P-wave (km/s) = 6.21321 7.44084 6.85456
#
# Compressibility (1/GPa) = 0.01836495
#
# Stress axis : x y z
#
# Youngs Moduli (GPa) = 267.35392 61.03956 139.08852
#
# Poissons Ratio (x) = 0.04974 0.12042
# Poissons Ratio (y) = 0.21784 0.38852
# Poissons Ratio (z) = 0.23148 0.17050
#
# Static dielectric constant tensor:
#      x y z
#    x -0.266100 1.988610 -0.876920 
#    y 1.988610 0.767460 1.060700 
#    z -0.876920 1.060700 2.013090 
# 
# From -- ./inp_files/581786.got.cif
#   From: 2010.05.17/outbox.cif.g08.bks.cpg/sg2_291_cif.got.tgz:581786.got - 2010.06.03 11:33:40.
