data_PCOD9074515
_publ_section_title
;
Structure prediction by ZEFSAII (Michael W. Deem and Ramdas Pophale) SiO2 
 PCOD9074515
Probable space group: P -1
;
_chemical_formula_sum "Si O2"
_cell_formula_units_Z 14
_cell_length_a 27.000000
_cell_length_b 9.000000
_cell_length_c 6.000000
_cell_angle_alpha 110.000000
_cell_angle_beta 120.000000
_cell_angle_gamma 30.000000
_cell_volume 617.235917
_symmetry_space_group_name_H-M "P -1"
_symmetry_group_IT_number 2
_symmetry_cell_setting 'triclinic'
loop_
_space_group_symop_operation_xyz
x,y,z
-x,-y,-z
loop_
_atom_site_type_symbol
_atom_site_label
_atom_site_fract_x
_atom_site_fract_y
_atom_site_fract_z
Si Si1 0.507671 0.722158 0.204983
Si Si2 0.361996 0.871516 0.600058
Si Si3 0.095957 0.131027 0.854211
Si Si4 0.858162 0.763931 0.603693
Si Si5 0.939046 0.117185 0.165692
Si Si6 0.290728 0.273178 0.252091
Si Si7 0.733945 0.339350 0.370806
O O1 0.570631 0.454950 0.387251
O O2 0.607439 0.584641 0.247995
O O3 0.404497 0.047456 0.263689
O O4 0.442198 0.789359 0.890438
O O5 0.242577 0.120225 0.568965
O O6 0.328071 0.034833 0.371267
O O7 0.978196 0.427040 0.612977
O O8 0.075703 0.035790 0.928852
O O9 0.206241 0.821440 0.813909
O O10 0.119132 0.239336 0.090535
O O11 0.808203 0.038380 0.520062
O O12 0.817449 0.483225 0.029761
O O13 0.000000 0.000000 0.500000
O O14 0.000000 0.000000 0.000000
O O15 0.259525 0.494876 0.452878
#
# Coordination Sequence:
#
# PCOD9074515 Si02
#       7
#     2   2   2   2   2   2   2
#     4  10  25  45  72 107 144 199 251 309 370 449
#     4  10  24  46  71 106 143 191 255 306 375 443
#     4  11  24  44  72 103 143 194 245 303 376 452
#     4  10  23  44  71  99 145 191 243 304 380 443
#     4  12  28  48  76 113 155 194 251 318 382 455
#     4  12  25  44  74 102 149 195 249 312 379 443
#     4  11  24  45  69 107 147 191 252 309 370 450
#
# _framework density 22.681764999999999
#
# number of rings (size 3 to 8) (size 9 to 14) (size 15 to 20)
#    0.000    1.143    1.429    3.000    6.000    6.286 
#    0.000    0.000    0.000    0.000    0.000    0.000 
#    0.000    0.000    0.000    0.000    0.000    0.000 
#
# Total GULP energy -78021.707495 kJ/mol
# GULP energy per Si atom -5572.979107 kJ/mol
# Density = 2.263014 g / cm^3
# Si number density = 22.681765 Si / 1000 Ang^3
#
#
#
# Elastic Constant Matrix: (Units=GPa)
#
#
# Indices 1 2 3 4 5 6 
#
# 1 107.7374 38.9357 37.3884 -9.1402 -2.5324 -20.8174
# 2 38.9357 145.3923 32.8406 -15.9371 -3.4610 -31.3551
# 3 37.3884 32.8406 97.8266 -25.2143 5.5336 -6.8109
# 4 -9.1402 -15.9371 -25.2143 57.5434 0.7647 -6.7880
# 5 -2.5324 -3.4610 5.5336 0.7647 32.6222 -4.5311
# 6 -20.8174 -31.3551 -6.8109 -6.7880 -4.5311 36.9747
#
#
#
# Elastic Compliance Matrix: (Units=1/GPa)
#
#
# Indices 1 2 3 4 5 6 
#
# 1 0.012209 -0.001054 -0.003899 0.000574 0.002268 0.005645
# 2 -0.001054 0.009623 -0.001712 0.002663 0.002281 0.008020
# 3 -0.003899 -0.001712 0.013669 0.004865 -0.003001 -0.000604
# 4 0.000574 0.002663 0.004865 0.021208 0.000029 0.007375
# 5 0.002268 0.002281 -0.003001 0.000029 0.032504 0.006647
# 6 0.005645 0.008020 -0.000604 0.007375 0.006647 0.039082
#
#
# Mechanical properties :
#
#
# Convention : Reuss Voigt Hill
#
# Bulk Modulus (GPa) = 45.10747 63.25395 54.18071
# Shear Modulus (GPa) = 33.55390 41.54749 37.55069
#
# Velocity S-wave (km/s) = 3.85038 4.28455 4.07325
# Velocity P-wave (km/s) = 6.30060 7.24048 6.78683
#
# Compressibility (1/GPa) = 0.02216928
#
# Stress axis : x y z
#
# Youngs Moduli (GPa) = 81.90798 103.92137 73.16057
#
# Poissons Ratio (x) = 0.10958 0.28528
# Poissons Ratio (y) = 0.08637 0.12522
# Poissons Ratio (z) = 0.31939 0.17787
#
# Static dielectric constant tensor:
#      x y z
#    x 1.873120 -0.012540 -0.020900 
#    y -0.012540 1.857310 0.032480 
#    z -0.020900 0.032480 1.938500 
# 
# From -- ./inp_files/126495.got.cif
#   From: 2010.05.17/outbox.ucp.g08.bks.cvg/sg2_64_cif.got.tgz:126495.got - 2010.06.11 11:32:03.
