data_PCOD9074425
_publ_section_title
;
Structure prediction by ZEFSAII (Michael W. Deem and Ramdas Pophale) SiO2 
 PCOD9074425
Probable space group: P -1
;
_chemical_formula_sum "Si O2"
_cell_formula_units_Z 14
_cell_length_a 10.410386
_cell_length_b 11.492561
_cell_length_c 12.734171
_cell_angle_alpha 44.582900
_cell_angle_beta 32.268628
_cell_angle_gamma 50.517476
_cell_volume 568.659690
_symmetry_space_group_name_H-M "P -1"
_symmetry_group_IT_number 2
_symmetry_cell_setting 'triclinic'
loop_
_space_group_symop_operation_xyz
x,y,z
-x,-y,-z
loop_
_atom_site_type_symbol
_atom_site_label
_atom_site_fract_x
_atom_site_fract_y
_atom_site_fract_z
Si Si1 0.703281 0.113016 0.710701
Si Si2 0.364791 0.263833 0.331771
Si Si3 0.275161 0.667471 0.629570
Si Si4 0.873125 0.160939 0.788595
Si Si5 0.406778 0.423191 0.980886
Si Si6 0.542039 0.966468 0.262645
Si Si7 0.777538 0.684915 0.035985
O O1 0.787482 0.265155 0.486789
O O2 0.860245 0.101633 0.713984
O O3 0.428225 0.166952 0.902513
O O4 0.656833 0.988769 0.725132
O O5 0.543043 0.384107 0.183829
O O6 0.480552 0.085956 0.325515
O O7 0.129848 0.230415 0.581352
O O8 0.304445 0.370112 0.197463
O O9 0.295395 0.469270 0.745618
O O10 0.499520 0.774365 0.434461
O O11 0.053153 0.723200 0.825896
O O12 0.662209 0.309922 0.859768
O O13 0.795770 0.012270 0.011152
O O14 0.244526 0.382827 0.022405
#
# Coordination Sequence:
#
# PCOD9074425 Si02
#       7
#     2   2   2   2   2   2   2
#     4   9  19  31  48  75 101 123 159 200 241 292
#     4  10  19  34  51  71 104 128 159 202 239 289
#     4   9  20  32  51  77  95 130 160 200 251 282
#     4  10  18  32  51  74 100 130 158 197 249 286
#     4   9  20  34  51  75  94 130 170 197 233 290
#     4   9  21  30  47  79 100 127 160 195 250 289
#     4  10  18  35  53  71  98 128 166 202 239 284
#
# _framework density 24.619292999999999
#
# number of rings (size 3 to 8) (size 9 to 14) (size 15 to 20)
#    0.857    1.714    0.000    2.143    2.000    0.571 
#    0.000    0.714    0.000    0.857    0.000    0.000 
#    0.000    0.000    0.000    0.000    0.000    0.000 
#
# Total GULP energy -78122.311266 kJ/mol
# GULP energy per Si atom -5580.165090 kJ/mol
# Density = 2.456326 g / cm^3
# Si number density = 24.619293 Si / 1000 Ang^3
#
#
#
# Elastic Constant Matrix: (Units=GPa)
#
#
# Indices 1 2 3 4 5 6 
#
# 1 26.9818 5.2276 11.4829 -5.0124 5.0642 4.8231
# 2 5.2276 88.8631 18.6129 -11.9749 -8.6164 10.1640
# 3 11.4829 18.6129 155.2573 -10.7132 1.9772 1.9187
# 4 -5.0124 -11.9749 -10.7132 35.1002 1.3436 -1.1548
# 5 5.0642 -8.6164 1.9772 1.3436 21.8414 -3.9617
# 6 4.8231 10.1640 1.9187 -1.1548 -3.9617 20.8893
#
#
#
# Elastic Compliance Matrix: (Units=1/GPa)
#
#
# Indices 1 2 3 4 5 6 
#
# 1 0.043750 -0.001311 -0.002417 0.005179 -0.012826 -0.011388
# 2 -0.001311 0.013058 -0.001219 0.003564 0.004458 -0.004897
# 3 -0.002417 -0.001219 0.006861 0.001370 -0.000536 0.000495
# 4 0.005179 0.003564 0.001370 0.030888 -0.002137 -0.001754
# 5 -0.012826 0.004458 -0.000536 -0.002137 0.052639 0.010706
# 6 -0.011388 -0.004897 0.000495 -0.001754 0.010706 0.054771
#
#
# Mechanical properties :
#
#
# Convention : Reuss Voigt Hill
#
# Bulk Modulus (GPa) = 18.59577 37.97209 28.28393
# Shear Modulus (GPa) = 21.75938 31.28476 26.52207
#
# Velocity S-wave (km/s) = 2.97616 3.56861 3.28577
# Velocity P-wave (km/s) = 4.40225 5.69537 5.09004
#
# Compressibility (1/GPa) = 0.05377567
#
# Stress axis : x y z
#
# Youngs Moduli (GPa) = 22.85730 76.57966 145.75014
#
# Poissons Ratio (x) = 0.10037 0.35230
# Poissons Ratio (y) = 0.02996 0.17765
# Poissons Ratio (z) = 0.05525 0.09334
#
# Static dielectric constant tensor:
#      x y z
#    x 1.975510 -0.018380 0.039410 
#    y -0.018380 2.016290 -0.020180 
#    z 0.039410 -0.020180 1.987100 
# 
# From -- ./inp_files/94896.got.cif
#   From: 2010.05.17/outbox.cif.g08.bks.cpg/sg2_48_cif.got.tgz:94896.got - 2010.06.03 11:33:40.
