data_PCOD9074374
_publ_section_title
;
Structure prediction by ZEFSAII (Michael W. Deem and Ramdas Pophale) SiO2 
 PCOD9074374
Probable space group: P -1
;
_chemical_formula_sum "Si O2"
_cell_formula_units_Z 16
_cell_length_a 9.000000
_cell_length_b 18.000000
_cell_length_c 12.000000
_cell_angle_alpha 150.000000
_cell_angle_beta 60.000000
_cell_angle_gamma 130.000000
_cell_volume 736.400153
_symmetry_space_group_name_H-M "P -1"
_symmetry_group_IT_number 2
_symmetry_cell_setting 'triclinic'
loop_
_space_group_symop_operation_xyz
x,y,z
-x,-y,-z
loop_
_atom_site_type_symbol
_atom_site_label
_atom_site_fract_x
_atom_site_fract_y
_atom_site_fract_z
Si Si1 0.433054 0.391890 0.272367
Si Si2 0.716682 0.660225 0.137876
Si Si3 0.854105 0.596796 0.773914
Si Si4 0.803022 0.545109 0.181286
Si Si5 0.386361 0.050463 0.447890
Si Si6 0.784203 0.222369 0.657659
Si Si7 0.268729 0.750630 0.713183
Si Si8 0.537404 0.908045 0.022481
O O1 0.500000 0.500000 0.500000
O O2 0.237889 0.363951 0.249097
O O3 0.605409 0.498857 0.258973
O O4 0.413961 0.211052 0.074238
O O5 0.817367 0.626029 0.160368
O O6 0.696431 0.823968 0.383692
O O7 0.500000 0.500000 0.000000
O O8 0.820496 0.671624 0.996622
O O9 0.744080 0.392073 0.551705
O O10 0.079398 0.665555 0.751836
O O11 0.998303 0.676766 0.343886
O O12 0.784982 0.364049 0.924336
O O13 0.609233 0.158330 0.551488
O O14 0.264319 0.934299 0.446767
O O15 0.392925 0.949198 0.205294
O O16 0.289066 0.910241 0.844106
O O17 0.445217 0.815221 0.819486
#
# Coordination Sequence:
#
# PCOD9074374 Si02
#       8
#     2   2   2   2   2   2   2   2
#     4  12  24  43  67  96 133 173 221 270 322 390
#     4  12  23  41  68  98 134 171 215 274 324 386
#     4  11  24  45  68  98 130 174 226 267 326 390
#     4  11  24  43  66  98 129 173 223 266 325 392
#     4  11  23  42  65  96 134 171 209 272 332 384
#     4  10  23  41  64  95 129 170 215 266 329 387
#     4  10  25  45  68  95 129 176 223 268 326 391
#     4  11  24  45  66  94 133 173 217 271 328 389
#
# _framework density 21.727318
#
# number of rings (size 3 to 8) (size 9 to 14) (size 15 to 20)
#    0.000    1.000    5.000    0.750    3.500    2.000 
#    2.250    0.000    0.000    0.000    0.000    0.000 
#    0.000    0.000    0.000    0.000    0.000    0.000 
#
# Total GULP energy -89409.551328 kJ/mol
# GULP energy per Si atom -5588.096958 kJ/mol
# Density = 2.167787 g / cm^3
# Si number density = 21.727318 Si / 1000 Ang^3
#
#
#
# Elastic Constant Matrix: (Units=GPa)
#
#
# Indices 1 2 3 4 5 6 
#
# 1 49.4872 4.2110 16.2664 22.2408 -2.4191 -12.6667
# 2 4.2110 29.8257 9.2941 11.8473 -1.4193 -18.2011
# 3 16.2664 9.2941 74.4652 15.0018 -15.8074 -15.9897
# 4 22.2408 11.8473 15.0018 32.6237 -5.8784 2.7704
# 5 -2.4191 -1.4193 -15.8074 -5.8784 27.0555 5.0376
# 6 -12.6667 -18.2011 -15.9897 2.7704 5.0376 25.2729
#
#
#
# Elastic Compliance Matrix: (Units=1/GPa)
#
#
# Indices 1 2 3 4 5 6 
#
# 1 -0.174716 -0.327347 -0.054628 0.311976 0.079007 -0.407826
# 2 -0.327347 -0.498455 -0.085762 0.523381 0.131236 -0.660835
# 3 -0.054628 -0.085762 0.004479 0.080210 0.029462 -0.100975
# 4 0.311976 0.523381 0.080210 -0.488216 -0.127296 0.662929
# 5 0.079007 0.131236 0.029462 -0.127296 0.009789 0.164755
# 6 -0.407826 -0.660835 -0.100975 0.662929 0.164755 -0.810149
#
#
# Mechanical properties :
#
#
# Convention : Reuss Voigt Hill
#
# Bulk Modulus (GPa) = -0.62338 23.70234 11.53948
# Shear Modulus (GPa) = -3.21231 25.25752 11.02261
#
# Velocity S-wave (km/s) = -1.21724 3.41321 2.25481
# Velocity P-wave (km/s) = 1.50436 5.14452 3.47872
#
# Compressibility (1/GPa) = -1.60416721
#
# Stress axis : x y z
#
# Youngs Moduli (GPa) = -5.72358 -2.00620 223.25499
#
# Poissons Ratio (x) = -0.65672 12.19607
# Poissons Ratio (y) = -1.87360 19.14676
# Poissons Ratio (z) = -0.31267 -0.17206
#
# Static dielectric constant tensor:
#      x y z
#    x 1.814210 0.033700 -0.003850 
#    y 0.033700 1.791450 0.016680 
#    z -0.003850 0.016680 1.797340 
# 
# From -- ./inp_files/338692.got.cif
#   From: 2010.05.17/outbox.ucp.g08.bks.cvg/sg2_170_cif.got.tgz:338692.got - 2010.06.11 11:32:03.
