data_PCOD9074743
_publ_section_title
;
Structure prediction by ZEFSAII (Michael W. Deem and Ramdas Pophale) SiO2 
 PCOD9074743
Probable space group: P -1
;
_chemical_formula_sum "Si O2"
_cell_formula_units_Z 14
_cell_length_a 6.000000
_cell_length_b 9.000000
_cell_length_c 21.000000
_cell_angle_alpha 130.000000
_cell_angle_beta 130.000000
_cell_angle_gamma 50.000000
_cell_volume 612.403027
_symmetry_space_group_name_H-M "P -1"
_symmetry_group_IT_number 2
_symmetry_cell_setting 'triclinic'
loop_
_space_group_symop_operation_xyz
x,y,z
-x,-y,-z
loop_
_atom_site_type_symbol
_atom_site_label
_atom_site_fract_x
_atom_site_fract_y
_atom_site_fract_z
Si Si1 0.922576 0.706983 0.737828
Si Si2 0.194853 0.645676 0.447569
Si Si3 0.743453 0.009761 0.134686
Si Si4 0.192261 0.950863 0.428137
Si Si5 0.126554 0.323385 0.039011
Si Si6 0.695246 0.916265 0.236672
Si Si7 0.642894 0.483619 0.114665
O O1 0.981182 0.502039 0.649563
O O2 0.105818 0.652421 0.823617
O O3 0.561788 0.855797 0.727678
O O4 0.054917 0.860954 0.769708
O O5 0.500000 0.500000 0.500000
O O6 0.272597 0.737413 0.422847
O O7 0.039326 0.847602 0.519517
O O8 0.702361 0.888509 0.154750
O O9 0.409243 0.180541 0.097980
O O10 0.901901 0.852099 0.062417
O O11 0.023387 0.913401 0.323935
O O12 0.500000 0.000000 0.500000
O O13 0.318196 0.442964 0.063179
O O14 0.825659 0.419815 0.060523
O O15 0.609288 0.721638 0.190248
#
# Coordination Sequence:
#
# PCOD9074743 Si02
#       7
#     2   2   2   2   2   2   2
#     4  11  24  45  67 101 141 184 235 296 357 431
#     4  11  24  46  69  99 139 184 232 292 365 429
#     4  10  25  41  73  99 139 186 239 292 357 431
#     4  11  27  44  70 104 140 181 240 298 356 439
#     4  10  24  47  70 106 144 194 236 299 360 426
#     4  12  25  43  68 105 135 186 243 292 359 434
#     4  11  25  45  73 101 149 188 240 298 361 422
#
# _framework density 22.860762000000001
#
# number of rings (size 3 to 8) (size 9 to 14) (size 15 to 20)
#    0.000    1.143    4.286    0.000    6.000    6.857 
#    0.000    0.000    0.000    0.000    0.000    0.000 
#    0.000    0.000    0.000    0.000    0.000    0.000 
#
# Total GULP energy -78071.380584 kJ/mol
# GULP energy per Si atom -5576.527185 kJ/mol
# Density = 2.280873 g / cm^3
# Si number density = 22.860762 Si / 1000 Ang^3
#
#
#
# Elastic Constant Matrix: (Units=GPa)
#
#
# Indices 1 2 3 4 5 6 
#
# 1 65.0305 57.6197 47.5319 -23.8130 10.5160 5.0251
# 2 57.6197 66.7261 4.9719 13.2422 7.6324 11.7203
# 3 47.5319 4.9719 88.4491 29.3369 19.0478 4.9137
# 4 -23.8130 13.2422 29.3369 25.4544 3.1918 9.2807
# 5 10.5160 7.6324 19.0478 3.1918 43.4587 2.3593
# 6 5.0251 11.7203 4.9137 9.2807 2.3593 33.6023
#
#
#
# Elastic Compliance Matrix: (Units=1/GPa)
#
#
# Indices 1 2 3 4 5 6 
#
# 1 -0.004984 0.007433 0.009304 -0.019791 -0.002857 0.002459
# 2 0.007433 0.007107 -0.009680 0.016873 0.000329 -0.006858
# 3 0.009304 -0.009680 0.004489 0.009336 -0.003148 -0.001029
# 4 -0.019791 0.016873 0.009336 0.003359 -0.002238 -0.005061
# 5 -0.002857 0.000329 -0.003148 -0.002238 0.025209 -0.000379
# 6 0.002459 -0.006858 -0.001029 -0.005061 -0.000379 0.033359
#
#
# Mechanical properties :
#
#
# Convention : Reuss Voigt Hill
#
# Bulk Modulus (GPa) = 48.25004 48.93919 48.59462
# Shear Modulus (GPa) = 81.52087 27.84190 54.68138
#
# Velocity S-wave (km/s) = 5.97806 3.49361 4.89604
# Velocity P-wave (km/s) = 8.29466 6.14229 7.29826
#
# Compressibility (1/GPa) = 0.02072537
#
# Stress axis : x y z
#
# Youngs Moduli (GPa) = -200.62776 140.69717 222.77364
#
# Poissons Ratio (x) = -1.04587 -2.07263
# Poissons Ratio (y) = 1.49136 2.15656
# Poissons Ratio (z) = 1.86659 1.36202
#
# Static dielectric constant tensor:
#      x y z
#    x 1.874150 0.005840 0.017740 
#    y 0.005840 1.860530 -0.044640 
#    z 0.017740 -0.044640 1.809050 
# 
# From -- ./inp_files/112633.got.cif
#   From: 2010.05.17/outbox.ucp.g08.bks.cvg/sg2_57_cif.got.tgz:112633.got - 2010.06.11 11:32:03.
