data_PCOD9074423
_publ_section_title
;
Structure prediction by ZEFSAII (Michael W. Deem and Ramdas Pophale) SiO2 
 PCOD9074423
Probable space group: P -1
;
_chemical_formula_sum "Si O2"
_cell_formula_units_Z 14
_cell_length_a 21.000000
_cell_length_b 12.000000
_cell_length_c 21.000000
_cell_angle_alpha 150.000000
_cell_angle_beta 160.000000
_cell_angle_gamma 20.000000
_cell_volume 612.476904
_symmetry_space_group_name_H-M "P -1"
_symmetry_group_IT_number 2
_symmetry_cell_setting 'triclinic'
loop_
_space_group_symop_operation_xyz
x,y,z
-x,-y,-z
loop_
_atom_site_type_symbol
_atom_site_label
_atom_site_fract_x
_atom_site_fract_y
_atom_site_fract_z
Si Si1 0.200290 0.381830 0.912849
Si Si2 0.501164 0.471772 0.176098
Si Si3 0.307033 0.482671 0.491222
Si Si4 0.251597 0.190871 0.639828
Si Si5 0.323406 0.221969 0.574664
Si Si6 0.778951 0.269266 0.607686
Si Si7 0.233012 0.178723 0.972940
O O1 0.958148 0.425267 0.689030
O O2 0.158052 0.430324 0.973958
O O3 0.221275 0.586165 0.991280
O O4 0.500000 0.000000 0.000000
O O5 0.614964 0.433956 0.334582
O O6 0.542508 0.666117 0.271626
O O7 0.662242 0.138753 0.122895
O O8 0.257525 0.668427 0.472026
O O9 0.526243 0.106466 0.485954
O O10 0.346137 0.185434 0.655592
O O11 0.007533 0.528281 0.616033
O O12 0.107013 0.075826 0.441479
O O13 0.520753 0.952973 0.818050
O O14 0.500000 0.500000 0.500000
O O15 0.967604 0.312554 0.825392
#
# Coordination Sequence:
#
# PCOD9074423 Si02
#       7
#     2   2   2   2   2   2   2
#     4   9  22  40  65  99 127 168 218 269 327 379
#     4  11  23  42  65  97 130 177 211 261 339 384
#     4  11  24  44  67  99 135 165 223 275 321 395
#     4  11  24  47  68  93 137 171 224 273 322 397
#     4  11  25  45  66  96 134 181 214 270 334 388
#     4  11  22  45  73  98 127 174 222 274 333 377
#     4  10  23  42  70 100 124 173 223 271 328 389
#
# _framework density 22.858004999999999
#
# number of rings (size 3 to 8) (size 9 to 14) (size 15 to 20)
#    0.000    1.429    2.857    1.286    4.000    6.857 
#    5.143    0.000    0.000    0.000    0.000    0.000 
#    0.000    0.000    0.000    0.000    0.000    0.000 
#
# Total GULP energy -78102.920182 kJ/mol
# GULP energy per Si atom -5578.780013 kJ/mol
# Density = 2.280598 g / cm^3
# Si number density = 22.858005 Si / 1000 Ang^3
#
#
#
# Elastic Constant Matrix: (Units=GPa)
#
#
# Indices 1 2 3 4 5 6 
#
# 1 130.7856 11.2840 47.4797 13.1794 38.8232 18.3917
# 2 11.2840 61.5733 -2.9651 6.1039 8.1599 -11.2320
# 3 47.4797 -2.9651 94.7881 2.0354 23.3093 -5.7307
# 4 13.1794 6.1039 2.0354 20.1505 -3.6085 12.7389
# 5 38.8232 8.1599 23.3093 -3.6085 49.1637 2.9271
# 6 18.3917 -11.2320 -5.7307 12.7389 2.9271 42.1362
#
#
#
# Elastic Compliance Matrix: (Units=1/GPa)
#
#
# Indices 1 2 3 4 5 6 
#
# 1 0.013183 -0.001780 -0.004822 -0.006222 -0.008021 -0.004446
# 2 -0.001780 0.020970 0.003925 -0.013851 -0.005636 0.011479
# 3 -0.004822 0.003925 0.014733 -0.004703 -0.004585 0.006895
# 4 -0.006222 -0.013851 -0.004703 0.078036 0.016740 -0.026371
# 5 -0.008021 -0.005636 -0.004585 0.016740 0.031361 -0.005864
# 6 -0.004446 0.011479 0.006895 -0.026371 -0.005864 0.038051
#
#
# Mechanical properties :
#
#
# Convention : Reuss Voigt Hill
#
# Bulk Modulus (GPa) = 22.97111 44.30492 33.63801
# Shear Modulus (GPa) = 23.12674 37.71328 30.42001
#
# Velocity S-wave (km/s) = 3.18426 4.06630 3.65201
# Velocity P-wave (km/s) = 4.85702 6.43981 5.70359
#
# Compressibility (1/GPa) = 0.04353295
#
# Stress axis : x y z
#
# Youngs Moduli (GPa) = 75.85247 47.68722 67.87366
#
# Poissons Ratio (x) = 0.08486 0.32729
# Poissons Ratio (y) = 0.13498 -0.26639
# Poissons Ratio (z) = 0.36577 -0.18716
#
# Static dielectric constant tensor:
#      x y z
#    x 1.868760 -0.001900 0.003420 
#    y -0.001900 2.030630 -0.049280 
#    z 0.003420 -0.049280 1.857390 
# 
# From -- ./inp_files/418172.got.cif
#   From: 2010.05.17/outbox.ucp.g08.bks.cvg/sg2_210_cif.got.tgz:418172.got - 2010.06.11 11:32:03.
