data_PCOD9074459
_publ_section_title
;
Structure prediction by ZEFSAII (Michael W. Deem and Ramdas Pophale) SiO2 
 PCOD9074459
Probable space group: P -1
;
_chemical_formula_sum "Si O2"
_cell_formula_units_Z 16
_cell_length_a 12.000000
_cell_length_b 12.000000
_cell_length_c 12.000000
_cell_angle_alpha 150.000000
_cell_angle_beta 70.000000
_cell_angle_gamma 120.000000
_cell_volume 731.538865
_symmetry_space_group_name_H-M "P -1"
_symmetry_group_IT_number 2
_symmetry_cell_setting 'triclinic'
loop_
_space_group_symop_operation_xyz
x,y,z
-x,-y,-z
loop_
_atom_site_type_symbol
_atom_site_label
_atom_site_fract_x
_atom_site_fract_y
_atom_site_fract_z
Si Si1 0.315947 0.662727 0.341883
Si Si2 0.628629 0.443912 0.018342
Si Si3 0.698294 0.717400 0.601292
Si Si4 0.815380 0.025593 0.455834
Si Si5 0.971238 0.697052 0.771222
Si Si6 0.802880 0.214096 0.865950
Si Si7 0.459182 0.508568 0.324198
Si Si8 0.917300 0.548110 0.311234
O O1 0.276131 0.876751 0.498783
O O2 0.178687 0.442544 0.247502
O O3 0.413307 0.701459 0.446757
O O4 0.379011 0.613078 0.161881
O O5 0.506893 0.413591 0.114611
O O6 0.739914 0.730092 0.230406
O O7 0.685612 0.274744 0.914786
O O8 0.579944 0.614289 0.461281
O O9 0.652292 0.672092 0.707481
O O10 0.791567 0.581462 0.427417
O O11 0.766063 0.000767 0.785740
O O12 0.838346 0.117443 0.655880
O O13 0.958828 0.180686 0.486420
O O14 0.000000 0.500000 0.500000
O O15 0.056386 0.657697 0.807368
O O16 0.000000 0.000000 0.000000
O O17 0.899298 0.458039 0.110977
#
# Coordination Sequence:
#
# PCOD9074459 Si02
#       8
#     2   2   2   2   2   2   2   2
#     4  10  25  43  72 102 136 190 239 294 366 423
#     4  11  23  46  68 103 138 185 238 297 361 426
#     4  11  25  44  68  99 142 183 238 298 360 433
#     4  10  23  43  68 100 141 175 235 301 358 439
#     4  11  27  48  74 110 150 192 243 302 368 445
#     4  11  22  42  66 107 132 183 235 292 374 426
#     4  11  23  48  65  96 141 186 244 290 357 442
#     4  11  24  42  72 101 139 184 235 295 369 429
#
# _framework density 21.871701999999999
#
# number of rings (size 3 to 8) (size 9 to 14) (size 15 to 20)
#    0.000    1.250    2.500    1.500    7.000    5.000 
#    2.250    0.000    0.000    0.000    0.000    0.000 
#    0.000    0.000    0.000    0.000    0.000    0.000 
#
# Total GULP energy -89097.188140 kJ/mol
# GULP energy per Si atom -5568.574259 kJ/mol
# Density = 2.182192 g / cm^3
# Si number density = 21.871702 Si / 1000 Ang^3
#
#
#
# Elastic Constant Matrix: (Units=GPa)
#
#
# Indices 1 2 3 4 5 6 
#
# 1 113.4844 46.6579 23.7126 -6.4612 0.4221 -27.4928
# 2 46.6579 133.8390 29.1432 -8.5781 -8.5544 -17.2475
# 3 23.7126 29.1432 53.8096 -0.9214 -15.4751 -1.7314
# 4 -6.4612 -8.5781 -0.9214 42.3109 -12.7058 -0.1448
# 5 0.4221 -8.5544 -15.4751 -12.7058 8.3577 -3.7556
# 6 -27.4928 -17.2475 -1.7314 -0.1448 -3.7556 39.2214
#
#
#
# Elastic Compliance Matrix: (Units=1/GPa)
#
#
# Indices 1 2 3 4 5 6 
#
# 1 0.010545 -0.000111 0.009962 0.016328 0.048221 0.012460
# 2 -0.000111 0.006849 -0.020283 -0.016038 -0.056463 -0.003427
# 3 0.009962 -0.020283 -0.073895 -0.104647 -0.334065 -0.037573
# 4 0.016328 -0.016038 -0.104647 -0.087607 -0.359926 -0.035014
# 5 0.048221 -0.056463 -0.334065 -0.359926 -1.159395 -0.118120
# 6 0.012460 -0.003427 -0.037573 -0.035014 -0.118120 0.019625
#
#
# Mechanical properties :
#
#
# Convention : Reuss Voigt Hill
#
# Bulk Modulus (GPa) = -12.92541 55.57339 21.32399
# Shear Modulus (GPa) = -3.87957 31.41927 13.76985
#
# Velocity S-wave (km/s) = -1.33328 3.79426 2.51185
# Velocity P-wave (km/s) = 2.87970 6.68276 4.26419
#
# Compressibility (1/GPa) = -0.07736696
#
# Stress axis : x y z
#
# Youngs Moduli (GPa) = 94.83420 146.01614 -13.53268
#
# Poissons Ratio (x) = 0.01618 0.13481
# Poissons Ratio (y) = 0.01051 -0.27449
# Poissons Ratio (z) = -0.94471 2.96170
#
# Static dielectric constant tensor:
#      x y z
#    x 1.850470 0.039320 0.017340 
#    y 0.039320 1.797870 -0.004730 
#    z 0.017340 -0.004730 1.860430 
# 
# From -- ./inp_files/429224.got.cif
#   From: 2010.05.17/outbox.ucp.g08.bks.cvg/sg2_215_cif.got.tgz:429224.got - 2010.06.11 11:32:03.
