data_PCOD9074082
_publ_section_title
;
Structure prediction by ZEFSAII (Michael W. Deem and Ramdas Pophale) SiO2 
 PCOD9074082
Probable space group: P -1
;
_chemical_formula_sum "Si O2"
_cell_formula_units_Z 16
_cell_length_a 14.920257
_cell_length_b 8.697119
_cell_length_c 10.149498
_cell_angle_alpha 93.420623
_cell_angle_beta 154.303298
_cell_angle_gamma 79.745582
_cell_volume 546.062894
_symmetry_space_group_name_H-M "P -1"
_symmetry_group_IT_number 2
_symmetry_cell_setting 'triclinic'
loop_
_space_group_symop_operation_xyz
x,y,z
-x,-y,-z
loop_
_atom_site_type_symbol
_atom_site_label
_atom_site_fract_x
_atom_site_fract_y
_atom_site_fract_z
Si Si1 0.848420 0.621626 0.540999
Si Si2 0.282972 0.619706 0.014005
Si Si3 0.365413 0.637292 0.677353
Si Si4 0.912733 0.662694 0.017464
Si Si5 0.261576 0.855252 0.212852
Si Si6 0.295159 0.870233 0.813506
Si Si7 0.200152 0.098624 0.909431
Si Si8 0.242725 0.100628 0.398175
O O1 0.030000 0.626463 0.677127
O O2 0.006062 0.529071 0.867721
O O3 0.707542 0.496460 0.334138
O O4 0.709280 0.799954 0.407853
O O5 0.310004 0.745471 0.946523
O O6 0.448351 0.455017 0.177619
O O7 0.338062 0.682425 0.233521
O O8 0.407660 0.775765 0.828715
O O9 0.140434 0.703421 0.304536
O O10 0.822518 0.729777 0.045629
O O11 0.757167 0.768763 0.710147
O O12 0.343649 0.926039 0.456742
O O13 0.003763 0.891308 0.892333
O O14 0.287410 0.974965 0.137282
O O15 0.044920 0.907950 0.437086
O O16 0.315076 0.030100 0.921572
#
# Coordination Sequence:
#
# PCOD9074082 Si02
#       8
#     2   2   2   2   2   2   2   2
#     4   9  19  30  47  72  95 127 149 193 231 270
#     4  10  18  32  48  71  96 122 158 188 232 277
#     4   9  19  31  45  73  96 124 153 191 230 274
#     4   8  16  29  48  71  94 125 151 191 231 275
#     4   8  16  26  48  75  89 121 160 194 222 279
#     4   9  16  28  50  70  90 128 155 191 232 274
#     4   8  14  28  46  74  91 117 166 188 228 277
#     4   9  14  29  50  70  93 122 160 185 234 277
#
# _framework density 29.300653000000001
#
# number of rings (size 3 to 8) (size 9 to 14) (size 15 to 20)
#    0.750    2.500    0.000    0.750    0.000    0.500 
#    0.000    3.125    0.000    0.750   78.000    0.000 
#    0.000    0.000    0.000    0.000    0.000    0.000 
#
# Total GULP energy -89388.640457 kJ/mol
# GULP energy per Si atom -5586.790029 kJ/mol
# Density = 2.923396 g / cm^3
# Si number density = 29.300653 Si / 1000 Ang^3
#
#
#
# Elastic Constant Matrix: (Units=GPa)
#
#
# Indices 1 2 3 4 5 6 
#
# 1 113.9189 76.1404 51.3807 9.4247 23.2011 -27.9912
# 2 76.1404 181.0999 51.7138 -3.0402 23.3100 -76.2444
# 3 51.3807 51.7138 95.9317 9.0324 15.8348 -17.8443
# 4 9.4247 -3.0402 9.0324 61.8411 -4.9621 10.5066
# 5 23.2011 23.3100 15.8348 -4.9621 49.6237 1.6652
# 6 -27.9912 -76.2444 -17.8443 10.5066 1.6652 83.3890
#
#
#
# Elastic Compliance Matrix: (Units=1/GPa)
#
#
# Indices 1 2 3 4 5 6 
#
# 1 0.014777 -0.004266 -0.004747 -0.002124 -0.003615 0.000384
# 2 -0.004266 0.012351 -0.001979 -0.000360 -0.003532 0.009553
# 3 -0.004747 -0.001979 0.014435 -0.001598 -0.001614 -0.000080
# 4 -0.002124 -0.000360 -0.001598 0.017620 0.003557 -0.003675
# 5 -0.003615 -0.003532 -0.001614 0.003557 0.024564 -0.005727
# 6 0.000384 0.009553 -0.000080 -0.003675 -0.005727 0.021416
#
#
# Mechanical properties :
#
#
# Convention : Reuss Voigt Hill
#
# Bulk Modulus (GPa) = 51.07395 83.26890 67.17143
# Shear Modulus (GPa) = 37.40470 53.08513 45.24492
#
# Velocity S-wave (km/s) = 3.57681 4.26107 3.93384
# Velocity P-wave (km/s) = 5.87596 7.25875 6.60365
#
# Compressibility (1/GPa) = 0.01957945
#
# Stress axis : x y z
#
# Youngs Moduli (GPa) = 67.67495 80.96368 69.27452
#
# Poissons Ratio (x) = 0.34538 0.32881
# Poissons Ratio (y) = 0.28869 0.13712
# Poissons Ratio (z) = 0.32122 0.16026
#
# Static dielectric constant tensor:
#      x y z
#    x 2.303370 -0.050730 -0.027750 
#    y -0.050730 2.256110 0.021820 
#    z -0.027750 0.021820 2.554490 
# 
# From -- ./inp_files/284635.got.cif
#   From: 2010.05.17/outbox.cif.g08.bks.cpg/sg2_143_cif.got.tgz:284635.got - 2010.06.03 11:33:40.
