data_PCOD9074983
_publ_section_title
;
Structure prediction by ZEFSAII (Michael W. Deem and Ramdas Pophale) SiO2 
 PCOD9074983
Probable space group: P -1
;
_chemical_formula_sum "Si O2"
_cell_formula_units_Z 12
_cell_length_a 9.000000
_cell_length_b 12.000000
_cell_length_c 12.000000
_cell_angle_alpha 140.000000
_cell_angle_beta 90.000000
_cell_angle_gamma 60.000000
_cell_volume 523.519695
_symmetry_space_group_name_H-M "P -1"
_symmetry_group_IT_number 2
_symmetry_cell_setting 'triclinic'
loop_
_space_group_symop_operation_xyz
x,y,z
-x,-y,-z
loop_
_atom_site_type_symbol
_atom_site_label
_atom_site_fract_x
_atom_site_fract_y
_atom_site_fract_z
Si Si1 0.046694 0.330908 0.766811
Si Si2 0.368905 0.746982 0.425990
Si Si3 0.474518 0.270583 0.017023
Si Si4 0.719073 0.730930 0.483749
Si Si5 0.773876 0.215755 0.314807
Si Si6 0.878725 0.839246 0.854084
O O1 0.205077 0.304324 0.667827
O O2 0.195722 0.023463 0.564030
O O3 0.000000 0.500000 0.000000
O O4 0.803960 0.507390 0.836103
O O5 0.548325 0.717711 0.466788
O O6 0.214756 0.802388 0.567010
O O7 0.499810 0.458786 0.152125
O O8 0.596772 0.020542 0.743258
O O9 0.615939 0.081992 0.985343
O O10 0.955386 0.476176 0.361084
O O11 0.500000 0.500000 0.500000
O O12 0.954388 0.192329 0.247687
O O13 0.847214 0.967488 0.069321
#
# Coordination Sequence:
#
# PCOD9074983 Si02
#       6
#     2   2   2   2   2   2
#     4  12  28  52  74 106 147 197 245 300 366 426
#     4  12  25  51  77 103 151 193 243 300 360 437
#     4  12  28  47  73 113 143 197 243 298 364 435
#     4  12  27  49  75 108 149 189 240 310 358 434
#     4  11  21  45  76 109 147 191 239 298 366 426
#     4  11  24  44  74 113 146 188 243 299 366 430
#
# _framework density 22.921773999999999
#
# number of rings (size 3 to 8) (size 9 to 14) (size 15 to 20)
#    0.000    0.333    5.000    3.500    2.333    1.333 
#    0.000    0.000    0.000    0.000    0.000    0.000 
#    0.000    0.000    0.000    0.000    0.000    0.000 
#
# Total GULP energy -67061.277092 kJ/mol
# GULP energy per Si atom -5588.439758 kJ/mol
# Density = 2.286960 g / cm^3
# Si number density = 22.921774 Si / 1000 Ang^3
#
#
#
# Elastic Constant Matrix: (Units=GPa)
#
#
# Indices 1 2 3 4 5 6 
#
# 1 52.5828 32.8913 45.2021 -2.3444 22.5544 -8.6095
# 2 32.8913 100.9152 50.3401 31.3032 -6.3347 -3.3088
# 3 45.2021 50.3401 144.7603 18.9922 28.6980 10.9510
# 4 -2.3444 31.3032 18.9922 60.5488 -7.6138 -5.1209
# 5 22.5544 -6.3347 28.6980 -7.6138 32.1226 4.6432
# 6 -8.6095 -3.3088 10.9510 -5.1209 4.6432 37.4473
#
#
#
# Elastic Compliance Matrix: (Units=1/GPa)
#
#
# Indices 1 2 3 4 5 6 
#
# 1 0.058947 -0.021924 -0.005840 0.012043 -0.040530 0.019996
# 2 -0.021924 0.023064 -0.003888 -0.009275 0.022065 -0.005870
# 3 -0.005840 -0.003888 0.012495 -0.003547 -0.007970 -0.004837
# 4 0.012043 -0.009275 -0.003547 0.023113 -0.002573 0.006466
# 5 -0.040530 0.022065 -0.007970 -0.002573 0.072529 -0.014383
# 6 0.019996 -0.005870 -0.004837 0.006466 -0.014383 0.034865
#
#
# Mechanical properties :
#
#
# Convention : Reuss Voigt Hill
#
# Bulk Modulus (GPa) = 32.04917 61.68060 46.86489
# Shear Modulus (GPa) = 16.73816 37.34540 27.04178
#
# Velocity S-wave (km/s) = 2.70521 4.04078 3.43846
# Velocity P-wave (km/s) = 4.87543 6.98127 6.02113
#
# Compressibility (1/GPa) = 0.03120205
#
# Stress axis : x y z
#
# Youngs Moduli (GPa) = 16.96432 43.35742 80.03100
#
# Poissons Ratio (x) = 0.95055 0.46742
# Poissons Ratio (y) = 0.37192 0.31118
# Poissons Ratio (z) = 0.09908 0.16858
#
# Static dielectric constant tensor:
#      x y z
#    x 1.852800 -0.031130 0.015920 
#    y -0.031130 1.867710 -0.005890 
#    z 0.015920 -0.005890 1.881720 
# 
# From -- ./inp_files/49581.got.cif
#   From: 2010.05.17/outbox.ucp.g08.bks.cvg/sg2_25_cif.got.tgz:49581.got - 2010.06.11 11:32:03.
