data_PCOD9074863
_publ_section_title
;
Structure prediction by ZEFSAII (Michael W. Deem and Ramdas Pophale) SiO2 
 PCOD9074863
Probable space group: P -1
;
_chemical_formula_sum "Si O2"
_cell_formula_units_Z 16
_cell_length_a 11.845801
_cell_length_b 21.103646
_cell_length_c 11.576586
_cell_angle_alpha 22.572891
_cell_angle_beta 47.926439
_cell_angle_gamma 35.503001
_cell_volume 600.332989
_symmetry_space_group_name_H-M "P -1"
_symmetry_group_IT_number 2
_symmetry_cell_setting 'triclinic'
loop_
_space_group_symop_operation_xyz
x,y,z
-x,-y,-z
loop_
_atom_site_type_symbol
_atom_site_label
_atom_site_fract_x
_atom_site_fract_y
_atom_site_fract_z
Si Si1 0.176665 0.309473 0.863793
Si Si2 0.614911 0.538471 0.769508
Si Si3 0.955799 0.031483 0.113174
Si Si4 0.379298 0.300338 0.957461
Si Si5 0.775386 0.576851 0.798473
Si Si6 0.948162 0.785064 0.091794
Si Si7 0.190411 0.191692 0.433880
Si Si8 0.518496 0.534526 0.222991
O O1 0.049034 0.555200 0.478497
O O2 0.005155 0.338187 0.010357
O O3 0.221315 0.155941 0.983156
O O4 0.342435 0.271034 0.900842
O O5 0.651024 0.670553 0.604110
O O6 0.850790 0.303968 0.971745
O O7 0.493719 0.614927 0.602543
O O8 0.500000 0.500000 0.000000
O O9 0.103409 0.036603 0.079793
O O10 0.724743 0.265593 0.911354
O O11 0.958395 0.836273 0.468047
O O12 0.000000 0.000000 0.000000
O O13 0.211843 0.321319 0.109853
O O14 0.593688 0.066472 0.254441
O O15 0.375011 0.492698 0.681415
O O16 0.836770 0.704710 0.598026
O O17 0.625158 0.591201 0.967218
#
# Coordination Sequence:
#
# PCOD9074863 Si02
#       8
#     2   2   2   2   2   2   2   2
#     4  10  19  33  55  79 103 135 173 215 260 301
#     4   8  14  28  50  74 100 133 168 210 255 295
#     4  10  18  32  53  73 103 141 172 208 259 311
#     4   9  18  33  53  76 105 137 170 212 256 304
#     4   9  16  29  53  78 101 133 171 211 255 301
#     4   9  19  33  52  77 102 133 175 216 255 305
#     4   9  18  32  51  76 104 137 172 206 255 311
#     4   8  16  29  47  75 100 127 169 211 250 299
#
# _framework density 26.651875
#
# number of rings (size 3 to 8) (size 9 to 14) (size 15 to 20)
#    0.000    3.000    0.000    1.500    0.000    2.000 
#    0.000    6.250    0.000   27.750    0.000    0.000 
#    0.000    0.000    0.000    0.000    0.000    0.000 
#
# Total GULP energy -89106.974986 kJ/mol
# GULP energy per Si atom -5569.185937 kJ/mol
# Density = 2.659121 g / cm^3
# Si number density = 26.651875 Si / 1000 Ang^3
#
#
#
# Elastic Constant Matrix: (Units=GPa)
#
#
# Indices 1 2 3 4 5 6 
#
# 1 302.8523 33.2688 57.7212 -15.4989 -18.0613 81.1325
# 2 33.2688 103.9450 24.1199 22.8406 11.7514 14.8909
# 3 57.7212 24.1199 40.9489 14.7409 -0.2028 9.1022
# 4 -15.4989 22.8406 14.7409 34.1263 -5.2258 1.1393
# 5 -18.0613 11.7514 -0.2028 -5.2258 32.1509 -20.3309
# 6 81.1325 14.8909 9.1022 1.1393 -20.3309 64.6410
#
#
#
# Elastic Compliance Matrix: (Units=1/GPa)
#
#
# Indices 1 2 3 4 5 6 
#
# 1 0.009458 -0.001094 -0.014994 0.012085 0.001792 -0.009157
# 2 -0.001094 0.014865 -0.002185 -0.011024 -0.011026 -0.005017
# 3 -0.014994 -0.002185 0.055545 -0.030567 -0.005778 0.010222
# 4 0.012085 -0.011024 -0.030567 0.058208 0.017692 -0.003786
# 5 0.001792 -0.011026 -0.005778 0.017692 0.049282 0.016292
# 6 -0.009157 -0.005017 0.010222 -0.003786 0.016292 0.031871
#
#
# Mechanical properties :
#
#
# Convention : Reuss Voigt Hill
#
# Bulk Modulus (GPa) = 23.08221 75.32954 49.20587
# Shear Modulus (GPa) = 18.50363 48.35940 33.43151
#
# Velocity S-wave (km/s) = 2.63776 4.26430 3.54556
# Velocity P-wave (km/s) = 4.23751 7.25060 5.93834
#
# Compressibility (1/GPa) = 0.04332341
#
# Stress axis : x y z
#
# Youngs Moduli (GPa) = 105.72572 67.27127 18.00330
#
# Poissons Ratio (x) = 0.07362 0.26994
# Poissons Ratio (y) = 0.11570 0.03933
# Poissons Ratio (z) = 1.58524 0.14696
#
# Static dielectric constant tensor:
#      x y z
#    x 2.192350 -0.048040 -0.001300 
#    y -0.048040 2.187430 -0.040700 
#    z -0.001300 -0.040700 2.118020 
# 
# From -- ./inp_files/438311.got.cif
#   From: 2010.05.17/outbox.cif.g08.bks.cpg/sg2_220_cif.got.tgz:438311.got - 2010.06.03 11:33:40.
