data_PCOD9074476
_publ_section_title
;
Structure prediction by ZEFSAII (Michael W. Deem and Ramdas Pophale) SiO2 
 PCOD9074476
Probable space group: P -1
;
_chemical_formula_sum "Si O2"
_cell_formula_units_Z 14
_cell_length_a 9.000000
_cell_length_b 12.000000
_cell_length_c 21.000000
_cell_angle_alpha 140.000000
_cell_angle_beta 30.000000
_cell_angle_gamma 120.000000
_cell_volume 627.666119
_symmetry_space_group_name_H-M "P -1"
_symmetry_group_IT_number 2
_symmetry_cell_setting 'triclinic'
loop_
_space_group_symop_operation_xyz
x,y,z
-x,-y,-z
loop_
_atom_site_type_symbol
_atom_site_label
_atom_site_fract_x
_atom_site_fract_y
_atom_site_fract_z
Si Si1 0.469802 0.838560 0.484467
Si Si2 0.347993 0.473751 0.825924
Si Si3 0.020263 0.383869 0.693108
Si Si4 0.185361 0.172076 0.053292
Si Si5 0.624466 0.062189 0.248645
Si Si6 0.362353 0.798887 0.287729
Si Si7 0.302545 0.894360 0.060140
O O1 0.567117 0.633266 0.320741
O O2 0.764804 0.763067 0.394212
O O3 0.500000 0.000000 0.500000
O O4 0.098072 0.949352 0.706174
O O5 0.616653 0.286137 0.687308
O O6 0.351101 0.683411 0.921125
O O7 0.000000 0.500000 0.000000
O O8 0.273401 0.265490 0.487132
O O9 0.002296 0.596766 0.799864
O O10 0.668275 0.374300 0.815364
O O11 0.935337 0.112568 0.159181
O O12 0.492012 0.165926 0.976538
O O13 0.347781 0.011611 0.866168
O O14 0.629839 0.873971 0.202739
O O15 0.000000 0.000000 0.500000
O O16 0.500000 0.000000 0.000000
#
# Coordination Sequence:
#
# PCOD9074476 Si02
#       7
#     2   2   2   2   2   2   2
#     4  12  27  46  76 108 147 191 239 300 370 424
#     4  12  27  47  74 105 147 192 241 298 363 429
#     4  11  24  44  71 102 137 179 240 292 344 421
#     4  11  25  43  71 100 134 192 234 282 358 427
#     4  10  24  41  69  99 142 171 235 293 350 406
#     4  10  23  43  72 102 137 179 232 298 344 413
#     4  12  29  48  71 106 153 190 241 299 364 433
#
# _framework density 22.304852
#
# number of rings (size 3 to 8) (size 9 to 14) (size 15 to 20)
#    0.000    0.857    2.857    3.000   10.000    2.286 
#    0.000    0.000    0.000    0.000    0.000    0.000 
#    0.000    0.000    0.000    0.000    0.000    0.000 
#
# Total GULP energy -78083.362077 kJ/mol
# GULP energy per Si atom -5577.383005 kJ/mol
# Density = 2.225409 g / cm^3
# Si number density = 22.304852 Si / 1000 Ang^3
#
#
#
# Elastic Constant Matrix: (Units=GPa)
#
#
# Indices 1 2 3 4 5 6 
#
# 1 86.5269 23.2677 26.4130 3.4694 5.3383 17.8681
# 2 23.2677 152.9666 1.6899 15.9342 14.9499 18.3914
# 3 26.4130 1.6899 47.1693 27.6692 33.9850 0.3881
# 4 3.4694 15.9342 27.6692 28.1766 7.2626 9.3418
# 5 5.3383 14.9499 33.9850 7.2626 37.8202 9.7191
# 6 17.8681 18.3914 0.3881 9.3418 9.7191 42.7169
#
#
#
# Elastic Compliance Matrix: (Units=1/GPa)
#
#
# Indices 1 2 3 4 5 6 
#
# 1 0.005687 0.002016 0.020303 -0.018829 -0.017423 0.004651
# 2 0.002016 0.005774 -0.009705 0.006367 0.006502 -0.006113
# 3 0.020303 -0.009705 -0.056805 0.055225 0.048315 -0.026868
# 4 -0.018829 0.006367 0.055225 -0.013034 -0.051942 0.019301
# 5 -0.017423 0.006502 0.048315 -0.051942 -0.011759 0.018084
# 6 0.004651 -0.006113 -0.026868 0.019301 0.018084 0.016005
#
#
# Mechanical properties :
#
#
# Convention : Reuss Voigt Hill
#
# Bulk Modulus (GPa) = -49.71014 43.26711 -3.22152
# Shear Modulus (GPa) = -58.09537 37.42889 -10.33324
#
# Velocity S-wave (km/s) = -5.10907 4.10086 -2.15471
# Velocity P-wave (km/s) = 7.55901 6.47015 2.76366
#
# Compressibility (1/GPa) = -0.02011662
#
# Stress axis : x y z
#
# Youngs Moduli (GPa) = 175.84455 173.18399 -17.60394
#
# Poissons Ratio (x) = -0.34908 0.35742
# Poissons Ratio (y) = -0.35445 -0.17085
# Poissons Ratio (z) = -3.57022 1.68075
#
# Static dielectric constant tensor:
#      x y z
#    x 2.003460 -0.008950 -0.036900 
#    y -0.008950 1.839470 0.061940 
#    z -0.036900 0.061940 2.044280 
# 
# From -- ./inp_files/383348.got.cif
#   From: 2010.05.17/outbox.ucp.g08.bks.cvg/sg2_192_cif.got.tgz:383348.got - 2010.06.11 11:32:03.
