data_PCOD9074065
_publ_section_title
;
Structure prediction by ZEFSAII (Michael W. Deem and Ramdas Pophale) SiO2 
 PCOD9074065
Probable space group: P -1
;
_chemical_formula_sum "Si O2"
_cell_formula_units_Z 16
_cell_length_a 12.000000
_cell_length_b 9.000000
_cell_length_c 9.000000
_cell_angle_alpha 110.000000
_cell_angle_beta 70.000000
_cell_angle_gamma 70.000000
_cell_volume 733.231569
_symmetry_space_group_name_H-M "P -1"
_symmetry_group_IT_number 2
_symmetry_cell_setting 'triclinic'
loop_
_space_group_symop_operation_xyz
x,y,z
-x,-y,-z
loop_
_atom_site_type_symbol
_atom_site_label
_atom_site_fract_x
_atom_site_fract_y
_atom_site_fract_z
Si Si1 0.171711 0.911924 0.321618
Si Si2 0.016340 0.723921 0.326945
Si Si3 0.126121 0.483880 0.631407
Si Si4 0.585529 0.364806 0.045746
Si Si5 0.063192 0.082301 0.114279
Si Si6 0.217718 0.478642 0.915156
Si Si7 0.593992 0.761798 0.751863
Si Si8 0.329400 0.112961 0.937636
O O1 0.138150 0.757519 0.339927
O O2 0.120342 0.074548 0.518675
O O3 0.084529 0.992006 0.236204
O O4 0.322550 0.823386 0.155139
O O5 0.979011 0.587591 0.378219
O O6 0.073518 0.633579 0.110283
O O7 0.182261 0.434328 0.757087
O O8 0.263200 0.381459 0.437932
O O9 0.043740 0.702669 0.738310
O O10 0.682985 0.433732 0.097540
O O11 0.487731 0.337347 0.190369
O O12 0.500000 0.500000 0.000000
O O13 0.207340 0.065090 0.987389
O O14 0.000000 0.000000 0.000000
O O15 0.282365 0.293462 0.921060
O O16 0.478073 0.933965 0.766141
O O17 0.640562 0.835966 0.895853
#
# Coordination Sequence:
#
# PCOD9074065 Si02
#       8
#     2   2   2   2   2   2   2   2
#     4  10  23  40  67 100 132 177 230 287 341 399
#     4  10  22  41  67  97 133 171 234 281 335 406
#     4  12  27  41  70 103 139 178 231 282 347 409
#     4  11  22  43  69  94 137 179 230 276 341 409
#     4  12  25  43  67 100 138 182 223 293 341 400
#     4  11  24  43  68  98 134 185 223 286 338 401
#     4  11  26  45  69 106 134 182 229 282 339 415
#     4  11  24  45  72  95 140 179 232 278 342 404
#
# _framework density 21.821210000000001
#
# number of rings (size 3 to 8) (size 9 to 14) (size 15 to 20)
#    0.000    1.000    3.750    2.625    5.250    3.000 
#    0.000    0.000    0.000    0.000    0.000    0.000 
#    0.000    0.000    0.000    0.000    0.000    0.000 
#
# Total GULP energy -89375.843221 kJ/mol
# GULP energy per Si atom -5585.990201 kJ/mol
# Density = 2.177154 g / cm^3
# Si number density = 21.821210 Si / 1000 Ang^3
#
#
#
# Elastic Constant Matrix: (Units=GPa)
#
#
# Indices 1 2 3 4 5 6 
#
# 1 103.7708 46.0508 28.2858 -0.7681 -10.3918 22.1486
# 2 46.0508 107.1878 48.7399 15.3944 -4.5957 7.6474
# 3 28.2858 48.7399 74.5971 8.8601 -24.8323 3.5152
# 4 -0.7681 15.3944 8.8601 24.3627 2.4947 -3.4288
# 5 -10.3918 -4.5957 -24.8323 2.4947 29.9963 -3.8032
# 6 22.1486 7.6474 3.5152 -3.4288 -3.8032 49.4738
#
#
#
# Elastic Compliance Matrix: (Units=1/GPa)
#
#
# Indices 1 2 3 4 5 6 
#
# 1 0.013579 -0.005376 -0.001120 0.003348 0.002069 -0.004778
# 2 -0.005376 0.017315 -0.011161 -0.006308 -0.007992 -0.000528
# 3 -0.001120 -0.011161 0.029354 -0.005790 0.022874 0.001498
# 4 0.003348 -0.006308 -0.005790 0.048460 -0.008299 0.002608
# 5 0.002069 -0.007992 0.022874 -0.008299 0.052730 0.002162
# 6 -0.004778 -0.000528 0.001498 0.002608 0.002162 0.022674
#
#
# Mechanical properties :
#
#
# Convention : Reuss Voigt Hill
#
# Bulk Modulus (GPa) = 40.10614 59.07875 49.59244
# Shear Modulus (GPa) = 21.95499 31.59851 26.77675
#
# Velocity S-wave (km/s) = 3.17540 3.80947 3.50680
# Velocity P-wave (km/s) = 5.64478 6.81779 6.25882
#
# Compressibility (1/GPa) = 0.02493384
#
# Stress axis : x y z
#
# Youngs Moduli (GPa) = 73.64094 57.75290 34.06694
#
# Poissons Ratio (x) = 0.31048 0.03817
# Poissons Ratio (y) = 0.39589 0.38022
# Poissons Ratio (z) = 0.08250 0.64458
#
# Static dielectric constant tensor:
#      x y z
#    x 1.814040 -0.047090 -0.050950 
#    y -0.047090 1.977330 0.040790 
#    z -0.050950 0.040790 1.809730 
# 
# From -- ./inp_files/244974.got.cif
#   From: 2010.05.17/outbox.ucp.g08.bks.cvg/sg2_123_cif.got.tgz:244974.got - 2010.06.11 11:32:03.
