data_PCOD9074818
_publ_section_title
;
Structure prediction by ZEFSAII (Michael W. Deem and Ramdas Pophale) SiO2 
 PCOD9074818
Probable space group: P -1
;
_chemical_formula_sum "Si O2"
_cell_formula_units_Z 14
_cell_length_a 24.000000
_cell_length_b 9.000000
_cell_length_c 9.000000
_cell_angle_alpha 130.000000
_cell_angle_beta 140.000000
_cell_angle_gamma 30.000000
_cell_volume 623.501542
_symmetry_space_group_name_H-M "P -1"
_symmetry_group_IT_number 2
_symmetry_cell_setting 'triclinic'
loop_
_space_group_symop_operation_xyz
x,y,z
-x,-y,-z
loop_
_atom_site_type_symbol
_atom_site_label
_atom_site_fract_x
_atom_site_fract_y
_atom_site_fract_z
Si Si1 0.496770 0.226213 0.699143
Si Si2 0.243389 0.836444 0.267972
Si Si3 0.688519 0.870993 0.311713
Si Si4 0.046461 0.786709 0.097762
Si Si5 0.736531 0.646150 0.955919
Si Si6 0.411775 0.545910 0.142801
Si Si7 0.749321 0.433302 0.384097
O O1 0.530670 0.357042 0.754729
O O2 0.357553 0.465885 0.651220
O O3 0.500000 0.000000 0.500000
O O4 0.615654 0.000191 0.914480
O O5 0.353365 0.696013 0.279529
O O6 0.247501 0.022442 0.494740
O O7 0.282948 0.555377 0.232089
O O8 0.092250 0.076085 0.054132
O O9 0.759179 0.631414 0.168595
O O10 0.713697 0.701316 0.404364
O O11 0.530105 0.185203 0.170187
O O12 0.117311 0.763921 0.371170
O O13 0.158837 0.474768 0.037352
O O14 0.000000 0.000000 0.000000
O O15 0.283910 0.666534 0.876502
#
# Coordination Sequence:
#
# PCOD9074818 Si02
#       7
#     2   2   2   2   2   2   2
#     4  12  23  40  72 105 143 179 233 297 355 411
#     4  11  25  47  69 101 148 187 236 283 351 419
#     4  12  25  44  76 106 143 183 232 301 351 417
#     4  10  26  47  73  98 143 193 233 290 343 423
#     4  11  23  46  70 105 138 185 233 291 352 412
#     4  12  25  43  72 113 141 180 235 298 357 412
#     4  12  24  45  72 104 142 184 234 286 358 417
#
# _framework density 22.453834000000001
#
# number of rings (size 3 to 8) (size 9 to 14) (size 15 to 20)
#    0.000    0.571    4.286    3.857    2.000    1.714 
#    0.000    0.000    0.000    0.000    0.000    0.000 
#    0.000    0.000    0.000    0.000    0.000    0.000 
#
# Total GULP energy -78048.856096 kJ/mol
# GULP energy per Si atom -5574.918293 kJ/mol
# Density = 2.240273 g / cm^3
# Si number density = 22.453834 Si / 1000 Ang^3
#
#
#
# Elastic Constant Matrix: (Units=GPa)
#
#
# Indices 1 2 3 4 5 6 
#
# 1 114.8869 32.3899 21.1594 -1.5391 13.4279 16.4577
# 2 32.3899 42.5241 38.8888 -0.7094 8.9062 20.1234
# 3 21.1594 38.8888 108.3464 -12.4266 4.6999 -0.2817
# 4 -1.5391 -0.7094 -12.4266 47.6772 -2.1929 1.8287
# 5 13.4279 8.9062 4.6999 -2.1929 37.6876 -2.0535
# 6 16.4577 20.1234 -0.2817 1.8287 -2.0535 44.8607
#
#
#
# Elastic Compliance Matrix: (Units=1/GPa)
#
#
# Indices 1 2 3 4 5 6 
#
# 1 0.011356 -0.009381 0.001289 0.000475 -0.001966 -0.000059
# 2 -0.009381 0.065081 -0.021630 -0.004474 -0.011029 -0.026211
# 3 0.001289 -0.021630 0.017079 0.003964 0.003261 0.009325
# 4 0.000475 -0.004474 0.003964 0.021996 0.001730 0.001040
# 5 -0.001966 -0.011029 0.003261 0.001730 0.029915 0.006988
# 6 -0.000059 -0.026211 0.009325 0.001040 0.006988 0.034406
#
#
# Mechanical properties :
#
#
# Convention : Reuss Voigt Hill
#
# Bulk Modulus (GPa) = 29.34986 50.07039 39.71013
# Shear Modulus (GPa) = 19.94927 37.59973 28.77450
#
# Velocity S-wave (km/s) = 2.98393 4.09655 3.58368
# Velocity P-wave (km/s) = 4.99714 6.68755 5.90316
#
# Compressibility (1/GPa) = 0.03407171
#
# Stress axis : x y z
#
# Youngs Moduli (GPa) = 88.05817 15.36547 58.55083
#
# Poissons Ratio (x) = 0.14414 -0.07546
# Poissons Ratio (y) = 0.82604 1.26648
# Poissons Ratio (z) = -0.11349 0.33236
#
# Static dielectric constant tensor:
#      x y z
#    x 1.827330 -0.030140 -0.043720 
#    y -0.030140 1.917850 -0.034510 
#    z -0.043720 -0.034510 2.014210 
# 
# From -- ./inp_files/186142.got.cif
#   From: 2010.05.17/outbox.ucp.g08.bks.cvg/sg2_94_cif.got.tgz:186142.got - 2010.06.11 11:32:03.
