data_PCOD9074947
_publ_section_title
;
Structure prediction by ZEFSAII (Michael W. Deem and Ramdas Pophale) SiO2 
 PCOD9074947
Probable space group: P -1
;
_chemical_formula_sum "Si O2"
_cell_formula_units_Z 12
_cell_length_a 9.000000
_cell_length_b 9.000000
_cell_length_c 12.000000
_cell_angle_alpha 90.000000
_cell_angle_beta 40.000000
_cell_angle_gamma 70.000000
_cell_volume 529.002133
_symmetry_space_group_name_H-M "P -1"
_symmetry_group_IT_number 2
_symmetry_cell_setting 'triclinic'
loop_
_space_group_symop_operation_xyz
x,y,z
-x,-y,-z
loop_
_atom_site_type_symbol
_atom_site_label
_atom_site_fract_x
_atom_site_fract_y
_atom_site_fract_z
Si Si1 0.097583 0.662332 0.542872
Si Si2 0.573516 0.715785 0.750258
Si Si3 0.043326 0.531991 0.807056
Si Si4 0.644297 0.920652 0.534150
Si Si5 0.552797 0.725361 0.242833
Si Si6 0.787593 0.320718 0.872812
O O1 0.254719 0.491447 0.373064
O O2 0.254235 0.756431 0.420302
O O3 0.777982 0.754293 0.699920
O O4 0.129387 0.603497 0.653788
O O5 0.549005 0.798110 0.643426
O O6 0.314052 0.757126 0.972665
O O7 0.983805 0.384918 0.802775
O O8 0.266950 0.440053 0.776134
O O9 0.743271 0.673416 0.025634
O O10 0.976551 0.829480 0.342233
O O11 0.500000 0.000000 0.500000
O O12 0.495926 0.092349 0.693647
O O13 0.500000 0.500000 0.000000
#
# Coordination Sequence:
#
# PCOD9074947 Si02
#       6
#     2   2   2   2   2   2
#     4  11  21  41  68  96 130 175 226 265 325 396
#     4  11  23  39  70  99 127 179 222 265 331 398
#     4  11  22  42  68  96 132 177 222 266 331 394
#     4  12  26  46  65 101 137 171 220 279 331 388
#     4  11  25  41  65  99 135 173 218 278 327 386
#     4  12  22  44  73  96 130 178 222 271 326 400
#
# _framework density 22.684218999999999
#
# number of rings (size 3 to 8) (size 9 to 14) (size 15 to 20)
#    0.000    0.667    6.667    1.500    0.000    2.667 
#    0.000    1.667    0.000    0.000    0.000    0.000 
#    0.000    0.000    0.000    0.000    0.000    0.000 
#
# Total GULP energy -66898.426614 kJ/mol
# GULP energy per Si atom -5574.868884 kJ/mol
# Density = 2.263259 g / cm^3
# Si number density = 22.684219 Si / 1000 Ang^3
#
#
#
# Elastic Constant Matrix: (Units=GPa)
#
#
# Indices 1 2 3 4 5 6 
#
# 1 35.9197 2.9756 -4.2716 -11.4689 1.0167 -14.2755
# 2 2.9756 45.7726 21.0837 -9.8324 -0.8340 -12.1209
# 3 -4.2716 21.0837 137.3910 -27.3314 12.2692 -9.3444
# 4 -11.4689 -9.8324 -27.3314 33.5129 5.9960 4.0429
# 5 1.0167 -0.8340 12.2692 5.9960 20.4942 -0.2903
# 6 -14.2755 -12.1209 -9.3444 4.0429 -0.2903 35.2507
#
#
#
# Elastic Compliance Matrix: (Units=1/GPa)
#
#
# Indices 1 2 3 4 5 6 
#
# 1 0.042887 0.002884 0.007572 0.021824 -0.012677 0.017759
# 2 0.002884 0.026311 -0.002291 0.005616 0.000783 0.008970
# 3 0.007572 -0.002291 0.011720 0.013031 -0.011244 0.003799
# 4 0.021824 0.005616 0.013031 0.052922 -0.024026 0.007956
# 5 -0.012677 0.000783 -0.011244 -0.024026 0.063151 -0.004570
# 6 0.017759 0.008970 0.003799 0.007956 -0.004570 0.038701
#
#
# Mechanical properties :
#
#
# Convention : Reuss Voigt Hill
#
# Bulk Modulus (GPa) = 10.28292 28.73987 19.51139
# Shear Modulus (GPa) = 19.85884 31.13794 25.49839
#
# Velocity S-wave (km/s) = 2.96201 3.70898 3.35634
# Velocity P-wave (km/s) = 4.03000 5.57127 4.86209
#
# Compressibility (1/GPa) = 0.09724869
#
# Stress axis : x y z
#
# Youngs Moduli (GPa) = 23.31734 38.00744 85.32259
#
# Poissons Ratio (x) = -0.10961 -0.64608
# Poissons Ratio (y) = -0.06725 0.19543
# Poissons Ratio (z) = -0.17656 0.08706
#
# Static dielectric constant tensor:
#      x y z
#    x 1.835690 0.116550 -0.288880 
#    y 0.116550 1.736550 0.313570 
#    z -0.288880 0.313570 0.977050 
# 
# From -- ./inp_files/148539.got.cif
#   From: 2010.05.17/outbox.ucp.g08.bks.cvg/sg2_75_cif.got.tgz:148539.got - 2010.06.11 11:32:03.
