data_PCOD9074474
_publ_section_title
;
Structure prediction by ZEFSAII (Michael W. Deem and Ramdas Pophale) SiO2 
 PCOD9074474
Probable space group: P -1
;
_chemical_formula_sum "Si O2"
_cell_formula_units_Z 14
_cell_length_a 19.953554
_cell_length_b 17.237636
_cell_length_c 7.498674
_cell_angle_alpha 41.701989
_cell_angle_beta 42.296011
_cell_angle_gamma 21.137093
_cell_volume 608.565554
_symmetry_space_group_name_H-M "P -1"
_symmetry_group_IT_number 2
_symmetry_cell_setting 'triclinic'
loop_
_space_group_symop_operation_xyz
x,y,z
-x,-y,-z
loop_
_atom_site_type_symbol
_atom_site_label
_atom_site_fract_x
_atom_site_fract_y
_atom_site_fract_z
Si Si1 0.285500 0.753208 0.960842
Si Si2 0.910055 0.096148 0.284573
Si Si3 0.652228 0.776663 0.464587
Si Si4 0.637250 0.099054 0.287556
Si Si5 0.758391 0.489962 0.053874
Si Si6 0.934044 0.663019 0.210410
Si Si7 0.587385 0.285493 0.720384
O O1 0.192578 0.797715 0.887625
O O2 0.285849 0.894524 0.720589
O O3 0.500000 0.500000 0.000000
O O4 0.134654 0.863340 0.218588
O O5 0.806452 0.087640 0.588596
O O6 0.858777 0.268402 0.186235
O O7 0.527071 0.831548 0.472259
O O8 0.739945 0.590114 0.741749
O O9 0.811714 0.714393 0.216668
O O10 0.500000 0.000000 0.500000
O O11 0.798306 0.877035 0.234089
O O12 0.559845 0.268699 0.003193
O O13 0.886496 0.438136 0.023521
O O14 0.542591 0.670995 0.216358
O O15 0.000000 0.500000 0.500000
O O16 0.500000 0.500000 0.500000
#
# Coordination Sequence:
#
# PCOD9074474 Si02
#       7
#     2   2   2   2   2   2   2
#     4  11  21  34  51  73 107 143 181 205 246 311
#     4  10  21  35  49  74 111 139 171 209 252 313
#     4   8  15  25  45  72 101 123 160 212 262 295
#     4  10  18  32  51  77 105 130 170 214 256 309
#     4   9  15  30  48  71 106 131 162 211 260 304
#     4   9  16  28  48  79 102 124 164 218 269 298
#     4   9  18  32  49  73 106 140 165 208 261 307
#
# _framework density 23.004916000000001
#
# number of rings (size 3 to 8) (size 9 to 14) (size 15 to 20)
#    0.000    2.571    1.429    2.571    0.000    0.571 
#    2.571    0.000    0.000    0.000    0.000   38.000 
#    0.000    0.000    0.000    0.000    0.000    0.000 
#
# Total GULP energy -78007.608228 kJ/mol
# GULP energy per Si atom -5571.972016 kJ/mol
# Density = 2.295256 g / cm^3
# Si number density = 23.004916 Si / 1000 Ang^3
#
#
#
# Elastic Constant Matrix: (Units=GPa)
#
#
# Indices 1 2 3 4 5 6 
#
# 1 89.6602 35.8608 48.5659 25.5569 -47.8069 -25.5031
# 2 35.8608 101.4359 33.6324 12.1417 -19.2305 -20.8402
# 3 48.5659 33.6324 59.8105 16.0180 -38.8157 -9.4690
# 4 25.5569 12.1417 16.0180 43.8184 -23.1194 -18.1432
# 5 -47.8069 -19.2305 -38.8157 -23.1194 51.1611 15.5610
# 6 -25.5031 -20.8402 -9.4690 -18.1432 15.5610 31.7758
#
#
#
# Elastic Compliance Matrix: (Units=1/GPa)
#
#
# Indices 1 2 3 4 5 6 
#
# 1 0.028891 -0.001148 -0.011908 0.000212 0.013919 0.012192
# 2 -0.001148 0.013936 -0.008873 0.001115 -0.004643 0.008485
# 3 -0.011908 -0.008873 0.044365 -0.000196 0.023264 -0.013660
# 4 0.000212 0.001115 -0.000196 0.034821 0.011633 0.015028
# 5 0.013919 -0.004643 0.023264 0.011633 0.055360 -0.005409
# 6 0.012192 0.008485 -0.013660 0.015028 -0.005409 0.053979
#
#
# Mechanical properties :
#
#
# Convention : Reuss Voigt Hill
#
# Bulk Modulus (GPa) = 23.07550 54.11387 38.59468
# Shear Modulus (GPa) = 17.26199 34.20757 25.73478
#
# Velocity S-wave (km/s) = 2.74224 3.86031 3.34827
# Velocity P-wave (km/s) = 4.48096 6.59114 5.63569
#
# Compressibility (1/GPa) = 0.04333600
#
# Stress axis : x y z
#
# Youngs Moduli (GPa) = 34.61246 71.75857 22.54004
#
# Poissons Ratio (x) = 0.08235 0.26840
# Poissons Ratio (y) = 0.03972 0.19999
# Poissons Ratio (z) = 0.41216 0.63670
#
# Static dielectric constant tensor:
#      x y z
#    x 1.962180 -0.047430 -0.032090 
#    y -0.047430 1.810870 0.111570 
#    z -0.032090 0.111570 1.859300 
# 
# From -- ./inp_files/319045.got.cif
#   From: 2010.05.17/outbox.cif.g08.bks.cpg/sg2_160_cif.got.tgz:319045.got - 2010.06.03 11:33:40.
