data_PCOD9074784
_publ_section_title
;
Structure prediction by ZEFSAII (Michael W. Deem and Ramdas Pophale) SiO2 
 PCOD9074784
Probable space group: P -1
;
_chemical_formula_sum "Si O2"
_cell_formula_units_Z 16
_cell_length_a 25.163048
_cell_length_b 10.924461
_cell_length_c 13.987520
_cell_angle_alpha 40.578672
_cell_angle_beta 152.408265
_cell_angle_gamma 156.497716
_cell_volume 680.064536
_symmetry_space_group_name_H-M "P -1"
_symmetry_group_IT_number 2
_symmetry_cell_setting 'triclinic'
loop_
_space_group_symop_operation_xyz
x,y,z
-x,-y,-z
loop_
_atom_site_type_symbol
_atom_site_label
_atom_site_fract_x
_atom_site_fract_y
_atom_site_fract_z
Si Si1 0.117771 0.568988 0.290861
Si Si2 0.468870 0.709708 0.504986
Si Si3 0.315985 0.441663 0.690673
Si Si4 0.092635 0.814510 0.279128
Si Si5 0.296183 0.859509 0.150548
Si Si6 0.382808 0.160463 0.702788
Si Si7 0.301943 0.472584 0.167748
Si Si8 0.379303 0.126837 0.929249
O O1 0.165933 0.412466 0.466582
O O2 0.097932 0.644352 0.317560
O O3 0.914351 0.334263 0.052123
O O4 0.310590 0.924750 0.342035
O O5 0.423412 0.436783 0.622179
O O6 0.427739 0.660135 0.354075
O O7 0.323043 0.678963 0.329038
O O8 0.257631 0.158008 0.731923
O O9 0.404225 0.539388 0.881171
O O10 0.506285 0.759154 0.742309
O O11 0.191031 0.893339 0.490008
O O12 0.222660 0.152279 0.236817
O O13 0.886932 0.645511 0.066929
O O14 0.311793 0.889634 0.041093
O O15 0.559494 0.321283 0.824390
O O16 0.371878 0.055387 0.851678
#
# Coordination Sequence:
#
# PCOD9074784 Si02
#       8
#     2   2   2   2   2   2   2   2
#     4  11  17  33  61  80 104 144 186 217 266 324
#     4  10  18  32  56  83 109 143 181 212 268 328
#     4   8  20  40  59  75  99 152 188 220 268 328
#     4  10  19  31  53  85 112 144 182 211 266 334
#     4   9  19  35  58  79 104 142 185 223 260 329
#     4  11  20  34  56  84 115 142 174 230 270 312
#     4  10  18  32  52  79 115 154 174 208 267 332
#     4   9  20  42  56  78 109 140 189 227 269 318
#
# _framework density 23.527179
#
# number of rings (size 3 to 8) (size 9 to 14) (size 15 to 20)
#    0.750    1.500    3.750    0.750    0.000    0.500 
#    2.250    5.625    0.000    1.500    0.000    0.000 
#    0.000    0.000    0.000    0.000    0.000    0.000 
#
# Total GULP energy -89377.614127 kJ/mol
# GULP energy per Si atom -5586.100883 kJ/mol
# Density = 2.347363 g / cm^3
# Si number density = 23.527179 Si / 1000 Ang^3
#
#
#
# Elastic Constant Matrix: (Units=GPa)
#
#
# Indices 1 2 3 4 5 6 
#
# 1 98.8721 14.2012 50.6512 -7.1389 -13.1066 2.6138
# 2 14.2012 54.3142 33.9372 -13.3040 5.9237 -11.3339
# 3 50.6512 33.9372 161.7012 7.6531 24.0462 -0.3526
# 4 -7.1389 -13.3040 7.6531 35.7537 -5.6672 0.6460
# 5 -13.1066 5.9237 24.0462 -5.6672 37.2834 -13.7637
# 6 2.6138 -11.3339 -0.3526 0.6460 -13.7637 37.3991
#
#
#
# Elastic Compliance Matrix: (Units=1/GPa)
#
#
# Indices 1 2 3 4 5 6 
#
# 1 0.015870 0.001857 -0.007605 0.007442 0.012781 0.003957
# 2 0.001857 0.027703 -0.008120 0.013409 0.007480 0.010710
# 3 -0.007605 -0.008120 0.012688 -0.009261 -0.013405 -0.006583
# 4 0.007442 0.013409 -0.009261 0.038727 0.015477 0.008483
# 5 0.012781 0.007480 -0.013405 0.015477 0.048008 0.018648
# 6 0.003957 0.010710 -0.006583 0.008483 0.018648 0.036362
#
#
# Mechanical properties :
#
#
# Convention : Reuss Voigt Hill
#
# Bulk Modulus (GPa) = 35.05577 56.94074 45.99825
# Shear Modulus (GPa) = 23.08372 36.49377 29.78875
#
# Velocity S-wave (km/s) = 3.13573 3.94271 3.56215
# Velocity P-wave (km/s) = 5.29555 6.70681 6.04252
#
# Compressibility (1/GPa) = 0.02852598
#
# Stress axis : x y z
#
# Youngs Moduli (GPa) = 63.01004 36.09738 78.81478
#
# Poissons Ratio (x) = -0.06704 0.59941
# Poissons Ratio (y) = -0.11702 0.63994
# Poissons Ratio (z) = 0.47921 0.29310
#
# Static dielectric constant tensor:
#      x y z
#    x 1.945660 0.016000 -0.033330 
#    y 0.016000 1.920180 0.033430 
#    z -0.033330 0.033430 1.884880 
# 
# From -- ./inp_files/521599.got.cif
#   From: 2010.05.17/outbox.cif.g08.bks.cpg/sg2_261_cif.got.tgz:521599.got - 2010.06.03 11:33:40.
