data_PCOD9074295
_publ_section_title
;
Structure prediction by ZEFSAII (Michael W. Deem and Ramdas Pophale) SiO2 
 PCOD9074295
Probable space group: P -1
;
_chemical_formula_sum "Si O2"
_cell_formula_units_Z 16
_cell_length_a 12.000000
_cell_length_b 6.000000
_cell_length_c 27.000000
_cell_angle_alpha 120.000000
_cell_angle_beta 30.000000
_cell_angle_gamma 130.000000
_cell_volume 736.400153
_symmetry_space_group_name_H-M "P -1"
_symmetry_group_IT_number 2
_symmetry_cell_setting 'triclinic'
loop_
_space_group_symop_operation_xyz
x,y,z
-x,-y,-z
loop_
_atom_site_type_symbol
_atom_site_label
_atom_site_fract_x
_atom_site_fract_y
_atom_site_fract_z
Si Si1 0.300521 0.629152 0.314735
Si Si2 0.576255 0.847029 0.814422
Si Si3 0.676382 0.878507 0.893108
Si Si4 0.166516 0.500616 0.777904
Si Si5 0.746686 0.341131 0.441860
Si Si6 0.709818 0.841321 0.572816
Si Si7 0.779762 0.076185 0.110126
Si Si8 0.050682 0.474822 0.239368
O O1 0.366448 0.364690 0.266463
O O2 0.004817 0.448329 0.388792
O O3 0.327786 0.861367 0.373841
O O4 0.519389 0.829752 0.211510
O O5 0.568242 0.774769 0.867727
O O6 0.325971 0.841813 0.888879
O O7 0.805148 0.180071 0.764390
O O8 0.729558 0.619135 0.862900
O O9 0.964069 0.155489 0.816343
O O10 0.500000 0.000000 0.000000
O O11 0.468635 0.607825 0.672539
O O12 0.111252 0.657838 0.862570
O O13 0.106032 0.600117 0.759460
O O14 0.690932 0.617095 0.509158
O O15 0.859314 0.342433 0.344297
O O16 0.500000 0.000000 0.500000
O O17 0.000000 0.000000 0.500000
O O18 0.000000 0.000000 0.000000
#
# Coordination Sequence:
#
# PCOD9074295 Si02
#       8
#     2   2   2   2   2   2   2   2
#     4  10  22  46  65 100 144 176 227 288 344 408
#     4  11  23  43  73  96 139 186 231 281 348 406
#     4  11  25  42  70 101 140 180 230 287 353 413
#     4  10  25  42  66 101 139 178 229 284 348 407
#     4  11  21  41  76 101 136 178 235 285 347 415
#     4   9  21  42  67  95 139 177 223 287 341 406
#     4  11  25  43  72  99 139 183 234 281 342 418
#     4  11  24  44  68 101 144 174 229 294 346 408
#
# _framework density 21.727318
#
# number of rings (size 3 to 8) (size 9 to 14) (size 15 to 20)
#    0.000    1.500    2.500    0.750    7.000    4.000 
#    0.000    0.625    0.000    0.000    0.000    0.000 
#    0.000    0.000    0.000    0.000    0.000    0.000 
#
# Total GULP energy -89096.345330 kJ/mol
# GULP energy per Si atom -5568.521583 kJ/mol
# Density = 2.167787 g / cm^3
# Si number density = 21.727318 Si / 1000 Ang^3
#
#
#
# Elastic Constant Matrix: (Units=GPa)
#
#
# Indices 1 2 3 4 5 6 
#
# 1 80.8509 23.7069 7.2770 4.2155 -8.9050 24.0810
# 2 23.7069 125.8908 24.5059 21.7030 -10.0528 27.5991
# 3 7.2770 24.5059 100.8485 26.7361 -16.1647 2.0273
# 4 4.2155 21.7030 26.7361 48.0347 8.6103 -0.1962
# 5 -8.9050 -10.0528 -16.1647 8.6103 32.5236 7.2358
# 6 24.0810 27.5991 2.0273 -0.1962 7.2358 36.3973
#
#
#
# Elastic Compliance Matrix: (Units=1/GPa)
#
#
# Indices 1 2 3 4 5 6 
#
# 1 0.017781 0.001388 0.001826 -0.005229 0.010954 -0.015124
# 2 0.001388 0.012300 0.000715 -0.007796 0.009310 -0.012178
# 3 0.001826 0.000715 0.014428 -0.010652 0.011815 -0.004960
# 4 -0.005229 -0.007796 -0.010652 0.034644 -0.021517 0.014429
# 5 0.010954 0.009310 0.011815 -0.021517 0.053934 -0.025803
# 6 -0.015124 -0.012178 -0.004960 0.014429 -0.025803 0.052199
#
#
# Mechanical properties :
#
#
# Convention : Reuss Voigt Hill
#
# Bulk Modulus (GPa) = 19.09619 46.50778 32.80199
# Shear Modulus (GPa) = 25.65633 40.19781 32.92707
#
# Velocity S-wave (km/s) = 3.44005 4.30595 3.89713
# Velocity P-wave (km/s) = 4.95850 6.79509 5.94811
#
# Compressibility (1/GPa) = 0.05236646
#
# Stress axis : x y z
#
# Youngs Moduli (GPa) = 56.24004 81.30056 69.31014
#
# Poissons Ratio (x) = -0.11286 -0.12655
# Poissons Ratio (y) = -0.07807 -0.04955
# Poissons Ratio (z) = -0.10268 -0.05812
#
# Static dielectric constant tensor:
#      x y z
#    x 1.829630 -0.074260 0.001610 
#    y -0.074260 1.863710 -0.010120 
#    z 0.001610 -0.010120 1.820530 
# 
# From -- ./inp_files/617932.got.cif
#   From: 2010.05.17/outbox.ucp.g08.bks.cvg/sg2_309_cif.got.tgz:617932.got - 2010.06.11 11:32:03.
