data_PCOD9074931
_publ_section_title
;
Structure prediction by ZEFSAII (Michael W. Deem and Ramdas Pophale) SiO2 
 PCOD9074931
Probable space group: P -1
;
_chemical_formula_sum "Si O2"
_cell_formula_units_Z 14
_cell_length_a 12.000000
_cell_length_b 12.000000
_cell_length_c 15.000000
_cell_angle_alpha 150.000000
_cell_angle_beta 40.000000
_cell_angle_gamma 130.000000
_cell_volume 692.779491
_symmetry_space_group_name_H-M "P -1"
_symmetry_group_IT_number 2
_symmetry_cell_setting 'triclinic'
loop_
_space_group_symop_operation_xyz
x,y,z
-x,-y,-z
loop_
_atom_site_type_symbol
_atom_site_label
_atom_site_fract_x
_atom_site_fract_y
_atom_site_fract_z
Si Si1 0.828809 0.551109 0.742029
Si Si2 0.975218 0.872990 0.581738
Si Si3 0.094095 0.978207 0.071638
Si Si4 0.712486 0.812637 0.158376
Si Si5 0.508323 0.523129 0.216292
Si Si6 0.415273 0.802045 0.628013
Si Si7 0.721743 0.051295 0.700785
O O1 0.903477 0.771335 0.801460
O O2 0.683981 0.467691 0.704910
O O3 0.969722 0.367547 0.570433
O O4 0.717337 0.629682 0.950871
O O5 0.907373 0.004741 0.806264
O O6 0.148059 0.916247 0.442869
O O7 0.828589 0.932592 0.636518
O O8 0.911183 0.871347 0.092508
O O9 0.249352 0.836454 0.822703
O O10 0.619251 0.711907 0.230990
O O11 0.623635 0.028481 0.313712
O O12 0.472234 0.575766 0.380430
O O13 0.618113 0.285688 0.960519
O O14 0.576592 0.890655 0.644518
#
# Coordination Sequence:
#
# PCOD9074931 Si02
#       7
#     2   2   2   2   2   2   2
#     4  11  21  41  73 101 131 175 225 280 341 389
#     4  11  24  43  69  96 138 181 223 277 334 400
#     4  11  24  42  67 103 140 171 222 285 338 395
#     4  11  21  40  69 103 138 166 234 282 326 396
#     4  12  22  43  74 100 131 181 227 278 331 397
#     4  11  23  41  67  99 139 171 224 277 338 394
#     4  11  24  47  66 102 135 181 226 275 330 407
#
# _framework density 20.208449999999999
#
# number of rings (size 3 to 8) (size 9 to 14) (size 15 to 20)
#    0.000    0.857    4.286    5.571    0.000    1.714 
#    2.571    2.857    0.000    0.000    0.000    0.000 
#    0.000    0.000    0.000    0.000    0.000    0.000 
#
# Total GULP energy -78040.405053 kJ/mol
# GULP energy per Si atom -5574.314647 kJ/mol
# Density = 2.016246 g / cm^3
# Si number density = 20.208450 Si / 1000 Ang^3
#
#
#
# Elastic Constant Matrix: (Units=GPa)
#
#
# Indices 1 2 3 4 5 6 
#
# 1 145.2458 49.9863 51.2413 -13.3576 7.3951 5.6765
# 2 49.9863 91.1425 24.9433 -19.9355 8.3743 4.3702
# 3 51.2413 24.9433 131.8617 -26.5774 21.5605 -3.6817
# 4 -13.3576 -19.9355 -26.5774 29.4448 -12.2828 7.2878
# 5 7.3951 8.3743 21.5605 -12.2828 41.4474 -6.7570
# 6 5.6765 4.3702 -3.6817 7.2878 -6.7570 37.7796
#
#
#
# Elastic Compliance Matrix: (Units=1/GPa)
#
#
# Indices 1 2 3 4 5 6 
#
# 1 0.009483 -0.004612 -0.003158 -0.001305 0.000352 -0.000884
# 2 -0.004612 0.015598 0.000782 0.009776 -0.000324 -0.002979
# 3 -0.003158 0.000782 0.010672 0.007630 -0.002979 -0.000581
# 4 -0.001305 0.009776 0.007630 0.052577 0.008431 -0.008826
# 5 0.000352 -0.000324 -0.002979 0.008431 0.028700 0.003201
# 6 -0.000884 -0.002979 -0.000581 -0.008826 0.003201 0.029165
#
#
# Mechanical properties :
#
#
# Convention : Reuss Voigt Hill
#
# Bulk Modulus (GPa) = 45.92025 68.95464 57.43745
# Shear Modulus (GPa) = 29.86325 37.87295 33.86810
#
# Velocity S-wave (km/s) = 3.84834 4.33380 4.09826
# Velocity P-wave (km/s) = 6.52065 7.69664 7.13292
#
# Compressibility (1/GPa) = 0.02177688
#
# Stress axis : x y z
#
# Youngs Moduli (GPa) = 105.45455 64.10981 93.70482
#
# Poissons Ratio (x) = 0.29567 0.29591
# Poissons Ratio (y) = 0.48635 -0.07327
# Poissons Ratio (z) = 0.33301 -0.05013
#
# Static dielectric constant tensor:
#      x y z
#    x 1.722730 0.022680 0.022960 
#    y 0.022680 1.711770 0.020970 
#    z 0.022960 0.020970 1.818480 
# 
# From -- ./inp_files/519321.got.cif
#   From: 2010.05.17/outbox.ucp.g08.bks.cvg/sg2_260_cif.got.tgz:519321.got - 2010.06.11 11:32:03.
