data_PCOD9074373
_publ_section_title
;
Structure prediction by ZEFSAII (Michael W. Deem and Ramdas Pophale) SiO2 
 PCOD9074373
Probable space group: P -1
;
_chemical_formula_sum "Si O2"
_cell_formula_units_Z 14
_cell_length_a 6.000000
_cell_length_b 9.000000
_cell_length_c 27.000000
_cell_angle_alpha 150.000000
_cell_angle_beta 110.000000
_cell_angle_gamma 60.000000
_cell_volume 617.235917
_symmetry_space_group_name_H-M "P -1"
_symmetry_group_IT_number 2
_symmetry_cell_setting 'triclinic'
loop_
_space_group_symop_operation_xyz
x,y,z
-x,-y,-z
loop_
_atom_site_type_symbol
_atom_site_label
_atom_site_fract_x
_atom_site_fract_y
_atom_site_fract_z
Si Si1 0.187797 0.848887 0.641663
Si Si2 0.762115 0.423224 0.029840
Si Si3 0.410191 0.802158 0.475579
Si Si4 0.446904 0.353927 0.820381
Si Si5 0.046306 0.763385 0.358154
Si Si6 0.161033 0.733924 0.820225
Si Si7 0.958338 0.985837 0.210458
O O1 0.381273 0.463220 0.548417
O O2 0.354664 0.066303 0.719387
O O3 0.061355 0.898073 0.700787
O O4 0.999424 0.979542 0.616948
O O5 0.728958 0.392192 0.077465
O O6 0.834924 0.729155 0.120931
O O7 0.500000 0.500000 0.000000
O O8 0.999957 0.103253 0.933463
O O9 0.288257 0.636768 0.378504
O O10 0.500000 0.000000 0.500000
O O11 0.192503 0.046284 0.566930
O O12 0.412321 0.541091 0.819082
O O13 0.727928 0.195386 0.822915
O O14 0.021187 0.457902 0.242640
O O15 0.183873 0.748976 0.766898
#
# Coordination Sequence:
#
# PCOD9074373 Si02
#       7
#     2   2   2   2   2   2   2
#     4  10  23  41  64  90 127 161 201 254 307 361
#     4  11  23  41  62  91 128 165 204 254 309 359
#     4  11  23  41  65  93 122 158 205 251 309 368
#     4  10  23  42  62  92 125 164 209 251 305 365
#     4  10  24  42  62  92 122 161 203 253 309 363
#     4  11  22  42  65  88 124 165 207 256 306 361
#     4  11  23  40  61  94 123 164 208 251 304 359
#
# _framework density 22.681764999999999
#
# number of rings (size 3 to 8) (size 9 to 14) (size 15 to 20)
#    0.000    1.429    1.429    3.000    2.000    5.714 
#    5.143    0.000    0.000    0.000    0.000    0.000 
#    0.000    0.000    0.000    0.000    0.000    0.000 
#
# Total GULP energy -78122.030775 kJ/mol
# GULP energy per Si atom -5580.145055 kJ/mol
# Density = 2.263014 g / cm^3
# Si number density = 22.681765 Si / 1000 Ang^3
#
#
#
# Elastic Constant Matrix: (Units=GPa)
#
#
# Indices 1 2 3 4 5 6 
#
# 1 16.2701 -0.7591 -6.0981 -6.5523 -9.0887 12.4653
# 2 -0.7591 159.3916 -6.5216 -8.9834 0.1757 33.5006
# 3 -6.0981 -6.5216 37.9393 -4.5882 -4.8854 3.6373
# 4 -6.5523 -8.9834 -4.5882 32.6981 -3.5298 0.1345
# 5 -9.0887 0.1757 -4.8854 -3.5298 21.9240 -14.6557
# 6 12.4653 33.5006 3.6373 0.1345 -14.6557 31.0417
#
#
#
# Elastic Compliance Matrix: (Units=1/GPa)
#
#
# Indices 1 2 3 4 5 6 
#
# 1 0.224079 0.030635 0.065787 0.067834 0.044751 -0.109919
# 2 0.030635 0.013851 0.011139 0.011279 -0.003264 -0.030145
# 3 0.065787 0.011139 0.047606 0.025013 0.018004 -0.035625
# 4 0.067834 0.011279 0.025013 0.053080 0.020005 -0.033128
# 5 0.044751 -0.003264 0.018004 0.020005 0.088102 0.024951
# 6 -0.109919 -0.030145 -0.035625 -0.033128 0.024951 0.124985
#
#
# Mechanical properties :
#
#
# Convention : Reuss Voigt Hill
#
# Bulk Modulus (GPa) = 1.99737 20.76038 11.37887
# Shear Modulus (GPa) = 9.93115 32.26477 21.09796
#
# Velocity S-wave (km/s) = 2.09475 3.77569 3.05318
# Velocity P-wave (km/s) = 2.59483 5.30854 4.17814
#
# Compressibility (1/GPa) = 0.50065767
#
# Stress axis : x y z
#
# Youngs Moduli (GPa) = 4.46270 72.19935 21.00597
#
# Poissons Ratio (x) = -2.21184 -1.38192
# Poissons Ratio (y) = -0.13672 -0.23398
# Poissons Ratio (z) = -0.29359 -0.80420
#
# Static dielectric constant tensor:
#      x y z
#    x 1.969130 0.008170 -0.050080 
#    y 0.008170 1.827070 0.017980 
#    z -0.050080 0.017980 1.881070 
# 
# From -- ./inp_files/37091.got.cif
#   From: 2010.05.17/outbox.ucp.g08.bks.cvg/sg2_19_cif.got.tgz:37091.got - 2010.06.11 11:32:03.
