data_PCOD9074105
_publ_section_title
;
Structure prediction by ZEFSAII (Michael W. Deem and Ramdas Pophale) SiO2 
 PCOD9074105
Probable space group: P -1
;
_chemical_formula_sum "Si O2"
_cell_formula_units_Z 14
_cell_length_a 12.454682
_cell_length_b 12.911884
_cell_length_c 14.046756
_cell_angle_alpha 111.916957
_cell_angle_beta 107.346051
_cell_angle_gamma 23.603077
_cell_volume 833.214316
_symmetry_space_group_name_H-M "P -1"
_symmetry_group_IT_number 2
_symmetry_cell_setting 'triclinic'
loop_
_space_group_symop_operation_xyz
x,y,z
-x,-y,-z
loop_
_atom_site_type_symbol
_atom_site_label
_atom_site_fract_x
_atom_site_fract_y
_atom_site_fract_z
Si Si1 0.322404 0.916872 0.662131
Si Si2 0.212467 0.847279 0.139795
Si Si3 0.811565 0.339774 0.070782
Si Si4 0.703307 0.838807 0.139623
Si Si5 0.855616 0.743634 0.929471
Si Si6 0.973065 0.037978 0.662971
Si Si7 0.828433 0.312905 0.549319
O O1 0.595035 0.613740 0.594629
O O2 0.347834 0.010350 0.754025
O O3 0.180479 0.953096 0.706446
O O4 0.110179 0.114749 0.587333
O O5 0.502094 0.639715 0.120972
O O6 0.175349 0.862211 0.246889
O O7 0.199324 0.739925 0.045503
O O8 0.972343 0.136370 0.129970
O O9 0.977397 0.298322 0.069327
O O10 0.951629 0.537082 0.133550
O O11 0.428725 0.015628 0.116457
O O12 0.782834 0.810501 0.045424
O O13 0.788579 0.255917 0.603585
O O14 0.130324 0.793351 0.572217
#
# Coordination Sequence:
#
# PCOD9074105 Si02
#       7
#     2   2   2   2   2   2   2
#     4  10  18  32  48  78 104 131 157 209 254 312
#     4  10  21  33  54  73 103 139 170 193 254 296
#     4  10  21  36  48  77 103 136 171 205 233 305
#     4  10  20  32  54  74  97 137 167 200 271 284
#     4  10  20  35  49  74 103 129 172 215 234 307
#     4   9  20  32  52  77 108 132 161 211 250 310
#     4   9  20  30  51  76 112 123 167 204 266 292
#
# _framework density 16.802401
#
# number of rings (size 3 to 8) (size 9 to 14) (size 15 to 20)
#    0.857    1.429    0.000    3.000    2.000    0.000 
#    2.571    0.000    0.000    0.000    0.000   20.000 
#    0.000    0.000    0.000    0.000    0.000    0.000 
#
# Total GULP energy -78006.055069 kJ/mol
# GULP energy per Si atom -5571.861076 kJ/mol
# Density = 1.676416 g / cm^3
# Si number density = 16.802401 Si / 1000 Ang^3
#
#
#
# Elastic Constant Matrix: (Units=GPa)
#
#
# Indices 1 2 3 4 5 6 
#
# 1 72.0332 4.2127 33.9167 1.2975 4.2768 -15.5226
# 2 4.2127 82.7619 12.9366 4.9544 1.5329 -17.8271
# 3 33.9167 12.9366 57.2702 3.2414 -0.7325 -5.4753
# 4 1.2975 4.9544 3.2414 14.3255 2.5601 5.1582
# 5 4.2768 1.5329 -0.7325 2.5601 24.3829 -0.3335
# 6 -15.5226 -17.8271 -5.4753 5.1582 -0.3335 16.5486
#
#
#
# Elastic Compliance Matrix: (Units=1/GPa)
#
#
# Indices 1 2 3 4 5 6 
#
# 1 0.029050 0.010040 -0.015017 -0.015629 -0.004019 0.037887
# 2 0.010040 0.021761 -0.006172 -0.020286 -0.000677 0.037126
# 3 -0.015017 -0.006172 0.026547 0.001281 0.003517 -0.012280
# 4 -0.015629 -0.020286 0.001281 0.104075 -0.007811 -0.068687
# 5 -0.004019 -0.000677 0.003517 -0.007811 0.042685 -0.000040
# 6 0.037887 0.037126 -0.012280 -0.068687 -0.000040 0.153306
#
#
# Mechanical properties :
#
#
# Convention : Reuss Voigt Hill
#
# Bulk Modulus (GPa) = 18.16225 34.91080 26.53652
# Shear Modulus (GPa) = 11.95955 21.78470 16.87213
#
# Velocity S-wave (km/s) = 2.67081 3.60463 3.17227
# Velocity P-wave (km/s) = 4.51040 6.17632 5.40789
#
# Compressibility (1/GPa) = 0.05505926
#
# Stress axis : x y z
#
# Youngs Moduli (GPa) = 34.42298 45.95469 37.66903
#
# Poissons Ratio (x) = -0.46136 0.56567
# Poissons Ratio (y) = -0.34559 0.23250
# Poissons Ratio (z) = 0.51692 0.28364
#
# Static dielectric constant tensor:
#      x y z
#    x 1.546210 -0.006230 0.011390 
#    y -0.006230 1.586510 -0.015380 
#    z 0.011390 -0.015380 1.542270 
# 
# From -- ./inp_files/432863.got.cif
#   From: 2010.05.17/outbox.cif.g08.bks.cpg/sg2_217_cif.got.tgz:432863.got - 2010.06.03 11:33:40.
