data_PCOD9074365
_publ_section_title
;
Structure prediction by ZEFSAII (Michael W. Deem and Ramdas Pophale) SiO2 
 PCOD9074365
Probable space group: P -1
;
_chemical_formula_sum "Si O2"
_cell_formula_units_Z 16
_cell_length_a 8.519850
_cell_length_b 19.570865
_cell_length_c 11.667308
_cell_angle_alpha 28.717100
_cell_angle_beta 68.433488
_cell_angle_gamma 85.594505
_cell_volume 726.282124
_symmetry_space_group_name_H-M "P -1"
_symmetry_group_IT_number 2
_symmetry_cell_setting 'triclinic'
loop_
_space_group_symop_operation_xyz
x,y,z
-x,-y,-z
loop_
_atom_site_type_symbol
_atom_site_label
_atom_site_fract_x
_atom_site_fract_y
_atom_site_fract_z
Si Si1 0.634518 0.151276 0.534742
Si Si2 0.197670 0.814052 0.126547
Si Si3 0.385287 0.739202 0.858505
Si Si4 0.763293 0.736103 0.030587
Si Si5 0.821603 0.067623 0.278240
Si Si6 0.940859 0.675039 0.864807
Si Si7 0.075117 0.663940 0.616286
Si Si8 0.321261 0.581527 0.333332
O O1 0.616427 0.263332 0.275393
O O2 0.714250 0.235377 0.514588
O O3 0.833295 0.155848 0.434272
O O4 0.428745 0.970153 0.857709
O O5 0.086733 0.757770 0.359987
O O6 0.195190 0.653611 0.312210
O O7 0.127642 0.883087 0.941540
O O8 0.249909 0.812721 0.826760
O O9 0.618328 0.882639 0.614304
O O10 0.316558 0.584751 0.191425
O O11 0.551632 0.717665 0.113443
O O12 0.741741 0.595171 0.333528
O O13 0.786715 0.679273 0.981598
O O14 0.979524 0.900825 0.762435
O O15 0.913902 0.649387 0.773003
O O16 0.957502 0.517654 0.131023
#
# Coordination Sequence:
#
# PCOD9074365 Si02
#       8
#     2   2   2   2   2   2   2   2
#     4   9  17  30  53  73 102 122 159 211 243 281
#     4  10  18  32  50  82  98 125 163 205 246 296
#     4   9  17  33  47  78  95 129 164 205 247 292
#     4  11  20  37  46  74 103 139 158 204 247 295
#     4   9  18  30  52  70 105 123 164 206 245 294
#     4   9  18  30  50  72  98 128 166 203 235 291
#     4   9  17  31  50  76  96 129 164 208 241 282
#     4  10  23  31  51  70 109 130 167 195 250 305
#
# _framework density 22.030006
#
# number of rings (size 3 to 8) (size 9 to 14) (size 15 to 20)
#    0.750    1.750    2.500    1.125    0.000    3.500 
#    0.000    0.000    0.000    2.250    0.000    4.375 
#    0.000    0.000    0.000    0.000    0.000    0.000 
#
# Total GULP energy -89138.215268 kJ/mol
# GULP energy per Si atom -5571.138454 kJ/mol
# Density = 2.197986 g / cm^3
# Si number density = 22.030006 Si / 1000 Ang^3
#
#
#
# Elastic Constant Matrix: (Units=GPa)
#
#
# Indices 1 2 3 4 5 6 
#
# 1 49.1278 10.9655 23.3799 -1.8080 -3.0212 8.8690
# 2 10.9655 63.3759 35.3634 20.0547 6.2744 14.9468
# 3 23.3799 35.3634 87.6927 34.5326 13.8991 10.5446
# 4 -1.8080 20.0547 34.5326 43.7061 18.3187 -4.8972
# 5 -3.0212 6.2744 13.8991 18.3187 35.1242 0.9080
# 6 8.8690 14.9468 10.5446 -4.8972 0.9080 17.7295
#
#
#
# Elastic Compliance Matrix: (Units=1/GPa)
#
#
# Indices 1 2 3 4 5 6 
#
# 1 0.026291 -0.000592 -0.009323 0.007088 0.002496 -0.005278
# 2 -0.000592 0.028120 -0.002435 -0.016068 0.004959 -0.026654
# 3 -0.009323 -0.002435 0.024402 -0.020485 0.001010 -0.013506
# 4 0.007088 -0.016068 -0.020485 0.059845 -0.020653 0.039772
# 5 0.002496 0.004959 0.001010 -0.020653 0.038526 -0.013708
# 6 -0.005278 -0.026654 -0.013506 0.039772 -0.013708 0.101235
#
#
# Mechanical properties :
#
#
# Convention : Reuss Voigt Hill
#
# Bulk Modulus (GPa) = 18.47991 37.73489 28.10740
# Shear Modulus (GPa) = 15.56872 28.01113 21.78993
#
# Velocity S-wave (km/s) = 2.66128 3.56968 3.14841
# Velocity P-wave (km/s) = 4.22492 5.84433 5.09932
#
# Compressibility (1/GPa) = 0.05411281
#
# Stress axis : x y z
#
# Youngs Moduli (GPa) = 38.03561 35.56148 40.98034
#
# Poissons Ratio (x) = 0.02105 0.38205
# Poissons Ratio (y) = 0.02252 0.09980
# Poissons Ratio (z) = 0.35460 0.08661
#
# Static dielectric constant tensor:
#      x y z
#    x 1.807240 0.055430 -0.003680 
#    y 0.055430 1.840440 -0.011250 
#    z -0.003680 -0.011250 1.846830 
# 
# From -- ./inp_files/302395.got.cif
#   From: 2010.05.17/outbox.cif.g08.bks.cpg/sg2_152_cif.got.tgz:302395.got - 2010.06.03 11:33:40.
