data_PCOD9074232
_publ_section_title
;
Structure prediction by ZEFSAII (Michael W. Deem and Ramdas Pophale) SiO2 
 PCOD9074232
Probable space group: P -1
;
_chemical_formula_sum "Si O2"
_cell_formula_units_Z 16
_cell_length_a 9.000000
_cell_length_b 21.000000
_cell_length_c 15.000000
_cell_angle_alpha 20.000000
_cell_angle_beta 70.000000
_cell_angle_gamma 60.000000
_cell_volume 757.501203
_symmetry_space_group_name_H-M "P -1"
_symmetry_group_IT_number 2
_symmetry_cell_setting 'triclinic'
loop_
_space_group_symop_operation_xyz
x,y,z
-x,-y,-z
loop_
_atom_site_type_symbol
_atom_site_label
_atom_site_fract_x
_atom_site_fract_y
_atom_site_fract_z
Si Si1 0.111106 0.418675 0.175431
Si Si2 0.935072 0.858505 0.750347
Si Si3 0.542899 0.899777 0.224294
Si Si4 0.058466 0.219176 0.618479
Si Si5 0.274274 0.738415 0.147647
Si Si6 0.311381 0.373318 0.734332
Si Si7 0.303543 0.622018 0.096212
Si Si8 0.463897 0.724311 0.757273
O O1 0.081938 0.266556 0.448209
O O2 0.334519 0.304628 0.259046
O O3 0.000000 0.500000 0.000000
O O4 0.005694 0.649010 0.948578
O O5 0.707489 0.042181 0.559318
O O6 0.000000 0.000000 0.500000
O O7 0.082368 0.732905 0.966819
O O8 0.753796 0.831932 0.300009
O O9 0.572875 0.653745 0.556385
O O10 0.500000 0.000000 0.000000
O O11 0.376160 0.118751 0.028192
O O12 0.863735 0.444736 0.401969
O O13 0.105901 0.965906 0.931688
O O14 0.259133 0.531686 0.450495
O O15 0.483559 0.678672 0.209489
O O16 0.280882 0.739206 0.039726
O O17 0.399807 0.699574 0.902221
O O18 0.500000 0.500000 0.000000
#
# Coordination Sequence:
#
# PCOD9074232 Si02
#       8
#     2   2   2   2   2   2   2   2
#     4  12  27  44  65 105 142 177 233 285 340 416
#     4  10  22  44  68  94 136 176 233 279 338 408
#     4  11  22  45  70 101 138 170 231 289 336 416
#     4  11  25  44  65  97 139 178 225 277 352 404
#     4  10  23  43  67  96 134 173 229 275 339 422
#     4  10  23  45  68  94 136 178 217 284 344 404
#     4  11  22  44  70 103 133 182 233 282 351 403
#     4  11  23  44  71  98 138 184 225 283 344 405
#
# _framework density 21.122078999999999
#
# number of rings (size 3 to 8) (size 9 to 14) (size 15 to 20)
#    0.000    1.250    5.000    0.375    5.250    4.000 
#    0.000    0.000    0.000    0.000    0.000    0.000 
#    0.000    0.000    0.000    0.000    0.000    0.000 
#
# Total GULP energy -89098.703340 kJ/mol
# GULP energy per Si atom -5568.668959 kJ/mol
# Density = 2.107400 g / cm^3
# Si number density = 21.122079 Si / 1000 Ang^3
#
#
#
# Elastic Constant Matrix: (Units=GPa)
#
#
# Indices 1 2 3 4 5 6 
#
# 1 32.6250 23.1044 17.0019 -7.7903 29.3741 -14.9775
# 2 23.1044 140.2813 40.0471 -10.5238 21.0673 -13.4751
# 3 17.0019 40.0471 146.3830 -24.7198 22.0817 -10.5259
# 4 -7.7903 -10.5238 -24.7198 57.7474 -3.1159 12.8073
# 5 29.3741 21.0673 22.0817 -3.1159 40.8508 -6.4513
# 6 -14.9775 -13.4751 -10.5259 12.8073 -6.4513 41.2146
#
#
#
# Elastic Compliance Matrix: (Units=1/GPa)
#
#
# Indices 1 2 3 4 5 6 
#
# 1 0.117966 -0.005254 0.002554 0.005654 -0.078685 0.027730
# 2 -0.005254 0.008473 -0.001735 0.000008 0.000423 0.000481
# 3 0.002554 -0.001735 0.008368 0.003177 -0.005110 0.000711
# 4 0.005654 0.000008 0.003177 0.020095 -0.004909 -0.004144
# 5 -0.078685 0.000423 -0.005110 -0.004909 0.080766 -0.015594
# 6 0.027730 0.000481 0.000711 -0.004144 -0.015594 0.033526
#
#
# Mechanical properties :
#
#
# Convention : Reuss Voigt Hill
#
# Bulk Modulus (GPa) = 7.94048 53.28847 30.61448
# Shear Modulus (GPa) = 15.62295 43.90495 29.76395
#
# Velocity S-wave (km/s) = 2.72260 4.56414 3.75792
# Velocity P-wave (km/s) = 3.69471 7.28415 5.77536
#
# Compressibility (1/GPa) = 0.12593694
#
# Stress axis : x y z
#
# Youngs Moduli (GPa) = 8.47704 118.02773 119.50252
#
# Poissons Ratio (x) = 0.62006 -0.30524
# Poissons Ratio (y) = 0.04453 0.20740
# Poissons Ratio (z) = -0.02165 0.20484
#
# Static dielectric constant tensor:
#      x y z
#    x 1.787700 -0.053890 -0.056320 
#    y -0.053890 1.787000 0.036890 
#    z -0.056320 0.036890 1.793350 
# 
# From -- ./inp_files/508059.got.cif
#   From: 2010.05.17/outbox.ucp.g08.bks.cvg/sg2_255_cif.got.tgz:508059.got - 2010.06.11 11:32:03.
