data_PCOD9074538
_publ_section_title
;
Structure prediction by ZEFSAII (Michael W. Deem and Ramdas Pophale) SiO2 
 PCOD9074538
Probable space group: P -1
;
_chemical_formula_sum "Si O2"
_cell_formula_units_Z 16
_cell_length_a 6.000000
_cell_length_b 9.000000
_cell_length_c 24.000000
_cell_angle_alpha 50.000000
_cell_angle_beta 90.000000
_cell_angle_gamma 120.000000
_cell_volume 752.153660
_symmetry_space_group_name_H-M "P -1"
_symmetry_group_IT_number 2
_symmetry_cell_setting 'triclinic'
loop_
_space_group_symop_operation_xyz
x,y,z
-x,-y,-z
loop_
_atom_site_type_symbol
_atom_site_label
_atom_site_fract_x
_atom_site_fract_y
_atom_site_fract_z
Si Si1 0.486497 0.464837 0.346917
Si Si2 0.610024 0.020686 0.558383
Si Si3 0.371123 0.904119 0.705716
Si Si4 0.138249 0.320982 0.153624
Si Si5 0.847470 0.936821 0.151506
Si Si6 0.765506 0.191655 0.997459
Si Si7 0.242608 0.391083 0.863185
Si Si8 0.946658 0.452898 0.613517
O O1 0.607544 0.675526 0.248248
O O2 0.247977 0.476782 0.374372
O O3 0.787924 0.532447 0.360148
O O4 0.330186 0.178073 0.393505
O O5 0.881489 0.324928 0.487166
O O6 0.500000 0.000000 0.500000
O O7 0.389791 0.940864 0.629415
O O8 0.289951 0.633675 0.781383
O O9 0.129594 0.861486 0.757978
O O10 0.691875 0.158702 0.665366
O O11 0.163053 0.539101 0.067889
O O12 0.430195 0.488247 0.150495
O O13 0.089215 0.136717 0.148897
O O14 0.930434 0.835780 0.126919
O O15 0.728979 0.058977 0.088141
O O16 0.057876 0.277243 0.947026
O O17 0.500000 0.000000 0.000000
#
# Coordination Sequence:
#
# PCOD9074538 Si02
#       8
#     2   2   2   2   2   2   2   2
#     4  11  24  45  71 108 140 187 246 296 371 443
#     4  10  23  45  70 104 141 190 239 300 367 440
#     4  11  23  45  67 102 144 186 240 305 360 435
#     4  11  25  46  69 104 142 187 248 296 366 439
#     4  12  23  45  73 102 140 194 238 304 365 436
#     4  11  25  46  69 104 145 188 239 301 367 435
#     4  11  25  45  69 102 145 186 242 301 366 436
#     4  11  24  46  71 103 146 184 242 307 367 433
#
# _framework density 21.272248999999999
#
# number of rings (size 3 to 8) (size 9 to 14) (size 15 to 20)
#    0.000    1.000    3.750    2.250    0.000    3.500 
#    9.000    3.125    0.000    0.000    0.000    0.000 
#    0.000    0.000    0.000    0.000    0.000    0.000 
#
# Total GULP energy -89082.104823 kJ/mol
# GULP energy per Si atom -5567.631551 kJ/mol
# Density = 2.122383 g / cm^3
# Si number density = 21.272249 Si / 1000 Ang^3
#
#
#
# Elastic Constant Matrix: (Units=GPa)
#
#
# Indices 1 2 3 4 5 6 
#
# 1 72.5332 15.6920 23.2293 8.7219 -7.4045 0.6660
# 2 15.6920 110.1909 20.0095 -6.4463 0.8629 -12.9872
# 3 23.2293 20.0095 167.2933 -3.7106 8.6477 0.8004
# 4 8.7219 -6.4463 -3.7106 36.3130 5.5357 3.0890
# 5 -7.4045 0.8629 8.6477 5.5357 18.9961 -9.7640
# 6 0.6660 -12.9872 0.8004 3.0890 -9.7640 28.1652
#
#
#
# Elastic Compliance Matrix: (Units=1/GPa)
#
#
# Indices 1 2 3 4 5 6 
#
# 1 0.017188 -0.001976 -0.002945 -0.006933 0.012055 0.003706
# 2 -0.001976 0.010221 -0.001011 0.001538 0.001402 0.005106
# 3 -0.002945 -0.001011 0.006920 0.002511 -0.006608 -0.003159
# 4 -0.006933 0.001538 0.002511 0.033316 -0.018362 -0.009218
# 5 0.012055 0.001402 -0.006608 -0.018362 0.081471 0.030807
# 6 0.003706 0.005106 -0.003159 -0.009218 0.030807 0.049552
#
#
# Mechanical properties :
#
#
# Convention : Reuss Voigt Hill
#
# Bulk Modulus (GPa) = 44.51467 51.98655 48.25061
# Shear Modulus (GPa) = 22.93367 36.10064 29.51716
#
# Velocity S-wave (km/s) = 3.28701 4.12403 3.72908
# Velocity P-wave (km/s) = 5.94790 6.86794 6.42441
#
# Compressibility (1/GPa) = 0.02246450
#
# Stress axis : x y z
#
# Youngs Moduli (GPa) = 58.18111 97.83889 144.51479
#
# Poissons Ratio (x) = 0.19335 0.42558
# Poissons Ratio (y) = 0.11498 0.14609
# Poissons Ratio (z) = 0.17134 0.09890
#
# Static dielectric constant tensor:
#      x y z
#    x 1.828810 -0.020040 -0.000050 
#    y -0.020040 1.833130 0.000690 
#    z -0.000050 0.000690 1.758400 
# 
# From -- ./inp_files/603988.got.cif
#   From: 2010.05.17/outbox.ucp.g08.bks.cvg/sg2_302_cif.got.tgz:603988.got - 2010.06.11 11:32:03.
