data_PCOD9074932
_publ_section_title
;
Structure prediction by ZEFSAII (Michael W. Deem and Ramdas Pophale) SiO2 
 PCOD9074932
Probable space group: P -1
;
_chemical_formula_sum "Si O2"
_cell_formula_units_Z 16
_cell_length_a 9.000000
_cell_length_b 21.000000
_cell_length_c 12.000000
_cell_angle_alpha 140.000000
_cell_angle_beta 50.000000
_cell_angle_gamma 150.000000
_cell_volume 727.418465
_symmetry_space_group_name_H-M "P -1"
_symmetry_group_IT_number 2
_symmetry_cell_setting 'triclinic'
loop_
_space_group_symop_operation_xyz
x,y,z
-x,-y,-z
loop_
_atom_site_type_symbol
_atom_site_label
_atom_site_fract_x
_atom_site_fract_y
_atom_site_fract_z
Si Si1 0.496961 0.387533 0.036560
Si Si2 0.715112 0.349042 0.496381
Si Si3 0.915173 0.160909 0.935232
Si Si4 0.589380 0.280656 0.053845
Si Si5 0.251584 0.829416 0.348833
Si Si6 0.385789 0.107751 0.136810
Si Si7 0.218816 0.299768 0.739839
Si Si8 0.837308 0.371403 0.702488
O O1 0.512592 0.339952 0.084332
O O2 0.721178 0.560399 0.121581
O O3 0.568953 0.327071 0.833385
O O4 0.180343 0.317818 0.082328
O O5 0.528698 0.225049 0.324592
O O6 0.522825 0.361067 0.660773
O O7 0.788099 0.314024 0.524291
O O8 0.000000 0.500000 0.500000
O O9 0.047286 0.203579 0.805230
O O10 0.879914 0.050472 0.882176
O O11 0.617736 0.108734 0.999320
O O12 0.372059 0.165468 0.106402
O O13 0.890199 0.444004 0.182089
O O14 0.641851 0.203341 0.847156
O O15 0.121060 0.705828 0.340038
O O16 0.999861 0.807046 0.398459
O O17 0.500000 0.000000 0.500000
#
# Coordination Sequence:
#
# PCOD9074932 Si02
#       8
#     2   2   2   2   2   2   2   2
#     4  11  21  40  71  98 118 180 229 270 321 407
#     4  12  26  40  67 101 137 169 219 285 336 381
#     4  11  24  41  69  95 130 181 224 269 330 405
#     4  11  21  44  68  93 138 174 221 270 334 399
#     4  11  24  40  69 103 134 173 222 282 335 392
#     4  11  25  44  63  97 140 175 213 280 339 389
#     4  12  23  43  68  99 132 173 234 270 324 412
#     4  11  21  42  68  97 132 176 220 274 333 398
#
# _framework density 21.995591999999998
#
# number of rings (size 3 to 8) (size 9 to 14) (size 15 to 20)
#    0.000    0.750    6.250    1.875    1.750    3.000 
#    0.000    3.750    0.000    0.000    0.000    0.000 
#    0.000    0.000    0.000    0.000    0.000    0.000 
#
# Total GULP energy -89114.970516 kJ/mol
# GULP energy per Si atom -5569.685657 kJ/mol
# Density = 2.194553 g / cm^3
# Si number density = 21.995592 Si / 1000 Ang^3
#
#
#
# Elastic Constant Matrix: (Units=GPa)
#
#
# Indices 1 2 3 4 5 6 
#
# 1 60.6059 62.4383 5.9061 -19.7663 30.0969 -23.4118
# 2 62.4383 126.8300 33.6731 -3.5344 6.7303 -42.8753
# 3 5.9061 33.6731 57.3357 -2.1065 14.6862 -20.7553
# 4 -19.7663 -3.5344 -2.1065 35.0340 -8.5757 14.8319
# 5 30.0969 6.7303 14.6862 -8.5757 20.5808 -10.8884
# 6 -23.4118 -42.8753 -20.7553 14.8319 -10.8884 43.4335
#
#
#
# Elastic Compliance Matrix: (Units=1/GPa)
#
#
# Indices 1 2 3 4 5 6 
#
# 1 -0.035538 0.024211 -0.022370 -0.008983 0.063122 0.012945
# 2 0.024211 -0.003357 0.011117 0.002616 -0.038809 0.004426
# 3 -0.022370 0.011117 0.011975 -0.011091 0.023484 0.014313
# 4 -0.008983 0.002616 -0.011091 0.035296 0.028276 -0.012524
# 5 0.063122 -0.038809 0.023484 0.028276 -0.043167 -0.013541
# 6 0.012945 0.004426 0.014313 -0.012524 -0.013541 0.042092
#
#
# Mechanical properties :
#
#
# Convention : Reuss Voigt Hill
#
# Bulk Modulus (GPa) = -994.30705 49.86738 -472.21983
# Shear Modulus (GPa) = -263.87156 29.32659 -117.27248
#
# Velocity S-wave (km/s) = -10.96477 3.65539 -7.30973
# Velocity P-wave (km/s) = 24.76552 6.36684 16.92328
#
# Compressibility (1/GPa) = -0.00100573
#
# Stress axis : x y z
#
# Youngs Moduli (GPa) = -28.13896 -297.85840 83.50746
#
# Poissons Ratio (x) = 7.21140 1.86809
# Poissons Ratio (y) = 0.68127 -0.92833
# Poissons Ratio (z) = -0.62948 3.31121
#
# Static dielectric constant tensor:
#      x y z
#    x 1.900110 0.054530 0.050840 
#    y 0.054530 1.947190 0.066080 
#    z 0.050840 0.066080 1.843550 
# 
# From -- ./inp_files/205075.got.cif
#   From: 2010.05.17/outbox.ucp.g08.bks.cvg/sg2_103_cif.got.tgz:205075.got - 2010.06.11 11:32:03.
