data_PCOD9074109
_publ_section_title
;
Structure prediction by ZEFSAII (Michael W. Deem and Ramdas Pophale) SiO2 
 PCOD9074109
Probable space group: P -1
;
_chemical_formula_sum "Si O2"
_cell_formula_units_Z 16
_cell_length_a 9.000000
_cell_length_b 18.000000
_cell_length_c 12.000000
_cell_angle_alpha 140.000000
_cell_angle_beta 50.000000
_cell_angle_gamma 100.000000
_cell_volume 729.599496
_symmetry_space_group_name_H-M "P -1"
_symmetry_group_IT_number 2
_symmetry_cell_setting 'triclinic'
loop_
_space_group_symop_operation_xyz
x,y,z
-x,-y,-z
loop_
_atom_site_type_symbol
_atom_site_label
_atom_site_fract_x
_atom_site_fract_y
_atom_site_fract_z
Si Si1 0.640952 0.381076 0.392531
Si Si2 0.117626 0.576673 0.270157
Si Si3 0.340264 0.893932 0.741535
Si Si4 0.054553 0.409135 0.253953
Si Si5 0.271360 0.122927 0.332572
Si Si6 0.565505 0.394690 0.679949
Si Si7 0.568811 0.103111 0.558486
Si Si8 0.124325 0.955246 0.150185
O O1 0.500000 0.500000 0.500000
O O2 0.477885 0.463564 0.678643
O O3 0.902866 0.347765 0.255912
O O4 0.702693 0.226061 0.148493
O O5 0.957071 0.533415 0.347014
O O6 0.261178 0.581993 0.310803
O O7 0.950548 0.732155 0.463244
O O8 0.334587 0.452792 0.938357
O O9 0.614374 0.829577 0.582517
O O10 0.288550 0.778351 0.618654
O O11 0.362817 0.925354 0.639531
O O12 0.157629 0.993962 0.050650
O O13 0.000000 0.500000 0.500000
O O14 0.342794 0.269416 0.912030
O O15 0.191567 0.024657 0.290740
O O16 0.500000 0.000000 0.000000
O O17 0.500000 0.000000 0.500000
O O18 0.835383 0.036094 0.404705
#
# Coordination Sequence:
#
# PCOD9074109 Si02
#       8
#     2   2   2   2   2   2   2   2
#     4  11  25  44  67  97 141 181 220 274 349 407
#     4  11  23  42  70  94 132 170 234 274 333 409
#     4  10  22  42  67 100 129 177 226 276 339 401
#     4  12  26  44  68 102 136 179 229 284 342 408
#     4  10  24  40  66 100 131 169 223 282 339 395
#     4  10  22  42  69  97 123 180 227 274 325 401
#     4  12  24  45  68 101 137 178 233 281 340 408
#     4  10  23  45  69  96 135 180 224 280 338 407
#
# _framework density 21.929839999999999
#
# number of rings (size 3 to 8) (size 9 to 14) (size 15 to 20)
#    0.000    1.250    3.750    1.125    7.000    6.500 
#    0.000    0.625    0.000    0.000    0.000    0.000 
#    0.000    0.000    0.000    0.000    0.000    0.000 
#
# Total GULP energy -89067.697409 kJ/mol
# GULP energy per Si atom -5566.731088 kJ/mol
# Density = 2.187993 g / cm^3
# Si number density = 21.929840 Si / 1000 Ang^3
#
#
#
# Elastic Constant Matrix: (Units=GPa)
#
#
# Indices 1 2 3 4 5 6 
#
# 1 66.7981 33.0688 22.3350 3.9479 8.8786 2.7405
# 2 33.0688 82.7386 1.6506 -8.6737 4.7283 5.8167
# 3 22.3350 1.6506 58.2358 1.5194 -2.0262 5.1572
# 4 3.9479 -8.6737 1.5194 30.9818 6.6005 -0.0191
# 5 8.8786 4.7283 -2.0262 6.6005 19.8040 1.6800
# 6 2.7405 5.8167 5.1572 -0.0191 1.6800 32.3459
#
#
#
# Elastic Compliance Matrix: (Units=1/GPa)
#
#
# Indices 1 2 3 4 5 6 
#
# 1 0.023979 -0.009386 -0.009274 -0.003427 -0.008449 0.001572
# 2 -0.009386 0.016654 0.003164 0.005959 -0.001207 -0.002638
# 3 -0.009274 0.003164 0.021159 -0.000238 0.005941 -0.003465
# 4 -0.003427 0.005959 -0.000238 0.037000 -0.012235 -0.000086
# 5 -0.008449 -0.001207 0.005941 -0.012235 0.059521 -0.003113
# 6 0.001572 -0.002638 -0.003465 -0.000086 -0.003113 0.031971
#
#
# Mechanical properties :
#
#
# Convention : Reuss Voigt Hill
#
# Bulk Modulus (GPa) = 32.46902 35.76459 34.11680
# Shear Modulus (GPa) = 21.59430 26.67422 24.13426
#
# Velocity S-wave (km/s) = 3.14140 3.49140 3.32101
# Velocity P-wave (km/s) = 5.29111 5.70939 5.50423
#
# Compressibility (1/GPa) = 0.03079859
#
# Stress axis : x y z
#
# Youngs Moduli (GPa) = 41.70279 60.04731 47.26201
#
# Poissons Ratio (x) = 0.56360 0.43833
# Poissons Ratio (y) = 0.39142 -0.14953
# Poissons Ratio (z) = 0.38677 -0.18998
#
# Static dielectric constant tensor:
#      x y z
#    x 1.727060 -0.038960 -0.073930 
#    y -0.038960 1.892820 -0.031280 
#    z -0.073930 -0.031280 1.764530 
# 
# From -- ./inp_files/223442.got.cif
#   From: 2010.05.17/outbox.ucp.g08.bks.cvg/sg2_112_cif.got.tgz:223442.got - 2010.06.11 11:32:03.
