data_PCOD9074314
_publ_section_title
;
Structure prediction by ZEFSAII (Michael W. Deem and Ramdas Pophale) SiO2 
 PCOD9074314
Probable space group: P -1
;
_chemical_formula_sum "Si O2"
_cell_formula_units_Z 14
_cell_length_a 9.116529
_cell_length_b 12.602930
_cell_length_c 8.625689
_cell_angle_alpha 106.211151
_cell_angle_beta 134.030855
_cell_angle_gamma 74.316680
_cell_volume 680.009991
_symmetry_space_group_name_H-M "P -1"
_symmetry_group_IT_number 2
_symmetry_cell_setting 'triclinic'
loop_
_space_group_symop_operation_xyz
x,y,z
-x,-y,-z
loop_
_atom_site_type_symbol
_atom_site_label
_atom_site_fract_x
_atom_site_fract_y
_atom_site_fract_z
Si Si1 0.328621 0.473634 0.200223
Si Si2 0.059438 0.332972 0.439221
Si Si3 0.483768 0.618016 0.126214
Si Si4 0.036421 0.889830 0.636448
Si Si5 0.443784 0.743765 0.835528
Si Si6 0.049274 0.528275 0.290842
Si Si7 0.278294 0.071977 0.859790
O O1 0.378270 0.585896 0.195252
O O2 0.500307 0.369980 0.262188
O O3 0.251729 0.497027 0.326514
O O4 0.133434 0.435610 0.946804
O O5 0.293795 0.350437 0.651446
O O6 0.990598 0.416581 0.285518
O O7 0.032638 0.205162 0.341654
O O8 0.944739 0.383141 0.530881
O O9 0.500000 0.500000 0.000000
O O10 0.408626 0.707864 0.975410
O O11 0.239922 0.825248 0.674929
O O12 0.846497 0.917203 0.390172
O O13 0.122466 0.000702 0.810823
O O14 0.646882 0.809124 0.998423
O O15 0.500000 0.000000 0.000000
#
# Coordination Sequence:
#
# PCOD9074314 Si02
#       7
#     2   2   2   2   2   2   2
#     4  10  20  35  49  79 113 147 181 219 264 319
#     4  11  20  34  53  79 110 146 184 224 263 318
#     4  10  18  32  50  76 111 147 179 217 264 316
#     4  10  19  31  54  80 107 136 182 225 270 320
#     4  10  18  33  54  77 112 144 178 223 272 315
#     4  10  21  33  52  75 114 147 185 218 262 318
#     4   9  18  33  53  83 104 133 180 232 269 318
#
# _framework density 20.587934000000001
#
# number of rings (size 3 to 8) (size 9 to 14) (size 15 to 20)
#    0.000    2.000    4.286    0.857    6.000    0.571 
#    0.000    0.000    0.000    0.857    0.000   20.000 
#    0.000    0.000    0.000    0.000    0.000    0.000 
#
# Total GULP energy -77969.247360 kJ/mol
# GULP energy per Si atom -5569.231954 kJ/mol
# Density = 2.054107 g / cm^3
# Si number density = 20.587934 Si / 1000 Ang^3
#
#
#
# Elastic Constant Matrix: (Units=GPa)
#
#
# Indices 1 2 3 4 5 6 
#
# 1 92.5172 19.1488 18.8939 4.3692 -2.6674 7.2260
# 2 19.1488 117.3490 34.0800 10.0968 3.9336 26.2310
# 3 18.8939 34.0800 96.2127 -3.5360 19.7009 -4.8850
# 4 4.3692 10.0968 -3.5360 34.8268 3.6565 21.4711
# 5 -2.6674 3.9336 19.7009 3.6565 34.3771 -4.1477
# 6 7.2260 26.2310 -4.8850 21.4711 -4.1477 27.3319
#
#
#
# Elastic Compliance Matrix: (Units=1/GPa)
#
#
# Indices 1 2 3 4 5 6 
#
# 1 0.011756 -0.000674 -0.002667 -0.000372 0.002280 -0.002300
# 2 -0.000674 0.014437 -0.005286 0.009402 -0.002374 -0.022368
# 3 -0.002667 -0.005286 0.014576 -0.000877 -0.006894 0.008026
# 4 -0.000372 0.009402 -0.000877 0.067131 -0.015484 -0.064167
# 5 0.002280 -0.002374 -0.006894 -0.015484 0.037340 0.018274
# 6 -0.002300 -0.022368 0.008026 -0.064167 0.018274 0.113278
#
#
# Mechanical properties :
#
#
# Convention : Reuss Voigt Hill
#
# Bulk Modulus (GPa) = 42.52394 50.03603 46.27999
# Shear Modulus (GPa) = 17.62980 34.90425 26.26703
#
# Velocity S-wave (km/s) = 2.92946 4.12196 3.57577
# Velocity P-wave (km/s) = 5.66939 6.85641 6.29096
#
# Compressibility (1/GPa) = 0.02351616
#
# Stress axis : x y z
#
# Youngs Moduli (GPa) = 85.06368 69.26550 68.60372
#
# Poissons Ratio (x) = 0.04669 0.18297
# Poissons Ratio (y) = 0.05735 0.36261
# Poissons Ratio (z) = 0.22687 0.36610
#
# Static dielectric constant tensor:
#      x y z
#    x 1.784040 0.050460 0.064850 
#    y 0.050460 1.805830 -0.011070 
#    z 0.064850 -0.011070 1.796530 
# 
# From -- ./inp_files/187996.got.cif
#   From: 2010.05.17/outbox.cif.g08.bks.cpg/sg2_94_cif.got.tgz:187996.got - 2010.06.03 11:33:40.
