data_PCOD9074329
_publ_section_title
;
Structure prediction by ZEFSAII (Michael W. Deem and Ramdas Pophale) SiO2 
 PCOD9074329
Probable space group: P -1
;
_chemical_formula_sum "Si O2"
_cell_formula_units_Z 16
_cell_length_a 9.000000
_cell_length_b 12.000000
_cell_length_c 12.000000
_cell_angle_alpha 50.000000
_cell_angle_beta 130.000000
_cell_angle_gamma 110.000000
_cell_volume 754.912344
_symmetry_space_group_name_H-M "P -1"
_symmetry_group_IT_number 2
_symmetry_cell_setting 'triclinic'
loop_
_space_group_symop_operation_xyz
x,y,z
-x,-y,-z
loop_
_atom_site_type_symbol
_atom_site_label
_atom_site_fract_x
_atom_site_fract_y
_atom_site_fract_z
Si Si1 0.888297 0.394333 0.343039
Si Si2 0.351258 0.816167 0.950820
Si Si3 0.615282 0.814937 0.639634
Si Si4 0.811187 0.487672 0.989873
Si Si5 0.290402 0.992801 0.246555
Si Si6 0.803451 0.067869 0.426830
Si Si7 0.221409 0.341225 0.705383
Si Si8 0.153884 0.024459 0.916680
O O1 0.835046 0.223509 0.406972
O O2 0.785073 0.516234 0.306318
O O3 0.109054 0.381692 0.508523
O O4 0.852230 0.468152 0.155632
O O5 0.252728 0.667147 0.981445
O O6 0.563034 0.746949 0.141368
O O7 0.341202 0.887180 0.776472
O O8 0.253596 0.938698 0.912324
O O9 0.678587 0.641459 0.796415
O O10 0.409722 0.849666 0.453160
O O11 0.613697 0.879150 0.723535
O O12 0.744406 0.928452 0.561462
O O13 0.000000 0.500000 0.000000
O O14 0.283230 0.982444 0.116253
O O15 0.061635 0.022576 0.146904
O O16 0.000000 0.000000 0.500000
O O17 0.114399 0.202864 0.785066
#
# Coordination Sequence:
#
# PCOD9074329 Si02
#       8
#     2   2   2   2   2   2   2   2
#     4  10  24  42  64  93 127 165 209 258 315 368
#     4  11  25  41  65  95 125 162 213 264 312 373
#     4  11  22  40  65  93 122 166 213 253 307 379
#     4  11  24  42  62  91 130 167 204 255 315 376
#     4  10  23  38  63  92 125 163 208 258 312 381
#     4  11  22  41  67  95 127 166 209 258 311 372
#     4  11  23  41  67  92 123 165 213 265 312 370
#     4  11  22  42  63  92 128 166 206 259 323 375
#
# _framework density 21.194514000000002
#
# number of rings (size 3 to 8) (size 9 to 14) (size 15 to 20)
#    0.000    1.250    0.000    6.375    0.000   10.000 
#    0.000    1.250    0.000    0.000    0.000    0.000 
#    0.000    0.000    0.000    0.000    0.000    0.000 
#
# Total GULP energy -89195.733450 kJ/mol
# GULP energy per Si atom -5574.733341 kJ/mol
# Density = 2.114627 g / cm^3
# Si number density = 21.194514 Si / 1000 Ang^3
#
#
#
# Elastic Constant Matrix: (Units=GPa)
#
#
# Indices 1 2 3 4 5 6 
#
# 1 82.1912 38.9120 34.5315 7.7821 -10.0310 -11.8687
# 2 38.9120 139.6524 52.1204 -0.1905 -11.0268 -24.0826
# 3 34.5315 52.1204 167.2147 7.6681 -5.8927 -5.5655
# 4 7.7821 -0.1905 7.6681 55.7615 -1.9058 1.7304
# 5 -10.0310 -11.0268 -5.8927 -1.9058 40.3992 -1.0716
# 6 -11.8687 -24.0826 -5.5655 1.7304 -1.0716 38.5985
#
#
#
# Elastic Compliance Matrix: (Units=1/GPa)
#
#
# Indices 1 2 3 4 5 6 
#
# 1 0.015248 -0.002806 -0.002000 -0.001857 0.002715 0.002808
# 2 -0.002806 0.009785 -0.002272 0.000646 0.001804 0.004936
# 3 -0.002000 -0.002272 0.007095 -0.000679 -0.000140 -0.000983
# 4 -0.001857 0.000646 -0.000679 0.018337 0.000453 -0.001075
# 5 0.002715 0.001804 -0.000140 0.000453 0.025991 0.002642
# 6 0.002808 0.004936 -0.000983 -0.001075 0.002642 0.029831
#
#
# Mechanical properties :
#
#
# Convention : Reuss Voigt Hill
#
# Bulk Modulus (GPa) = 55.64316 71.13179 63.38748
# Shear Modulus (GPa) = 39.54640 44.51813 42.03226
#
# Velocity S-wave (km/s) = 4.32427 4.58804 4.45811
# Velocity P-wave (km/s) = 7.15842 7.85501 7.51479
#
# Compressibility (1/GPa) = 0.01797166
#
# Stress axis : x y z
#
# Youngs Moduli (GPa) = 65.58130 102.19672 140.94313
#
# Poissons Ratio (x) = 0.28678 0.28188
# Poissons Ratio (y) = 0.18403 0.32026
# Poissons Ratio (z) = 0.13116 0.23222
#
# Static dielectric constant tensor:
#      x y z
#    x 1.910160 0.094420 0.036740 
#    y 0.094420 1.837750 0.000860 
#    z 0.036740 0.000860 1.803470 
# 
# From -- ./inp_files/392226.got.cif
#   From: 2010.05.17/outbox.ucp.g08.bks.cvg/sg2_197_cif.got.tgz:392226.got - 2010.06.11 11:32:03.
