data_PCOD9074070
_publ_section_title
;
Structure prediction by ZEFSAII (Michael W. Deem and Ramdas Pophale) SiO2 
 PCOD9074070
Probable space group: P -1
;
_chemical_formula_sum "Si O2"
_cell_formula_units_Z 16
_cell_length_a 12.000000
_cell_length_b 9.000000
_cell_length_c 12.000000
_cell_angle_alpha 130.000000
_cell_angle_beta 130.000000
_cell_angle_gamma 60.000000
_cell_volume 752.153660
_symmetry_space_group_name_H-M "P -1"
_symmetry_group_IT_number 2
_symmetry_cell_setting 'triclinic'
loop_
_space_group_symop_operation_xyz
x,y,z
-x,-y,-z
loop_
_atom_site_type_symbol
_atom_site_label
_atom_site_fract_x
_atom_site_fract_y
_atom_site_fract_z
Si Si1 0.760927 0.322347 0.713373
Si Si2 0.084842 0.120839 0.879412
Si Si3 0.398145 0.039027 0.560783
Si Si4 0.560204 0.899406 0.149335
Si Si5 0.305725 0.802684 0.776063
Si Si6 0.167909 0.410282 0.519713
Si Si7 0.893068 0.632791 0.792103
Si Si8 0.783174 0.572143 0.043236
O O1 0.801631 0.477086 0.720979
O O2 0.915115 0.192742 0.783903
O O3 0.659420 0.164221 0.543029
O O4 0.704370 0.436403 0.845110
O O5 0.165508 0.272517 0.934668
O O6 0.148159 0.915334 0.769684
O O7 0.123558 0.165781 0.052262
O O8 0.491426 0.077621 0.747055
O O9 0.262713 0.219807 0.547948
O O10 0.500000 0.000000 0.500000
O O11 0.680079 0.703457 0.124726
O O12 0.637335 0.084186 0.241177
O O13 0.426634 0.855961 0.966323
O O14 0.274503 0.579534 0.654210
O O15 0.146674 0.339698 0.346815
O O16 0.000000 0.500000 0.500000
O O17 0.065876 0.541639 0.866581
#
# Coordination Sequence:
#
# PCOD9074070 Si02
#       8
#     2   2   2   2   2   2   2   2
#     4   9  18  39  65  88 120 161 208 252 302 361
#     4   8  16  34  63  96 115 144 207 261 303 344
#     4  12  28  43  56  91 134 169 198 245 318 378
#     4  10  22  43  65  88 121 164 211 252 301 367
#     4  10  22  41  68  91 115 162 215 258 295 359
#     4  12  26  43  60  94 129 162 206 252 314 367
#     4   9  18  37  67  92 116 157 209 261 294 357
#     4   8  16  34  65  95 114 148 205 260 302 348
#
# _framework density 21.272248999999999
#
# number of rings (size 3 to 8) (size 9 to 14) (size 15 to 20)
#    0.000    2.250    0.000    3.750    3.500    0.500 
#    4.500    9.375    0.000    0.000    0.000    0.000 
#    0.000    0.000    0.000    0.000    0.000    0.000 
#
# Total GULP energy -89155.498431 kJ/mol
# GULP energy per Si atom -5572.218652 kJ/mol
# Density = 2.122383 g / cm^3
# Si number density = 21.272249 Si / 1000 Ang^3
#
#
#
# Elastic Constant Matrix: (Units=GPa)
#
#
# Indices 1 2 3 4 5 6 
#
# 1 72.3758 -11.5513 18.5964 -14.2938 -19.8693 -5.4145
# 2 -11.5513 31.1395 0.1017 -3.6710 -8.2964 1.6148
# 3 18.5964 0.1017 59.0128 -13.7367 -26.5600 11.2739
# 4 -14.2938 -3.6710 -13.7367 19.5350 14.7162 -3.5251
# 5 -19.8693 -8.2964 -26.5600 14.7162 28.8216 -5.0500
# 6 -5.4145 1.6148 11.2739 -3.5251 -5.0500 10.5325
#
#
#
# Elastic Compliance Matrix: (Units=1/GPa)
#
#
# Indices 1 2 3 4 5 6 
#
# 1 0.026117 0.014828 -0.001944 0.010350 0.019785 0.026184
# 2 0.014828 0.045796 0.008469 0.003675 0.030640 0.007457
# 3 -0.001944 0.008469 0.035957 -0.002660 0.030884 -0.026869
# 4 0.010350 0.003675 -0.002660 0.088120 -0.035756 0.019953
# 5 0.019785 0.030640 0.030884 -0.035756 0.105835 0.011193
# 6 0.026184 0.007457 -0.026869 0.019953 0.011193 0.148066
#
#
# Mechanical properties :
#
#
# Convention : Reuss Voigt Hill
#
# Bulk Modulus (GPa) = 6.64105 19.64685 13.14395
# Shear Modulus (GPa) = 10.93190 22.13657 16.53423
#
# Velocity S-wave (km/s) = 2.26940 3.22938 2.79098
# Velocity P-wave (km/s) = 3.16159 4.81260 4.07166
#
# Compressibility (1/GPa) = 0.15057864
#
# Stress axis : x y z
#
# Youngs Moduli (GPa) = 38.28864 21.83578 27.81070
#
# Poissons Ratio (x) = -0.32379 0.05407
# Poissons Ratio (y) = -0.56776 -0.23554
# Poissons Ratio (z) = 0.07444 -0.18494
#
# Static dielectric constant tensor:
#      x y z
#    x 1.741140 -0.010990 -0.033400 
#    y -0.010990 1.793760 0.022260 
#    z -0.033400 0.022260 1.816090 
# 
# From -- ./inp_files/261979.got.cif
#   From: 2010.05.17/outbox.ucp.g08.bks.cvg/sg2_131_cif.got.tgz:261979.got - 2010.06.11 11:32:03.
