data_PCOD9074284
_publ_section_title
;
Structure prediction by ZEFSAII (Michael W. Deem and Ramdas Pophale) SiO2 
 PCOD9074284
Probable space group: P -1
;
_chemical_formula_sum "Si O2"
_cell_formula_units_Z 16
_cell_length_a 9.000000
_cell_length_b 9.000000
_cell_length_c 15.000000
_cell_angle_alpha 40.000000
_cell_angle_beta 70.000000
_cell_angle_gamma 80.000000
_cell_volume 725.993766
_symmetry_space_group_name_H-M "P -1"
_symmetry_group_IT_number 2
_symmetry_cell_setting 'triclinic'
loop_
_space_group_symop_operation_xyz
x,y,z
-x,-y,-z
loop_
_atom_site_type_symbol
_atom_site_label
_atom_site_fract_x
_atom_site_fract_y
_atom_site_fract_z
Si Si1 0.001082 0.128562 0.346219
Si Si2 0.645866 0.079275 0.364910
Si Si3 0.617822 0.578622 0.521621
Si Si4 0.556263 0.577334 0.185066
Si Si5 0.757543 0.131838 0.697476
Si Si6 0.539048 0.263297 0.055290
Si Si7 0.843962 0.972195 0.943943
Si Si8 0.104166 0.689201 0.056394
O O1 0.064881 0.408492 0.204387
O O2 0.819097 0.099801 0.364426
O O3 0.111302 0.986951 0.328209
O O4 0.000000 0.000000 0.500000
O O5 0.618304 0.350034 0.231228
O O6 0.500000 0.000000 0.500000
O O7 0.646061 0.861624 0.395533
O O8 0.500000 0.500000 0.500000
O O9 0.544907 0.498556 0.670937
O O10 0.752048 0.407273 0.556590
O O11 0.466961 0.692098 0.070900
O O12 0.698507 0.777464 0.094964
O O13 0.588644 0.962913 0.790669
O O14 0.791075 0.093358 0.811533
O O15 0.500000 0.500000 0.000000
O O16 0.720096 0.244439 0.049750
O O17 0.898194 0.172452 0.912931
O O18 0.979438 0.810297 0.968546
#
# Coordination Sequence:
#
# PCOD9074284 Si02
#       8
#     2   2   2   2   2   2   2   2
#     4  12  28  45  70  98 143 185 230 285 341 422
#     4  10  25  46  70  96 135 189 230 278 342 416
#     4  11  26  43  71 103 138 185 238 285 338 415
#     4  10  22  45  72  98 141 179 230 282 350 405
#     4  11  26  46  67 102 139 176 235 281 352 403
#     4  11  23  40  75 103 133 179 224 288 335 423
#     4  10  23  45  70 101 135 175 221 300 343 405
#     4  11  23  43  71 104 135 175 229 275 359 401
#
# _framework density 22.038757
#
# number of rings (size 3 to 8) (size 9 to 14) (size 15 to 20)
#    0.000    1.250    2.500    1.500   10.500    4.000 
#    4.500    0.000    0.000    0.000    0.000    0.000 
#    0.000    0.000    0.000    0.000    0.000    0.000 
#
# Total GULP energy -89410.905380 kJ/mol
# GULP energy per Si atom -5588.181586 kJ/mol
# Density = 2.198860 g / cm^3
# Si number density = 22.038757 Si / 1000 Ang^3
#
#
#
# Elastic Constant Matrix: (Units=GPa)
#
#
# Indices 1 2 3 4 5 6 
#
# 1 96.1115 22.3219 29.2550 -9.8916 -10.0891 -16.9163
# 2 22.3219 136.6460 28.0814 -35.5212 -0.6531 -11.2206
# 3 29.2550 28.0814 65.6851 -13.5706 5.3629 -1.6914
# 4 -9.8916 -35.5212 -13.5706 44.7731 -7.5770 0.2275
# 5 -10.0891 -0.6531 5.3629 -7.5770 29.7892 -6.3939
# 6 -16.9163 -11.2206 -1.6914 0.2275 -6.3939 42.4758
#
#
#
# Elastic Compliance Matrix: (Units=1/GPa)
#
#
# Indices 1 2 3 4 5 6 
#
# 1 0.014749 0.000312 -0.006613 0.002890 0.008418 0.006944
# 2 0.000312 0.010217 -0.003099 0.007822 0.003563 0.003194
# 3 -0.006613 -0.003099 0.020158 0.001120 -0.006430 -0.003624
# 4 0.002890 0.007822 0.001120 0.031163 0.009858 0.004579
# 5 0.008418 0.003563 -0.006430 0.009858 0.042388 0.010366
# 6 0.006944 0.003194 -0.003624 0.004579 0.010366 0.028544
#
#
# Mechanical properties :
#
#
# Convention : Reuss Voigt Hill
#
# Bulk Modulus (GPa) = 37.99230 50.86213 44.42722
# Shear Modulus (GPa) = 28.60508 37.99324 33.29916
#
# Velocity S-wave (km/s) = 3.60661 4.15653 3.89129
# Velocity P-wave (km/s) = 5.88386 6.79442 6.35547
#
# Compressibility (1/GPa) = 0.02632112
#
# Stress axis : x y z
#
# Youngs Moduli (GPa) = 67.80279 97.87864 49.60891
#
# Poissons Ratio (x) = -0.03050 0.32808
# Poissons Ratio (y) = -0.02113 0.15375
# Poissons Ratio (z) = 0.44840 0.30335
#
# Static dielectric constant tensor:
#      x y z
#    x 1.931120 -0.104640 -0.078940 
#    y -0.104640 1.922140 0.124260 
#    z -0.078940 0.124260 1.903820 
# 
# From -- ./inp_files/494216.got.cif
#   From: 2010.05.17/outbox.ucp.g08.bks.cvg/sg2_248_cif.got.tgz:494216.got - 2010.06.11 11:32:03.
