data_PCOD9074851
_publ_section_title
;
Structure prediction by ZEFSAII (Michael W. Deem and Ramdas Pophale) SiO2 
 PCOD9074851
Probable space group: P -1
;
_chemical_formula_sum "Si O2"
_cell_formula_units_Z 16
_cell_length_a 9.000000
_cell_length_b 9.000000
_cell_length_c 12.000000
_cell_angle_alpha 60.000000
_cell_angle_beta 60.000000
_cell_angle_gamma 70.000000
_cell_volume 723.492119
_symmetry_space_group_name_H-M "P -1"
_symmetry_group_IT_number 2
_symmetry_cell_setting 'triclinic'
loop_
_space_group_symop_operation_xyz
x,y,z
-x,-y,-z
loop_
_atom_site_type_symbol
_atom_site_label
_atom_site_fract_x
_atom_site_fract_y
_atom_site_fract_z
Si Si1 0.056130 0.348091 0.623773
Si Si2 0.840145 0.630960 0.957760
Si Si3 0.199738 0.946904 0.911404
Si Si4 0.606049 0.744346 0.325847
Si Si5 0.466668 0.488912 0.749695
Si Si6 0.039503 0.958247 0.733491
Si Si7 0.375408 0.868055 0.548158
Si Si8 0.249914 0.581585 0.136807
O O1 0.254284 0.321004 0.603480
O O2 0.000000 0.500000 0.500000
O O3 0.946312 0.395584 0.756747
O O4 0.992641 0.165223 0.678509
O O5 0.758394 0.560759 0.901842
O O6 0.903153 0.820320 0.847826
O O7 0.685231 0.609765 0.106377
O O8 0.000000 0.500000 0.000000
O O9 0.175861 0.920511 0.799039
O O10 0.300439 0.111604 0.829424
O O11 0.279233 0.768340 0.004823
O O12 0.000000 0.000000 0.000000
O O13 0.525789 0.600544 0.339641
O O14 0.442299 0.845096 0.407601
O O15 0.412622 0.689327 0.669350
O O16 0.623872 0.465474 0.788076
O O17 0.170810 0.921247 0.597352
O O18 0.500000 0.000000 0.500000
#
# Coordination Sequence:
#
# PCOD9074851 Si02
#       8
#     2   2   2   2   2   2   2   2
#     4  11  24  45  71 100 142 184 235 285 352 422
#     4  12  23  45  73 105 138 181 234 290 355 417
#     4  11  19  39  70 101 132 182 230 281 347 415
#     4  11  24  44  74  97 141 191 233 281 352 425
#     4  12  27  45  69 105 145 181 238 289 352 419
#     4  11  23  43  74 103 136 185 235 288 348 426
#     4  12  23  44  71 101 139 186 237 281 350 419
#     4  12  25  42  70 104 144 177 233 297 347 412
#
# _framework density 22.114961000000001
#
# number of rings (size 3 to 8) (size 9 to 14) (size 15 to 20)
#    0.000    0.500    7.500    3.000    0.000    0.500 
#    0.000    1.875    0.000    0.000    0.000    0.000 
#    0.000    0.000    0.000    0.000    0.000    0.000 
#
# Total GULP energy -89238.291514 kJ/mol
# GULP energy per Si atom -5577.393220 kJ/mol
# Density = 2.206463 g / cm^3
# Si number density = 22.114961 Si / 1000 Ang^3
#
#
#
# Elastic Constant Matrix: (Units=GPa)
#
#
# Indices 1 2 3 4 5 6 
#
# 1 29.3011 -8.2600 -11.8587 -0.5014 3.0089 44.5046
# 2 -8.2600 95.1072 34.1063 -17.6674 1.1574 49.6064
# 3 -11.8587 34.1063 77.4363 -14.4174 -17.0164 19.6449
# 4 -0.5014 -17.6674 -14.4174 52.7568 -9.7442 -11.4817
# 5 3.0089 1.1574 -17.0164 -9.7442 38.0268 -2.1836
# 6 44.5046 49.6064 19.6449 -11.4817 -2.1836 26.5230
#
#
#
# Elastic Compliance Matrix: (Units=1/GPa)
#
#
# Indices 1 2 3 4 5 6 
#
# 1 -0.000108 -0.010503 0.000063 0.001305 0.001868 0.020496
# 2 -0.010503 0.009105 -0.007352 0.002084 -0.001812 0.006792
# 3 0.000063 -0.007352 0.018567 0.005095 0.010001 0.002922
# 4 0.001305 0.002084 0.005095 0.022658 0.007954 0.000603
# 5 0.001868 -0.001812 0.010001 0.007954 0.032659 -0.001020
# 6 0.020496 0.006792 0.002922 0.000603 -0.001020 -0.011380
#
#
# Mechanical properties :
#
#
# Convention : Reuss Voigt Hill
#
# Bulk Modulus (GPa) = -124.69102 25.53557 -49.57773
# Shear Modulus (GPa) = 47.88681 35.98514 41.93597
#
# Velocity S-wave (km/s) = 4.65839 4.03821 4.35934
# Velocity P-wave (km/s) = 5.25085 5.77189 1.69460
#
# Compressibility (1/GPa) = -0.00801982
#
# Stress axis : x y z
#
# Youngs Moduli (GPa) = -9283.64647 109.82473 53.86023
#
# Poissons Ratio (x) = 1.15348 -0.00339
# Poissons Ratio (y) = -97.50554 0.39599
# Poissons Ratio (z) = 0.58513 0.80745
#
# Static dielectric constant tensor:
#      x y z
#    x 4.194090 1.078810 0.226890 
#    y 1.078810 2.540740 0.350220 
#    z 0.226890 0.350220 2.104290 
# 
# From -- ./inp_files/381251.got.cif
#   From: 2010.05.17/outbox.ucp.g08.bks.cvg/sg2_191_cif.got.tgz:381251.got - 2010.06.11 11:32:03.
