data_PCOD9074227
_publ_section_title
;
Structure prediction by ZEFSAII (Michael W. Deem and Ramdas Pophale) SiO2 
 PCOD9074227
Probable space group: P -1
;
_chemical_formula_sum "Si O2"
_cell_formula_units_Z 16
_cell_length_a 15.000000
_cell_length_b 12.000000
_cell_length_c 9.000000
_cell_angle_alpha 70.000000
_cell_angle_beta 110.000000
_cell_angle_gamma 50.000000
_cell_volume 728.972637
_symmetry_space_group_name_H-M "P -1"
_symmetry_group_IT_number 2
_symmetry_cell_setting 'triclinic'
loop_
_space_group_symop_operation_xyz
x,y,z
-x,-y,-z
loop_
_atom_site_type_symbol
_atom_site_label
_atom_site_fract_x
_atom_site_fract_y
_atom_site_fract_z
Si Si1 0.787378 0.553527 0.058874
Si Si2 0.413123 0.791646 0.192390
Si Si3 0.150784 0.054371 0.423656
Si Si4 0.455777 0.564819 0.771730
Si Si5 0.676121 0.532955 0.735014
Si Si6 0.051661 0.469605 0.372349
Si Si7 0.401573 0.945880 0.824000
Si Si8 0.056386 0.172784 0.997377
O O1 0.910763 0.537844 0.165262
O O2 0.703412 0.618598 0.817572
O O3 0.615120 0.730576 0.993524
O O4 0.949722 0.277299 0.285599
O O5 0.505654 0.589803 0.237638
O O6 0.543793 0.692410 0.446156
O O7 0.380496 0.930886 0.990757
O O8 0.226308 0.944387 0.097606
O O9 0.239085 0.835139 0.525630
O O10 0.301379 0.952445 0.663829
O O11 0.134269 0.137022 0.216873
O O12 0.580938 0.534906 0.783309
O O13 0.500000 0.500000 0.000000
O O14 0.881505 0.281750 0.901379
O O15 0.000000 0.500000 0.500000
O O16 0.024677 0.632129 0.232927
O O17 0.266879 0.201230 0.599154
#
# Coordination Sequence:
#
# PCOD9074227 Si02
#       8
#     2   2   2   2   2   2   2   2
#     4  10  23  44  70  97 138 177 228 276 336 406
#     4  12  24  42  72  96 147 177 220 293 333 393
#     4  10  22  44  67  95 141 170 223 284 332 406
#     4  12  23  46  72 100 136 184 222 282 346 398
#     4  11  25  44  68 103 138 173 232 274 342 413
#     4  11  25  43  71 101 139 180 227 285 340 393
#     4  11  22  43  70 101 137 179 230 276 336 410
#     4  11  25  46  67 101 140 179 225 284 341 399
#
# _framework density 21.948698
#
# number of rings (size 3 to 8) (size 9 to 14) (size 15 to 20)
#    0.000    1.000    5.000    0.375    1.750    6.500 
#    2.250    6.875    0.000    0.000    0.000    0.000 
#    0.000    0.000    0.000    0.000    0.000    0.000 
#
# Total GULP energy -89361.506915 kJ/mol
# GULP energy per Si atom -5585.094182 kJ/mol
# Density = 2.189874 g / cm^3
# Si number density = 21.948698 Si / 1000 Ang^3
#
#
#
# Elastic Constant Matrix: (Units=GPa)
#
#
# Indices 1 2 3 4 5 6 
#
# 1 47.8509 18.6019 42.1895 0.8054 6.2821 -22.4581
# 2 18.6019 100.7905 42.3362 -10.4478 5.4356 -21.0983
# 3 42.1895 42.3362 108.0952 -0.0449 2.2221 -14.0782
# 4 0.8054 -10.4478 -0.0449 49.4020 -15.4312 6.6377
# 5 6.2821 5.4356 2.2221 -15.4312 31.2541 -4.8587
# 6 -22.4581 -21.0983 -14.0782 6.6377 -4.8587 44.6403
#
#
#
# Elastic Compliance Matrix: (Units=1/GPa)
#
#
# Indices 1 2 3 4 5 6 
#
# 1 0.042695 0.001995 -0.014997 -0.005031 -0.007608 0.017613
# 2 0.001995 0.013047 -0.005200 0.001842 -0.000584 0.005193
# 3 -0.014997 -0.005200 0.016492 0.000490 0.002269 -0.004627
# 4 -0.005031 0.001842 0.000490 0.025128 0.012458 -0.003886
# 5 -0.007608 -0.000584 0.002269 0.012458 0.039469 -0.000945
# 6 0.017613 0.005193 -0.004627 -0.003886 -0.000945 0.032732
#
#
# Mechanical properties :
#
#
# Convention : Reuss Voigt Hill
#
# Bulk Modulus (GPa) = 27.90875 51.44353 39.67614
# Shear Modulus (GPa) = 22.94527 35.29990 29.12258
#
# Velocity S-wave (km/s) = 3.23678 4.01470 3.64654
# Velocity P-wave (km/s) = 5.16837 6.70667 5.98713
#
# Compressibility (1/GPa) = 0.03583105
#
# Stress axis : x y z
#
# Youngs Moduli (GPa) = 23.42175 76.64735 60.63601
#
# Poissons Ratio (x) = -0.15294 0.90937
# Poissons Ratio (y) = -0.04673 0.31528
# Poissons Ratio (z) = 0.35126 0.39853
#
# Static dielectric constant tensor:
#      x y z
#    x 1.785380 0.029180 -0.004960 
#    y 0.029180 1.838000 -0.038780 
#    z -0.004960 -0.038780 1.859540 
# 
# From -- ./inp_files/307107.got.cif
#   From: 2010.05.17/outbox.ucp.g08.bks.cvg/sg2_154_cif.got.tgz:307107.got - 2010.06.11 11:32:03.
