data_PCOD9074384
_publ_section_title
;
Structure prediction by ZEFSAII (Michael W. Deem and Ramdas Pophale) SiO2 
 PCOD9074384
Probable space group: P -1
;
_chemical_formula_sum "Si O2"
_cell_formula_units_Z 14
_cell_length_a 20.768040
_cell_length_b 8.764689
_cell_length_c 5.019840
_cell_angle_alpha 75.657216
_cell_angle_beta 89.301819
_cell_angle_gamma 39.865038
_cell_volume 543.636778
_symmetry_space_group_name_H-M "P -1"
_symmetry_group_IT_number 2
_symmetry_cell_setting 'triclinic'
loop_
_space_group_symop_operation_xyz
x,y,z
-x,-y,-z
loop_
_atom_site_type_symbol
_atom_site_label
_atom_site_fract_x
_atom_site_fract_y
_atom_site_fract_z
Si Si1 0.925518 0.607546 0.711208
Si Si2 0.577848 0.000096 0.051909
Si Si3 0.961376 0.209935 0.713358
Si Si4 0.831652 0.260991 0.292893
Si Si5 0.415740 0.481269 0.168574
Si Si6 0.290547 0.789900 0.531729
Si Si7 0.673660 0.693192 0.690641
O O1 0.000000 0.500000 0.500000
O O2 0.907914 0.454965 0.758312
O O3 0.811371 0.905525 0.623020
O O4 0.000000 0.500000 0.000000
O O5 0.520521 0.259586 0.079031
O O6 0.664340 0.779247 0.358369
O O7 0.500000 0.000000 0.000000
O O8 0.627894 0.917321 0.793613
O O9 0.888400 0.282378 0.456049
O O10 0.073594 0.040197 0.655512
O O11 0.000000 0.000000 0.000000
O O12 0.752702 0.306558 0.447125
O O13 0.775587 0.435533 0.957040
O O14 0.384972 0.622800 0.386820
O O15 0.396750 0.330543 0.291226
O O16 0.332588 0.710833 0.863896
#
# Coordination Sequence:
#
# PCOD9074384 Si02
#       7
#     2   2   2   2   2   2   2
#     4  12  25  43  63  90 123 163 213 256 311 367
#     4  10  18  32  50  86 123 158 191 251 313 365
#     4  11  25  42  64  87 128 166 212 261 307 370
#     4  10  23  38  58  91 120 167 206 253 312 365
#     4  10  19  32  54  84 121 155 196 244 307 364
#     4  11  21  36  60  87 120 162 199 248 304 365
#     4  10  19  30  55  82 123 159 198 246 309 369
#
# _framework density 25.752488
#
# number of rings (size 3 to 8) (size 9 to 14) (size 15 to 20)
#    0.000    1.429    1.429    6.857   10.000    0.000 
#    0.000    0.000    0.000    0.000    0.000    6.000 
#    0.000    0.000    0.000    0.000    0.000    0.000 
#
# Total GULP energy -78262.946309 kJ/mol
# GULP energy per Si atom -5590.210451 kJ/mol
# Density = 2.569387 g / cm^3
# Si number density = 25.752488 Si / 1000 Ang^3
#
#
#
# Elastic Constant Matrix: (Units=GPa)
#
#
# Indices 1 2 3 4 5 6 
#
# 1 44.6027 18.9985 6.0326 -1.2067 2.4802 -1.3746
# 2 18.9985 171.3148 44.5305 -12.9586 -5.2387 1.2178
# 3 6.0326 44.5305 157.5773 5.0069 13.6960 5.6142
# 4 -1.2067 -12.9586 5.0069 54.6248 -12.0771 -2.7584
# 5 2.4802 -5.2387 13.6960 -12.0771 23.1881 2.0635
# 6 -1.3746 1.2178 5.6142 -2.7584 2.0635 36.8561
#
#
#
# Elastic Compliance Matrix: (Units=1/GPa)
#
#
# Indices 1 2 3 4 5 6 
#
# 1 0.023857 -0.002917 0.000250 -0.001013 -0.003984 0.001095
# 2 -0.002917 0.007165 -0.002432 0.002940 0.004901 -0.000029
# 3 0.000250 -0.002432 0.007708 -0.002758 -0.006483 -0.000928
# 4 -0.001013 0.002940 -0.002758 0.022379 0.013952 0.001179
# 5 -0.003984 0.004901 -0.006483 0.013952 0.055880 -0.001407
# 6 0.001095 -0.000029 -0.000928 0.001179 -0.001407 0.027483
#
#
# Mechanical properties :
#
#
# Convention : Reuss Voigt Hill
#
# Bulk Modulus (GPa) = 35.04656 56.95756 46.00206
# Shear Modulus (GPa) = 30.45464 43.19600 36.82532
#
# Velocity S-wave (km/s) = 3.44261 4.09999 3.78560
# Velocity P-wave (km/s) = 5.42592 6.67672 6.08355
#
# Compressibility (1/GPa) = 0.02853347
#
# Stress axis : x y z
#
# Youngs Moduli (GPa) = 41.91701 139.56281 129.73923
#
# Poissons Ratio (x) = 0.40711 -0.03250
# Poissons Ratio (y) = 0.12227 0.31547
# Poissons Ratio (z) = -0.01050 0.33935
#
# Static dielectric constant tensor:
#      x y z
#    x 2.158600 -0.114710 -0.060320 
#    y -0.114710 2.148720 0.044360 
#    z -0.060320 0.044360 1.947670 
# 
# From -- ./inp_files/122523.got.cif
#   From: 2010.05.17/outbox.cif.g08.bks.cpg/sg2_62_cif.got.tgz:122523.got - 2010.06.03 11:33:40.
