data_PCOD9074943
_publ_section_title
;
Structure prediction by ZEFSAII (Michael W. Deem and Ramdas Pophale) SiO2 
 PCOD9074943
Probable space group: P -1
;
_chemical_formula_sum "Si O2"
_cell_formula_units_Z 16
_cell_length_a 12.000000
_cell_length_b 15.000000
_cell_length_c 18.000000
_cell_angle_alpha 150.000000
_cell_angle_beta 50.000000
_cell_angle_gamma 150.000000
_cell_volume 731.734496
_symmetry_space_group_name_H-M "P -1"
_symmetry_group_IT_number 2
_symmetry_cell_setting 'triclinic'
loop_
_space_group_symop_operation_xyz
x,y,z
-x,-y,-z
loop_
_atom_site_type_symbol
_atom_site_label
_atom_site_fract_x
_atom_site_fract_y
_atom_site_fract_z
Si Si1 0.401867 0.766588 0.172753
Si Si2 0.138370 0.313661 0.480638
Si Si3 0.726523 0.167622 0.858964
Si Si4 0.619789 0.609636 0.169451
Si Si5 0.065757 0.605929 0.632094
Si Si6 0.793419 0.535667 0.815540
Si Si7 0.464953 0.314149 0.305608
Si Si8 0.631660 0.881336 0.959575
O O1 0.303522 0.836373 0.218950
O O2 0.342033 0.720995 0.251280
O O3 0.688570 0.033131 0.221447
O O4 0.290439 0.470905 0.976390
O O5 0.129685 0.496464 0.575713
O O6 0.336621 0.380277 0.403156
O O7 0.255508 0.426201 0.595060
O O8 0.861566 0.964563 0.339748
O O9 0.686289 0.938207 0.747403
O O10 0.515615 0.089216 0.927198
O O11 0.000000 0.500000 0.000000
O O12 0.398214 0.493176 0.137568
O O13 0.502581 0.412842 0.152364
O O14 0.000000 0.500000 0.500000
O O15 0.846529 0.492837 0.684299
O O16 0.075405 0.841017 0.946140
O O17 0.418297 0.176624 0.148051
#
# Coordination Sequence:
#
# PCOD9074943 Si02
#       8
#     2   2   2   2   2   2   2   2
#     4  11  24  45  71 103 135 182 239 287 347 419
#     4  11  25  46  64 101 149 184 235 283 362 412
#     4  11  21  41  68 101 136 177 232 293 348 411
#     4  11  24  43  71 105 142 186 239 291 349 422
#     4  12  27  47  69 101 147 184 237 293 351 423
#     4  12  24  45  74 103 141 188 237 295 352 414
#     4  11  23  42  71  96 146 191 222 298 350 419
#     4  11  23  41  70 107 136 178 244 290 353 419
#
# _framework density 21.865853999999999
#
# number of rings (size 3 to 8) (size 9 to 14) (size 15 to 20)
#    0.000    0.750    3.750    4.875    1.750    3.500 
#    0.000    0.000    0.000    0.000    0.000    0.000 
#    0.000    0.000    0.000    0.000    0.000    0.000 
#
# Total GULP energy -89357.969983 kJ/mol
# GULP energy per Si atom -5584.873124 kJ/mol
# Density = 2.181609 g / cm^3
# Si number density = 21.865854 Si / 1000 Ang^3
#
#
#
# Elastic Constant Matrix: (Units=GPa)
#
#
# Indices 1 2 3 4 5 6 
#
# 1 70.1760 14.5490 22.7981 5.0371 24.9452 2.1119
# 2 14.5490 90.3607 25.5591 9.4844 6.5973 -8.3079
# 3 22.7981 25.5591 78.3097 13.9591 11.7512 -0.3620
# 4 5.0371 9.4844 13.9591 35.8684 -9.1743 12.0123
# 5 24.9452 6.5973 11.7512 -9.1743 25.6321 3.3480
# 6 2.1119 -8.3079 -0.3620 12.0123 3.3480 42.4557
#
#
#
# Elastic Compliance Matrix: (Units=1/GPa)
#
#
# Indices 1 2 3 4 5 6 
#
# 1 0.025912 -0.000026 -0.000790 -0.012522 -0.029931 0.004602
# 2 -0.000026 0.013074 -0.002681 -0.004991 -0.004459 0.004300
# 3 -0.000790 -0.002681 0.017115 -0.009507 -0.010202 0.003155
# 4 -0.012522 -0.004991 -0.009507 0.050341 0.038157 -0.017687
# 5 -0.029931 -0.004459 -0.010202 0.038157 0.089892 -0.017355
# 6 0.004602 0.004300 0.003155 -0.017687 -0.017355 0.030566
#
#
# Mechanical properties :
#
#
# Convention : Reuss Voigt Hill
#
# Bulk Modulus (GPa) = 20.36390 40.51765 30.44078
# Shear Modulus (GPa) = 19.97896 32.52060 26.24978
#
# Velocity S-wave (km/s) = 3.02604 3.86071 3.46857
# Velocity P-wave (km/s) = 4.64139 6.20030 5.47660
#
# Compressibility (1/GPa) = 0.04910650
#
# Stress axis : x y z
#
# Youngs Moduli (GPa) = 38.59238 76.48751 58.42779
#
# Poissons Ratio (x) = 0.00197 0.04618
# Poissons Ratio (y) = 0.00099 0.15665
# Poissons Ratio (z) = 0.03050 0.20507
#
# Static dielectric constant tensor:
#      x y z
#    x 1.817900 -0.000790 0.031810 
#    y -0.000790 1.773570 -0.001410 
#    z 0.031810 -0.001410 1.900610 
# 
# From -- ./inp_files/515565.got.cif
#   From: 2010.05.17/outbox.ucp.g08.bks.cvg/sg2_258_cif.got.tgz:515565.got - 2010.06.11 11:32:03.
