data_PCOD9074533
_publ_section_title
;
Structure prediction by ZEFSAII (Michael W. Deem and Ramdas Pophale) SiO2 
 PCOD9074533
Probable space group: P -1
;
_chemical_formula_sum "Si O2"
_cell_formula_units_Z 12
_cell_length_a 9.000000
_cell_length_b 9.000000
_cell_length_c 12.000000
_cell_angle_alpha 80.000000
_cell_angle_beta 130.000000
_cell_angle_gamma 130.000000
_cell_volume 520.713542
_symmetry_space_group_name_H-M "P -1"
_symmetry_group_IT_number 2
_symmetry_cell_setting 'triclinic'
loop_
_space_group_symop_operation_xyz
x,y,z
-x,-y,-z
loop_
_atom_site_type_symbol
_atom_site_label
_atom_site_fract_x
_atom_site_fract_y
_atom_site_fract_z
Si Si1 0.438904 0.596298 0.342197
Si Si2 0.498626 0.341946 0.873095
Si Si3 0.016332 0.159393 0.302967
Si Si4 0.781848 0.354556 0.210623
Si Si5 0.675014 0.790341 0.849063
Si Si6 0.355501 0.762257 0.490410
O O1 0.424170 0.673532 0.209752
O O2 0.370906 0.668775 0.400228
O O3 0.758216 0.733827 0.502989
O O4 0.220655 0.337556 0.280074
O O5 0.552596 0.553677 0.852563
O O6 0.192443 0.098339 0.780367
O O7 0.721942 0.409833 0.060154
O O8 0.845801 0.214556 0.241333
O O9 0.485671 0.195563 0.142671
O O10 0.023625 0.571251 0.370162
O O11 0.535854 0.781273 0.670291
O O12 0.000000 0.000000 0.000000
O O13 0.500000 0.000000 0.500000
#
# Coordination Sequence:
#
# PCOD9074533 Si02
#       6
#     2   2   2   2   2   2
#     4  10  24  44  74 105 148 184 246 293 367 421
#     4  12  25  44  76 105 144 193 238 298 363 425
#     4  10  23  45  69 107 143 193 235 300 350 435
#     4  11  26  46  71 111 144 189 246 294 360 433
#     4  12  28  48  74 104 149 194 242 302 360 429
#     4  11  26  47  74 106 146 192 240 300 363 434
#
# _framework density 23.045300000000001
#
# number of rings (size 3 to 8) (size 9 to 14) (size 15 to 20)
#    0.000    1.000    0.000    6.000    9.333    2.667 
#    0.000    0.000    0.000    0.000    0.000    0.000 
#    0.000    0.000    0.000    0.000    0.000    0.000 
#
# Total GULP energy -66868.226488 kJ/mol
# GULP energy per Si atom -5572.352207 kJ/mol
# Density = 2.299285 g / cm^3
# Si number density = 23.045300 Si / 1000 Ang^3
#
#
#
# Elastic Constant Matrix: (Units=GPa)
#
#
# Indices 1 2 3 4 5 6 
#
# 1 73.9463 35.0884 40.4509 -11.9705 22.4384 15.2935
# 2 35.0884 173.1544 65.4747 29.0290 27.5176 -4.6280
# 3 40.4509 65.4747 150.3323 28.0555 17.8592 25.7354
# 4 -11.9705 29.0290 28.0555 43.8570 17.0986 3.1465
# 5 22.4384 27.5176 17.8592 17.0986 35.3948 -1.4376
# 6 15.2935 -4.6280 25.7354 3.1465 -1.4376 34.1526
#
#
#
# Elastic Compliance Matrix: (Units=1/GPa)
#
#
# Indices 1 2 3 4 5 6 
#
# 1 0.040171 -0.006124 -0.007440 0.034433 -0.034310 -0.017829
# 2 -0.006124 0.008955 -0.002183 -0.007377 0.001843 0.006358
# 3 -0.007440 -0.002183 0.011592 -0.009633 0.005031 -0.004600
# 4 0.034433 -0.007377 -0.009633 0.060451 -0.041104 -0.016460
# 5 -0.034310 0.001843 0.005031 -0.041104 0.066636 0.018414
# 6 -0.017829 0.006358 -0.004600 -0.016460 0.018414 0.043884
#
#
# Mechanical properties :
#
#
# Convention : Reuss Voigt Hill
#
# Bulk Modulus (GPa) = 34.21749 75.49566 54.85657
# Shear Modulus (GPa) = 18.32005 39.77547 29.04776
#
# Velocity S-wave (km/s) = 2.82256 4.15898 3.55415
# Velocity P-wave (km/s) = 5.05001 7.47621 6.37951
#
# Compressibility (1/GPa) = 0.02922482
#
# Stress axis : x y z
#
# Youngs Moduli (GPa) = 24.89341 111.66356 86.26451
#
# Poissons Ratio (x) = 0.68380 0.64181
# Poissons Ratio (y) = 0.15244 0.18835
# Poissons Ratio (z) = 0.18521 0.24380
#
# Static dielectric constant tensor:
#      x y z
#    x 2.030790 0.040670 -0.013920 
#    y 0.040670 1.874530 -0.000020 
#    z -0.013920 -0.000020 1.915610 
# 
# From -- ./inp_files/382143.got.cif
#   From: 2010.05.17/outbox.ucp.g08.bks.cvg/sg2_192_cif.got.tgz:382143.got - 2010.06.11 11:32:03.
