data_PCOD9074000
_publ_section_title
;
Structure prediction by ZEFSAII (Michael W. Deem and Ramdas Pophale) SiO2 
 PCOD9074000
Probable space group: P -1
;
_chemical_formula_sum "Si O2"
_cell_formula_units_Z 12
_cell_length_a 9.000000
_cell_length_b 9.000000
_cell_length_c 12.000000
_cell_angle_alpha 70.000000
_cell_angle_beta 140.000000
_cell_angle_gamma 100.000000
_cell_volume 580.795013
_symmetry_space_group_name_H-M "P -1"
_symmetry_group_IT_number 2
_symmetry_cell_setting 'triclinic'
loop_
_space_group_symop_operation_xyz
x,y,z
-x,-y,-z
loop_
_atom_site_type_symbol
_atom_site_label
_atom_site_fract_x
_atom_site_fract_y
_atom_site_fract_z
Si Si1 0.172799 0.350025 0.295929
Si Si2 0.270076 0.116435 0.956802
Si Si3 0.504847 0.560542 0.348304
Si Si4 0.668783 0.241697 0.014282
Si Si5 0.757382 0.195572 0.579926
Si Si6 0.650791 0.904006 0.734983
O O1 0.245858 0.520801 0.249954
O O2 0.342032 0.339708 0.506968
O O3 0.247280 0.222071 0.271118
O O4 0.903502 0.316806 0.168375
O O5 0.491051 0.196783 0.019317
O O6 0.033407 0.192953 0.739624
O O7 0.256360 0.132734 0.078498
O O8 0.279869 0.928961 0.977672
O O9 0.465103 0.638510 0.184813
O O10 0.645803 0.380737 0.473068
O O11 0.625909 0.113029 0.426192
O O12 0.704475 0.077749 0.681670
#
# Coordination Sequence:
#
# PCOD9074000 Si02
#       6
#     2   2   2   2   2   2
#     4  10  22  42  68  97 122 167 211 264 313 368
#     4  11  25  41  65  93 133 169 207 256 315 383
#     4  10  24  40  67  96 128 159 212 269 312 363
#     4  11  25  42  62  97 131 170 204 256 324 378
#     4  10  22  41  65  98 120 167 214 263 308 364
#     4  10  22  40  70  93 123 166 221 257 304 372
#
# _framework density 20.661334
#
# number of rings (size 3 to 8) (size 9 to 14) (size 15 to 20)
#    0.000    1.667    1.667    1.000    9.333    4.667 
#    0.000    9.167    0.000    3.000    0.000    0.000 
#    0.000    0.000    0.000    0.000    0.000    0.000 
#
# Total GULP energy -66864.332758 kJ/mol
# GULP energy per Si atom -5572.027730 kJ/mol
# Density = 2.061431 g / cm^3
# Si number density = 20.661334 Si / 1000 Ang^3
#
#
#
# Elastic Constant Matrix: (Units=GPa)
#
#
# Indices 1 2 3 4 5 6 
#
# 1 60.0761 47.3547 39.5456 10.7591 9.8044 17.3065
# 2 47.3547 116.9388 53.9639 15.3060 7.5463 20.7266
# 3 39.5456 53.9639 109.9375 23.0932 11.2559 11.5920
# 4 10.7591 15.3060 23.0932 48.9337 10.3103 8.8596
# 5 9.8044 7.5463 11.2559 10.3103 35.8899 7.0349
# 6 17.3065 20.7266 11.5920 8.8596 7.0349 33.3861
#
#
#
# Elastic Compliance Matrix: (Units=1/GPa)
#
#
# Indices 1 2 3 4 5 6 
#
# 1 0.029086 -0.007638 -0.005719 0.000801 -0.003231 -0.007881
# 2 -0.007638 0.014000 -0.003760 -0.000532 0.001167 -0.003531
# 3 -0.005719 -0.003760 0.013797 -0.004173 -0.001139 0.001856
# 4 0.000801 -0.000532 -0.004173 0.024165 -0.004955 -0.004004
# 5 -0.003231 0.001167 -0.001139 -0.004955 0.031041 -0.003880
# 6 -0.007881 -0.003531 0.001856 -0.004004 -0.003880 0.037466
#
#
# Mechanical properties :
#
#
# Convention : Reuss Voigt Hill
#
# Bulk Modulus (GPa) = 44.15661 63.18675 53.67168
# Shear Modulus (GPa) = 26.13174 33.38115 29.75645
#
# Velocity S-wave (km/s) = 3.56021 4.02386 3.79911
# Velocity P-wave (km/s) = 6.19017 7.22752 6.72886
#
# Compressibility (1/GPa) = 0.02264666
#
# Stress axis : x y z
#
# Youngs Moduli (GPa) = 34.38130 71.42918 72.48210
#
# Poissons Ratio (x) = 0.54560 0.41456
# Poissons Ratio (y) = 0.26262 0.27252
# Poissons Ratio (z) = 0.19664 0.26856
#
# Static dielectric constant tensor:
#      x y z
#    x 1.810190 -0.032990 0.065600 
#    y -0.032990 1.739800 -0.024750 
#    z 0.065600 -0.024750 1.793730 
# 
# From -- ./inp_files/277282.got.cif
#   From: 2010.05.17/outbox.ucp.g08.bks.cvg/sg2_139_cif.got.tgz:277282.got - 2010.06.11 11:32:03.
