data_PCOD9074567
_publ_section_title
;
Structure prediction by ZEFSAII (Michael W. Deem and Ramdas Pophale) SiO2 
 PCOD9074567
Probable space group: P -1
;
_chemical_formula_sum "Si O2"
_cell_formula_units_Z 14
_cell_length_a 15.000000
_cell_length_b 12.000000
_cell_length_c 6.000000
_cell_angle_alpha 100.000000
_cell_angle_beta 110.000000
_cell_angle_gamma 40.000000
_cell_volume 645.327792
_symmetry_space_group_name_H-M "P -1"
_symmetry_group_IT_number 2
_symmetry_cell_setting 'triclinic'
loop_
_space_group_symop_operation_xyz
x,y,z
-x,-y,-z
loop_
_atom_site_type_symbol
_atom_site_label
_atom_site_fract_x
_atom_site_fract_y
_atom_site_fract_z
Si Si1 0.075991 0.248354 0.980984
Si Si2 0.886823 0.581343 0.630176
Si Si3 0.641552 0.025776 0.158846
Si Si4 0.417786 0.142198 0.678954
Si Si5 0.669674 0.312182 0.049679
Si Si6 0.037053 0.847418 0.863061
Si Si7 0.276650 0.850978 0.467851
O O1 0.144701 0.267873 0.234266
O O2 0.984822 0.231572 0.006345
O O3 0.967782 0.426353 0.815032
O O4 0.207243 0.088775 0.880716
O O5 0.732456 0.667076 0.466661
O O6 0.000000 0.500000 0.500000
O O7 0.628845 0.122618 0.388577
O O8 0.637928 0.902757 0.210011
O O9 0.517500 0.138085 0.901303
O O10 0.500000 0.000000 0.500000
O O11 0.797662 0.290767 0.131147
O O12 0.702210 0.231757 0.301611
O O13 0.500000 0.500000 0.000000
O O14 0.684885 0.234533 0.782429
O O15 0.897350 0.960472 0.620919
O O16 0.000000 0.000000 0.000000
#
# Coordination Sequence:
#
# PCOD9074567 Si02
#       7
#     2   2   2   2   2   2   2
#     4  11  23  42  70 101 142 189 241 305 362 430
#     4  11  23  44  67 100 146 187 239 296 370 432
#     4  11  23  40  68  99 136 187 244 295 356 430
#     4  11  23  41  66  98 141 186 238 297 358 433
#     4  11  25  49  73 107 150 181 233 311 372 430
#     4  10  23  46  75 104 136 190 246 293 357 441
#     4  11  24  46  76 102 141 193 245 293 361 442
#
# _framework density 21.694400999999999
#
# number of rings (size 3 to 8) (size 9 to 14) (size 15 to 20)
#    0.000    1.143    2.857    3.429    2.000    1.143 
#    5.143    0.000    0.000    0.000    0.000    0.000 
#    0.000    0.000    0.000    0.000    0.000    0.000 
#
# Total GULP energy -78029.669986 kJ/mol
# GULP energy per Si atom -5573.547856 kJ/mol
# Density = 2.164502 g / cm^3
# Si number density = 21.694401 Si / 1000 Ang^3
#
#
#
# Elastic Constant Matrix: (Units=GPa)
#
#
# Indices 1 2 3 4 5 6 
#
# 1 116.5269 56.3956 39.3418 -16.1405 -4.6979 -5.0907
# 2 56.3956 75.5653 51.5658 -6.2797 2.5102 -31.3653
# 3 39.3418 51.5658 149.0878 1.6748 12.2052 -8.5812
# 4 -16.1405 -6.2797 1.6748 39.9299 -1.0468 1.3422
# 5 -4.6979 2.5102 12.2052 -1.0468 47.8958 -8.3124
# 6 -5.0907 -31.3653 -8.5812 1.3422 -8.3124 41.9424
#
#
#
# Elastic Compliance Matrix: (Units=1/GPa)
#
#
# Indices 1 2 3 4 5 6 
#
# 1 0.016774 -0.017117 0.000784 0.004429 0.000595 -0.010628
# 2 -0.017117 0.045004 -0.009598 -0.000363 0.003668 0.030352
# 3 0.000784 -0.009598 0.009752 -0.001489 -0.002913 -0.005617
# 4 0.004429 -0.000363 -0.001489 0.026895 0.001310 -0.000639
# 5 0.000595 0.003668 -0.002913 0.001310 0.022673 0.006671
# 6 -0.010628 0.030352 -0.005617 -0.000639 0.006671 0.045444
#
#
# Mechanical properties :
#
#
# Convention : Reuss Voigt Hill
#
# Bulk Modulus (GPa) = 50.84304 70.64291 60.74297
# Shear Modulus (GPa) = 22.22598 38.87875 30.55237
#
# Velocity S-wave (km/s) = 3.20426 4.23792 3.75681
# Velocity P-wave (km/s) = 6.09726 7.52197 6.84678
#
# Compressibility (1/GPa) = 0.01966838
#
# Stress axis : x y z
#
# Youngs Moduli (GPa) = 59.61549 22.22006 102.53906
#
# Poissons Ratio (x) = 0.38033 -0.08035
# Poissons Ratio (y) = 1.02041 0.98420
# Poissons Ratio (z) = -0.04672 0.21328
#
# Static dielectric constant tensor:
#      x y z
#    x 1.800690 0.047360 0.026750 
#    y 0.047360 1.770380 -0.000960 
#    z 0.026750 -0.000960 1.881070 
# 
# From -- ./inp_files/95186.got.cif
#   From: 2010.05.17/outbox.ucp.g08.bks.cvg/sg2_48_cif.got.tgz:95186.got - 2010.06.11 11:32:03.
