data_PCOD9074875
_publ_section_title
;
Structure prediction by ZEFSAII (Michael W. Deem and Ramdas Pophale) SiO2 
 PCOD9074875
Probable space group: P -1
;
_chemical_formula_sum "Si O2"
_cell_formula_units_Z 16
_cell_length_a 14.746296
_cell_length_b 12.010280
_cell_length_c 14.529066
_cell_angle_alpha 108.482255
_cell_angle_beta 160.142949
_cell_angle_gamma 74.192534
_cell_volume 826.315529
_symmetry_space_group_name_H-M "P -1"
_symmetry_group_IT_number 2
_symmetry_cell_setting 'triclinic'
loop_
_space_group_symop_operation_xyz
x,y,z
-x,-y,-z
loop_
_atom_site_type_symbol
_atom_site_label
_atom_site_fract_x
_atom_site_fract_y
_atom_site_fract_z
Si Si1 0.890813 0.301911 0.589658
Si Si2 0.745094 0.067994 0.806331
Si Si3 0.394530 0.438253 0.167416
Si Si4 0.493504 0.015363 0.257279
Si Si5 0.222274 0.657083 0.140561
Si Si6 0.698528 0.651976 0.734732
Si Si7 0.735663 0.041781 0.304068
Si Si8 0.013017 0.153305 0.836481
O O1 0.685430 0.400883 0.411375
O O2 0.793252 0.183395 0.410509
O O3 0.898105 0.251079 0.687199
O O4 0.189351 0.363036 0.884783
O O5 0.683151 0.057667 0.854524
O O6 0.775020 0.207384 0.850814
O O7 0.500000 0.000000 0.500000
O O8 0.000000 0.000000 0.000000
O O9 0.335990 0.574176 0.149426
O O10 0.346383 0.400906 0.220043
O O11 0.654970 0.983829 0.311485
O O12 0.744404 0.071367 0.572429
O O13 0.265102 0.094474 0.016852
O O14 0.424272 0.652544 0.418557
O O15 0.928258 0.601854 0.877754
O O16 0.835375 0.783159 0.917237
O O17 0.000000 0.000000 0.500000
O O18 0.500000 0.000000 0.000000
#
# Coordination Sequence:
#
# PCOD9074875 Si02
#       8
#     2   2   2   2   2   2   2   2
#     4  10  20  34  53  79 108 137 165 210 279 343
#     4  12  25  38  55  78 111 156 198 227 262 313
#     4  11  21  34  51  74 106 146 181 222 276 322
#     4  11  21  36  54  80 114 148 182 224 274 326
#     4  12  23  34  49  74 103 143 194 234 261 311
#     4  11  19  32  50  73 104 139 185 233 267 303
#     4  11  21  36  60  90 113 135 172 226 289 348
#     4  10  18  32  53  74 105 146 179 216 270 328
#
# _framework density 19.363063
#
# number of rings (size 3 to 8) (size 9 to 14) (size 15 to 20)
#    0.000    1.000    0.000   12.750    0.000    0.000 
#    0.000    0.000    0.000    0.000    0.000    5.250 
#    0.000    0.000    0.000    0.000    0.000    0.000 
#
# Total GULP energy -89167.156457 kJ/mol
# GULP energy per Si atom -5572.947279 kJ/mol
# Density = 1.931899 g / cm^3
# Si number density = 19.363063 Si / 1000 Ang^3
#
#
#
# Elastic Constant Matrix: (Units=GPa)
#
#
# Indices 1 2 3 4 5 6 
#
# 1 80.7803 23.7484 20.0442 -2.7374 9.4334 -4.9779
# 2 23.7484 88.4100 29.0525 -1.4889 -0.8775 -8.9767
# 3 20.0442 29.0525 124.9575 -7.9362 8.3411 -4.5309
# 4 -2.7374 -1.4889 -7.9362 29.3061 -15.4285 4.0063
# 5 9.4334 -0.8775 8.3411 -15.4285 30.3779 1.4178
# 6 -4.9779 -8.9767 -4.5309 4.0063 1.4178 22.2620
#
#
#
# Elastic Compliance Matrix: (Units=1/GPa)
#
#
# Indices 1 2 3 4 5 6 
#
# 1 0.014374 -0.003307 -0.001231 -0.002418 -0.005562 0.002419
# 2 -0.003307 0.013478 -0.002581 0.000205 0.002042 0.004003
# 3 -0.001231 -0.002581 0.008999 0.001355 -0.001492 0.000366
# 4 -0.002418 0.000205 0.001355 0.049422 0.025986 -0.010731
# 5 -0.005562 0.002042 -0.001492 0.025986 0.048709 -0.008503
# 6 0.002419 0.004003 0.000366 -0.010731 -0.008503 0.049622
#
#
# Mechanical properties :
#
#
# Convention : Reuss Voigt Hill
#
# Bulk Modulus (GPa) = 44.22454 48.87086 46.54770
# Shear Modulus (GPa) = 24.22724 31.14272 27.68498
#
# Velocity S-wave (km/s) = 3.54108 4.01478 3.78535
# Velocity P-wave (km/s) = 6.29351 6.83998 6.57243
#
# Compressibility (1/GPa) = 0.02261188
#
# Stress axis : x y z
#
# Youngs Moduli (GPa) = 69.57222 74.19757 111.11909
#
# Poissons Ratio (x) = 0.24534 0.13683
# Poissons Ratio (y) = 0.23005 0.28683
# Poissons Ratio (z) = 0.08567 0.19152
#
# Static dielectric constant tensor:
#      x y z
#    x 1.738460 -0.002670 0.017240 
#    y -0.002670 1.783180 0.002270 
#    z 0.017240 0.002270 1.709420 
# 
# From -- ./inp_files/531912.got.cif
#   From: 2010.05.17/outbox.cif.g08.bks.cpg/sg2_266_cif.got.tgz:531912.got - 2010.06.03 11:33:40.
