data_PCOD9074239
_publ_section_title
;
Structure prediction by ZEFSAII (Michael W. Deem and Ramdas Pophale) SiO2 
 PCOD9074239
Probable space group: P -1
;
_chemical_formula_sum "Si O2"
_cell_formula_units_Z 10
_cell_length_a 9.000000
_cell_length_b 12.000000
_cell_length_c 15.000000
_cell_angle_alpha 150.000000
_cell_angle_beta 120.000000
_cell_angle_gamma 40.000000
_cell_volume 448.332942
_symmetry_space_group_name_H-M "P -1"
_symmetry_group_IT_number 2
_symmetry_cell_setting 'triclinic'
loop_
_space_group_symop_operation_xyz
x,y,z
-x,-y,-z
loop_
_atom_site_type_symbol
_atom_site_label
_atom_site_fract_x
_atom_site_fract_y
_atom_site_fract_z
Si Si1 0.499714 0.242455 0.355848
Si Si2 0.639535 0.341728 0.834481
Si Si3 0.343694 0.544697 0.705450
Si Si4 0.065752 0.210861 0.964763
Si Si5 0.942094 0.575770 0.363071
O O1 0.500000 0.500000 0.500000
O O2 0.525825 0.245680 0.474075
O O3 0.224406 0.386576 0.353564
O O4 0.708303 0.921164 0.126327
O O5 0.480407 0.528375 0.821819
O O6 0.866064 0.299773 0.893354
O O7 0.500000 0.500000 0.000000
O O8 0.748198 0.980980 0.602930
O O9 0.162050 0.531963 0.686177
O O10 0.177326 0.894518 0.841137
O O11 0.960787 0.484425 0.200308
#
# Coordination Sequence:
#
# PCOD9074239 Si02
#       5
#     2   2   2   2   2
#     4  10  22  44  69  98 136 177 220 275 334 396
#     4  12  26  43  68 102 139 168 231 280 323 398
#     4  11  24  43  73  99 134 180 221 273 337 394
#     4  11  25  47  68 102 137 174 222 279 331 401
#     4  12  23  45  73  96 136 180 222 274 335 394
#
# _framework density 22.304852
#
# number of rings (size 3 to 8) (size 9 to 14) (size 15 to 20)
#    0.000    0.800    6.000    2.400    0.000    0.800 
#    0.000    1.000    0.000    0.000    0.000    0.000 
#    0.000    0.000    0.000    0.000    0.000    0.000 
#
# Total GULP energy -55828.811648 kJ/mol
# GULP energy per Si atom -5582.881165 kJ/mol
# Density = 2.225409 g / cm^3
# Si number density = 22.304852 Si / 1000 Ang^3
#
#
#
# Elastic Constant Matrix: (Units=GPa)
#
#
# Indices 1 2 3 4 5 6 
#
# 1 107.1519 60.1069 32.8592 -14.8805 -27.1494 2.1813
# 2 60.1069 166.5902 31.1445 -54.3174 -3.8477 -5.5768
# 3 32.8592 31.1445 160.7362 -53.1862 -24.3751 11.2841
# 4 -14.8805 -54.3174 -53.1862 50.5009 9.3785 -8.6432
# 5 -27.1494 -3.8477 -24.3751 9.3785 43.6914 -18.6279
# 6 2.1813 -5.5768 11.2841 -8.6432 -18.6279 28.5515
#
#
#
# Elastic Compliance Matrix: (Units=1/GPa)
#
#
# Indices 1 2 3 4 5 6 
#
# 1 0.015945 -0.007437 -0.003072 -0.007978 0.010530 0.002999
# 2 -0.007437 0.014247 0.004281 0.019112 -0.002641 0.005722
# 3 -0.003072 0.004281 0.011442 0.015769 0.002813 0.003158
# 4 -0.007978 0.019112 0.015769 0.057277 -0.000256 0.015282
# 5 0.010530 -0.002641 0.002813 -0.000256 0.041219 0.024383
# 6 0.002999 0.005722 0.003158 0.015282 0.024383 0.055199
#
#
# Mechanical properties :
#
#
# Convention : Reuss Voigt Hill
#
# Bulk Modulus (GPa) = 34.26958 75.85551 55.06254
# Shear Modulus (GPa) = 22.98725 45.23993 34.11359
#
# Velocity S-wave (km/s) = 3.21377 4.50850 3.91503
# Velocity P-wave (km/s) = 5.40080 7.82205 6.72135
#
# Compressibility (1/GPa) = 0.02918040
#
# Stress axis : x y z
#
# Youngs Moduli (GPa) = 62.71422 70.18801 87.39374
#
# Poissons Ratio (x) = 0.52195 0.26850
# Poissons Ratio (y) = 0.46638 -0.37417
# Poissons Ratio (z) = 0.19268 -0.30050
#
# Static dielectric constant tensor:
#      x y z
#    x 1.858730 -0.067720 -0.073980 
#    y -0.067720 1.875220 0.113280 
#    z -0.073980 0.113280 1.914530 
# 
# From -- ./inp_files/147656.got.cif
#   From: 2010.05.17/outbox.ucp.g08.bks.cvg/sg2_74_cif.got.tgz:147656.got - 2010.06.11 11:32:03.
