data_PCOD9074605
_publ_section_title
;
Structure prediction by ZEFSAII (Michael W. Deem and Ramdas Pophale) SiO2 
 PCOD9074605
Probable space group: P -1
;
_chemical_formula_sum "Si O2"
_cell_formula_units_Z 16
_cell_length_a 18.000000
_cell_length_b 12.000000
_cell_length_c 21.000000
_cell_angle_alpha 150.000000
_cell_angle_beta 20.000000
_cell_angle_gamma 150.000000
_cell_volume 738.640068
_symmetry_space_group_name_H-M "P -1"
_symmetry_group_IT_number 2
_symmetry_cell_setting 'triclinic'
loop_
_space_group_symop_operation_xyz
x,y,z
-x,-y,-z
loop_
_atom_site_type_symbol
_atom_site_label
_atom_site_fract_x
_atom_site_fract_y
_atom_site_fract_z
Si Si1 0.335421 0.119488 0.576552
Si Si2 0.486980 0.282211 0.048430
Si Si3 0.987910 0.127544 0.753473
Si Si4 0.120728 0.509646 0.069219
Si Si5 0.510119 0.263720 0.809232
Si Si6 0.159674 0.769201 0.362751
Si Si7 0.804477 0.399727 0.387154
Si Si8 0.018930 0.953427 0.857977
O O1 0.533509 0.317008 0.552030
O O2 0.165621 0.195827 0.703135
O O3 0.466092 0.966926 0.358203
O O4 0.170270 0.938294 0.668040
O O5 0.459915 0.514338 0.150817
O O6 0.247300 0.078479 0.143680
O O7 0.628330 0.368163 0.042398
O O8 0.662588 0.194545 0.820341
O O9 0.925509 0.346279 0.882203
O O10 0.109664 0.002303 0.542113
O O11 0.934831 0.515117 0.275609
O O12 0.073342 0.232960 0.959349
O O13 0.706444 0.318086 0.731676
O O14 0.247796 0.180172 0.002890
O O15 0.922838 0.579821 0.437342
O O16 0.885550 0.170843 0.223679
#
# Coordination Sequence:
#
# PCOD9074605 Si02
#       8
#     2   2   2   2   2   2   2   2
#     4  11  26  41  66 103 129 176 215 267 331 392
#     4  11  23  41  70  96 132 170 220 270 327 388
#     4  11  27  45  64  98 136 176 221 259 324 393
#     4  11  24  45  68  95 135 178 216 271 316 395
#     4  11  22  42  69 101 132 165 218 277 333 375
#     4  10  24  41  69 100 130 173 212 277 327 387
#     4  11  23  43  69 100 130 170 219 271 336 378
#     4  12  23  43  71  96 134 166 222 275 329 379
#
# _framework density 21.661429999999999
#
# number of rings (size 3 to 8) (size 9 to 14) (size 15 to 20)
#    0.000    1.000    3.750    3.000    5.250    4.000 
#    2.250    0.000    0.000    0.000    0.000    0.000 
#    0.000    0.000    0.000    0.000    0.000    0.000 
#
# Total GULP energy -89474.588374 kJ/mol
# GULP energy per Si atom -5592.161773 kJ/mol
# Density = 2.161213 g / cm^3
# Si number density = 21.661430 Si / 1000 Ang^3
#
#
#
# Elastic Constant Matrix: (Units=GPa)
#
#
# Indices 1 2 3 4 5 6 
#
# 1 90.8916 50.3870 25.5611 -11.7683 -28.0722 25.8956
# 2 50.3870 88.7060 12.2280 -6.8548 -27.0470 8.9315
# 3 25.5611 12.2280 50.8544 -8.7988 -12.7922 9.6997
# 4 -11.7683 -6.8548 -8.7988 31.3413 4.6427 -2.5011
# 5 -28.0722 -27.0470 -12.7922 4.6427 31.5919 -3.6271
# 6 25.8956 8.9315 9.6997 -2.5011 -3.6271 30.8209
#
#
#
# Elastic Compliance Matrix: (Units=1/GPa)
#
#
# Indices 1 2 3 4 5 6 
#
# 1 0.025371 -0.008548 -0.004243 0.003543 0.011161 -0.015903
# 2 -0.008548 0.018454 0.001735 0.000147 0.009157 0.002378
# 3 -0.004243 0.001735 0.024463 0.004401 0.006571 -0.003506
# 4 0.003543 0.000147 0.004401 0.034402 -0.000187 -0.001635
# 5 0.011161 0.009157 0.006571 -0.000187 0.051170 -0.008092
# 6 -0.015903 0.002378 -0.003506 -0.001635 -0.008092 0.045136
#
#
# Mechanical properties :
#
#
# Convention : Reuss Voigt Hill
#
# Bulk Modulus (GPa) = 21.65731 45.20045 33.42888
# Shear Modulus (GPa) = 21.14161 28.23589 24.68875
#
# Velocity S-wave (km/s) = 3.12749 3.61433 3.37969
# Velocity P-wave (km/s) = 4.80223 6.19112 5.54037
#
# Compressibility (1/GPa) = 0.04617379
#
# Stress axis : x y z
#
# Youngs Moduli (GPa) = 39.41488 54.19022 40.87883
#
# Poissons Ratio (x) = 0.46323 0.17345
# Poissons Ratio (y) = 0.33693 -0.07091
# Poissons Ratio (z) = 0.16724 -0.09400
#
# Static dielectric constant tensor:
#      x y z
#    x 1.828830 0.023210 0.062080 
#    y 0.023210 1.742900 0.015260 
#    z 0.062080 0.015260 1.808870 
# 
# From -- ./inp_files/569162.got.cif
#   From: 2010.05.17/outbox.ucp.g08.bks.cvg/sg2_285_cif.got.tgz:569162.got - 2010.06.11 11:32:03.
