data_PCOD9074707
_publ_section_title
;
Structure prediction by ZEFSAII (Michael W. Deem and Ramdas Pophale) SiO2 
 PCOD9074707
Probable space group: P -1
;
_chemical_formula_sum "Si O2"
_cell_formula_units_Z 14
_cell_length_a 6.000000
_cell_length_b 9.000000
_cell_length_c 24.000000
_cell_angle_alpha 30.000000
_cell_angle_beta 80.000000
_cell_angle_gamma 80.000000
_cell_volume 637.442765
_symmetry_space_group_name_H-M "P -1"
_symmetry_group_IT_number 2
_symmetry_cell_setting 'triclinic'
loop_
_space_group_symop_operation_xyz
x,y,z
-x,-y,-z
loop_
_atom_site_type_symbol
_atom_site_label
_atom_site_fract_x
_atom_site_fract_y
_atom_site_fract_z
Si Si1 0.946156 0.782207 0.842660
Si Si2 0.294740 0.247882 0.684189
Si Si3 0.932622 0.097917 0.533912
Si Si4 0.170272 0.787444 0.023818
Si Si5 0.448277 0.914781 0.167458
Si Si6 0.371420 0.436177 0.235645
Si Si7 0.209392 0.969093 0.669742
O O1 0.960937 0.433397 0.940278
O O2 0.728116 0.854443 0.867696
O O3 0.146402 0.966621 0.801201
O O4 0.983667 0.921721 0.732877
O O5 0.169503 0.566688 0.577031
O O6 0.460292 0.270206 0.722140
O O7 0.359875 0.146517 0.650741
O O8 0.131750 0.103980 0.570178
O O9 0.765536 0.850213 0.645801
O O10 0.000000 0.000000 0.500000
O O11 0.297758 0.579587 0.132865
O O12 0.355799 0.944750 0.925495
O O13 0.000000 0.000000 0.000000
O O14 0.335581 0.688505 0.202879
O O15 0.636556 0.327289 0.254182
#
# Coordination Sequence:
#
# PCOD9074707 Si02
#       7
#     2   2   2   2   2   2   2
#     4  10  24  47  70 102 144 176 238 287 346 417
#     4  10  25  44  72 105 142 183 234 286 351 415
#     4  12  25  44  76 104 143 186 235 290 352 416
#     4  12  27  47  76 100 143 191 232 293 354 414
#     4  12  26  44  72 107 145 187 236 281 355 416
#     4  12  26  48  70 105 145 182 239 290 351 419
#     4  10  24  45  73 100 145 180 232 289 352 408
#
# _framework density 21.962755999999999
#
# number of rings (size 3 to 8) (size 9 to 14) (size 15 to 20)
#    0.857    0.000    1.429    4.714    4.000    4.571 
#    0.000    0.000    0.000    0.000    0.000    0.000 
#    0.000    0.000    0.000    0.000    0.000    0.000 
#
# Total GULP energy -78056.998745 kJ/mol
# GULP energy per Si atom -5575.499910 kJ/mol
# Density = 2.191277 g / cm^3
# Si number density = 21.962756 Si / 1000 Ang^3
#
#
#
# Elastic Constant Matrix: (Units=GPa)
#
#
# Indices 1 2 3 4 5 6 
#
# 1 38.0689 20.9618 18.6938 8.7655 7.1942 -3.0105
# 2 20.9618 160.9457 33.2092 6.4460 6.9378 -19.6131
# 3 18.6938 33.2092 81.6693 8.1808 9.0691 7.0595
# 4 8.7655 6.4460 8.1808 57.4752 7.4966 3.5152
# 5 7.1942 6.9378 9.0691 7.4966 39.6727 4.9842
# 6 -3.0105 -19.6131 7.0595 3.5152 4.9842 47.1028
#
#
#
# Elastic Compliance Matrix: (Units=1/GPa)
#
#
# Indices 1 2 3 4 5 6 
#
# 1 0.032162 -0.002361 -0.005863 -0.003476 -0.003750 0.002608
# 2 -0.002361 0.007548 -0.002734 -0.000224 -0.000663 0.003488
# 3 -0.005863 -0.002734 0.015220 -0.000565 -0.001378 -0.003606
# 4 -0.003476 -0.000224 -0.000565 0.018445 -0.002518 -0.001341
# 5 -0.003750 -0.000663 -0.001378 -0.002518 0.027169 -0.002996
# 6 0.002608 0.003488 -0.003606 -0.001341 -0.002996 0.023807
#
#
# Mechanical properties :
#
#
# Convention : Reuss Voigt Hill
#
# Bulk Modulus (GPa) = 30.28980 47.37928 38.83454
# Shear Modulus (GPa) = 31.79239 42.70476 37.24857
#
# Velocity S-wave (km/s) = 3.80881 4.41434 4.12271
# Velocity P-wave (km/s) = 5.75883 6.89936 6.35473
#
# Compressibility (1/GPa) = 0.03301441
#
# Stress axis : x y z
#
# Youngs Moduli (GPa) = 31.09247 132.49336 65.70459
#
# Poissons Ratio (x) = 0.31275 0.38521
# Poissons Ratio (y) = 0.07339 0.17965
# Poissons Ratio (z) = 0.18229 0.36227
#
# Static dielectric constant tensor:
#      x y z
#    x 1.894380 0.015530 -0.021440 
#    y 0.015530 1.797140 -0.032220 
#    z -0.021440 -0.032220 1.805280 
# 
# From -- ./inp_files/603940.got.cif
#   From: 2010.05.17/outbox.ucp.g08.bks.cvg/sg2_302_cif.got.tgz:603940.got - 2010.06.11 11:32:03.
