data_PCOD9074141
_publ_section_title
;
Structure prediction by ZEFSAII (Michael W. Deem and Ramdas Pophale) SiO2 
 PCOD9074141
Probable space group: P -1
;
_chemical_formula_sum "Si O2"
_cell_formula_units_Z 12
_cell_length_a 24.000000
_cell_length_b 9.000000
_cell_length_c 27.000000
_cell_angle_alpha 150.000000
_cell_angle_beta 10.000000
_cell_angle_gamma 150.000000
_cell_volume 500.510623
_symmetry_space_group_name_H-M "P -1"
_symmetry_group_IT_number 2
_symmetry_cell_setting 'triclinic'
loop_
_space_group_symop_operation_xyz
x,y,z
-x,-y,-z
loop_
_atom_site_type_symbol
_atom_site_label
_atom_site_fract_x
_atom_site_fract_y
_atom_site_fract_z
Si Si1 0.832156 0.204685 0.530903
Si Si2 0.599602 0.080605 0.017514
Si Si3 0.301186 0.551369 0.062031
Si Si4 0.252755 0.661151 0.731360
Si Si5 0.500009 0.544285 0.648228
Si Si6 0.383545 0.692182 0.419414
O O1 0.000000 0.500000 0.500000
O O2 0.596382 0.910168 0.674595
O O3 0.608186 0.367643 0.736565
O O4 0.149245 0.039145 0.199155
O O5 0.460182 0.363922 0.242437
O O6 0.359900 0.784531 0.123931
O O7 0.745304 0.232302 0.881711
O O8 0.983712 0.307201 0.276197
O O9 0.500000 0.500000 0.500000
O O10 0.315168 0.547673 0.588679
O O11 0.367873 0.022689 0.734423
O O12 0.889704 0.555560 0.038677
O O13 0.613582 0.340035 0.533421
#
# Coordination Sequence:
#
# PCOD9074141 Si02
#       6
#     2   2   2   2   2   2
#     4  10  22  45  73 105 147 194 241 304 370 444
#     4  10  22  43  68 106 147 192 244 304 368 436
#     4  10  22  42  70 104 146 192 247 298 369 443
#     4  12  29  48  75 108 147 197 256 310 376 448
#     4  12  26  48  72 110 148 194 251 310 373 447
#     4  12  25  44  74 104 149 198 247 310 373 444
#
# _framework density 23.975515000000001
#
# number of rings (size 3 to 8) (size 9 to 14) (size 15 to 20)
#    0.000    1.000    1.667    4.000    4.667    0.000 
#    3.000    4.167    0.000    0.000    0.000    0.000 
#    0.000    0.000    0.000    0.000    0.000    0.000 
#
# Total GULP energy -67027.419952 kJ/mol
# GULP energy per Si atom -5585.618329 kJ/mol
# Density = 2.392095 g / cm^3
# Si number density = 23.975515 Si / 1000 Ang^3
#
#
#
# Elastic Constant Matrix: (Units=GPa)
#
#
# Indices 1 2 3 4 5 6 
#
# 1 15.5850 -4.3128 -8.2129 18.0540 -4.0436 12.5153
# 2 -4.3128 80.8961 -18.9602 -11.2716 -19.1175 -6.9974
# 3 -8.2129 -18.9602 68.8068 7.2042 -27.5490 17.3778
# 4 18.0540 -11.2716 7.2042 56.4707 -2.8429 -11.3540
# 5 -4.0436 -19.1175 -27.5490 -2.8429 38.3889 6.5025
# 6 12.5153 -6.9974 17.3778 -11.3540 6.5025 26.8167
#
#
#
# Elastic Compliance Matrix: (Units=1/GPa)
#
#
# Indices 1 2 3 4 5 6 
#
# 1 -0.019721 -0.012304 -0.033918 0.015017 -0.038843 0.043749
# 2 -0.012304 0.016112 0.002057 0.009433 0.007057 0.010896
# 3 -0.033918 0.002057 0.002671 0.015140 -0.003207 0.021823
# 4 0.015017 0.009433 0.015140 0.010935 0.020441 -0.014684
# 5 -0.038843 0.007057 -0.003207 0.020441 0.020319 0.025775
# 6 0.043749 0.010896 0.021823 -0.014684 0.025775 -0.006893
#
#
# Mechanical properties :
#
#
# Convention : Reuss Voigt Hill
#
# Bulk Modulus (GPa) = -11.20237 11.36843 0.08303
# Shear Modulus (GPa) = 60.97719 37.45352 49.21536
#
# Velocity S-wave (km/s) = 5.04860 3.95670 4.53563
# Velocity P-wave (km/s) = 5.41312 5.06221 5.24060
#
# Compressibility (1/GPa) = -0.08926684
#
# Stress axis : x y z
#
# Youngs Moduli (GPa) = -50.70846 62.06425 374.37567
#
# Poissons Ratio (x) = 0.76363 12.69810
# Poissons Ratio (y) = -0.62391 -0.77014
# Poissons Ratio (z) = -1.71993 -0.12767
#
# Static dielectric constant tensor:
#      x y z
#    x 2.058670 0.062940 -0.003980 
#    y 0.062940 1.866470 -0.020230 
#    z -0.003980 -0.020230 1.943460 
# 
# From -- ./inp_files/27409.got.cif
#   From: 2010.05.17/outbox.ucp.g08.bks.cvg/sg2_14_cif.got.tgz:27409.got - 2010.06.11 11:32:03.
