data_PCOD9074091
_publ_section_title
;
Structure prediction by ZEFSAII (Michael W. Deem and Ramdas Pophale) SiO2 
 PCOD9074091
Probable space group: P -1
;
_chemical_formula_sum "Si O2"
_cell_formula_units_Z 16
_cell_length_a 18.000000
_cell_length_b 12.000000
_cell_length_c 15.000000
_cell_angle_alpha 30.000000
_cell_angle_beta 150.000000
_cell_angle_gamma 130.000000
_cell_volume 731.734496
_symmetry_space_group_name_H-M "P -1"
_symmetry_group_IT_number 2
_symmetry_cell_setting 'triclinic'
loop_
_space_group_symop_operation_xyz
x,y,z
-x,-y,-z
loop_
_atom_site_type_symbol
_atom_site_label
_atom_site_fract_x
_atom_site_fract_y
_atom_site_fract_z
Si Si1 0.565334 0.051416 0.938023
Si Si2 0.701083 0.192282 0.677182
Si Si3 0.594270 0.756175 0.538366
Si Si4 0.824736 0.560278 0.474229
Si Si5 0.063523 0.797059 0.330411
Si Si6 0.296619 0.025761 0.349515
Si Si7 0.153638 0.588594 0.764230
Si Si8 0.181333 0.782508 0.824710
O O1 0.432890 0.216464 0.614349
O O2 0.692550 0.158291 0.026600
O O3 0.500000 0.000000 0.000000
O O4 0.665555 0.813238 0.145759
O O5 0.562310 0.260134 0.562045
O O6 0.780474 0.386140 0.615557
O O7 0.630125 0.164114 0.525276
O O8 0.865425 0.934989 0.037146
O O9 0.609764 0.974729 0.461067
O O10 0.764442 0.507968 0.897716
O O11 0.870074 0.418423 0.525085
O O12 0.980227 0.623165 0.604839
O O13 0.130830 0.683509 0.574636
O O14 0.136133 0.986844 0.239506
O O15 0.257408 0.294862 0.082439
O O16 0.217572 0.752858 0.776638
O O17 0.000000 0.000000 0.500000
#
# Coordination Sequence:
#
# PCOD9074091 Si02
#       8
#     2   2   2   2   2   2   2   2
#     4  12  27  47  68  97 141 181 234 289 348 404
#     4  11  21  41  69 104 143 179 220 286 348 421
#     4  11  26  45  70  97 141 184 224 289 363 397
#     4  11  21  41  66 103 132 181 228 282 332 416
#     4  11  22  38  73 104 141 179 233 274 350 415
#     4  10  22  42  63 104 144 178 225 277 340 426
#     4  11  21  39  69 102 136 174 231 283 336 401
#     4  11  25  47  70  95 131 182 243 284 330 415
#
# _framework density 21.865853999999999
#
# number of rings (size 3 to 8) (size 9 to 14) (size 15 to 20)
#    0.000    1.000    3.750    3.375    3.500    0.000 
#    0.000    1.875    0.000    0.000    0.000    0.000 
#    0.000    0.000    0.000    0.000    0.000    0.000 
#
# Total GULP energy -89249.111255 kJ/mol
# GULP energy per Si atom -5578.069453 kJ/mol
# Density = 2.181609 g / cm^3
# Si number density = 21.865854 Si / 1000 Ang^3
#
#
#
# Elastic Constant Matrix: (Units=GPa)
#
#
# Indices 1 2 3 4 5 6 
#
# 1 94.9413 16.9554 37.6829 11.6982 -10.2909 -10.5917
# 2 16.9554 70.8585 21.7706 5.7555 -15.2475 -23.2912
# 3 37.6829 21.7706 78.3073 8.0070 -1.5991 -12.8913
# 4 11.6982 5.7555 8.0070 32.1979 -10.3227 -3.2719
# 5 -10.2909 -15.2475 -1.5991 -10.3227 34.2939 10.3118
# 6 -10.5917 -23.2912 -12.8913 -3.2719 10.3118 31.7171
#
#
#
# Elastic Compliance Matrix: (Units=1/GPa)
#
#
# Indices 1 2 3 4 5 6 
#
# 1 0.013678 -0.000412 -0.006050 -0.002458 0.002696 0.000676
# 2 -0.000412 0.020195 -0.003424 0.000265 0.005284 0.011610
# 3 -0.006050 -0.003424 0.017417 -0.002558 -0.004413 0.003715
# 4 -0.002458 0.000265 -0.002558 0.035745 0.010432 -0.001370
# 5 0.002696 0.005284 -0.004413 0.010432 0.037718 -0.008199
# 6 0.000676 0.011610 0.003715 -0.001370 -0.008199 0.044314
#
#
# Mechanical properties :
#
#
# Convention : Reuss Voigt Hill
#
# Bulk Modulus (GPa) = 31.72851 44.10276 37.91564
# Shear Modulus (GPa) = 25.08204 30.82168 27.95186
#
# Velocity S-wave (km/s) = 3.39054 3.75851 3.57926
# Velocity P-wave (km/s) = 5.46532 6.24889 5.87020
#
# Compressibility (1/GPa) = 0.03151740
#
# Stress axis : x y z
#
# Youngs Moduli (GPa) = 73.10879 49.51702 57.41679
#
# Poissons Ratio (x) = 0.02041 0.34737
# Poissons Ratio (y) = 0.03014 0.19660
# Poissons Ratio (z) = 0.44230 0.16955
#
# Static dielectric constant tensor:
#      x y z
#    x 1.753270 0.005850 -0.024130 
#    y 0.005850 1.874680 0.013450 
#    z -0.024130 0.013450 1.896030 
# 
# From -- ./inp_files/226080.got.cif
#   From: 2010.05.17/outbox.ucp.g08.bks.cvg/sg2_114_cif.got.tgz:226080.got - 2010.06.11 11:32:03.
