data_PCOD9074350
_publ_section_title
;
Structure prediction by ZEFSAII (Michael W. Deem and Ramdas Pophale) SiO2 
 PCOD9074350
Probable space group: P -1
;
_chemical_formula_sum "Si O2"
_cell_formula_units_Z 14
_cell_length_a 12.000000
_cell_length_b 15.000000
_cell_length_c 21.000000
_cell_angle_alpha 30.000000
_cell_angle_beta 160.000000
_cell_angle_gamma 140.000000
_cell_volume 620.704002
_symmetry_space_group_name_H-M "P -1"
_symmetry_group_IT_number 2
_symmetry_cell_setting 'triclinic'
loop_
_space_group_symop_operation_xyz
x,y,z
-x,-y,-z
loop_
_atom_site_type_symbol
_atom_site_label
_atom_site_fract_x
_atom_site_fract_y
_atom_site_fract_z
Si Si1 0.542786 0.589764 0.106337
Si Si2 0.213729 0.690035 0.005761
Si Si3 0.184584 0.261766 0.621388
Si Si4 0.887768 0.664800 0.970742
Si Si5 0.687016 0.030633 0.480160
Si Si6 0.603772 0.041233 0.279564
Si Si7 0.535286 0.288771 0.666326
O O1 0.416107 0.619011 0.093310
O O2 0.264958 0.495918 0.984008
O O3 0.904356 0.438844 0.389268
O O4 0.559180 0.774530 0.963824
O O5 0.479177 0.775097 0.133714
O O6 0.101192 0.585757 0.070755
O O7 0.840318 0.813881 0.707594
O O8 0.256728 0.297703 0.564876
O O9 0.024729 0.093761 0.633423
O O10 0.563481 0.843410 0.681023
O O11 0.110894 0.756177 0.079049
O O12 0.565020 0.069462 0.317446
O O13 0.482620 0.863976 0.300941
O O14 0.000000 0.000000 0.500000
O O15 0.500000 0.500000 0.500000
#
# Coordination Sequence:
#
# PCOD9074350 Si02
#       7
#     2   2   2   2   2   2   2
#     4  11  23  42  68  95 133 167 220 262 315 395
#     4  11  21  42  65  96 132 171 219 265 315 376
#     4  10  23  40  65  97 126 177 213 265 320 375
#     4  10  25  41  64  97 130 175 207 270 326 370
#     4  11  23  41  68  94 133 170 218 262 318 391
#     4  12  23  42  68  98 125 172 214 264 325 379
#     4  11  24  43  64  95 134 166 210 268 326 383
#
# _framework density 22.555033999999999
#
# number of rings (size 3 to 8) (size 9 to 14) (size 15 to 20)
#    0.000    1.143    2.857    2.571    2.000    2.857 
#    0.000    0.000    0.000    0.000    0.000    0.000 
#    0.000    0.000    0.000    0.000    0.000    0.000 
#
# Total GULP energy -77988.857216 kJ/mol
# GULP energy per Si atom -5570.632658 kJ/mol
# Density = 2.250370 g / cm^3
# Si number density = 22.555034 Si / 1000 Ang^3
#
#
#
# Elastic Constant Matrix: (Units=GPa)
#
#
# Indices 1 2 3 4 5 6 
#
# 1 81.7944 19.6610 49.7285 0.6977 11.7034 -23.3346
# 2 19.6610 121.7935 35.3577 -3.2923 -15.1667 -7.0041
# 3 49.7285 35.3577 52.6474 -14.9926 -4.1854 10.5807
# 4 0.6977 -3.2923 -14.9926 22.9497 -6.2313 9.5524
# 5 11.7034 -15.1667 -4.1854 -6.2313 24.7810 1.4313
# 6 -23.3346 -7.0041 10.5807 9.5524 1.4313 25.6031
#
#
#
# Elastic Compliance Matrix: (Units=1/GPa)
#
#
# Indices 1 2 3 4 5 6 
#
# 1 -0.003663 -0.003617 0.016267 0.020521 0.008532 -0.019184
# 2 -0.003617 0.010246 -0.001198 0.004053 0.008912 -0.002009
# 3 0.016267 -0.001198 -0.008948 -0.022687 -0.017227 0.027623
# 4 0.020521 0.004053 -0.022687 0.016751 -0.008182 0.023395
# 5 0.008532 0.008912 -0.017227 -0.008182 0.035749 0.018387
# 6 -0.019184 -0.002009 0.027623 0.023395 0.018387 -0.000148
#
#
# Mechanical properties :
#
#
# Convention : Reuss Voigt Hill
#
# Bulk Modulus (GPa) = 48.68990 51.74774 50.21882
# Shear Modulus (GPa) = 147.36343 24.76597 86.06470
#
# Velocity S-wave (km/s) = 8.09178 3.31724 6.18389
# Velocity P-wave (km/s) = 10.43727 6.13716 8.56158
#
# Compressibility (1/GPa) = 0.02053814
#
# Stress axis : x y z
#
# Youngs Moduli (GPa) = -272.97469 97.59669 -111.75698
#
# Poissons Ratio (x) = 0.35302 1.81796
# Poissons Ratio (y) = -0.98739 -0.13392
# Poissons Ratio (z) = 4.44050 0.11695
#
# Static dielectric constant tensor:
#      x y z
#    x 1.847840 0.028810 -0.069780 
#    y 0.028810 1.862520 -0.107380 
#    z -0.069780 -0.107380 2.046470 
# 
# From -- ./inp_files/175560.got.cif
#   From: 2010.05.17/outbox.ucp.g08.bks.cvg/sg2_88_cif.got.tgz:175560.got - 2010.06.11 11:32:03.
