data_PCOD9074703
_publ_section_title
;
Structure prediction by ZEFSAII (Michael W. Deem and Ramdas Pophale) SiO2 
 PCOD9074703
Probable space group: P -1
;
_chemical_formula_sum "Si O2"
_cell_formula_units_Z 16
_cell_length_a 7.538519
_cell_length_b 7.058212
_cell_length_c 16.415834
_cell_angle_alpha 82.219738
_cell_angle_beta 59.768500
_cell_angle_gamma 105.378330
_cell_volume 688.700311
_symmetry_space_group_name_H-M "P -1"
_symmetry_group_IT_number 2
_symmetry_cell_setting 'triclinic'
loop_
_space_group_symop_operation_xyz
x,y,z
-x,-y,-z
loop_
_atom_site_type_symbol
_atom_site_label
_atom_site_fract_x
_atom_site_fract_y
_atom_site_fract_z
Si Si1 0.522490 0.333073 0.443519
Si Si2 0.770343 0.596183 0.934720
Si Si3 0.792100 0.088956 0.200516
Si Si4 0.173589 0.920527 0.615445
Si Si5 0.707259 0.707445 0.777747
Si Si6 0.481905 0.957252 0.136739
Si Si7 0.841974 0.216120 0.920154
Si Si8 0.320757 0.499939 0.775403
O O1 0.500000 0.500000 0.500000
O O2 0.726379 0.255452 0.412255
O O3 0.558574 0.443238 0.341740
O O4 0.309354 0.119083 0.518017
O O5 0.823891 0.626312 0.824640
O O6 0.826905 0.408209 0.964127
O O7 0.959048 0.818678 0.904505
O O8 0.500000 0.500000 0.000000
O O9 0.788017 0.016143 0.299847
O O10 0.594838 0.937450 0.197236
O O11 0.742167 0.299976 0.205097
O O12 0.909837 0.833094 0.664610
O O13 0.613384 0.864674 0.832188
O O14 0.502586 0.517904 0.799896
O O15 0.279353 0.802946 0.138197
O O16 0.685292 0.025342 0.021230
O O17 0.103331 0.289284 0.840538
#
# Coordination Sequence:
#
# PCOD9074703 Si02
#       8
#     2   2   2   2   2   2   2   2
#     4  10  21  40  65  87 115 157 192 245 310 347
#     4  10  18  32  52  77 112 154 193 232 279 336
#     4   8  18  35  57  79 112 155 191 230 289 351
#     4   9  20  40  63  87 122 149 196 249 289 361
#     4  10  20  36  59  85 114 154 193 234 294 349
#     4  10  20  35  56  84 116 159 193 230 299 338
#     4  10  21  35  53  83 121 153 194 246 278 346
#     4   9  20  36  59  85 112 151 200 237 290 354
#
# _framework density 23.232165999999999
#
# number of rings (size 3 to 8) (size 9 to 14) (size 15 to 20)
#    0.000    2.500    1.250    0.750    3.500    2.000 
#    2.250    1.250    0.000    0.000    0.000    0.000 
#    0.000    0.000    0.000    0.000    0.000    0.000 
#
# Total GULP energy -89140.602829 kJ/mol
# GULP energy per Si atom -5571.287677 kJ/mol
# Density = 2.317929 g / cm^3
# Si number density = 23.232166 Si / 1000 Ang^3
#
#
#
# Elastic Constant Matrix: (Units=GPa)
#
#
# Indices 1 2 3 4 5 6 
#
# 1 77.7307 28.4308 22.8557 0.0147 -8.4894 32.6884
# 2 28.4308 90.4278 22.7879 6.4340 -15.4750 16.9054
# 3 22.8557 22.7879 88.5471 -2.3364 -25.7379 10.9666
# 4 0.0147 6.4340 -2.3364 35.0189 1.8659 -14.0233
# 5 -8.4894 -15.4750 -25.7379 1.8659 27.0688 -3.5201
# 6 32.6884 16.9054 10.9666 -14.0233 -3.5201 39.7779
#
#
#
# Elastic Compliance Matrix: (Units=1/GPa)
#
#
# Indices 1 2 3 4 5 6 
#
# 1 0.022912 -0.002001 -0.002740 -0.007855 0.001394 -0.019868
# 2 -0.002001 0.014407 -0.000740 -0.005268 0.006547 -0.005552
# 3 -0.002740 -0.000740 0.016408 0.000226 0.014223 -0.000619
# 4 -0.007855 -0.005268 0.000226 0.038529 -0.005086 0.021764
# 5 0.001394 0.006547 0.014223 -0.005086 0.054369 -0.004830
# 6 -0.019868 -0.005552 -0.000619 0.021764 -0.004830 0.051242
#
#
# Mechanical properties :
#
#
# Convention : Reuss Voigt Hill
#
# Bulk Modulus (GPa) = 23.38412 44.98384 34.18398
# Shear Modulus (GPa) = 22.41315 32.54854 27.48084
#
# Velocity S-wave (km/s) = 3.10941 3.74707 3.44303
# Velocity P-wave (km/s) = 4.79359 6.17458 5.52738
#
# Compressibility (1/GPa) = 0.04276406
#
# Stress axis : x y z
#
# Youngs Moduli (GPa) = 43.64620 69.40949 60.94639
#
# Poissons Ratio (x) = 0.13890 0.16702
# Poissons Ratio (y) = 0.08734 0.04508
# Poissons Ratio (z) = 0.11961 0.05134
#
# Static dielectric constant tensor:
#      x y z
#    x 1.960130 -0.032070 -0.036510 
#    y -0.032070 1.999440 -0.008820 
#    z -0.036510 -0.008820 1.889170 
# 
# From -- ./inp_files/211877.got.cif
#   From: 2010.05.17/outbox.cif.g08.bks.cpg/sg2_106_cif.got.tgz:211877.got - 2010.06.03 11:33:40.
