data_PCOD9074688
_publ_section_title
;
Structure prediction by ZEFSAII (Michael W. Deem and Ramdas Pophale) SiO2 
 PCOD9074688
Probable space group: P -1
;
_chemical_formula_sum "Si O2"
_cell_formula_units_Z 15
_cell_length_a 9.000000
_cell_length_b 18.000000
_cell_length_c 6.000000
_cell_angle_alpha 60.000000
_cell_angle_beta 100.000000
_cell_angle_gamma 130.000000
_cell_volume 628.643806
_symmetry_space_group_name_H-M "P -1"
_symmetry_group_IT_number 2
_symmetry_cell_setting 'triclinic'
loop_
_space_group_symop_operation_xyz
x,y,z
-x,-y,-z
loop_
_atom_site_type_symbol
_atom_site_label
_atom_site_fract_x
_atom_site_fract_y
_atom_site_fract_z
Si Si1 0.488385 0.267084 0.585637
Si Si2 0.188896 0.923151 0.138806
Si Si3 0.340451 0.746225 0.950541
Si Si4 0.950832 0.901463 0.479416
Si Si5 0.493600 0.895580 0.385719
Si Si6 0.000000 0.500000 0.000000
Si Si7 0.688588 0.511362 0.094298
Si Si8 0.997959 0.250534 0.986633
O O1 0.272867 0.184079 0.544946
O O2 0.594014 0.219844 0.591605
O O3 0.603168 0.394398 0.360235
O O4 0.517699 0.263562 0.857729
O O5 0.347399 0.921064 0.301711
O O6 0.097311 0.958078 0.222903
O O7 0.017253 0.798637 0.184418
O O8 0.307292 0.005387 0.837109
O O9 0.498256 0.861166 0.682924
O O10 0.180786 0.626079 0.965420
O O11 0.200349 0.767109 0.995102
O O12 0.983483 0.821743 0.728237
O O13 0.000000 0.000000 0.500000
O O14 0.155156 0.472003 0.066619
O O15 0.500000 0.500000 0.000000
O O16 0.820638 0.618161 0.132196
#
# Coordination Sequence:
#
# PCOD9074688 Si02
#       8
#     2   2   2   2   2   1   2   2
#     4  12  26  47  77 115 154 202 262 317 394 464
#     4  11  26  48  77 112 148 205 259 314 390 465
#     4  11  24  46  78 116 154 205 256 323 388 468
#     4  12  28  51  76 111 159 205 255 328 392 468
#     4  11  24  46  76 111 156 194 259 319 377 459
#     4  10  24  44  80 110 158 210 254 322 388 462
#     4  11  24  48  75 113 158 204 262 321 394 470
#     4  11  24  47  78 108 156 201 255 326 388 470
#
# _framework density 23.860889
#
# number of rings (size 3 to 8) (size 9 to 14) (size 15 to 20)
#    0.000    0.800    5.333    0.800    0.000   10.133 
#    0.000    2.000    0.000    0.000    0.000    0.000 
#    0.000    0.000    0.000    0.000    0.000    0.000 
#
# Total GULP energy -83546.648302 kJ/mol
# GULP energy per Si atom -5569.776553 kJ/mol
# Density = 2.380658 g / cm^3
# Si number density = 23.860889 Si / 1000 Ang^3
#
#
#
# Elastic Constant Matrix: (Units=GPa)
#
#
# Indices 1 2 3 4 5 6 
#
# 1 118.3628 68.1263 45.7958 10.3067 1.7357 -17.0568
# 2 68.1263 175.4229 71.8994 -10.4921 3.5852 -12.9684
# 3 45.7958 71.8994 64.5114 -14.4589 16.9361 20.9949
# 4 10.3067 -10.4921 -14.4589 22.9129 -8.7784 9.8831
# 5 1.7357 3.5852 16.9361 -8.7784 34.1857 -0.7206
# 6 -17.0568 -12.9684 20.9949 9.8831 -0.7206 29.6816
#
#
#
# Elastic Compliance Matrix: (Units=1/GPa)
#
#
# Indices 1 2 3 4 5 6 
#
# 1 0.003435 -0.009024 0.017380 0.011015 -0.005391 -0.018060
# 2 -0.009024 0.007281 0.004985 0.015521 0.000985 -0.010675
# 3 0.017380 0.004985 -0.026638 -0.040719 0.002276 0.044621
# 4 0.011015 0.015521 -0.040719 0.011867 0.021845 0.038492
# 5 -0.005391 0.000985 0.002276 0.021845 0.033678 -0.010733
# 6 -0.018060 -0.010675 0.044621 0.038492 -0.010733 -0.025991
#
#
# Mechanical properties :
#
#
# Convention : Reuss Voigt Hill
#
# Bulk Modulus (GPa) = 92.93281 81.10445 87.01863
# Shear Modulus (GPa) = -256.88790 28.85443 -114.01674
#
# Velocity S-wave (km/s) = -10.38722 3.48124 -6.92009
# Velocity P-wave (km/s) = 10.23850 7.08682 5.22512
#
# Compressibility (1/GPa) = 0.01076046
#
# Stress axis : x y z
#
# Youngs Moduli (GPa) = 291.09360 137.35160 -37.54002
#
# Poissons Ratio (x) = 1.23940 0.65243
# Poissons Ratio (y) = 2.62671 0.18715
# Poissons Ratio (z) = -5.05911 -0.68474
#
# Static dielectric constant tensor:
#      x y z
#    x 1.908020 -0.024850 -0.040310 
#    y -0.024850 1.974370 0.132450 
#    z -0.040310 0.132450 2.061210 
# 
# From -- ./inp_files/46726.got.cif
#   From: 2010.05.17/outbox.ucp.g08.bks.cvg/sg2_24_cif.got.tgz:46726.got - 2010.06.11 11:32:03.
