data_PCOD9074355
_publ_section_title
;
Structure prediction by ZEFSAII (Michael W. Deem and Ramdas Pophale) SiO2 
 PCOD9074355
Probable space group: P -1
;
_chemical_formula_sum "Si O2"
_cell_formula_units_Z 16
_cell_length_a 12.000000
_cell_length_b 12.000000
_cell_length_c 21.000000
_cell_angle_alpha 150.000000
_cell_angle_beta 40.000000
_cell_angle_gamma 120.000000
_cell_volume 836.888158
_symmetry_space_group_name_H-M "P -1"
_symmetry_group_IT_number 2
_symmetry_cell_setting 'triclinic'
loop_
_space_group_symop_operation_xyz
x,y,z
-x,-y,-z
loop_
_atom_site_type_symbol
_atom_site_label
_atom_site_fract_x
_atom_site_fract_y
_atom_site_fract_z
Si Si1 0.922687 0.571096 0.142889
Si Si2 0.176364 0.451203 0.449533
Si Si3 0.887332 0.384352 0.728816
Si Si4 0.379314 0.656811 0.824882
Si Si5 0.666630 0.556447 0.038120
Si Si6 0.403786 0.842071 0.045431
Si Si7 0.777627 0.014789 0.525376
Si Si8 0.823266 0.796889 0.867345
O O1 0.749486 0.492150 0.190995
O O2 0.827150 0.863630 0.360789
O O3 0.000000 0.500000 0.000000
O O4 0.138309 0.431688 0.016768
O O5 0.374020 0.480451 0.361389
O O6 0.000000 0.500000 0.500000
O O7 0.034037 0.648451 0.663768
O O8 0.279022 0.144583 0.268240
O O9 0.867483 0.643321 0.837805
O O10 0.096724 0.202294 0.583468
O O11 0.857078 0.216683 0.603764
O O12 0.715958 0.470641 0.900536
O O13 0.348845 0.793155 0.974725
O O14 0.268876 0.895343 0.941638
O O15 0.643441 0.334700 0.975278
O O16 0.459371 0.820298 0.274300
O O17 0.638351 0.766422 0.904533
#
# Coordination Sequence:
#
# PCOD9074355 Si02
#       8
#     2   2   2   2   2   2   2   2
#     4  11  25  43  63  94 135 175 212 257 316 401
#     4  11  21  36  61  91 127 168 209 266 319 375
#     4  10  23  40  67 100 126 163 222 279 319 370
#     4  11  23  42  58  94 134 167 214 256 321 395
#     4  11  23  42  66  97 132 169 208 277 324 375
#     4  11  21  36  62  98 130 157 214 268 327 380
#     4  10  23  41  62  97 128 168 218 260 325 379
#     4  11  22  38  64  94 126 168 210 269 326 373
#
# _framework density 19.118445000000001
#
# number of rings (size 3 to 8) (size 9 to 14) (size 15 to 20)
#    0.000    1.250    5.000    1.125    5.250    2.500 
#    2.250    2.500    0.000    4.500    0.000    0.000 
#    0.000    0.000    0.000    0.000    0.000    0.000 
#
# Total GULP energy -89147.291758 kJ/mol
# GULP energy per Si atom -5571.705735 kJ/mol
# Density = 1.907493 g / cm^3
# Si number density = 19.118445 Si / 1000 Ang^3
#
#
#
# Elastic Constant Matrix: (Units=GPa)
#
#
# Indices 1 2 3 4 5 6 
#
# 1 66.0065 29.1606 36.7868 -4.0667 -2.3842 19.6956
# 2 29.1606 116.2389 34.5167 -12.3501 -6.9371 9.6468
# 3 36.7868 34.5167 138.9701 -18.9436 -18.0915 2.8904
# 4 -4.0667 -12.3501 -18.9436 31.7820 4.7882 -9.6413
# 5 -2.3842 -6.9371 -18.0915 4.7882 43.1595 -6.0099
# 6 19.6956 9.6468 2.8904 -9.6413 -6.0099 35.8526
#
#
#
# Elastic Compliance Matrix: (Units=1/GPa)
#
#
# Indices 1 2 3 4 5 6 
#
# 1 0.023995 -0.003812 -0.006338 -0.005881 -0.003208 -0.013764
# 2 -0.003812 0.010188 -0.001048 0.002835 0.000718 0.000320
# 3 -0.006338 -0.001048 0.010340 0.005930 0.003878 0.005175
# 4 -0.005881 0.002835 0.005930 0.039143 0.000017 0.012519
# 5 -0.003208 0.000718 0.003878 0.000017 0.025503 0.005536
# 6 -0.013764 0.000320 0.005175 0.012519 0.005536 0.039245
#
#
# Mechanical properties :
#
#
# Convention : Reuss Voigt Hill
#
# Bulk Modulus (GPa) = 45.19365 58.01595 51.60480
# Shear Modulus (GPa) = 28.06078 36.87560 32.46819
#
# Velocity S-wave (km/s) = 3.83526 4.39657 4.12547
# Velocity P-wave (km/s) = 6.58045 7.49563 7.05290
#
# Compressibility (1/GPa) = 0.02212700
#
# Stress axis : x y z
#
# Youngs Moduli (GPa) = 41.67501 98.15511 96.71647
#
# Poissons Ratio (x) = 0.37412 0.61300
# Poissons Ratio (y) = 0.15885 0.10138
# Poissons Ratio (z) = 0.26414 0.10289
#
# Static dielectric constant tensor:
#      x y z
#    x 1.703130 -0.028950 -0.008510 
#    y -0.028950 1.693400 0.001310 
#    z -0.008510 0.001310 1.687740 
# 
# From -- ./inp_files/438599.got.cif
#   From: 2010.05.17/outbox.ucp.g08.bks.cvg/sg2_220_cif.got.tgz:438599.got - 2010.06.11 11:32:03.
