data_PCOD9074501
_publ_section_title
;
Structure prediction by ZEFSAII (Michael W. Deem and Ramdas Pophale) SiO2 
 PCOD9074501
Probable space group: P -1
;
_chemical_formula_sum "Si O2"
_cell_formula_units_Z 12
_cell_length_a 9.000000
_cell_length_b 6.000000
_cell_length_c 12.000000
_cell_angle_alpha 110.000000
_cell_angle_beta 60.000000
_cell_angle_gamma 90.000000
_cell_volume 515.566255
_symmetry_space_group_name_H-M "P -1"
_symmetry_group_IT_number 2
_symmetry_cell_setting 'triclinic'
loop_
_space_group_symop_operation_xyz
x,y,z
-x,-y,-z
loop_
_atom_site_type_symbol
_atom_site_label
_atom_site_fract_x
_atom_site_fract_y
_atom_site_fract_z
Si Si1 0.180952 0.080304 0.678044
Si Si2 0.789617 0.420565 0.135078
Si Si3 0.477012 0.849764 0.692400
Si Si4 0.880386 0.628906 0.460472
Si Si5 0.384096 0.323245 0.958763
Si Si6 0.059530 0.199196 0.156981
O O1 0.217495 0.328347 0.755824
O O2 0.132000 0.124092 0.571991
O O3 0.359947 0.898942 0.628717
O O4 0.013264 0.011884 0.789937
O O5 0.637169 0.292731 0.213263
O O6 0.754255 0.492128 0.033643
O O7 0.969687 0.248864 0.077721
O O8 0.672606 0.684949 0.578047
O O9 0.478477 0.104182 0.802241
O O10 0.000000 0.500000 0.500000
O O11 0.962505 0.425925 0.305621
O O12 0.500000 0.500000 0.000000
O O13 0.264699 0.201383 0.067908
#
# Coordination Sequence:
#
# PCOD9074501 Si02
#       6
#     2   2   2   2   2   2
#     4   9  21  44  73 101 136 182 236 280 337 411
#     4   9  21  42  71 101 138 177 235 279 341 412
#     4  10  23  44  73 102 136 184 232 282 339 412
#     4  11  25  44  67 103 144 181 226 284 349 409
#     4  11  25  44  70 102 139 179 230 289 350 406
#     4  10  23  44  69 101 135 185 228 285 340 413
#
# _framework density 23.275379000000001
#
# number of rings (size 3 to 8) (size 9 to 14) (size 15 to 20)
#    0.000    2.000    0.000    1.000    2.333   18.667 
#    6.000    0.000    0.000    0.000    0.000    0.000 
#    0.000    0.000    0.000    0.000    0.000    0.000 
#
# Total GULP energy -66849.984064 kJ/mol
# GULP energy per Si atom -5570.832005 kJ/mol
# Density = 2.322240 g / cm^3
# Si number density = 23.275379 Si / 1000 Ang^3
#
#
#
# Elastic Constant Matrix: (Units=GPa)
#
#
# Indices 1 2 3 4 5 6 
#
# 1 140.3802 45.8094 51.4712 -28.4555 -5.2454 -16.9831
# 2 45.8094 83.0367 19.5006 -38.1481 -4.3460 -14.9127
# 3 51.4712 19.5006 89.3918 -2.8634 -12.9314 -4.7756
# 4 -28.4555 -38.1481 -2.8634 41.7569 -9.8227 -14.4673
# 5 -5.2454 -4.3460 -12.9314 -9.8227 39.0297 -12.0934
# 6 -16.9831 -14.9127 -4.7756 -14.4673 -12.0934 38.0987
#
#
#
# Elastic Compliance Matrix: (Units=1/GPa)
#
#
# Indices 1 2 3 4 5 6 
#
# 1 -0.000636 -0.043444 -0.001222 -0.069266 -0.040276 -0.056529
# 2 -0.043444 -0.120357 0.013083 -0.240054 -0.137145 -0.199526
# 3 -0.001222 0.013083 0.013558 0.023634 0.018253 0.021045
# 4 -0.069266 -0.240054 0.023634 -0.424228 -0.246942 -0.361355
# 5 -0.040276 -0.137145 0.018253 -0.246942 -0.112801 -0.198924
# 6 -0.056529 -0.199526 0.021045 -0.361355 -0.198924 -0.274773
#
#
# Mechanical properties :
#
#
# Convention : Reuss Voigt Hill
#
# Bulk Modulus (GPa) = -5.86161 60.70791 27.42315
# Shear Modulus (GPa) = -5.47682 36.84555 15.68436
#
# Velocity S-wave (km/s) = -1.53563 3.98304 2.59870
# Velocity P-wave (km/s) = 2.38077 6.87691 4.56201
#
# Compressibility (1/GPa) = -0.17060171
#
# Stress axis : x y z
#
# Youngs Moduli (GPa) = -1572.30251 -8.30858 73.75738
#
# Poissons Ratio (x) = -0.36096 0.09009
# Poissons Ratio (y) = -68.30730 -0.96493
# Poissons Ratio (z) = -1.92057 0.10870
#
# Static dielectric constant tensor:
#      x y z
#    x 1.949720 -0.020130 0.034730 
#    y -0.020130 1.973000 -0.006940 
#    z 0.034730 -0.006940 1.904790 
# 
# From -- ./inp_files/123465.got.cif
#   From: 2010.05.17/outbox.ucp.g08.bks.cvg/sg2_62_cif.got.tgz:123465.got - 2010.06.11 11:32:03.
