data_PCOD9074963
_publ_section_title
;
Structure prediction by ZEFSAII (Michael W. Deem and Ramdas Pophale) SiO2 
 PCOD9074963
Probable space group: P -1
;
_chemical_formula_sum "Si O2"
_cell_formula_units_Z 16
_cell_length_a 6.000000
_cell_length_b 9.000000
_cell_length_c 18.000000
_cell_angle_alpha 60.000000
_cell_angle_beta 70.000000
_cell_angle_gamma 60.000000
_cell_volume 723.492119
_symmetry_space_group_name_H-M "P -1"
_symmetry_group_IT_number 2
_symmetry_cell_setting 'triclinic'
loop_
_space_group_symop_operation_xyz
x,y,z
-x,-y,-z
loop_
_atom_site_type_symbol
_atom_site_label
_atom_site_fract_x
_atom_site_fract_y
_atom_site_fract_z
Si Si1 0.008521 0.996333 0.088998
Si Si2 0.477468 0.643259 0.167710
Si Si3 0.820715 0.596566 0.670037
Si Si4 0.501713 0.648545 0.567108
Si Si5 0.298986 0.788755 0.392143
Si Si6 0.025223 0.805994 0.699530
Si Si7 0.113965 0.625857 0.905317
Si Si8 0.272190 0.250946 0.751726
O O1 0.918967 0.201485 0.081682
O O2 0.295893 0.856619 0.116011
O O3 0.842743 0.893396 0.171443
O O4 0.000000 0.000000 0.000000
O O5 0.330542 0.525258 0.250133
O O6 0.677713 0.657433 0.201559
O O7 0.605512 0.530630 0.107744
O O8 0.722222 0.685713 0.578810
O O9 0.819698 0.748333 0.692094
O O10 0.100118 0.425502 0.675931
O O11 0.384397 0.758421 0.476699
O O12 0.644485 0.423652 0.588823
O O13 0.277736 0.705673 0.641985
O O14 0.478853 0.848155 0.301772
O O15 0.035808 0.972072 0.359226
O O16 0.037275 0.726269 0.803770
O O17 0.000000 0.500000 0.000000
#
# Coordination Sequence:
#
# PCOD9074963 Si02
#       8
#     2   2   2   2   2   2   2   2
#     4  11  28  44  71 104 133 181 233 280 347 419
#     4  11  23  47  67  94 145 178 221 292 338 400
#     4  11  21  42  72  93 138 186 220 283 344 401
#     4  11  24  47  66 101 142 183 232 288 344 405
#     4  11  24  43  71  99 140 186 228 290 347 403
#     4  12  25  45  68 100 141 182 230 286 345 412
#     4  12  26  45  72 102 136 181 228 283 346 406
#     4  11  22  45  68 100 137 184 229 282 344 402
#
# _framework density 22.114961000000001
#
# number of rings (size 3 to 8) (size 9 to 14) (size 15 to 20)
#    0.000    0.750    5.000    1.875    5.250    4.500 
#    0.000    0.000    0.000    0.000    0.000    0.000 
#    0.000    0.000    0.000    0.000    0.000    0.000 
#
# Total GULP energy -89129.509122 kJ/mol
# GULP energy per Si atom -5570.594320 kJ/mol
# Density = 2.206463 g / cm^3
# Si number density = 22.114961 Si / 1000 Ang^3
#
#
#
# Elastic Constant Matrix: (Units=GPa)
#
#
# Indices 1 2 3 4 5 6 
#
# 1 27.5852 25.8920 -1.8091 2.5792 14.9021 14.6892
# 2 25.8920 137.1795 29.1426 9.4151 -6.2346 8.0303
# 3 -1.8091 29.1426 102.8588 5.7159 26.7060 13.1540
# 4 2.5792 9.4151 5.7159 42.7555 10.4317 2.4260
# 5 14.9021 -6.2346 26.7060 10.4317 21.2684 5.4774
# 6 14.6892 8.0303 13.1540 2.4260 5.4774 25.0764
#
#
#
# Elastic Compliance Matrix: (Units=1/GPa)
#
#
# Indices 1 2 3 4 5 6 
#
# 1 -0.077011 0.029518 -0.044672 -0.027981 0.123458 0.034832
# 2 0.029518 -0.001943 0.011908 0.006580 -0.035355 -0.015829
# 3 -0.044672 0.011908 -0.007914 -0.010990 0.045583 0.017612
# 4 -0.027981 0.006580 -0.010990 0.018808 0.022691 0.013273
# 5 0.123458 -0.035355 0.045583 0.022691 -0.101492 -0.064934
# 6 0.034832 -0.015829 0.017612 0.013273 -0.064934 0.028204
#
#
# Mechanical properties :
#
#
# Convention : Reuss Voigt Hill
#
# Bulk Modulus (GPa) = -10.71126 41.56384 15.42629
# Shear Modulus (GPa) = -30.12479 32.11326 0.99424
#
# Velocity S-wave (km/s) = -3.69479 3.81478 0.67123
# Velocity P-wave (km/s) = 4.80166 6.18374 2.75525
#
# Compressibility (1/GPa) = -0.09335967
#
# Stress axis : x y z
#
# Youngs Moduli (GPa) = -12.98518 -514.63493 -126.35966
#
# Poissons Ratio (x) = 15.19096 -5.64468
# Poissons Ratio (y) = 0.38330 1.50466
# Poissons Ratio (z) = -0.58007 6.12814
#
# Static dielectric constant tensor:
#      x y z
#    x 2.077450 -0.090340 -0.034510 
#    y -0.090340 1.852440 -0.004040 
#    z -0.034510 -0.004040 1.801960 
# 
# From -- ./inp_files/141657.got.cif
#   From: 2010.05.17/outbox.ucp.g08.bks.cvg/sg2_71_cif.got.tgz:141657.got - 2010.06.11 11:32:03.
