data_PCOD9074063
_publ_section_title
;
Structure prediction by ZEFSAII (Michael W. Deem and Ramdas Pophale) SiO2 
 PCOD9074063
Probable space group: P -1
;
_chemical_formula_sum "Si O2"
_cell_formula_units_Z 16
_cell_length_a 18.000000
_cell_length_b 9.000000
_cell_length_c 6.000000
_cell_angle_alpha 110.000000
_cell_angle_beta 60.000000
_cell_angle_gamma 120.000000
_cell_volume 723.492119
_symmetry_space_group_name_H-M "P -1"
_symmetry_group_IT_number 2
_symmetry_cell_setting 'triclinic'
loop_
_space_group_symop_operation_xyz
x,y,z
-x,-y,-z
loop_
_atom_site_type_symbol
_atom_site_label
_atom_site_fract_x
_atom_site_fract_y
_atom_site_fract_z
Si Si1 0.799420 0.068482 0.310031
Si Si2 0.086463 0.161628 0.057200
Si Si3 0.207672 0.359383 0.306137
Si Si4 0.482054 0.813770 0.040428
Si Si5 0.647431 0.484545 0.224613
Si Si6 0.993975 0.406631 0.211174
Si Si7 0.331568 0.208988 0.321880
Si Si8 0.698663 0.284840 0.420484
O O1 0.738779 0.137484 0.274478
O O2 0.894296 0.239730 0.293372
O O3 0.834303 0.917638 0.120350
O O4 0.727480 0.976556 0.571480
O O5 0.103200 0.229766 0.324396
O O6 0.073784 0.325806 0.045629
O O7 0.000000 0.000000 0.000000
O O8 0.258649 0.261026 0.319241
O O9 0.224777 0.542033 0.487281
O O10 0.268112 0.419126 0.021027
O O11 0.400181 0.778205 0.328345
O O12 0.438739 0.650059 0.854387
O O13 0.581840 0.806565 0.948737
O O14 0.500000 0.000000 0.000000
O O15 0.632103 0.631587 0.470166
O O16 0.678532 0.358946 0.261514
O O17 0.000000 0.500000 0.500000
O O18 0.000000 0.500000 0.000000
#
# Coordination Sequence:
#
# PCOD9074063 Si02
#       8
#     2   2   2   2   2   2   2   2
#     4  11  23  43  69 105 137 189 235 300 370 429
#     4  10  23  44  70 106 137 177 237 294 367 436
#     4  10  22  41  67  95 131 186 231 291 356 431
#     4  11  23  41  63 102 136 183 239 292 356 415
#     4  10  23  41  65  89 135 185 229 288 353 425
#     4  11  27  49  79 109 149 192 242 306 371 455
#     4  11  23  42  67  97 138 182 242 295 355 432
#     4  10  23  42  66  96 139 185 239 291 353 435
#
# _framework density 22.114961000000001
#
# number of rings (size 3 to 8) (size 9 to 14) (size 15 to 20)
#    0.000    1.500    2.500    1.125    1.750   10.000 
#    0.000    4.375    0.000    0.000    0.000    0.000 
#    0.000    0.000    0.000    0.000    0.000    0.000 
#
# Total GULP energy -89134.451296 kJ/mol
# GULP energy per Si atom -5570.903206 kJ/mol
# Density = 2.206463 g / cm^3
# Si number density = 22.114961 Si / 1000 Ang^3
#
#
#
# Elastic Constant Matrix: (Units=GPa)
#
#
# Indices 1 2 3 4 5 6 
#
# 1 79.9744 40.9695 15.6564 7.7496 -10.1553 -14.8979
# 2 40.9695 125.1764 21.4836 -12.5176 7.6563 -6.1575
# 3 15.6564 21.4836 44.7498 1.0508 2.4806 -9.5521
# 4 7.7496 -12.5176 1.0508 23.5631 -11.7611 -3.7275
# 5 -10.1553 7.6563 2.4806 -11.7611 34.4296 9.4531
# 6 -14.8979 -6.1575 -9.5521 -3.7275 9.4531 54.3173
#
#
#
# Elastic Compliance Matrix: (Units=1/GPa)
#
#
# Indices 1 2 3 4 5 6 
#
# 1 0.017797 -0.006119 -0.002796 -0.006660 0.003830 0.002572
# 2 -0.006119 0.011414 -0.003480 0.007455 -0.001483 -0.000227
# 3 -0.002796 -0.003480 0.026153 -0.003590 -0.004240 0.003930
# 4 -0.006660 0.007455 -0.003590 0.056733 0.016163 -0.000533
# 5 0.003830 -0.001483 -0.004240 0.016163 0.037795 -0.005332
# 6 0.002572 -0.000227 0.003930 -0.000533 -0.005332 0.020673
#
#
# Mechanical properties :
#
#
# Convention : Reuss Voigt Hill
#
# Bulk Modulus (GPa) = 32.70655 45.12438 38.91547
# Shear Modulus (GPa) = 24.32558 33.91473 29.12016
#
# Velocity S-wave (km/s) = 3.32016 3.92032 3.63266
# Velocity P-wave (km/s) = 5.43318 6.39849 5.93549
#
# Compressibility (1/GPa) = 0.03057492
#
# Stress axis : x y z
#
# Youngs Moduli (GPa) = 56.19014 87.61453 38.23588
#
# Poissons Ratio (x) = 0.53608 0.10690
# Poissons Ratio (y) = 0.34381 0.13306
# Poissons Ratio (z) = 0.15710 0.30489
#
# Static dielectric constant tensor:
#      x y z
#    x 1.890450 0.052200 0.011280 
#    y 0.052200 1.811980 0.004460 
#    z 0.011280 0.004460 1.859230 
# 
# From -- ./inp_files/107323.got.cif
#   From: 2010.05.17/outbox.ucp.g08.bks.cvg/sg2_54_cif.got.tgz:107323.got - 2010.06.11 11:32:03.
