data_PCOD9074033
_publ_section_title
;
Structure prediction by ZEFSAII (Michael W. Deem and Ramdas Pophale) SiO2 
 PCOD9074033
Probable space group: P -1
;
_chemical_formula_sum "Si O2"
_cell_formula_units_Z 16
_cell_length_a 9.000000
_cell_length_b 12.000000
_cell_length_c 12.000000
_cell_angle_alpha 50.000000
_cell_angle_beta 130.000000
_cell_angle_gamma 110.000000
_cell_volume 754.912344
_symmetry_space_group_name_H-M "P -1"
_symmetry_group_IT_number 2
_symmetry_cell_setting 'triclinic'
loop_
_space_group_symop_operation_xyz
x,y,z
-x,-y,-z
loop_
_atom_site_type_symbol
_atom_site_label
_atom_site_fract_x
_atom_site_fract_y
_atom_site_fract_z
Si Si1 0.004876 0.628121 0.082616
Si Si2 0.759196 0.403424 0.995888
Si Si3 0.507600 0.194520 0.591016
Si Si4 0.149218 0.741521 0.633696
Si Si5 0.158832 0.069312 0.104700
Si Si6 0.334861 0.554037 0.640495
Si Si7 0.769010 0.630907 0.492989
Si Si8 0.713165 0.966912 0.568733
O O1 0.137945 0.501036 0.296490
O O2 0.848826 0.549760 0.986345
O O3 0.144466 0.670108 0.022509
O O4 0.897491 0.752187 0.034657
O O5 0.798980 0.302327 0.187203
O O6 0.536232 0.458710 0.830255
O O7 0.624843 0.302645 0.504574
O O8 0.431978 0.287572 0.604001
O O9 0.316226 0.163237 0.447019
O O10 0.640512 0.035063 0.769195
O O11 0.236423 0.617525 0.666357
O O12 0.919725 0.750458 0.493570
O O13 0.234477 0.891246 0.558154
O O14 0.149215 0.051827 0.245266
O O15 0.000000 0.000000 0.000000
O O16 0.235988 0.446129 0.579824
O O17 0.500000 0.000000 0.500000
#
# Coordination Sequence:
#
# PCOD9074033 Si02
#       8
#     2   2   2   2   2   2   2   2
#     4  10  22  41  65 101 132 170 221 270 327 385
#     4  10  23  39  68  98 133 169 223 276 320 386
#     4  11  23  43  70  98 127 180 222 264 324 400
#     4  11  24  43  65  99 134 175 218 275 334 386
#     4  11  23  38  67  97 130 167 222 267 325 388
#     4  12  21  42  70  99 133 171 226 267 336 387
#     4  11  25  42  69 100 136 171 217 280 330 388
#     4  10  22  43  68  89 130 175 222 261 320 405
#
# _framework density 21.194514000000002
#
# number of rings (size 3 to 8) (size 9 to 14) (size 15 to 20)
#    0.000    1.250    3.750    2.625    7.000    0.500 
#    0.000    0.000    0.000    1.500    0.000    0.000 
#    0.000    0.000    0.000    0.000    0.000    0.000 
#
# Total GULP energy -89219.703957 kJ/mol
# GULP energy per Si atom -5576.231497 kJ/mol
# Density = 2.114627 g / cm^3
# Si number density = 21.194514 Si / 1000 Ang^3
#
#
#
# Elastic Constant Matrix: (Units=GPa)
#
#
# Indices 1 2 3 4 5 6 
#
# 1 36.9365 -5.6303 1.7866 3.3366 1.7758 10.2784
# 2 -5.6303 87.7129 14.7207 2.8779 3.4195 -1.3500
# 3 1.7866 14.7207 44.6992 18.3046 18.6430 4.0954
# 4 3.3366 2.8779 18.3046 34.7872 -7.3682 1.9604
# 5 1.7758 3.4195 18.6430 -7.3682 22.0796 -5.5874
# 6 10.2784 -1.3500 4.0954 1.9604 -5.5874 27.4963
#
#
#
# Elastic Compliance Matrix: (Units=1/GPa)
#
#
# Indices 1 2 3 4 5 6 
#
# 1 0.037642 -0.000689 0.032705 -0.029223 -0.046978 -0.026439
# 2 -0.000689 0.013191 -0.016491 0.010937 0.017120 0.006061
# 3 0.032705 -0.016491 0.182309 -0.140012 -0.219673 -0.074846
# 4 -0.029223 0.010937 -0.140012 0.139170 0.180254 0.059021
# 5 -0.046978 0.017120 -0.219673 0.180254 0.318093 0.102907
# 6 -0.026439 0.006061 -0.074846 0.059021 0.102907 0.074400
#
#
# Mechanical properties :
#
#
# Convention : Reuss Voigt Hill
#
# Bulk Modulus (GPa) = 3.78513 21.23362 12.50937
# Shear Modulus (GPa) = 6.08406 27.43741 16.76073
#
# Velocity S-wave (km/s) = 1.69612 3.60189 2.81518
# Velocity P-wave (km/s) = 2.37182 5.22861 4.05980
#
# Compressibility (1/GPa) = 0.26419145
#
# Stress axis : x y z
#
# Youngs Moduli (GPa) = 26.56605 75.80774 5.48519
#
# Poissons Ratio (x) = 0.05225 -0.17939
# Poissons Ratio (y) = 0.01831 0.09046
# Poissons Ratio (z) = -0.86884 1.25016
#
# Static dielectric constant tensor:
#      x y z
#    x 1.933350 0.052140 0.092710 
#    y 0.052140 1.792530 0.002600 
#    z 0.092710 0.002600 1.868300 
# 
# From -- ./inp_files/392220.got.cif
#   From: 2010.05.17/outbox.ucp.g08.bks.cvg/sg2_197_cif.got.tgz:392220.got - 2010.06.11 11:32:03.
