data_PCOD9074520
_publ_section_title
;
Structure prediction by ZEFSAII (Michael W. Deem and Ramdas Pophale) SiO2 
 PCOD9074520
Probable space group: P -1
;
_chemical_formula_sum "Si O2"
_cell_formula_units_Z 16
_cell_length_a 28.056593
_cell_length_b 8.811824
_cell_length_c 5.417882
_cell_angle_alpha 81.601988
_cell_angle_beta 116.464964
_cell_angle_gamma 45.247158
_cell_volume 588.038239
_symmetry_space_group_name_H-M "P -1"
_symmetry_group_IT_number 2
_symmetry_cell_setting 'triclinic'
loop_
_space_group_symop_operation_xyz
x,y,z
-x,-y,-z
loop_
_atom_site_type_symbol
_atom_site_label
_atom_site_fract_x
_atom_site_fract_y
_atom_site_fract_z
Si Si1 0.828243 0.305118 0.572670
Si Si2 0.347638 0.786107 0.845191
Si Si3 0.213454 0.661348 0.034801
Si Si4 0.069254 0.470239 0.577221
Si Si5 0.594564 0.043495 0.302430
Si Si6 0.432525 0.025668 0.239762
Si Si7 0.893979 0.477086 0.850400
Si Si8 0.687995 0.268813 0.722138
O O1 0.845298 0.159455 0.886385
O O2 0.875448 0.351290 0.740561
O O3 0.862293 0.168789 0.413363
O O4 0.697317 0.630019 0.160628
O O5 0.354454 0.645538 0.673711
O O6 0.403533 0.795765 0.856734
O O7 0.223886 0.149691 0.498134
O O8 0.371375 0.667763 0.203609
O O9 0.283728 0.330512 0.309101
O O10 0.294115 0.599942 0.196692
O O11 0.045459 0.588346 0.218159
O O12 0.000000 0.500000 0.500000
O O13 0.067017 0.601895 0.759648
O O14 0.192916 0.102764 0.930361
O O15 0.557330 0.126205 0.480545
O O16 0.538537 0.080892 0.952860
O O17 0.500000 0.000000 0.500000
#
# Coordination Sequence:
#
# PCOD9074520 Si02
#       8
#     2   2   2   2   2   2   2   2
#     4  10  19  32  55  78 104 136 178 218 263 305
#     4  10  18  32  51  80 100 128 180 226 253 298
#     4  10  19  32  51  79 108 136 169 228 257 311
#     4  10  21  34  53  77 109 138 169 216 270 314
#     4  10  19  32  53  76 106 134 179 217 266 305
#     4  10  19  30  49  82 112 133 169 223 266 303
#     4  10  18  32  55  77  99 133 182 214 253 304
#     4  10  21  32  53  80 106 134 176 221 266 304
#
# _framework density 27.209116999999999
#
# number of rings (size 3 to 8) (size 9 to 14) (size 15 to 20)
#    0.000    2.000    2.500    3.000    7.000    0.000 
#    0.000    0.000    0.000    4.500    0.000   70.000 
#    0.000    0.000    0.000    0.000    0.000    0.000 
#
# Total GULP energy -89612.188904 kJ/mol
# GULP energy per Si atom -5600.761807 kJ/mol
# Density = 2.714719 g / cm^3
# Si number density = 27.209117 Si / 1000 Ang^3
#
#
#
# Elastic Constant Matrix: (Units=GPa)
#
#
# Indices 1 2 3 4 5 6 
#
# 1 173.3377 52.4307 39.1006 28.2705 -19.5823 -18.8096
# 2 52.4307 110.2962 42.1211 22.2355 2.8405 -33.8864
# 3 39.1006 42.1211 158.1971 24.1114 -27.9151 -7.1517
# 4 28.2705 22.2355 24.1114 59.8587 0.7291 -0.2719
# 5 -19.5823 2.8405 -27.9151 0.7291 46.5828 13.6172
# 6 -18.8096 -33.8864 -7.1517 -0.2719 13.6172 53.5246
#
#
#
# Elastic Compliance Matrix: (Units=1/GPa)
#
#
# Indices 1 2 3 4 5 6 
#
# 1 0.007507 -0.003275 -0.000025 -0.002363 0.003475 -0.000335
# 2 -0.003275 0.016094 -0.003959 -0.002695 -0.007748 0.010466
# 3 -0.000025 -0.003959 0.008687 -0.002107 0.006340 -0.002978
# 4 -0.002363 -0.002695 -0.002107 0.019683 -0.001734 -0.002277
# 5 0.003475 -0.007748 0.006340 -0.001734 0.030313 -0.010558
# 6 -0.000335 0.010466 -0.002978 -0.002277 -0.010558 0.027468
#
#
# Mechanical properties :
#
#
# Convention : Reuss Voigt Hill
#
# Bulk Modulus (GPa) = 56.27705 78.79285 67.53495
# Shear Modulus (GPa) = 38.40474 52.53847 45.47160
#
# Velocity S-wave (km/s) = 3.76102 4.39898 4.09245
# Velocity P-wave (km/s) = 6.29194 7.40422 6.87063
#
# Compressibility (1/GPa) = 0.01776923
#
# Stress axis : x y z
#
# Youngs Moduli (GPa) = 133.20951 62.13675 115.11660
#
# Poissons Ratio (x) = 0.20349 0.00291
# Poissons Ratio (y) = 0.43625 0.45573
# Poissons Ratio (z) = 0.00337 0.24599
#
# Static dielectric constant tensor:
#      x y z
#    x 2.081760 -0.067910 0.031450 
#    y -0.067910 2.241090 -0.084800 
#    z 0.031450 -0.084800 2.157780 
# 
# From -- ./inp_files/55216.got.cif
#   From: 2010.05.17/outbox.cif.g08.bks.cpg/sg2_28_cif.got.tgz:55216.got - 2010.06.03 11:33:40.
