data_PCOD9074998
_publ_section_title
;
Structure prediction by ZEFSAII (Michael W. Deem and Ramdas Pophale) SiO2 
 PCOD9074998
Probable space group: P -1
;
_chemical_formula_sum "Si O2"
_cell_formula_units_Z 16
_cell_length_a 15.000000
_cell_length_b 9.000000
_cell_length_c 12.000000
_cell_angle_alpha 50.000000
_cell_angle_beta 110.000000
_cell_angle_gamma 140.000000
_cell_volume 759.581896
_symmetry_space_group_name_H-M "P -1"
_symmetry_group_IT_number 2
_symmetry_cell_setting 'triclinic'
loop_
_space_group_symop_operation_xyz
x,y,z
-x,-y,-z
loop_
_atom_site_type_symbol
_atom_site_label
_atom_site_fract_x
_atom_site_fract_y
_atom_site_fract_z
Si Si1 0.874259 0.800092 0.857538
Si Si2 0.563462 0.307056 0.914401
Si Si3 0.137814 0.657317 0.829284
Si Si4 0.435530 0.048649 0.217248
Si Si5 0.549135 0.798431 0.403908
Si Si6 0.844349 0.949902 0.192155
Si Si7 0.152920 0.878880 0.138822
Si Si8 0.471031 0.594774 0.691405
O O1 0.732886 0.584617 0.822903
O O2 0.859906 0.963819 0.853842
O O3 0.866548 0.573794 0.020376
O O4 0.031312 0.020328 0.762333
O O5 0.487900 0.387512 0.804296
O O6 0.500000 0.000000 0.000000
O O7 0.540864 0.277376 0.051594
O O8 0.005385 0.465792 0.777473
O O9 0.300039 0.934391 0.721931
O O10 0.116982 0.795870 0.844779
O O11 0.446040 0.828522 0.324238
O O12 0.279832 0.917122 0.197082
O O13 0.501424 0.246842 0.260629
O O14 0.500000 0.500000 0.500000
O O15 0.580161 0.845707 0.525836
O O16 0.690562 0.624497 0.318988
O O17 0.819196 0.979544 0.038806
#
# Coordination Sequence:
#
# PCOD9074998 Si02
#       8
#     2   2   2   2   2   2   2   2
#     4  11  22  39  65 102 135 165 218 273 335 380
#     4  12  23  39  69 102 134 168 223 280 324 385
#     4  11  23  42  66  98 135 180 215 269 333 396
#     4  12  25  43  68  99 133 171 226 276 330 388
#     4  12  26  48  66  95 135 179 225 268 333 405
#     4  11  22  38  68  98 137 168 220 266 335 380
#     4  11  23  41  67 102 135 167 219 280 330 390
#     4  12  24  44  67  99 133 175 221 275 330 398
#
# _framework density 21.064219999999999
#
# number of rings (size 3 to 8) (size 9 to 14) (size 15 to 20)
#    0.000    0.500    5.000    6.000    3.500    0.000 
#    0.000    2.500    0.000    0.000    0.000    0.000 
#    0.000    0.000    0.000    0.000    0.000    0.000 
#
# Total GULP energy -89296.489151 kJ/mol
# GULP energy per Si atom -5581.030572 kJ/mol
# Density = 2.101628 g / cm^3
# Si number density = 21.064220 Si / 1000 Ang^3
#
#
#
# Elastic Constant Matrix: (Units=GPa)
#
#
# Indices 1 2 3 4 5 6 
#
# 1 177.6968 53.2227 11.1032 -6.5920 10.0799 5.8434
# 2 53.2227 105.2798 -9.6344 -8.6535 -1.5239 -0.0309
# 3 11.1032 -9.6344 37.4466 5.3444 1.5094 -1.2789
# 4 -6.5920 -8.6535 5.3444 20.8472 -9.6309 -8.3338
# 5 10.0799 -1.5239 1.5094 -9.6309 21.3921 0.5004
# 6 5.8434 -0.0309 -1.2789 -8.3338 0.5004 41.4875
#
#
#
# Elastic Compliance Matrix: (Units=1/GPa)
#
#
# Indices 1 2 3 4 5 6 
#
# 1 0.007260 -0.004075 -0.002952 -0.000943 -0.003898 -0.001259
# 2 -0.004075 0.012457 0.003373 0.006229 0.005330 0.001874
# 3 -0.002952 0.003373 0.030004 -0.009672 -0.004827 -0.000541
# 4 -0.000943 0.006229 -0.009672 0.074570 0.034806 0.014399
# 5 -0.003898 0.005330 -0.004827 0.034806 0.064818 0.006614
# 6 -0.001259 0.001874 -0.000541 0.014399 0.006614 0.027078
#
#
# Mechanical properties :
#
#
# Convention : Reuss Voigt Hill
#
# Bulk Modulus (GPa) = 23.57722 47.75625 35.66674
# Shear Modulus (GPa) = 21.04081 34.46079 27.75080
#
# Velocity S-wave (km/s) = 3.16395 4.04912 3.63359
# Velocity P-wave (km/s) = 4.95628 6.67694 5.87989
#
# Compressibility (1/GPa) = 0.04241382
#
# Stress axis : x y z
#
# Youngs Moduli (GPa) = 137.74140 80.27762 33.32840
#
# Poissons Ratio (x) = 0.32710 0.09840
# Poissons Ratio (y) = 0.56125 -0.11243
# Poissons Ratio (z) = 0.40665 -0.27080
#
# Static dielectric constant tensor:
#      x y z
#    x 1.772730 0.039570 -0.034450 
#    y 0.039570 1.800650 0.013080 
#    z -0.034450 0.013080 1.793120 
# 
# From -- ./inp_files/319137.got.cif
#   From: 2010.05.17/outbox.ucp.g08.bks.cvg/sg2_160_cif.got.tgz:319137.got - 2010.06.11 11:32:03.
