data_PCOD9074249
_publ_section_title
;
Structure prediction by ZEFSAII (Michael W. Deem and Ramdas Pophale) SiO2 
 PCOD9074249
Probable space group: P -1
;
_chemical_formula_sum "Si O2"
_cell_formula_units_Z 12
_cell_length_a 12.000000
_cell_length_b 9.000000
_cell_length_c 9.000000
_cell_angle_alpha 60.000000
_cell_angle_beta 60.000000
_cell_angle_gamma 40.000000
_cell_volume 529.002133
_symmetry_space_group_name_H-M "P -1"
_symmetry_group_IT_number 2
_symmetry_cell_setting 'triclinic'
loop_
_space_group_symop_operation_xyz
x,y,z
-x,-y,-z
loop_
_atom_site_type_symbol
_atom_site_label
_atom_site_fract_x
_atom_site_fract_y
_atom_site_fract_z
Si Si1 0.306276 0.127210 0.188637
Si Si2 0.188637 0.853541 0.871250
Si Si3 0.575938 0.081195 0.252598
Si Si4 0.039013 0.121865 0.526852
Si Si5 0.647198 0.615334 0.159072
Si Si6 0.693531 0.614132 0.467678
O O1 0.425944 0.132621 0.221383
O O2 0.148266 0.171579 0.347252
O O3 0.441910 0.859956 0.169269
O O4 0.253269 0.303971 0.003834
O O5 0.307086 0.863659 0.894968
O O6 0.294768 0.585641 0.889822
O O7 0.143345 0.975354 0.678648
O O8 0.000000 0.000000 0.000000
O O9 0.480687 0.231580 0.392187
O O10 0.711185 0.801798 0.336671
O O11 0.850704 0.377446 0.565536
O O12 0.000000 0.000000 0.500000
O O13 0.680846 0.546308 0.344785
#
# Coordination Sequence:
#
# PCOD9074249 Si02
#       6
#     2   2   2   2   2   2
#     4  10  25  46  72  98 133 183 222 270 342 396
#     4  12  28  44  67 103 138 173 227 281 332 390
#     4  10  24  45  70  98 134 183 218 275 338 398
#     4  12  26  43  71 103 132 177 229 277 330 398
#     4  10  23  46  68  99 134 179 222 275 331 404
#     4  10  22  44  70  99 133 178 223 273 337 399
#
# _framework density 22.684218999999999
#
# number of rings (size 3 to 8) (size 9 to 14) (size 15 to 20)
#    0.000    1.333    1.667    3.000    7.000    8.000 
#    0.000    0.000    0.000    0.000    0.000    0.000 
#    0.000    0.000    0.000    0.000    0.000    0.000 
#
# Total GULP energy -67050.702378 kJ/mol
# GULP energy per Si atom -5587.558531 kJ/mol
# Density = 2.263259 g / cm^3
# Si number density = 22.684219 Si / 1000 Ang^3
#
#
#
# Elastic Constant Matrix: (Units=GPa)
#
#
# Indices 1 2 3 4 5 6 
#
# 1 115.5940 33.2314 8.9354 15.1545 -8.7568 5.4470
# 2 33.2314 116.6679 -17.2901 -0.1260 -2.5577 19.2146
# 3 8.9354 -17.2901 37.8246 11.9143 4.4029 -6.2201
# 4 15.1545 -0.1260 11.9143 34.1033 -4.9747 13.1077
# 5 -8.7568 -2.5577 4.4029 -4.9747 27.6745 -2.5618
# 6 5.4470 19.2146 -6.2201 13.1077 -2.5618 11.0273
#
#
#
# Elastic Compliance Matrix: (Units=1/GPa)
#
#
# Indices 1 2 3 4 5 6 
#
# 1 0.012591 -0.011560 0.011346 -0.031979 0.000779 0.058516
# 2 -0.011560 0.042436 -0.052565 0.113622 0.007653 -0.231163
# 3 0.011346 -0.052565 0.141401 -0.220417 -0.024312 0.422101
# 4 -0.031979 0.113622 -0.220417 0.443654 0.038844 -0.824844
# 5 0.000779 0.007653 -0.024312 0.038844 0.042029 -0.063842
# 6 0.058516 -0.231163 0.422101 -0.824844 -0.063842 1.668291
#
#
# Mechanical properties :
#
#
# Convention : Reuss Voigt Hill
#
# Bulk Modulus (GPa) = 11.00469 35.53776 23.27123
# Shear Modulus (GPa) = 2.01106 30.90834 16.45970
#
# Velocity S-wave (km/s) = 0.94259 3.69528 2.69662
# Velocity P-wave (km/s) = 2.45895 5.82298 4.46953
#
# Compressibility (1/GPa) = 0.09087031
#
# Stress axis : x y z
#
# Youngs Moduli (GPa) = 79.42068 23.56510 7.07210
#
# Poissons Ratio (x) = 0.27240 -0.08024
# Poissons Ratio (y) = 0.91807 0.37175
# Poissons Ratio (z) = -0.90114 1.23871
#
# Static dielectric constant tensor:
#      x y z
#    x 1.853980 0.013620 -0.010800 
#    y 0.013620 1.815200 -0.020380 
#    z -0.010800 -0.020380 1.900350 
# 
# From -- ./inp_files/236074.got.cif
#   From: 2010.05.17/outbox.ucp.g08.bks.cvg/sg2_119_cif.got.tgz:236074.got - 2010.06.11 11:32:03.
