data_PCOD9074216
_publ_section_title
;
Structure prediction by ZEFSAII (Michael W. Deem and Ramdas Pophale) SiO2 
 PCOD9074216
Probable space group: P -1
;
_chemical_formula_sum "Si O2"
_cell_formula_units_Z 16
_cell_length_a 15.000000
_cell_length_b 9.000000
_cell_length_c 9.000000
_cell_angle_alpha 80.000000
_cell_angle_beta 130.000000
_cell_angle_gamma 70.000000
_cell_volume 732.374747
_symmetry_space_group_name_H-M "P -1"
_symmetry_group_IT_number 2
_symmetry_cell_setting 'triclinic'
loop_
_space_group_symop_operation_xyz
x,y,z
-x,-y,-z
loop_
_atom_site_type_symbol
_atom_site_label
_atom_site_fract_x
_atom_site_fract_y
_atom_site_fract_z
Si Si1 0.583036 0.698038 0.107702
Si Si2 0.402080 0.657131 0.712076
Si Si3 0.131871 0.466836 0.740986
Si Si4 0.615214 0.363619 0.776090
Si Si5 0.517011 0.863406 0.321635
Si Si6 0.062164 0.842649 0.723782
Si Si7 0.265163 0.196868 0.193367
Si Si8 0.875832 0.995065 0.787048
O O1 0.628826 0.489247 0.239142
O O2 0.715859 0.660157 0.162287
O O3 0.560038 0.828979 0.199676
O O4 0.435956 0.766348 0.845706
O O5 0.555417 0.516220 0.817380
O O6 0.272944 0.797354 0.437832
O O7 0.097708 0.665419 0.703219
O O8 0.000000 0.500000 0.500000
O O9 0.153072 0.375101 0.940880
O O10 0.500000 0.500000 0.500000
O O11 0.568566 0.227524 0.759054
O O12 0.789807 0.230811 0.010727
O O13 0.661900 0.769626 0.595565
O O14 0.400753 0.057789 0.250424
O O15 0.941109 0.911249 0.708596
O O16 0.000000 0.000000 0.500000
O O17 0.181704 0.111199 0.174563
O O18 0.000000 0.000000 0.000000
#
# Coordination Sequence:
#
# PCOD9074216 Si02
#       8
#     2   2   2   2   2   2   2   2
#     4  10  23  44  74 105 138 189 247 305 364 429
#     4  10  22  43  74 108 140 180 252 307 351 436
#     4  12  29  47  72 103 154 198 240 305 378 446
#     4  11  21  43  76 105 142 191 249 299 369 434
#     4  10  24  43  73 103 138 185 238 312 359 434
#     4  12  28  48  77 112 152 193 251 305 372 449
#     4  11  27  48  67 105 147 187 247 300 374 443
#     4  12  28  46  74 106 150 196 245 307 371 444
#
# _framework density 21.846738999999999
#
# number of rings (size 3 to 8) (size 9 to 14) (size 15 to 20)
#    0.000    1.000    1.250    3.750   14.000    2.000 
#    0.000    0.000    0.000    0.000    0.000    0.000 
#    0.000    0.000    0.000    0.000    0.000    0.000 
#
# Total GULP energy -89206.626689 kJ/mol
# GULP energy per Si atom -5575.414168 kJ/mol
# Density = 2.179701 g / cm^3
# Si number density = 21.846739 Si / 1000 Ang^3
#
#
#
# Elastic Constant Matrix: (Units=GPa)
#
#
# Indices 1 2 3 4 5 6 
#
# 1 118.0497 32.8417 55.8498 -5.4231 -0.4173 -1.8369
# 2 32.8417 86.8920 56.6093 27.5129 -6.7505 -11.5788
# 3 55.8498 56.6093 181.9763 10.4764 2.9972 25.2709
# 4 -5.4231 27.5129 10.4764 49.4660 5.1025 0.3873
# 5 -0.4173 -6.7505 2.9972 5.1025 39.3096 6.9344
# 6 -1.8369 -11.5788 25.2709 0.3873 6.9344 39.0764
#
#
#
# Elastic Compliance Matrix: (Units=1/GPa)
#
#
# Indices 1 2 3 4 5 6 
#
# 1 0.010883 -0.003498 -0.002637 0.003791 -0.001009 0.001322
# 2 -0.003498 0.022854 -0.006852 -0.012153 0.004149 0.010423
# 3 -0.002637 -0.006852 0.009489 0.001648 -0.000699 -0.008183
# 4 0.003791 -0.012153 0.001648 0.027596 -0.005073 -0.003862
# 5 -0.001009 0.004149 -0.000699 -0.005073 0.027414 -0.003181
# 6 0.001322 0.010423 -0.008183 -0.003862 -0.003181 0.034636
#
#
# Mechanical properties :
#
#
# Convention : Reuss Voigt Hill
#
# Bulk Modulus (GPa) = 57.96415 75.27995 66.62205
# Shear Modulus (GPa) = 30.37737 41.67821 36.02779
#
# Velocity S-wave (km/s) = 3.73295 4.37252 4.06534
# Velocity P-wave (km/s) = 6.72084 7.74758 7.25240
#
# Compressibility (1/GPa) = 0.01725204
#
# Stress axis : x y z
#
# Youngs Moduli (GPa) = 91.88719 43.75625 105.38358
#
# Poissons Ratio (x) = 0.15305 0.27792
# Poissons Ratio (y) = 0.32140 0.72209
# Poissons Ratio (z) = 0.24232 0.29982
#
# Static dielectric constant tensor:
#      x y z
#    x 1.837910 -0.038670 -0.056390 
#    y -0.038670 1.850190 -0.022920 
#    z -0.056390 -0.022920 1.861020 
# 
# From -- ./inp_files/298383.got.cif
#   From: 2010.05.17/outbox.ucp.g08.bks.cvg/sg2_150_cif.got.tgz:298383.got - 2010.06.11 11:32:03.
