data_PCOD9074566
_publ_section_title
;
Structure prediction by ZEFSAII (Michael W. Deem and Ramdas Pophale) SiO2 
 PCOD9074566
Probable space group: P -1
;
_chemical_formula_sum "Si O2"
_cell_formula_units_Z 16
_cell_length_a 9.000000
_cell_length_b 12.000000
_cell_length_c 15.000000
_cell_angle_alpha 130.000000
_cell_angle_beta 110.000000
_cell_angle_gamma 110.000000
_cell_volume 728.972637
_symmetry_space_group_name_H-M "P -1"
_symmetry_group_IT_number 2
_symmetry_cell_setting 'triclinic'
loop_
_space_group_symop_operation_xyz
x,y,z
-x,-y,-z
loop_
_atom_site_type_symbol
_atom_site_label
_atom_site_fract_x
_atom_site_fract_y
_atom_site_fract_z
Si Si1 0.225614 0.346576 0.259578
Si Si2 0.142439 0.421259 0.676882
Si Si3 0.067400 0.272272 0.388993
Si Si4 0.951853 0.082998 0.773918
Si Si5 0.499774 0.936368 0.064930
Si Si6 0.543062 0.449064 0.780893
Si Si7 0.297169 0.970232 0.481257
Si Si8 0.706317 0.934547 0.833574
O O1 0.369737 0.508424 0.283939
O O2 0.345627 0.272183 0.261925
O O3 0.192059 0.388613 0.374851
O O4 0.943163 0.131105 0.050600
O O5 0.279884 0.657776 0.872789
O O6 0.322492 0.410310 0.722555
O O7 0.123858 0.413870 0.560212
O O8 0.878100 0.210771 0.566409
O O9 0.099136 0.126724 0.350085
O O10 0.768562 0.060995 0.202537
O O11 0.879492 0.107246 0.678849
O O12 0.227011 0.325799 0.994751
O O13 0.775885 0.998437 0.777569
O O14 0.500000 0.000000 0.000000
O O15 0.473296 0.059682 0.183212
O O16 0.443951 0.220485 0.671752
O O17 0.500000 0.000000 0.500000
#
# Coordination Sequence:
#
# PCOD9074566 Si02
#       8
#     2   2   2   2   2   2   2   2
#     4   9  19  41  70 103 139 176 228 272 349 418
#     4  12  28  46  69 103 141 185 235 282 346 411
#     4  11  23  44  70 108 139 183 226 281 351 417
#     4  10  23  46  74  98 132 185 235 277 352 403
#     4  12  24  43  69 103 146 181 225 287 344 407
#     4  11  23  47  74  99 138 185 229 287 341 416
#     4  12  30  48  67 102 141 180 240 295 336 405
#     4   9  19  38  67 101 136 173 225 280 329 416
#
# _framework density 21.948698
#
# number of rings (size 3 to 8) (size 9 to 14) (size 15 to 20)
#    0.000    1.250    3.750    1.875    5.250    3.000 
#    2.250    0.000    0.000    0.000    0.000    0.000 
#    0.000    0.000    0.000    0.000    0.000    0.000 
#
# Total GULP energy -89359.148502 kJ/mol
# GULP energy per Si atom -5584.946781 kJ/mol
# Density = 2.189874 g / cm^3
# Si number density = 21.948698 Si / 1000 Ang^3
#
#
#
# Elastic Constant Matrix: (Units=GPa)
#
#
# Indices 1 2 3 4 5 6 
#
# 1 83.2097 23.0388 0.3211 0.6251 -5.1231 18.6873
# 2 23.0388 44.4829 -0.8469 -2.9386 5.7260 14.7563
# 3 0.3211 -0.8469 78.3098 -10.3777 6.0892 3.8781
# 4 0.6251 -2.9386 -10.3777 46.3060 1.6002 -4.3253
# 5 -5.1231 5.7260 6.0892 1.6002 26.8183 0.0681
# 6 18.6873 14.7563 3.8781 -4.3253 0.0681 30.6703
#
#
#
# Elastic Compliance Matrix: (Units=1/GPa)
#
#
# Indices 1 2 3 4 5 6 
#
# 1 0.015604 -0.006622 -0.000366 -0.001478 0.004583 -0.006494
# 2 -0.006622 0.030668 0.001760 0.001719 -0.008288 -0.010682
# 3 -0.000366 0.001760 0.013585 0.003113 -0.003711 -0.001894
# 4 -0.001478 0.001719 0.003113 0.022787 -0.002723 0.002900
# 5 0.004583 -0.008288 -0.003711 -0.002723 0.040935 0.001190
# 6 -0.006494 -0.010682 -0.001894 0.002900 0.001190 0.042347
#
#
# Mechanical properties :
#
#
# Convention : Reuss Voigt Hill
#
# Bulk Modulus (GPa) = 20.24261 27.89203 24.06732
# Shear Modulus (GPa) = 25.92688 32.99153 29.45921
#
# Velocity S-wave (km/s) = 3.44066 3.88122 3.66756
# Velocity P-wave (km/s) = 5.00269 5.72892 5.37808
#
# Compressibility (1/GPa) = 0.04940075
#
# Stress axis : x y z
#
# Youngs Moduli (GPa) = 64.08434 32.60744 73.60951
#
# Poissons Ratio (x) = 0.21593 0.02696
# Poissons Ratio (y) = 0.42438 -0.12956
# Poissons Ratio (z) = 0.02347 -0.05739
#
# Static dielectric constant tensor:
#      x y z
#    x 1.764240 -0.002910 0.032690 
#    y -0.002910 1.773210 0.029900 
#    z 0.032690 0.029900 1.878070 
# 
# From -- ./inp_files/500871.got.cif
#   From: 2010.05.17/outbox.ucp.g08.bks.cvg/sg2_251_cif.got.tgz:500871.got - 2010.06.11 11:32:03.
