data_PCOD9074982
_publ_section_title
;
Structure prediction by ZEFSAII (Michael W. Deem and Ramdas Pophale) SiO2 
 PCOD9074982
Probable space group: P -1
;
_chemical_formula_sum "Si O2"
_cell_formula_units_Z 16
_cell_length_a 9.000000
_cell_length_b 12.000000
_cell_length_c 21.000000
_cell_angle_alpha 130.000000
_cell_angle_beta 30.000000
_cell_angle_gamma 140.000000
_cell_volume 727.418465
_symmetry_space_group_name_H-M "P -1"
_symmetry_group_IT_number 2
_symmetry_cell_setting 'triclinic'
loop_
_space_group_symop_operation_xyz
x,y,z
-x,-y,-z
loop_
_atom_site_type_symbol
_atom_site_label
_atom_site_fract_x
_atom_site_fract_y
_atom_site_fract_z
Si Si1 0.758202 0.663618 0.790092
Si Si2 0.570024 0.317917 0.466814
Si Si3 0.232583 0.293268 0.887789
Si Si4 0.922471 0.960011 0.939067
Si Si5 0.857229 0.160374 0.844857
Si Si6 0.653481 0.678086 0.591480
Si Si7 0.200112 0.014844 0.582250
Si Si8 0.788795 0.431977 0.158461
O O1 0.603243 0.465729 0.796341
O O2 0.842183 0.791010 0.866113
O O3 0.479410 0.639999 0.830147
O O4 0.129357 0.720196 0.643078
O O5 0.678554 0.510409 0.515261
O O6 0.474906 0.295915 0.419374
O O7 0.266791 0.174530 0.571687
O O8 0.978301 0.205283 0.889207
O O9 0.247916 0.137851 0.853987
O O10 0.059594 0.373313 0.024466
O O11 0.557319 0.946921 0.055448
O O12 0.000000 0.000000 0.000000
O O13 0.990941 0.041373 0.725928
O O14 0.025186 0.358993 0.830430
O O15 0.393279 0.641076 0.733286
O O16 0.007197 0.850344 0.546892
O O17 0.500000 0.000000 0.500000
#
# Coordination Sequence:
#
# PCOD9074982 Si02
#       8
#     2   2   2   2   2   2   2   2
#     4  11  25  43  68 101 133 174 226 278 326 405
#     4  11  27  47  65  99 142 175 231 275 337 407
#     4  11  24  44  69  98 133 176 218 277 334 395
#     4  12  27  42  67 103 139 174 219 272 344 406
#     4  11  23  46  69 101 134 173 225 279 333 400
#     4  11  26  46  70  96 134 187 217 282 343 395
#     4  12  27  44  72 101 133 180 233 280 332 395
#     4  11  21  45  74  95 132 176 226 278 332 395
#
# _framework density 21.995591999999998
#
# number of rings (size 3 to 8) (size 9 to 14) (size 15 to 20)
#    0.000    0.750    3.750    3.000   10.500    2.500 
#    0.000    0.000    0.000    0.000    0.000    0.000 
#    0.000    0.000    0.000    0.000    0.000    0.000 
#
# Total GULP energy -89256.635135 kJ/mol
# GULP energy per Si atom -5578.539696 kJ/mol
# Density = 2.194553 g / cm^3
# Si number density = 21.995592 Si / 1000 Ang^3
#
#
#
# Elastic Constant Matrix: (Units=GPa)
#
#
# Indices 1 2 3 4 5 6 
#
# 1 33.6473 53.7404 10.9982 6.6457 22.9536 6.2719
# 2 53.7404 133.3068 2.2685 9.2424 13.6933 12.5729
# 3 10.9982 2.2685 21.1378 -4.7715 27.2554 12.1254
# 4 6.6457 9.2424 -4.7715 -2.5889 18.4020 15.2735
# 5 22.9536 13.6933 27.2554 18.4020 12.2592 1.8028
# 6 6.2719 12.5729 12.1254 15.2735 1.8028 37.1131
#
#
#
# Elastic Compliance Matrix: (Units=1/GPa)
#
#
# Indices 1 2 3 4 5 6 
#
# 1 0.858041 -0.288180 -0.095495 -0.457552 -0.413812 0.192225
# 2 -0.288180 0.105260 0.035093 0.145768 0.134727 -0.064957
# 3 -0.095495 0.035093 0.049011 -0.004291 0.038829 -0.011883
# 4 -0.457552 0.145768 -0.004291 0.295969 0.274713 -0.105804
# 5 -0.413812 0.134727 0.038829 0.274713 0.223716 -0.112318
# 6 0.192225 -0.064957 -0.011883 -0.105804 -0.112318 0.069346
#
#
# Mechanical properties :
#
#
# Convention : Reuss Voigt Hill
#
# Bulk Modulus (GPa) = 3.17311 35.78956 19.48133
# Shear Modulus (GPa) = 2.08025 17.42901 9.75463
#
# Velocity S-wave (km/s) = 0.97356 2.81799 2.10818
# Velocity P-wave (km/s) = 1.64605 5.18601 3.84735
#
# Compressibility (1/GPa) = 0.31514823
#
# Stress axis : x y z
#
# Youngs Moduli (GPa) = 1.16544 9.50027 20.40371
#
# Poissons Ratio (x) = 2.73779 1.94845
# Poissons Ratio (y) = 0.33586 -0.71603
# Poissons Ratio (z) = 0.11129 -0.33339
#
# Static dielectric constant tensor:
#      x y z
#    x 1.768980 -0.051900 0.016440 
#    y -0.051900 1.850360 -0.088130 
#    z 0.016440 -0.088130 1.862640 
# 
# From -- ./inp_files/282596.got.cif
#   From: 2010.05.17/outbox.ucp.g08.bks.cvg/sg2_142_cif.got.tgz:282596.got - 2010.06.11 11:32:03.
