data_PCOD9074694
_publ_section_title
;
Structure prediction by ZEFSAII (Michael W. Deem and Ramdas Pophale) SiO2 
 PCOD9074694
Probable space group: P -1
;
_chemical_formula_sum "Si O2"
_cell_formula_units_Z 16
_cell_length_a 15.000000
_cell_length_b 15.000000
_cell_length_c 12.000000
_cell_angle_alpha 30.000000
_cell_angle_beta 60.000000
_cell_angle_gamma 40.000000
_cell_volume 747.221570
_symmetry_space_group_name_H-M "P -1"
_symmetry_group_IT_number 2
_symmetry_cell_setting 'triclinic'
loop_
_space_group_symop_operation_xyz
x,y,z
-x,-y,-z
loop_
_atom_site_type_symbol
_atom_site_label
_atom_site_fract_x
_atom_site_fract_y
_atom_site_fract_z
Si Si1 0.614917 0.375753 0.459906
Si Si2 0.294008 0.907619 0.730039
Si Si3 0.097744 0.858586 0.977086
Si Si4 0.373757 0.539784 0.887713
Si Si5 0.912814 0.305051 0.192075
Si Si6 0.938605 0.489918 0.661566
Si Si7 0.155211 0.227106 0.992623
Si Si8 0.853369 0.367845 0.404474
O O1 0.500000 0.500000 0.500000
O O2 0.565346 0.497447 0.234976
O O3 0.731289 0.377320 0.431878
O O4 0.698099 0.073108 0.721610
O O5 0.246709 0.795697 0.953189
O O6 0.299533 0.812716 0.704030
O O7 0.167204 0.230092 0.499649
O O8 0.474405 0.723475 0.848958
O O9 0.144053 0.591235 0.218134
O O10 0.987283 0.088609 0.697033
O O11 0.000000 0.000000 0.000000
O O12 0.239774 0.564484 0.923837
O O13 0.891619 0.406534 0.219280
O O14 0.007378 0.333664 0.038415
O O15 0.000000 0.000000 0.500000
O O16 0.000000 0.500000 0.500000
O O17 0.105924 0.218703 0.911832
O O18 0.189264 0.389889 0.771101
#
# Coordination Sequence:
#
# PCOD9074694 Si02
#       8
#     2   2   2   2   2   2   2   2
#     4  11  26  44  69  95 147 179 228 286 348 405
#     4  11  24  44  70  96 148 175 234 277 349 417
#     4  12  23  42  69 101 137 179 229 286 342 405
#     4  10  24  45  67 102 140 190 218 290 347 405
#     4  11  20  42  71  97 135 172 230 281 338 407
#     4  12  24  41  69 104 133 178 231 284 339 409
#     4  12  23  40  72 101 129 175 233 284 342 405
#     4  11  23  41  67 102 130 175 228 284 343 404
#
# _framework density 21.412658
#
# number of rings (size 3 to 8) (size 9 to 14) (size 15 to 20)
#    0.000    0.750    6.250    1.875    3.500    1.500 
#    0.000    8.125    0.000    0.000    0.000    0.000 
#    0.000    0.000    0.000    0.000    0.000    0.000 
#
# Total GULP energy -89073.297190 kJ/mol
# GULP energy per Si atom -5567.081074 kJ/mol
# Density = 2.136392 g / cm^3
# Si number density = 21.412658 Si / 1000 Ang^3
#
#
#
# Elastic Constant Matrix: (Units=GPa)
#
#
# Indices 1 2 3 4 5 6 
#
# 1 80.4744 17.5544 24.4260 -5.3047 -4.9433 5.0951
# 2 17.5544 108.9333 13.7262 23.8990 4.7627 12.5265
# 3 24.4260 13.7262 69.3137 11.5683 -20.3764 -4.3776
# 4 -5.3047 23.8990 11.5683 31.5270 10.3763 -4.8771
# 5 -4.9433 4.7627 -20.3764 10.3763 47.5817 4.2350
# 6 5.0951 12.5265 -4.3776 -4.8771 4.2350 22.3052
#
#
#
# Elastic Compliance Matrix: (Units=1/GPa)
#
#
# Indices 1 2 3 4 5 6 
#
# 1 0.015803 -0.003336 -0.007290 0.008740 -0.002991 -0.000688
# 2 -0.003336 0.013668 0.000846 -0.013646 0.002532 -0.010213
# 3 -0.007290 0.000846 0.022701 -0.014074 0.011922 0.000305
# 4 0.008740 -0.013646 -0.014074 0.057541 -0.017984 0.018901
# 5 -0.002991 0.002532 0.011922 -0.017984 0.030197 -0.008065
# 6 -0.000688 -0.010213 0.000305 0.018901 -0.008065 0.056449
#
#
# Mechanical properties :
#
#
# Convention : Reuss Voigt Hill
#
# Bulk Modulus (GPa) = 30.66242 41.12607 35.89425
# Shear Modulus (GPa) = 22.04679 33.81708 27.93194
#
# Velocity S-wave (km/s) = 3.21224 3.97836 3.61565
# Velocity P-wave (km/s) = 5.30178 6.35226 5.85064
#
# Compressibility (1/GPa) = 0.03261321
#
# Stress axis : x y z
#
# Youngs Moduli (GPa) = 63.28109 73.16110 44.05012
#
# Poissons Ratio (x) = 0.24404 0.32111
# Poissons Ratio (y) = 0.21108 -0.03725
# Poissons Ratio (z) = 0.46130 -0.06187
#
# Static dielectric constant tensor:
#      x y z
#    x 1.591940 -0.340200 -0.177840 
#    y -0.340200 1.321090 -0.329420 
#    z -0.177840 -0.329420 1.653550 
# 
# From -- ./inp_files/455377.got.cif
#   From: 2010.05.17/outbox.ucp.g08.bks.cvg/sg2_228_cif.got.tgz:455377.got - 2010.06.11 11:32:03.
