data_PCOD9074210
_publ_section_title
;
Structure prediction by ZEFSAII (Michael W. Deem and Ramdas Pophale) SiO2 
 PCOD9074210
Probable space group: P -1
;
_chemical_formula_sum "Si O2"
_cell_formula_units_Z 14
_cell_length_a 12.000000
_cell_length_b 9.000000
_cell_length_c 9.000000
_cell_angle_alpha 70.000000
_cell_angle_beta 70.000000
_cell_angle_gamma 120.000000
_cell_volume 614.029152
_symmetry_space_group_name_H-M "P -1"
_symmetry_group_IT_number 2
_symmetry_cell_setting 'triclinic'
loop_
_space_group_symop_operation_xyz
x,y,z
-x,-y,-z
loop_
_atom_site_type_symbol
_atom_site_label
_atom_site_fract_x
_atom_site_fract_y
_atom_site_fract_z
Si Si1 0.426316 0.022205 0.675495
Si Si2 0.100932 0.860429 0.986886
Si Si3 0.037817 0.712811 0.373195
Si Si4 0.260490 0.405925 0.269686
Si Si5 0.542858 0.676018 0.638765
Si Si6 0.422033 0.090218 0.165255
Si Si7 0.820673 0.762120 0.971695
O O1 0.521445 0.033039 0.767326
O O2 0.500000 0.000000 0.500000
O O3 0.442367 0.221362 0.558467
O O4 0.231170 0.850034 0.870558
O O5 0.991689 0.687107 0.229167
O O6 0.986521 0.821078 0.920396
O O7 0.171132 0.074664 0.980728
O O8 0.000000 0.500000 0.500000
O O9 0.909940 0.691015 0.543723
O O10 0.239560 0.923880 0.229435
O O11 0.349952 0.378992 0.360625
O O12 0.413930 0.670858 0.064625
O O13 0.206751 0.265458 0.187135
O O14 0.603131 0.842196 0.690631
O O15 0.348672 0.475331 0.819641
#
# Coordination Sequence:
#
# PCOD9074210 Si02
#       7
#     2   2   2   2   2   2   2
#     4  10  24  43  69 100 142 190 224 287 358 414
#     4  11  25  44  65 108 147 174 235 298 349 415
#     4  12  28  44  72 106 141 189 235 290 355 425
#     4  11  24  46  77 100 139 191 240 287 354 422
#     4  10  22  43  72 104 132 185 244 282 349 421
#     4  10  23  47  68 100 143 183 237 289 344 422
#     4  10  24  43  71 104 142 181 229 301 353 411
#
# _framework density 22.800219999999999
#
# number of rings (size 3 to 8) (size 9 to 14) (size 15 to 20)
#    0.000    1.429    0.000    4.286   10.000    5.143 
#    0.000    2.857    0.000    0.000    0.000    0.000 
#    0.000    0.000    0.000    0.000    0.000    0.000 
#
# Total GULP energy -78025.014404 kJ/mol
# GULP energy per Si atom -5573.215315 kJ/mol
# Density = 2.274833 g / cm^3
# Si number density = 22.800220 Si / 1000 Ang^3
#
#
#
# Elastic Constant Matrix: (Units=GPa)
#
#
# Indices 1 2 3 4 5 6 
#
# 1 160.6431 35.6200 63.5047 -6.6747 1.1512 15.3590
# 2 35.6200 55.4305 14.1425 0.8200 -2.8247 9.4288
# 3 63.5047 14.1425 103.2000 3.8353 -5.0867 -9.7545
# 4 -6.6747 0.8200 3.8353 27.0710 -10.5889 -10.1850
# 5 1.1512 -2.8247 -5.0867 -10.5889 54.2824 -2.7445
# 6 15.3590 9.4288 -9.7545 -10.1850 -2.7445 29.6793
#
#
#
# Elastic Compliance Matrix: (Units=1/GPa)
#
#
# Indices 1 2 3 4 5 6 
#
# 1 0.010268 -0.004019 -0.006420 0.000868 -0.001160 -0.005956
# 2 -0.004019 0.022077 -0.001031 -0.004006 0.000020 -0.006645
# 3 -0.006420 -0.001031 0.014697 0.000468 0.001997 0.008825
# 4 0.000868 -0.004006 0.000468 0.048103 0.010132 0.018421
# 5 -0.001160 0.000020 0.001997 0.010132 0.020948 0.006665
# 6 -0.005956 -0.006645 0.008825 0.018421 0.006665 0.048725
#
#
# Mechanical properties :
#
#
# Convention : Reuss Voigt Hill
#
# Bulk Modulus (GPa) = 41.48950 60.64534 51.06742
# Shear Modulus (GPa) = 25.53730 35.94032 30.73881
#
# Velocity S-wave (km/s) = 3.35034 3.97459 3.67574
# Velocity P-wave (km/s) = 5.76219 6.90793 6.36091
#
# Compressibility (1/GPa) = 0.02410249
#
# Stress axis : x y z
#
# Youngs Moduli (GPa) = 97.39018 45.29628 68.04083
#
# Poissons Ratio (x) = 0.18205 0.43683
# Poissons Ratio (y) = 0.39141 0.07012
# Poissons Ratio (z) = 0.62526 0.04668
#
# Static dielectric constant tensor:
#      x y z
#    x 1.882040 -0.070700 0.050150 
#    y -0.070700 1.902480 -0.114590 
#    z 0.050150 -0.114590 2.016980 
# 
# From -- ./inp_files/242971.got.cif
#   From: 2010.05.17/outbox.ucp.g08.bks.cvg/sg2_122_cif.got.tgz:242971.got - 2010.06.11 11:32:03.
