data_PCOD9074980
_publ_section_title
;
Structure prediction by ZEFSAII (Michael W. Deem and Ramdas Pophale) SiO2 
 PCOD9074980
Probable space group: P -1
;
_chemical_formula_sum "Si O2"
_cell_formula_units_Z 16
_cell_length_a 9.000000
_cell_length_b 12.000000
_cell_length_c 18.000000
_cell_angle_alpha 130.000000
_cell_angle_beta 40.000000
_cell_angle_gamma 100.000000
_cell_volume 729.599496
_symmetry_space_group_name_H-M "P -1"
_symmetry_group_IT_number 2
_symmetry_cell_setting 'triclinic'
loop_
_space_group_symop_operation_xyz
x,y,z
-x,-y,-z
loop_
_atom_site_type_symbol
_atom_site_label
_atom_site_fract_x
_atom_site_fract_y
_atom_site_fract_z
Si Si1 0.210602 0.056007 0.457073
Si Si2 0.179482 0.630291 0.134607
Si Si3 0.487216 0.576462 0.705125
Si Si4 0.245459 0.231834 0.098847
Si Si5 0.262701 0.331051 0.480985
Si Si6 0.725314 0.205972 0.973324
Si Si7 0.823592 0.707089 0.016268
Si Si8 0.206241 0.800763 0.665988
O O1 0.197545 0.187182 0.454685
O O2 0.075049 0.191063 0.639590
O O3 0.000000 0.000000 0.500000
O O4 0.562416 0.861982 0.240070
O O5 0.229210 0.702279 0.072189
O O6 0.104032 0.492944 0.087630
O O7 0.500000 0.500000 0.000000
O O8 0.592550 0.666086 0.649522
O O9 0.687991 0.356767 0.506009
O O10 0.135834 0.669348 0.874334
O O11 0.484362 0.634490 0.815116
O O12 0.318218 0.211012 0.975620
O O13 0.038085 0.456012 0.294038
O O14 0.040606 0.180412 0.179591
O O15 0.553926 0.129556 0.980432
O O16 0.502945 0.281374 0.430801
O O17 0.049808 0.013518 0.792503
#
# Coordination Sequence:
#
# PCOD9074980 Si02
#       8
#     2   2   2   2   2   2   2   2
#     4  12  24  39  70 108 126 183 245 285 333 414
#     4  12  24  49  67  96 146 189 237 289 345 424
#     4  11  25  46  72 109 141 187 232 290 364 417
#     4  11  21  45  72 102 144 188 227 291 358 413
#     4  11  22  45  78 100 146 188 237 286 348 440
#     4  12  27  42  69 108 150 178 233 308 349 408
#     4  12  23  44  78  98 136 191 243 281 345 435
#     4  11  23  45  71 107 145 182 231 292 361 419
#
# _framework density 21.929839999999999
#
# number of rings (size 3 to 8) (size 9 to 14) (size 15 to 20)
#    0.000    0.500    6.250    1.875    1.750    4.500 
#    6.750    4.375    0.000    0.000    0.000    0.000 
#    0.000    0.000    0.000    0.000    0.000    0.000 
#
# Total GULP energy -89486.797295 kJ/mol
# GULP energy per Si atom -5592.924831 kJ/mol
# Density = 2.187993 g / cm^3
# Si number density = 21.929840 Si / 1000 Ang^3
#
#
#
# Elastic Constant Matrix: (Units=GPa)
#
#
# Indices 1 2 3 4 5 6 
#
# 1 63.8864 28.3034 21.4080 -7.6361 8.0147 -3.5454
# 2 28.3034 162.9289 45.1886 -11.8586 21.4538 5.3310
# 3 21.4080 45.1886 125.8553 -12.1473 27.3620 -11.2041
# 4 -7.6361 -11.8586 -12.1473 35.7190 0.0389 -5.2820
# 5 8.0147 21.4538 27.3620 0.0389 31.7545 -7.6993
# 6 -3.5454 5.3310 -11.2041 -5.2820 -7.6993 33.7207
#
#
#
# Elastic Compliance Matrix: (Units=1/GPa)
#
#
# Indices 1 2 3 4 5 6 
#
# 1 0.017791 -0.002391 -0.001479 0.002794 -0.001135 0.001936
# 2 -0.002391 0.007684 -0.001660 0.001077 -0.003818 -0.002721
# 3 -0.001479 -0.001660 0.010921 0.003236 -0.007294 0.002577
# 4 0.002794 0.001077 0.003236 0.030847 -0.002960 0.005354
# 5 -0.001135 -0.003818 -0.007294 -0.002960 0.042412 0.007281
# 6 0.001936 -0.002721 0.002577 0.005354 0.007281 0.033646
#
#
# Mechanical properties :
#
#
# Convention : Reuss Voigt Hill
#
# Bulk Modulus (GPa) = 39.47084 60.27450 49.87267
# Shear Modulus (GPa) = 30.71131 37.42357 34.06744
#
# Velocity S-wave (km/s) = 3.74630 4.13548 3.94569
# Velocity P-wave (km/s) = 6.06224 7.09561 6.59919
#
# Compressibility (1/GPa) = 0.02533516
#
# Stress axis : x y z
#
# Youngs Moduli (GPa) = 56.20674 130.14650 91.56740
#
# Poissons Ratio (x) = 0.31118 0.13544
# Poissons Ratio (y) = 0.13439 0.15203
# Poissons Ratio (z) = 0.08314 0.21608
#
# Static dielectric constant tensor:
#      x y z
#    x 1.867610 0.005140 0.004320 
#    y 0.005140 1.783570 0.017320 
#    z 0.004320 0.017320 1.770100 
# 
# From -- ./inp_files/272200.got.cif
#   From: 2010.05.17/outbox.ucp.g08.bks.cvg/sg2_137_cif.got.tgz:272200.got - 2010.06.11 11:32:03.
