data_PCOD9074495
_publ_section_title
;
Structure prediction by ZEFSAII (Michael W. Deem and Ramdas Pophale) SiO2 
 PCOD9074495
Probable space group: P -1
;
_chemical_formula_sum "Si O2"
_cell_formula_units_Z 16
_cell_length_a 9.000000
_cell_length_b 12.000000
_cell_length_c 21.000000
_cell_angle_alpha 140.000000
_cell_angle_beta 130.000000
_cell_angle_gamma 30.000000
_cell_volume 727.418465
_symmetry_space_group_name_H-M "P -1"
_symmetry_group_IT_number 2
_symmetry_cell_setting 'triclinic'
loop_
_space_group_symop_operation_xyz
x,y,z
-x,-y,-z
loop_
_atom_site_type_symbol
_atom_site_label
_atom_site_fract_x
_atom_site_fract_y
_atom_site_fract_z
Si Si1 0.819685 0.953990 0.502190
Si Si2 0.678835 0.940826 0.724775
Si Si3 0.725548 0.651941 0.411824
Si Si4 0.899135 0.762457 0.067194
Si Si5 0.991481 0.172500 0.115819
Si Si6 0.390811 0.695235 0.227165
Si Si7 0.079885 0.157270 0.664348
Si Si8 0.802303 0.698066 0.871919
O O1 0.814448 0.786185 0.472477
O O2 0.955705 0.806430 0.406666
O O3 0.456833 0.229978 0.520215
O O4 0.987253 0.021382 0.595160
O O5 0.976257 0.657645 0.652364
O O6 0.761906 0.985074 0.831263
O O7 0.578744 0.157057 0.744096
O O8 0.427451 0.971526 0.686320
O O9 0.471668 0.728212 0.331605
O O10 0.106840 0.770519 0.160872
O O11 0.556456 0.037211 0.111470
O O12 0.907965 0.730761 0.978827
O O13 0.000000 0.500000 0.000000
O O14 0.673716 0.384591 0.154919
O O15 0.046726 0.304618 0.146274
O O16 0.000000 0.000000 0.000000
O O17 0.898789 0.429694 0.772555
#
# Coordination Sequence:
#
# PCOD9074495 Si02
#       8
#     2   2   2   2   2   2   2   2
#     4  10  23  45  66  96 135 173 221 283 326 389
#     4  11  23  40  69  96 130 176 217 267 338 388
#     4  10  23  44  68  96 134 169 225 273 329 398
#     4  11  27  43  67  96 134 177 218 266 337 397
#     4  11  23  39  66  96 132 170 217 271 323 396
#     4  11  23  42  65  99 130 170 221 270 328 397
#     4  11  23  43  69  96 136 174 222 277 332 387
#     4  11  25  44  64  99 134 169 223 271 323 403
#
# _framework density 21.995591999999998
#
# number of rings (size 3 to 8) (size 9 to 14) (size 15 to 20)
#    0.000    1.250    2.500    2.250    7.000    4.000 
#    0.000    0.000    0.000    0.000    0.000    0.000 
#    0.000    0.000    0.000    0.000    0.000    0.000 
#
# Total GULP energy -89268.652162 kJ/mol
# GULP energy per Si atom -5579.290760 kJ/mol
# Density = 2.194553 g / cm^3
# Si number density = 21.995592 Si / 1000 Ang^3
#
#
#
# Elastic Constant Matrix: (Units=GPa)
#
#
# Indices 1 2 3 4 5 6 
#
# 1 78.9157 21.7371 17.8148 -7.3550 10.4922 -24.7725
# 2 21.7371 63.5044 36.2966 -14.0999 -0.9546 -23.9962
# 3 17.8148 36.2966 134.3354 6.2432 15.8528 -20.5783
# 4 -7.3550 -14.0999 6.2432 38.0541 -9.2018 3.8341
# 5 10.4922 -0.9546 15.8528 -9.2018 41.6027 -6.0252
# 6 -24.7725 -23.9962 -20.5783 3.8341 -6.0252 32.3241
#
#
#
# Elastic Compliance Matrix: (Units=1/GPa)
#
#
# Indices 1 2 3 4 5 6 
#
# 1 0.017075 -0.001351 0.000120 0.001013 -0.002482 0.011577
# 2 -0.001351 0.029074 -0.006735 0.012044 0.008619 0.016438
# 3 0.000120 -0.006735 0.010322 -0.005548 -0.005148 0.001362
# 4 0.001013 0.012044 -0.005548 0.033909 0.010224 0.004070
# 5 -0.002482 0.008619 -0.005148 0.010224 0.029892 0.005578
# 6 0.011577 0.016438 0.001362 0.004070 0.005578 0.053435
#
#
# Mechanical properties :
#
#
# Convention : Reuss Voigt Hill
#
# Bulk Modulus (GPa) = 24.66809 47.60582 36.13696
# Shear Modulus (GPa) = 24.61186 35.78998 30.20092
#
# Velocity S-wave (km/s) = 3.34869 4.03816 3.70948
# Velocity P-wave (km/s) = 5.11772 6.59035 5.90016
#
# Compressibility (1/GPa) = 0.04053820
#
# Stress axis : x y z
#
# Youngs Moduli (GPa) = 58.56389 34.39466 96.88151
#
# Poissons Ratio (x) = 0.04648 -0.01161
# Poissons Ratio (y) = 0.07913 0.65253
# Poissons Ratio (z) = -0.00702 0.23166
#
# Static dielectric constant tensor:
#      x y z
#    x 1.827840 0.040880 -0.067410 
#    y 0.040880 1.873200 -0.002710 
#    z -0.067410 -0.002710 1.888250 
# 
# From -- ./inp_files/329538.got.cif
#   From: 2010.05.17/outbox.ucp.g08.bks.cvg/sg2_165_cif.got.tgz:329538.got - 2010.06.11 11:32:03.
