data_PCOD9074274
_publ_section_title
;
Structure prediction by ZEFSAII (Michael W. Deem and Ramdas Pophale) SiO2 
 PCOD9074274
Probable space group: P -1
;
_chemical_formula_sum "Si O2"
_cell_formula_units_Z 14
_cell_length_a 12.000000
_cell_length_b 15.000000
_cell_length_c 9.000000
_cell_angle_alpha 120.000000
_cell_angle_beta 50.000000
_cell_angle_gamma 150.000000
_cell_volume 613.666794
_symmetry_space_group_name_H-M "P -1"
_symmetry_group_IT_number 2
_symmetry_cell_setting 'triclinic'
loop_
_space_group_symop_operation_xyz
x,y,z
-x,-y,-z
loop_
_atom_site_type_symbol
_atom_site_label
_atom_site_fract_x
_atom_site_fract_y
_atom_site_fract_z
Si Si1 0.239492 0.065007 0.836890
Si Si2 0.084009 0.243407 0.593214
Si Si3 0.482252 0.850469 0.815940
Si Si4 0.378783 0.543671 0.108098
Si Si5 0.543375 0.968983 0.176413
Si Si6 0.417447 0.592430 0.765779
Si Si7 0.913404 0.225139 0.427669
O O1 0.473048 0.278043 0.786979
O O2 0.267507 0.009786 0.914297
O O3 0.183693 0.946963 0.663580
O O4 0.000000 0.000000 0.000000
O O5 0.201316 0.383909 0.736269
O O6 0.299032 0.282496 0.415160
O O7 0.078678 0.309981 0.504950
O O8 0.794163 0.036737 0.694169
O O9 0.383774 0.677670 0.772462
O O10 0.376160 0.867043 0.795303
O O11 0.416664 0.860825 0.041151
O O12 0.089833 0.367140 0.263555
O O13 0.500000 0.500000 0.000000
O O14 0.408658 0.593351 0.952312
O O15 0.332489 0.850910 0.387674
#
# Coordination Sequence:
#
# PCOD9074274 Si02
#       7
#     2   2   2   2   2   2   2
#     4  12  24  44  75  99 137 184 229 285 351 408
#     4  10  23  41  69 103 139 177 237 289 335 406
#     4  10  22  45  69  94 141 185 228 282 347 410
#     4  12  24  43  70 105 141 178 232 286 346 406
#     4  10  24  46  68 103 139 181 235 282 346 416
#     4  11  22  42  69 104 137 182 234 284 343 408
#     4  11  25  46  67 105 143 179 228 289 342 417
#
# _framework density 22.813683000000001
#
# number of rings (size 3 to 8) (size 9 to 14) (size 15 to 20)
#    0.000    1.143    4.286    0.857    2.000    2.857 
#    0.000    9.286    0.000    0.000    0.000    0.000 
#    0.000    0.000    0.000    0.000    0.000    0.000 
#
# Total GULP energy -78223.158095 kJ/mol
# GULP energy per Si atom -5587.368435 kJ/mol
# Density = 2.276176 g / cm^3
# Si number density = 22.813683 Si / 1000 Ang^3
#
#
#
# Elastic Constant Matrix: (Units=GPa)
#
#
# Indices 1 2 3 4 5 6 
#
# 1 134.1269 16.7167 19.7172 -12.3410 -16.6056 -20.7575
# 2 16.7167 100.5655 47.1534 -6.8840 4.0258 -18.8435
# 3 19.7172 47.1534 95.7257 -10.6966 -3.3853 -8.0516
# 4 -12.3410 -6.8840 -10.6966 13.2930 -5.6961 12.7468
# 5 -16.6056 4.0258 -3.3853 -5.6961 15.5642 4.5851
# 6 -20.7575 -18.8435 -8.0516 12.7468 4.5851 35.4695
#
#
#
# Elastic Compliance Matrix: (Units=1/GPa)
#
#
# Indices 1 2 3 4 5 6 
#
# 1 0.014027 -0.006035 0.005204 0.044877 0.038477 -0.014917
# 2 -0.006035 0.020851 -0.013787 -0.050464 -0.041524 0.027919
# 3 0.005204 -0.013787 0.022082 0.058868 0.043124 -0.025996
# 4 0.044877 -0.050464 0.058868 0.431890 0.284582 -0.179181
# 5 0.038477 -0.041524 0.043124 0.284582 0.266843 -0.126519
# 6 -0.014917 0.027919 -0.025996 -0.179181 -0.126519 0.109142
#
#
# Mechanical properties :
#
#
# Convention : Reuss Voigt Hill
#
# Bulk Modulus (GPa) = 36.06979 55.28808 45.67893
# Shear Modulus (GPa) = 5.53519 29.32072 17.42795
#
# Velocity S-wave (km/s) = 1.55933 3.58889 2.76692
# Velocity P-wave (km/s) = 4.36886 6.43900 5.50217
#
# Compressibility (1/GPa) = 0.02772403
#
# Stress axis : x y z
#
# Youngs Moduli (GPa) = 71.29172 47.96045 45.28533
#
# Poissons Ratio (x) = 0.28946 -0.23568
# Poissons Ratio (y) = 0.43027 0.62434
# Poissons Ratio (z) = -0.37103 0.66122
#
# Static dielectric constant tensor:
#      x y z
#    x 1.865290 0.036320 -0.009450 
#    y 0.036320 1.850480 0.029610 
#    z -0.009450 0.029610 1.890160 
# 
# From -- ./inp_files/274004.got.cif
#   From: 2010.05.17/outbox.ucp.g08.bks.cvg/sg2_138_cif.got.tgz:274004.got - 2010.06.11 11:32:03.
