data_PCOD9074158
_publ_section_title
;
Structure prediction by ZEFSAII (Michael W. Deem and Ramdas Pophale) SiO2 
 PCOD9074158
Probable space group: P -1
;
_chemical_formula_sum "Si O2"
_cell_formula_units_Z 16
_cell_length_a 9.000000
_cell_length_b 18.000000
_cell_length_c 12.000000
_cell_angle_alpha 130.000000
_cell_angle_beta 80.000000
_cell_angle_gamma 140.000000
_cell_volume 729.599496
_symmetry_space_group_name_H-M "P -1"
_symmetry_group_IT_number 2
_symmetry_cell_setting 'triclinic'
loop_
_space_group_symop_operation_xyz
x,y,z
-x,-y,-z
loop_
_atom_site_type_symbol
_atom_site_label
_atom_site_fract_x
_atom_site_fract_y
_atom_site_fract_z
Si Si1 0.228591 0.563639 0.463911
Si Si2 0.599385 0.615939 0.270541
Si Si3 0.426878 0.865484 0.307058
Si Si4 0.151486 0.841103 0.867480
Si Si5 0.442617 0.182513 0.546262
Si Si6 0.870280 0.960524 0.861070
Si Si7 0.989368 0.149196 0.352823
Si Si8 0.978601 0.746265 0.147045
O O1 0.310224 0.663011 0.434071
O O2 0.530934 0.733574 0.663499
O O3 0.000000 0.500000 0.500000
O O4 0.071944 0.372479 0.283962
O O5 0.676235 0.772709 0.387335
O O6 0.799470 0.666026 0.207597
O O7 0.711527 0.660174 0.426363
O O8 0.260500 0.402016 0.064968
O O9 0.425386 0.778800 0.314666
O O10 0.149085 0.739939 0.142884
O O11 0.500000 0.000000 0.500000
O O12 0.710086 0.020136 0.339305
O O13 0.062581 0.828505 0.739973
O O14 0.500000 0.000000 0.000000
O O15 0.114204 0.915821 0.020672
O O16 0.209434 0.968196 0.326431
O O17 0.043182 0.986344 0.780142
O O18 0.000000 0.000000 0.000000
#
# Coordination Sequence:
#
# PCOD9074158 Si02
#       8
#     2   2   2   2   2   2   2   2
#     4  12  26  44  74 108 141 195 243 297 367 432
#     4  11  22  44  71 109 138 187 237 291 374 429
#     4  10  22  42  75 106 140 190 236 293 372 427
#     4  11  26  48  78 104 143 193 251 306 359 433
#     4  11  24  44  70 101 152 181 235 298 357 438
#     4  10  24  49  71 105 143 188 248 306 361 427
#     4  11  23  46  75 107 144 191 242 306 367 431
#     4  10  24  43  73 103 146 188 237 291 361 444
#
# _framework density 21.929839999999999
#
# number of rings (size 3 to 8) (size 9 to 14) (size 15 to 20)
#    0.000    1.250    5.000    0.375    3.500    4.500 
#    2.250    0.000    0.000    0.000    0.000    0.000 
#    0.000    0.000    0.000    0.000    0.000    0.000 
#
# Total GULP energy -89197.190565 kJ/mol
# GULP energy per Si atom -5574.824410 kJ/mol
# Density = 2.187993 g / cm^3
# Si number density = 21.929840 Si / 1000 Ang^3
#
#
#
# Elastic Constant Matrix: (Units=GPa)
#
#
# Indices 1 2 3 4 5 6 
#
# 1 51.6349 14.7390 21.1075 5.2014 13.2405 -2.3048
# 2 14.7390 87.3227 50.3085 0.4526 11.8351 -4.7876
# 3 21.1075 50.3085 132.4325 5.1045 5.9754 -9.7501
# 4 5.2014 0.4526 5.1045 36.2147 -2.8784 -12.2051
# 5 13.2405 11.8351 5.9754 -2.8784 46.6217 -7.7119
# 6 -2.3048 -4.7876 -9.7501 -12.2051 -7.7119 42.9007
#
#
#
# Elastic Compliance Matrix: (Units=1/GPa)
#
#
# Indices 1 2 3 4 5 6 
#
# 1 0.022864 -0.001484 -0.002777 -0.003996 -0.006312 -0.001840
# 2 -0.001484 0.015198 -0.005434 0.000598 -0.002692 0.000068
# 3 -0.002777 -0.005434 0.010141 -0.000313 0.001124 0.001662
# 4 -0.003996 0.000598 -0.000313 0.031846 0.004588 0.009666
# 5 -0.006312 -0.002692 0.001124 0.004588 0.024959 0.005408
# 6 -0.001840 0.000068 0.001662 0.009666 0.005408 0.027318
#
#
# Mechanical properties :
#
#
# Convention : Reuss Voigt Hill
#
# Bulk Modulus (GPa) = 34.70438 49.30000 42.00219
# Shear Modulus (GPa) = 30.99408 37.49643 34.24525
#
# Velocity S-wave (km/s) = 3.76351 4.13950 3.95597
# Velocity P-wave (km/s) = 5.89448 6.73624 6.32937
#
# Compressibility (1/GPa) = 0.02881480
#
# Stress axis : x y z
#
# Youngs Moduli (GPa) = 43.73595 65.79761 98.60489
#
# Poissons Ratio (x) = 0.09764 0.27384
# Poissons Ratio (y) = 0.06490 0.53577
# Poissons Ratio (z) = 0.12146 0.35751
#
# Static dielectric constant tensor:
#      x y z
#    x 1.855160 0.031050 0.041530 
#    y 0.031050 1.828060 -0.008910 
#    z 0.041530 -0.008910 1.813230 
# 
# From -- ./inp_files/403245.got.cif
#   From: 2010.05.17/outbox.ucp.g08.bks.cvg/sg2_202_cif.got.tgz:403245.got - 2010.06.11 11:32:03.
