data_PCOD9074716
_publ_section_title
;
Structure prediction by ZEFSAII (Michael W. Deem and Ramdas Pophale) SiO2 
 PCOD9074716
Probable space group: P -1
;
_chemical_formula_sum "Si O2"
_cell_formula_units_Z 16
_cell_length_a 9.000000
_cell_length_b 12.000000
_cell_length_c 18.000000
_cell_angle_alpha 130.000000
_cell_angle_beta 120.000000
_cell_angle_gamma 30.000000
_cell_volume 736.400153
_symmetry_space_group_name_H-M "P -1"
_symmetry_group_IT_number 2
_symmetry_cell_setting 'triclinic'
loop_
_space_group_symop_operation_xyz
x,y,z
-x,-y,-z
loop_
_atom_site_type_symbol
_atom_site_label
_atom_site_fract_x
_atom_site_fract_y
_atom_site_fract_z
Si Si1 0.267911 0.749808 0.850583
Si Si2 0.589946 0.790836 0.887267
Si Si3 0.350850 0.751588 0.341305
Si Si4 0.398178 0.314008 0.466168
Si Si5 0.696677 0.235708 0.965887
Si Si6 0.285046 0.958862 0.725434
Si Si7 0.268278 0.116856 0.427840
Si Si8 0.181476 0.364828 0.907257
O O1 0.510741 0.708185 0.883798
O O2 0.372305 0.541661 0.739971
O O3 0.210008 0.765293 0.930287
O O4 0.939260 0.040445 0.877590
O O5 0.940907 0.580100 0.877362
O O6 0.442925 0.832084 0.791607
O O7 0.500000 0.000000 0.000000
O O8 0.404017 0.764289 0.446795
O O9 0.045260 0.877083 0.301603
O O10 0.331254 0.903320 0.346713
O O11 0.334244 0.186903 0.410078
O O12 0.077368 0.617842 0.521148
O O13 0.532260 0.229000 0.380528
O O14 0.484081 0.245756 0.931529
O O15 0.500000 0.500000 0.000000
O O16 0.253928 0.153401 0.807619
O O17 0.500000 0.000000 0.500000
O O18 0.000000 0.500000 0.000000
#
# Coordination Sequence:
#
# PCOD9074716 Si02
#       8
#     2   2   2   2   2   2   2   2
#     4  11  25  43  66 105 135 179 235 279 349 414
#     4  12  24  43  71  95 139 184 229 279 348 415
#     4  11  24  44  72  99 140 183 226 290 351 411
#     4  10  24  46  69 104 136 178 238 284 338 425
#     4  11  25  43  71 100 137 179 234 286 338 418
#     4  12  26  42  71 101 134 182 233 286 348 409
#     4   9  22  45  71  95 143 181 221 287 352 405
#     4  12  23  45  67  97 137 178 226 287 345 412
#
# _framework density 21.727318
#
# number of rings (size 3 to 8) (size 9 to 14) (size 15 to 20)
#    0.000    1.000    3.750    1.125    3.500    7.500 
#    0.000    0.000    0.000    0.000    0.000    0.000 
#    0.000    0.000    0.000    0.000    0.000    0.000 
#
# Total GULP energy -89067.954266 kJ/mol
# GULP energy per Si atom -5566.747142 kJ/mol
# Density = 2.167787 g / cm^3
# Si number density = 21.727318 Si / 1000 Ang^3
#
#
#
# Elastic Constant Matrix: (Units=GPa)
#
#
# Indices 1 2 3 4 5 6 
#
# 1 30.2995 -2.0258 34.6868 9.7328 12.6447 -14.0014
# 2 -2.0258 71.9194 28.1852 -3.0714 -4.5977 -13.6692
# 3 34.6868 28.1852 132.0871 -6.9992 -2.0138 -2.7180
# 4 9.7328 -3.0714 -6.9992 39.3020 4.0604 7.5230
# 5 12.6447 -4.5977 -2.0138 4.0604 39.1371 0.0165
# 6 -14.0014 -13.6692 -2.7180 7.5230 0.0165 35.9312
#
#
#
# Elastic Compliance Matrix: (Units=1/GPa)
#
#
# Indices 1 2 3 4 5 6 
#
# 1 0.231160 0.051129 -0.074498 -0.083135 -0.063938 0.121328
# 2 0.051129 0.027805 -0.019879 -0.019073 -0.012311 0.032997
# 3 -0.074498 -0.019879 0.032359 0.028209 0.020489 -0.040060
# 4 -0.083135 -0.019073 0.028209 0.056945 0.020184 -0.049449
# 5 -0.063938 -0.012311 0.020489 0.020184 0.043737 -0.032294
# 6 0.121328 0.032997 -0.040060 -0.049449 -0.032294 0.095000
#
#
# Mechanical properties :
#
#
# Convention : Reuss Voigt Hill
#
# Bulk Modulus (GPa) = 4.88212 39.55537 22.21875
# Shear Modulus (GPa) = 7.79086 34.43804 21.11445
#
# Velocity S-wave (km/s) = 1.89566 3.98554 3.12074
# Velocity P-wave (km/s) = 2.65391 6.27887 4.82014
#
# Compressibility (1/GPa) = 0.20482904
#
# Stress axis : x y z
#
# Youngs Moduli (GPa) = 4.32600 35.96437 30.90331
#
# Poissons Ratio (x) = -1.83882 2.30222
# Poissons Ratio (y) = -0.22118 0.61434
# Poissons Ratio (z) = 0.32228 0.71495
#
# Static dielectric constant tensor:
#      x y z
#    x 1.719730 -0.013480 0.042730 
#    y -0.013480 1.988000 0.038520 
#    z 0.042730 0.038520 1.724800 
# 
# From -- ./inp_files/559949.got.cif
#   From: 2010.05.17/outbox.ucp.g08.bks.cvg/sg2_280_cif.got.tgz:559949.got - 2010.06.11 11:32:03.
