data_PCOD9074231
_publ_section_title
;
Structure prediction by ZEFSAII (Michael W. Deem and Ramdas Pophale) SiO2 
 PCOD9074231
Probable space group: P -1
;
_chemical_formula_sum "Si O2"
_cell_formula_units_Z 13
_cell_length_a 9.000000
_cell_length_b 9.000000
_cell_length_c 12.000000
_cell_angle_alpha 140.000000
_cell_angle_beta 110.000000
_cell_angle_gamma 70.000000
_cell_volume 581.935603
_symmetry_space_group_name_H-M "P -1"
_symmetry_group_IT_number 2
_symmetry_cell_setting 'triclinic'
loop_
_space_group_symop_operation_xyz
x,y,z
-x,-y,-z
loop_
_atom_site_type_symbol
_atom_site_label
_atom_site_fract_x
_atom_site_fract_y
_atom_site_fract_z
Si Si1 0.330680 0.524384 0.716062
Si Si2 0.951274 0.089892 0.416305
Si Si3 0.192310 0.290955 0.982886
Si Si4 0.214525 0.138825 0.323922
Si Si5 0.500000 0.000000 0.000000
Si Si6 0.397760 0.655252 0.153784
Si Si7 0.973671 0.604557 0.771825
O O1 0.289756 0.370656 0.511294
O O2 0.473820 0.359116 0.721028
O O3 0.162686 0.568079 0.768126
O O4 0.389422 0.771742 0.846946
O O5 0.899461 0.366849 0.583209
O O6 0.092572 0.096665 0.367116
O O7 0.848596 0.901008 0.227807
O O8 0.000000 0.000000 0.500000
O O9 0.247630 0.524784 0.077748
O O10 0.060318 0.347372 0.078659
O O11 0.347437 0.171931 0.018348
O O12 0.118645 0.193820 0.215633
O O13 0.342210 0.907226 0.229542
O O14 0.500000 0.500000 0.000000
#
# Coordination Sequence:
#
# PCOD9074231 Si02
#       7
#     2   2   2   2   1   2   2
#     4  10  23  46  72 103 147 186 243 295 361 436
#     4  11  25  45  73 109 147 187 246 301 358 433
#     4  11  26  46  72 105 147 187 246 297 363 428
#     4  11  24  45  73 107 144 191 241 299 363 429
#     4  10  22  44  68 108 144 184 234 296 358 438
#     4  11  27  45  68 105 147 194 239 293 370 435
#     4  11  25  46  78 109 140 192 244 303 361 428
#
# _framework density 22.339241999999999
#
# number of rings (size 3 to 8) (size 9 to 14) (size 15 to 20)
#    0.000    1.231    0.000    5.077   10.769    2.462 
#    5.538    3.846    0.000    0.000    0.000    0.000 
#    0.000    0.000    0.000    0.000    0.000    0.000 
#
# Total GULP energy -72457.144706 kJ/mol
# GULP energy per Si atom -5573.626516 kJ/mol
# Density = 2.228840 g / cm^3
# Si number density = 22.339242 Si / 1000 Ang^3
#
#
#
# Elastic Constant Matrix: (Units=GPa)
#
#
# Indices 1 2 3 4 5 6 
#
# 1 86.9749 49.8113 54.8981 -4.0865 21.1248 6.6014
# 2 49.8113 144.6246 32.0136 18.2984 -4.5143 -10.1788
# 3 54.8981 32.0136 100.0528 8.2668 8.7394 5.5900
# 4 -4.0865 18.2984 8.2668 42.8065 7.1364 3.7441
# 5 21.1248 -4.5143 8.7394 7.1364 40.2670 0.1049
# 6 6.6014 -10.1788 5.5900 3.7441 0.1049 39.0507
#
#
#
# Elastic Compliance Matrix: (Units=1/GPa)
#
#
# Indices 1 2 3 4 5 6 
#
# 1 0.030981 -0.010585 -0.012822 0.013444 -0.017020 -0.007404
# 2 -0.010585 0.011851 0.001698 -0.008202 0.007953 0.005400
# 3 -0.012822 0.001698 0.016551 -0.005946 0.004377 0.000799
# 4 0.013444 -0.008202 -0.005946 0.031930 -0.012324 -0.006588
# 5 -0.017020 0.007953 0.004377 -0.012324 0.035875 0.005409
# 6 -0.007404 0.005400 0.000799 -0.006588 0.005409 0.028770
#
#
# Mechanical properties :
#
#
# Convention : Reuss Voigt Hill
#
# Bulk Modulus (GPa) = 62.64661 67.23313 64.93987
# Shear Modulus (GPa) = 24.42611 37.42013 30.92312
#
# Velocity S-wave (km/s) = 3.31027 4.09722 3.72459
# Velocity P-wave (km/s) = 6.53565 7.24877 6.90143
#
# Compressibility (1/GPa) = 0.01596256
#
# Stress axis : x y z
#
# Youngs Moduli (GPa) = 32.27778 84.38376 60.41774
#
# Poissons Ratio (x) = 0.89324 0.77470
# Poissons Ratio (y) = 0.34168 -0.10257
# Poissons Ratio (z) = 0.41388 -0.14326
#
# Static dielectric constant tensor:
#      x y z
#    x 1.823460 -0.008800 0.019360 
#    y -0.008800 1.844150 -0.020560 
#    z 0.019360 -0.020560 1.872570 
# 
# From -- ./inp_files/380808.got.cif
#   From: 2010.05.17/outbox.ucp.g08.bks.cvg/sg2_191_cif.got.tgz:380808.got - 2010.06.11 11:32:03.
