data_PCOD9074357
_publ_section_title
;
Structure prediction by ZEFSAII (Michael W. Deem and Ramdas Pophale) SiO2 
 PCOD9074357
Probable space group: P -1
;
_chemical_formula_sum "Si O2"
_cell_formula_units_Z 16
_cell_length_a 12.000000
_cell_length_b 30.000000
_cell_length_c 24.000000
_cell_angle_alpha 10.000000
_cell_angle_beta 150.000000
_cell_angle_gamma 150.000000
_cell_volume 741.497220
_symmetry_space_group_name_H-M "P -1"
_symmetry_group_IT_number 2
_symmetry_cell_setting 'triclinic'
loop_
_space_group_symop_operation_xyz
x,y,z
-x,-y,-z
loop_
_atom_site_type_symbol
_atom_site_label
_atom_site_fract_x
_atom_site_fract_y
_atom_site_fract_z
Si Si1 0.518408 0.807376 0.669914
Si Si2 0.209043 0.299660 0.176934
Si Si3 0.721717 0.988793 0.333781
Si Si4 0.797607 0.852400 0.834738
Si Si5 0.585033 0.766929 0.245242
Si Si6 0.892732 0.294556 0.751482
Si Si7 0.770662 0.856661 0.390162
Si Si8 0.463581 0.544192 0.288988
O O1 0.656562 0.869897 0.596681
O O2 0.685789 0.701781 0.917351
O O3 0.415551 0.049917 0.349343
O O4 0.301925 0.585623 0.843779
O O5 0.946584 0.197241 0.184850
O O6 0.277618 0.248368 0.332417
O O7 0.737227 0.898324 0.389361
O O8 0.527085 0.158513 0.055884
O O9 0.978512 0.072825 0.611823
O O10 0.933557 0.741033 0.080035
O O11 0.500000 0.500000 0.500000
O O12 0.661490 0.635426 0.495603
O O13 0.784422 0.018432 0.014954
O O14 0.373444 0.925975 0.964540
O O15 0.698220 0.437875 0.517204
O O16 0.000000 0.500000 0.500000
O O17 0.668683 0.563657 0.690595
#
# Coordination Sequence:
#
# PCOD9074357 Si02
#       8
#     2   2   2   2   2   2   2   2
#     4  10  23  40  67  86 126 178 218 263 334 396
#     4  10  23  43  58  95 125 164 220 281 325 384
#     4  11  23  40  66  94 130 163 220 282 329 383
#     4  11  21  41  64  93 126 175 223 260 330 401
#     4  11  21  40  67  95 127 174 225 259 326 410
#     4  11  25  42  64 101 139 169 216 282 332 395
#     4  11  20  39  66  94 126 172 220 270 320 397
#     4  11  22  41  66  95 129 175 218 265 336 406
#
# _framework density 21.577964000000001
#
# number of rings (size 3 to 8) (size 9 to 14) (size 15 to 20)
#    0.000    1.250    5.000    1.500    1.750    2.000 
#    2.250    2.500    0.000    0.000    0.000    0.000 
#    0.000    0.000    0.000    0.000    0.000    0.000 
#
# Total GULP energy -89097.384211 kJ/mol
# GULP energy per Si atom -5568.586513 kJ/mol
# Density = 2.152885 g / cm^3
# Si number density = 21.577964 Si / 1000 Ang^3
#
#
#
# Elastic Constant Matrix: (Units=GPa)
#
#
# Indices 1 2 3 4 5 6 
#
# 1 71.8307 19.1915 32.2936 14.4587 -2.5006 -19.6089
# 2 19.1915 68.6829 5.2870 5.3764 -9.9045 -9.1911
# 3 32.2936 5.2870 26.7352 -1.7939 -5.1315 -2.8528
# 4 14.4587 5.3764 -1.7939 20.0897 0.1326 -0.1952
# 5 -2.5006 -9.9045 -5.1315 0.1326 27.1411 -1.3337
# 6 -19.6089 -9.1911 -2.8528 -0.1952 -1.3337 33.7162
#
#
#
# Elastic Compliance Matrix: (Units=1/GPa)
#
#
# Indices 1 2 3 4 5 6 
#
# 1 0.093415 -0.007814 -0.114469 -0.074869 -0.013480 0.041547
# 2 -0.007814 0.017184 0.007617 0.001669 0.007036 0.001072
# 3 -0.114469 0.007617 0.179994 0.095799 0.023448 -0.047786
# 4 -0.074869 0.001669 0.095799 0.111375 0.009611 -0.033957
# 5 -0.013480 0.007036 0.023448 0.009611 0.042448 -0.002203
# 6 0.041547 0.001072 -0.047786 -0.033957 -0.002203 0.049788
#
#
# Mechanical properties :
#
#
# Convention : Reuss Voigt Hill
#
# Bulk Modulus (GPa) = 16.32324 31.19922 23.76123
# Shear Modulus (GPa) = 6.72082 23.55452 15.13767
#
# Velocity S-wave (km/s) = 1.76676 3.30752 2.65152
# Velocity P-wave (km/s) = 3.42682 5.39226 4.51772
#
# Compressibility (1/GPa) = 0.06126236
#
# Stress axis : x y z
#
# Youngs Moduli (GPa) = 10.70491 58.19308 5.55573
#
# Poissons Ratio (x) = 0.45472 0.63596
# Poissons Ratio (y) = 0.08365 -0.04232
# Poissons Ratio (z) = 1.22538 -0.44327
#
# Static dielectric constant tensor:
#      x y z
#    x 1.890200 -0.022160 0.025200 
#    y -0.022160 1.864510 0.001340 
#    z 0.025200 0.001340 1.808410 
# 
# From -- ./inp_files/593394.got.cif
#   From: 2010.05.17/outbox.ucp.g08.bks.cvg/sg2_297_cif.got.tgz:593394.got - 2010.06.11 11:32:03.
