data_PCOD9074882
_publ_section_title
;
Structure prediction by ZEFSAII (Michael W. Deem and Ramdas Pophale) SiO2 
 PCOD9074882
Probable space group: P -1
;
_chemical_formula_sum "Si O2"
_cell_formula_units_Z 16
_cell_length_a 12.000000
_cell_length_b 18.000000
_cell_length_c 21.000000
_cell_angle_alpha 20.000000
_cell_angle_beta 150.000000
_cell_angle_gamma 140.000000
_cell_volume 744.844803
_symmetry_space_group_name_H-M "P -1"
_symmetry_group_IT_number 2
_symmetry_cell_setting 'triclinic'
loop_
_space_group_symop_operation_xyz
x,y,z
-x,-y,-z
loop_
_atom_site_type_symbol
_atom_site_label
_atom_site_fract_x
_atom_site_fract_y
_atom_site_fract_z
Si Si1 0.676834 0.326439 0.975647
Si Si2 0.140454 0.025657 0.210370
Si Si3 0.958472 0.861696 0.786465
Si Si4 0.420781 0.855549 0.724149
Si Si5 0.179769 0.496641 0.647300
Si Si6 0.893052 0.375624 0.169119
Si Si7 0.101102 0.768244 0.197772
Si Si8 0.397819 0.249532 0.490944
O O1 0.427055 0.338634 0.871810
O O2 0.665160 0.572448 0.742197
O O3 0.855541 0.266484 0.170828
O O4 0.792220 0.176271 0.093611
O O5 0.048076 0.058792 0.209135
O O6 0.346019 0.144063 0.200614
O O7 0.211130 0.750769 0.460591
O O8 0.945139 0.152769 0.961289
O O9 0.777918 0.025768 0.519108
O O10 0.873874 0.634820 0.934553
O O11 0.311836 0.660889 0.856984
O O12 0.447381 0.009104 0.674194
O O13 0.000000 0.500000 0.500000
O O14 0.054661 0.400399 0.721637
O O15 0.169504 0.279793 0.398120
O O16 0.375542 0.701237 0.404617
O O17 0.000000 0.000000 0.000000
#
# Coordination Sequence:
#
# PCOD9074882 Si02
#       8
#     2   2   2   2   2   2   2   2
#     4  11  20  41  69  95 126 170 213 267 316 379
#     4  12  26  43  64  97 135 171 207 267 326 380
#     4  11  25  42  61  98 140 165 205 266 331 382
#     4  12  21  40  67  98 126 166 217 264 318 377
#     4  12  22  42  71  93 122 168 223 267 309 373
#     4  11  23  38  69  95 126 169 216 265 317 377
#     4  12  23  40  69  95 124 168 225 264 308 381
#     4  11  20  39  63  99 124 156 219 276 301 366
#
# _framework density 21.480985
#
# number of rings (size 3 to 8) (size 9 to 14) (size 15 to 20)
#    0.000    0.500    7.500    2.250    0.000    1.500 
#    0.000    3.125    0.000    0.000    0.000    0.000 
#    0.000    0.000    0.000    0.000    0.000    0.000 
#
# Total GULP energy -89220.512612 kJ/mol
# GULP energy per Si atom -5576.282038 kJ/mol
# Density = 2.143209 g / cm^3
# Si number density = 21.480985 Si / 1000 Ang^3
#
#
#
# Elastic Constant Matrix: (Units=GPa)
#
#
# Indices 1 2 3 4 5 6 
#
# 1 132.0759 54.9853 43.0163 17.6764 -5.5491 6.2159
# 2 54.9853 69.0466 26.8775 22.4205 3.8148 20.8604
# 3 43.0163 26.8775 57.3591 23.1548 -17.4242 1.7642
# 4 17.6764 22.4205 23.1548 29.0508 15.4298 2.9310
# 5 -5.5491 3.8148 -17.4242 15.4298 29.5099 -0.4404
# 6 6.2159 20.8604 1.7642 2.9310 -0.4404 45.4447
#
#
#
# Elastic Compliance Matrix: (Units=1/GPa)
#
#
# Indices 1 2 3 4 5 6 
#
# 1 0.008965 -0.006769 0.029001 -0.047437 0.044552 0.004246
# 2 -0.006769 0.028971 -0.029983 0.026542 -0.036798 -0.013277
# 3 0.029001 -0.029983 -0.261355 0.404070 -0.356407 -0.009572
# 4 -0.047437 0.026542 0.404070 -0.555928 0.517202 0.019486
# 5 0.044552 -0.036798 -0.356407 0.517202 -0.434042 -0.012930
# 6 0.004246 -0.013277 -0.009572 0.019486 -0.012930 0.026508
#
#
# Mechanical properties :
#
#
# Convention : Reuss Voigt Hill
#
# Bulk Modulus (GPa) = -4.18549 56.47109 26.14280
# Shear Modulus (GPa) = -3.99674 29.70789 12.85558
#
# Velocity S-wave (km/s) = -1.36552 3.72289 2.44900
# Velocity P-wave (km/s) = 2.10686 6.69521 4.49371
#
# Compressibility (1/GPa) = -0.23892048
#
# Stress axis : x y z
#
# Youngs Moduli (GPa) = 111.54974 34.51762 -3.82622
#
# Poissons Ratio (x) = 0.23365 0.11097
# Poissons Ratio (y) = 0.75509 -0.11472
# Poissons Ratio (z) = -3.23511 1.03494
#
# Static dielectric constant tensor:
#      x y z
#    x 2.052730 -0.178530 -0.367310 
#    y -0.178530 1.919280 0.238270 
#    z -0.367310 0.238270 2.536150 
# 
# From -- ./inp_files/577892.got.cif
#   From: 2010.05.17/outbox.ucp.g08.bks.cvg/sg2_289_cif.got.tgz:577892.got - 2010.06.11 11:32:03.
