data_PCOD9074307
_publ_section_title
;
Structure prediction by ZEFSAII (Michael W. Deem and Ramdas Pophale) SiO2 
 PCOD9074307
Probable space group: P -1
;
_chemical_formula_sum "Si O2"
_cell_formula_units_Z 16
_cell_length_a 9.000000
_cell_length_b 12.000000
_cell_length_c 21.000000
_cell_angle_alpha 150.000000
_cell_angle_beta 130.000000
_cell_angle_gamma 40.000000
_cell_volume 727.418465
_symmetry_space_group_name_H-M "P -1"
_symmetry_group_IT_number 2
_symmetry_cell_setting 'triclinic'
loop_
_space_group_symop_operation_xyz
x,y,z
-x,-y,-z
loop_
_atom_site_type_symbol
_atom_site_label
_atom_site_fract_x
_atom_site_fract_y
_atom_site_fract_z
Si Si1 0.545558 0.907906 0.762228
Si Si2 0.038851 0.399846 0.868021
Si Si3 0.047658 0.418748 0.204931
Si Si4 0.798831 0.298063 0.857692
Si Si5 0.053672 0.710874 0.590877
Si Si6 0.579917 0.272981 0.493026
Si Si7 0.338522 0.673466 0.982197
Si Si8 0.081184 0.156765 0.526143
O O1 0.283048 0.130120 0.817042
O O2 0.685814 0.721689 0.768948
O O3 0.520637 0.810345 0.637119
O O4 0.686703 0.051777 0.872046
O O5 0.991321 0.414171 0.787274
O O6 0.848794 0.394296 0.853384
O O7 0.074955 0.627733 0.016985
O O8 0.906815 0.285736 0.079968
O O9 0.918986 0.602519 0.321086
O O10 0.523298 0.488695 0.887112
O O11 0.925434 0.980517 0.731353
O O12 0.336758 0.551701 0.582090
O O13 0.000000 0.500000 0.500000
O O14 0.933541 0.815923 0.540198
O O15 0.822813 0.220770 0.505044
O O16 0.697562 0.096833 0.502973
O O17 0.500000 0.500000 0.000000
#
# Coordination Sequence:
#
# PCOD9074307 Si02
#       8
#     2   2   2   2   2   2   2   2
#     4  11  22  41  74 102 135 173 241 288 345 409
#     4  10  22  46  71 101 136 180 229 304 343 405
#     4  12  23  40  76 103 132 177 243 284 349 414
#     4  10  24  45  70  97 144 185 227 285 363 405
#     4  12  28  44  68 104 150 187 223 288 356 428
#     4  11  24  46  73 101 136 184 241 292 335 414
#     4  11  22  44  72  96 136 187 227 294 340 417
#     4  11  25  45  73 103 134 190 241 282 343 413
#
# _framework density 21.995591999999998
#
# number of rings (size 3 to 8) (size 9 to 14) (size 15 to 20)
#    0.000    1.000    5.000    1.500    7.000    0.500 
#    2.250    6.875    0.000    0.000    0.000    0.000 
#    0.000    0.000    0.000    0.000    0.000    0.000 
#
# Total GULP energy -89111.587928 kJ/mol
# GULP energy per Si atom -5569.474246 kJ/mol
# Density = 2.194553 g / cm^3
# Si number density = 21.995592 Si / 1000 Ang^3
#
#
#
# Elastic Constant Matrix: (Units=GPa)
#
#
# Indices 1 2 3 4 5 6 
#
# 1 71.6446 32.3186 17.4840 -8.2943 1.8277 -4.6795
# 2 32.3186 173.4711 32.3910 -22.9160 -1.9236 -4.7583
# 3 17.4840 32.3910 115.3108 -2.2411 2.9187 -7.6698
# 4 -8.2943 -22.9160 -2.2411 32.9128 -5.0820 3.8681
# 5 1.8277 -1.9236 2.9187 -5.0820 25.4864 -3.8835
# 6 -4.6795 -4.7583 -7.6698 3.8681 -3.8835 26.0758
#
#
#
# Elastic Compliance Matrix: (Units=1/GPa)
#
#
# Indices 1 2 3 4 5 6 
#
# 1 0.015741 -0.002341 -0.001574 0.001969 -0.000494 0.001569
# 2 -0.002341 0.007119 -0.001602 0.004534 0.001793 0.000002
# 3 -0.001574 -0.001602 0.009512 -0.001286 -0.001009 0.002264
# 4 0.001969 0.004534 -0.001286 0.035415 0.006888 -0.003425
# 5 -0.000494 0.001793 -0.001009 0.006888 0.041678 0.005127
# 6 0.001569 0.000002 0.002264 -0.003425 0.005127 0.040569
#
#
# Mechanical properties :
#
#
# Convention : Reuss Voigt Hill
#
# Bulk Modulus (GPa) = 46.86480 58.31262 52.58871
# Shear Modulus (GPa) = 29.73006 35.44385 32.58695
#
# Velocity S-wave (km/s) = 3.68045 4.01859 3.85323
# Velocity P-wave (km/s) = 6.27803 6.93546 6.61492
#
# Compressibility (1/GPa) = 0.02133798
#
# Stress axis : x y z
#
# Youngs Moduli (GPa) = 63.52845 140.47278 105.13110
#
# Poissons Ratio (x) = 0.32885 0.16548
# Poissons Ratio (y) = 0.14872 0.16840
# Poissons Ratio (z) = 0.09999 0.22502
#
# Static dielectric constant tensor:
#      x y z
#    x 1.878720 0.056210 0.033520 
#    y 0.056210 1.779150 0.012370 
#    z 0.033520 0.012370 1.821020 
# 
# From -- ./inp_files/589735.got.cif
#   From: 2010.05.17/outbox.ucp.g08.bks.cvg/sg2_295_cif.got.tgz:589735.got - 2010.06.11 11:32:03.
