data_PCOD9074782
_publ_section_title
;
Structure prediction by ZEFSAII (Michael W. Deem and Ramdas Pophale) SiO2 
 PCOD9074782
Probable space group: P -1
;
_chemical_formula_sum "Si O2"
_cell_formula_units_Z 16
_cell_length_a 9.000000
_cell_length_b 15.000000
_cell_length_c 9.000000
_cell_angle_alpha 140.000000
_cell_angle_beta 110.000000
_cell_angle_gamma 80.000000
_cell_volume 725.993766
_symmetry_space_group_name_H-M "P -1"
_symmetry_group_IT_number 2
_symmetry_cell_setting 'triclinic'
loop_
_space_group_symop_operation_xyz
x,y,z
-x,-y,-z
loop_
_atom_site_type_symbol
_atom_site_label
_atom_site_fract_x
_atom_site_fract_y
_atom_site_fract_z
Si Si1 0.488262 0.595825 0.970705
Si Si2 0.921808 0.096398 0.706837
Si Si3 0.620486 0.904508 0.347435
Si Si4 0.588631 0.877804 0.939831
Si Si5 0.642677 0.400040 0.577274
Si Si6 0.079524 0.143042 0.129282
Si Si7 0.193892 0.632962 0.087369
Si Si8 0.968462 0.426436 0.556837
O O1 0.530969 0.515214 0.735051
O O2 0.500000 0.500000 0.000000
O O3 0.597199 0.745577 0.193270
O O4 0.314245 0.636603 0.991816
O O5 0.870384 0.220718 0.752178
O O6 0.779345 0.985332 0.574917
O O7 0.000000 0.000000 0.500000
O O8 0.013060 0.159856 0.962017
O O9 0.500000 0.000000 0.500000
O O10 0.622950 0.902816 0.162723
O O11 0.470424 0.734473 0.693044
O O12 0.737559 0.866463 0.865319
O O13 0.500000 0.000000 0.000000
O O14 0.725973 0.379293 0.740449
O O15 0.784376 0.428422 0.542421
O O16 0.031428 0.275951 0.371976
O O17 0.000000 0.000000 0.000000
O O18 0.061379 0.506889 0.830877
O O19 0.000000 0.500000 0.500000
#
# Coordination Sequence:
#
# PCOD9074782 Si02
#       8
#     2   2   2   2   2   2   2   2
#     4  10  25  46  74 109 142 190 245 303 362 434
#     4  12  26  46  74 106 147 191 250 295 367 437
#     4  12  27  46  79 106 149 197 244 304 367 433
#     4  12  28  49  75 111 149 191 251 304 367 441
#     4  11  27  46  77 107 148 192 244 302 368 434
#     4  12  29  49  75 109 150 194 238 308 369 437
#     4  11  24  49  74 105 149 190 244 304 364 439
#     4  12  27  46  73 108 148 189 242 301 366 434
#
# _framework density 22.038757
#
# number of rings (size 3 to 8) (size 9 to 14) (size 15 to 20)
#    0.000    0.500    3.750    2.625   12.250    2.500 
#    0.000    0.000    0.000    0.000    0.000    0.000 
#    0.000    0.000    0.000    0.000    0.000    0.000 
#
# Total GULP energy -89292.431445 kJ/mol
# GULP energy per Si atom -5580.776965 kJ/mol
# Density = 2.198860 g / cm^3
# Si number density = 22.038757 Si / 1000 Ang^3
#
#
#
# Elastic Constant Matrix: (Units=GPa)
#
#
# Indices 1 2 3 4 5 6 
#
# 1 140.6747 4.9497 38.8133 5.7820 -34.8344 6.7748
# 2 4.9497 81.5461 16.3352 9.6739 -14.4775 0.8269
# 3 38.8133 16.3352 120.8664 22.0951 -19.1755 -7.8351
# 4 5.7820 9.6739 22.0951 40.2022 -10.4167 -9.7190
# 5 -34.8344 -14.4775 -19.1755 -10.4167 46.0682 -1.8593
# 6 6.7748 0.8269 -7.8351 -9.7190 -1.8593 29.7678
#
#
#
# Elastic Compliance Matrix: (Units=1/GPa)
#
#
# Indices 1 2 3 4 5 6 
#
# 1 0.009430 0.000989 -0.002428 0.000932 0.006557 -0.002099
# 2 0.000989 0.013398 -0.001224 -0.001991 0.003945 -0.001323
# 3 -0.002428 -0.001224 0.010311 -0.004232 0.001195 0.001994
# 4 0.000932 -0.001991 -0.004232 0.031289 0.005768 0.009305
# 5 0.006557 0.003945 0.001195 0.005768 0.029805 0.002457
# 6 -0.002099 -0.001323 0.001994 0.009305 0.002457 0.037824
#
#
# Mechanical properties :
#
#
# Convention : Reuss Voigt Hill
#
# Bulk Modulus (GPa) = 35.95510 51.47598 43.71554
# Shear Modulus (GPa) = 34.09342 42.07356 38.08349
#
# Velocity S-wave (km/s) = 3.93743 4.37403 4.16146
# Velocity P-wave (km/s) = 6.08449 6.99409 6.55509
#
# Compressibility (1/GPa) = 0.02781247
#
# Stress axis : x y z
#
# Youngs Moduli (GPa) = 106.04365 74.63667 96.98265
#
# Poissons Ratio (x) = -0.07380 0.23548
# Poissons Ratio (y) = -0.10485 0.11873
# Poissons Ratio (z) = 0.25748 0.09137
#
# Static dielectric constant tensor:
#      x y z
#    x 1.934750 0.001700 0.060850 
#    y 0.001700 1.842450 0.082070 
#    z 0.060850 0.082070 1.833260 
# 
# From -- ./inp_files/209183.got.cif
#   From: 2010.05.17/outbox.ucp.g08.bks.cvg/sg2_105_cif.got.tgz:209183.got - 2010.06.11 11:32:03.
