data_PCOD9074512
_publ_section_title
;
Structure prediction by ZEFSAII (Michael W. Deem and Ramdas Pophale) SiO2 
 PCOD9074512
Probable space group: P -1
;
_chemical_formula_sum "Si O2"
_cell_formula_units_Z 12
_cell_length_a 13.839317
_cell_length_b 13.365383
_cell_length_c 7.367814
_cell_angle_alpha 134.382203
_cell_angle_beta 107.166113
_cell_angle_gamma 42.406683
_cell_volume 583.508166
_symmetry_space_group_name_H-M "P -1"
_symmetry_group_IT_number 2
_symmetry_cell_setting 'triclinic'
loop_
_space_group_symop_operation_xyz
x,y,z
-x,-y,-z
loop_
_atom_site_type_symbol
_atom_site_label
_atom_site_fract_x
_atom_site_fract_y
_atom_site_fract_z
Si Si1 0.767811 0.781948 0.404257
Si Si2 0.353869 0.207835 0.305151
Si Si3 0.138098 0.279889 0.015402
Si Si4 0.183847 0.661759 0.832862
Si Si5 0.020970 0.812379 0.282003
Si Si6 0.103736 0.065786 0.249506
O O1 0.646897 0.831632 0.532936
O O2 0.755593 0.789124 0.188090
O O3 0.775760 0.935014 0.667446
O O4 0.951524 0.526940 0.207793
O O5 0.316728 0.412308 0.515273
O O6 0.205440 0.278236 0.229209
O O7 0.500000 0.000000 0.000000
O O8 0.123956 0.126877 0.799477
O O9 0.168894 0.635801 0.003310
O O10 0.192269 0.819977 0.009335
O O11 0.011540 0.811582 0.833038
O O12 0.979653 0.220918 0.547902
O O13 0.000000 0.000000 0.500000
#
# Coordination Sequence:
#
# PCOD9074512 Si02
#       6
#     2   2   2   2   2   2
#     4  10  19  35  58  80 102 137 188 235 264 302
#     4  12  24  35  52  80 118 152 174 209 270 336
#     4  10  19  34  58  81 107 137 184 231 265 308
#     4  10  18  32  51  79 109 135 175 220 268 316
#     4   9  17  30  54  84 105 126 172 236 276 302
#     4   9  18  31  55  81 101 130 177 236 269 297
#
# _framework density 20.565266000000001
#
# number of rings (size 3 to 8) (size 9 to 14) (size 15 to 20)
#    0.000    2.000    3.333    1.500    0.000    0.667 
#    0.000    0.833    0.000    9.000    0.000    0.000 
#    0.000    0.000    0.000    0.000    0.000    0.000 
#
# Total GULP energy -66813.237399 kJ/mol
# GULP energy per Si atom -5567.769783 kJ/mol
# Density = 2.051846 g / cm^3
# Si number density = 20.565266 Si / 1000 Ang^3
#
#
#
# Elastic Constant Matrix: (Units=GPa)
#
#
# Indices 1 2 3 4 5 6 
#
# 1 61.0156 11.2902 43.1230 8.5545 4.8712 24.9436
# 2 11.2902 32.2429 13.0520 -12.9099 -2.6576 17.4322
# 3 43.1230 13.0520 137.5266 9.0003 8.8755 18.9148
# 4 8.5545 -12.9099 9.0003 24.0412 2.2578 -1.7227
# 5 4.8712 -2.6576 8.8755 2.2578 45.3245 -10.2428
# 6 24.9436 17.4322 18.9148 -1.7227 -10.2428 24.9899
#
#
#
# Elastic Compliance Matrix: (Units=1/GPa)
#
#
# Indices 1 2 3 4 5 6 
#
# 1 0.041589 0.010047 -0.005504 -0.009680 -0.013771 -0.050667
# 2 0.010047 0.075910 -0.003196 0.034992 -0.011999 -0.063068
# 3 -0.005504 -0.003196 0.009660 -0.003270 -0.001413 -0.000393
# 4 -0.009680 0.034992 -0.003270 0.064583 -0.001380 -0.008386
# 5 -0.013771 -0.011999 -0.001413 -0.001380 0.031303 0.035920
# 6 -0.050667 -0.063068 -0.000393 -0.008386 0.035920 0.149026
#
#
# Mechanical properties :
#
#
# Convention : Reuss Voigt Hill
#
# Bulk Modulus (GPa) = 7.70099 40.63506 24.16803
# Shear Modulus (GPa) = 12.11652 29.75911 20.93781
#
# Velocity S-wave (km/s) = 2.42992 3.80815 3.19425
# Velocity P-wave (km/s) = 3.40962 6.25603 5.03803
#
# Compressibility (1/GPa) = 0.12985339
#
# Stress axis : x y z
#
# Youngs Moduli (GPa) = 24.04461 13.17353 103.52340
#
# Poissons Ratio (x) = -0.13236 0.56975
# Poissons Ratio (y) = -0.24158 0.33089
# Poissons Ratio (z) = 0.13233 0.04211
#
# Static dielectric constant tensor:
#      x y z
#    x 1.782660 0.039950 0.013900 
#    y 0.039950 1.741990 -0.027470 
#    z 0.013900 -0.027470 1.791760 
# 
# From -- ./inp_files/183211.got.cif
#   From: 2010.05.17/outbox.cif.g08.bks.cpg/sg2_92_cif.got.tgz:183211.got - 2010.06.03 11:33:40.
