data_PCOD9074074
_publ_section_title
;
Structure prediction by ZEFSAII (Michael W. Deem and Ramdas Pophale) SiO2 
 PCOD9074074
Probable space group: P -1
;
_chemical_formula_sum "Si O2"
_cell_formula_units_Z 14
_cell_length_a 9.000000
_cell_length_b 18.000000
_cell_length_c 9.000000
_cell_angle_alpha 130.000000
_cell_angle_beta 100.000000
_cell_angle_gamma 120.000000
_cell_volume 643.920384
_symmetry_space_group_name_H-M "P -1"
_symmetry_group_IT_number 2
_symmetry_cell_setting 'triclinic'
loop_
_space_group_symop_operation_xyz
x,y,z
-x,-y,-z
loop_
_atom_site_type_symbol
_atom_site_label
_atom_site_fract_x
_atom_site_fract_y
_atom_site_fract_z
Si Si1 0.182819 0.003589 0.000169
Si Si2 0.681487 0.524657 0.659353
Si Si3 0.388187 0.356414 0.967748
Si Si4 0.083719 0.292695 0.583331
Si Si5 0.401342 0.868250 0.539285
Si Si6 0.735110 0.223023 0.937182
Si Si7 0.460299 0.238497 0.084062
O O1 0.409606 0.099187 0.282912
O O2 0.284058 0.075151 0.941068
O O3 0.000000 0.000000 0.000000
O O4 0.019825 0.819269 0.721873
O O5 0.500000 0.500000 0.500000
O O6 0.660320 0.562793 0.863758
O O7 0.569040 0.361898 0.393627
O O8 0.980519 0.672080 0.863070
O O9 0.685632 0.514561 0.173613
O O10 0.343777 0.248985 0.946654
O O11 0.205967 0.272246 0.685154
O O12 0.850428 0.229238 0.538131
O O13 0.321777 0.783625 0.255448
O O14 0.547561 0.042497 0.737179
O O15 0.677826 0.288979 0.106184
#
# Coordination Sequence:
#
# PCOD9074074 Si02
#       7
#     2   2   2   2   2   2   2
#     4  12  28  43  70 103 138 176 233 290 336 404
#     4  10  22  41  68  99 135 175 225 277 337 404
#     4  10  24  43  74 102 136 183 223 283 343 412
#     4  11  23  47  69 100 140 181 226 276 355 399
#     4  11  26  45  70  97 143 184 225 281 348 407
#     4  11  24  45  69 103 135 185 229 279 344 409
#     4  11  25  42  70 105 134 180 227 281 339 403
#
# _framework density 21.741817999999999
#
# number of rings (size 3 to 8) (size 9 to 14) (size 15 to 20)
#    0.000    1.143    2.857    1.714   10.000    1.714 
#    0.000    1.429    0.000    0.000    0.000    0.000 
#    0.000    0.000    0.000    0.000    0.000    0.000 
#
# Total GULP energy -78157.652859 kJ/mol
# GULP energy per Si atom -5582.689490 kJ/mol
# Density = 2.169233 g / cm^3
# Si number density = 21.741818 Si / 1000 Ang^3
#
#
#
# Elastic Constant Matrix: (Units=GPa)
#
#
# Indices 1 2 3 4 5 6 
#
# 1 143.4479 33.3990 36.1636 -10.3706 21.1460 16.9915
# 2 33.3990 90.4317 15.0410 -13.8511 21.8499 -16.4689
# 3 36.1636 15.0410 81.3393 -3.4020 17.2453 1.3782
# 4 -10.3706 -13.8511 -3.4020 26.4711 -2.0876 7.4271
# 5 21.1460 21.8499 17.2453 -2.0876 40.1441 -4.5348
# 6 16.9915 -16.4689 1.3782 7.4271 -4.5348 29.8881
#
#
#
# Elastic Compliance Matrix: (Units=1/GPa)
#
#
# Indices 1 2 3 4 5 6 
#
# 1 0.010433 -0.003682 -0.002980 0.004151 -0.003048 -0.009316
# 2 -0.003682 0.016033 -0.000155 0.003934 -0.005485 0.009125
# 3 -0.002980 -0.000155 0.014629 0.000218 -0.004598 0.000182
# 4 0.004151 0.003934 0.000218 0.044526 -0.003438 -0.011788
# 5 -0.003048 -0.005485 -0.004598 -0.003438 0.031818 0.004604
# 6 -0.009316 0.009125 0.000182 -0.011788 0.004604 0.047402
#
#
# Mechanical properties :
#
#
# Convention : Reuss Voigt Hill
#
# Bulk Modulus (GPa) = 36.41471 53.82510 45.11990
# Shear Modulus (GPa) = 26.64844 34.67502 30.66173
#
# Velocity S-wave (km/s) = 3.50476 3.99789 3.75942
# Velocity P-wave (km/s) = 5.75872 6.79125 6.29619
#
# Compressibility (1/GPa) = 0.02746143
#
# Stress axis : x y z
#
# Youngs Moduli (GPa) = 95.85374 62.36962 68.35914
#
# Poissons Ratio (x) = 0.22963 0.20370
# Poissons Ratio (y) = 0.35292 0.01059
# Poissons Ratio (z) = 0.28563 0.00966
#
# Static dielectric constant tensor:
#      x y z
#    x 1.756110 0.012500 -0.016630 
#    y 0.012500 1.801160 0.016990 
#    z -0.016630 0.016990 1.905510 
# 
# From -- ./inp_files/218680.got.cif
#   From: 2010.05.17/outbox.ucp.g08.bks.cvg/sg2_110_cif.got.tgz:218680.got - 2010.06.11 11:32:03.
