data_PCOD9074061
_publ_section_title
;
Structure prediction by ZEFSAII (Michael W. Deem and Ramdas Pophale) SiO2 
 PCOD9074061
Probable space group: P -1
;
_chemical_formula_sum "Si O2"
_cell_formula_units_Z 16
_cell_length_a 15.000000
_cell_length_b 12.000000
_cell_length_c 15.000000
_cell_angle_alpha 150.000000
_cell_angle_beta 140.000000
_cell_angle_gamma 60.000000
_cell_volume 747.221570
_symmetry_space_group_name_H-M "P -1"
_symmetry_group_IT_number 2
_symmetry_cell_setting 'triclinic'
loop_
_space_group_symop_operation_xyz
x,y,z
-x,-y,-z
loop_
_atom_site_type_symbol
_atom_site_label
_atom_site_fract_x
_atom_site_fract_y
_atom_site_fract_z
Si Si1 0.359816 0.599786 0.152690
Si Si2 0.288044 0.989412 0.259768
Si Si3 0.265547 0.016374 0.061687
Si Si4 0.780862 0.054220 0.211099
Si Si5 0.118041 0.082771 0.513652
Si Si6 0.632129 0.450792 0.674480
Si Si7 0.969171 0.113328 0.883337
Si Si8 0.839228 0.310412 0.607659
O O1 0.319832 0.791518 0.202369
O O2 0.310430 0.572756 0.199158
O O3 0.551850 0.735602 0.407762
O O4 0.270606 0.332256 0.845612
O O5 0.140735 0.004698 0.197276
O O6 0.252047 0.895686 0.065099
O O7 0.445198 0.262335 0.378306
O O8 0.238691 0.852458 0.836925
O O9 0.128361 0.093038 0.999568
O O10 0.737944 0.156020 0.336223
O O11 0.676631 0.745677 0.907981
O O12 0.962027 0.116542 0.416324
O O13 0.097439 0.847982 0.396968
O O14 0.127056 0.020474 0.373891
O O15 0.731591 0.377592 0.634026
O O16 0.020127 0.412419 0.124805
#
# Coordination Sequence:
#
# PCOD9074061 Si02
#       8
#     2   2   2   2   2   2   2   2
#     4  10  22  41  67  95 125 171 206 271 319 369
#     4  10  22  42  67  88 129 175 215 254 318 376
#     4  10  23  44  61  88 132 175 208 266 309 372
#     4  11  23  38  64  95 131 167 203 264 320 382
#     4  11  22  39  63  99 133 157 213 267 325 374
#     4  11  22  42  65  92 134 161 211 267 323 368
#     4  11  23  39  64  94 127 173 213 258 316 381
#     4  12  23  37  66 102 127 168 205 264 329 381
#
# _framework density 21.412658
#
# number of rings (size 3 to 8) (size 9 to 14) (size 15 to 20)
#    0.000    1.250    3.750    3.000    1.750    1.000 
#    0.000    6.875    0.000    0.000    0.000    0.000 
#    0.000    0.000    0.000    0.000    0.000    0.000 
#
# Total GULP energy -89325.249273 kJ/mol
# GULP energy per Si atom -5582.828080 kJ/mol
# Density = 2.136392 g / cm^3
# Si number density = 21.412658 Si / 1000 Ang^3
#
#
#
# Elastic Constant Matrix: (Units=GPa)
#
#
# Indices 1 2 3 4 5 6 
#
# 1 84.6095 20.0480 47.1841 -13.9312 -17.4076 29.5640
# 2 20.0480 58.5149 22.9890 -31.6411 -19.8607 25.8412
# 3 47.1841 22.9890 84.7159 -23.0939 -22.5842 -0.2777
# 4 -13.9312 -31.6411 -23.0939 30.1570 4.6998 -14.5263
# 5 -17.4076 -19.8607 -22.5842 4.6998 37.1240 -16.2604
# 6 29.5640 25.8412 -0.2777 -14.5263 -16.2604 27.3882
#
#
#
# Elastic Compliance Matrix: (Units=1/GPa)
#
#
# Indices 1 2 3 4 5 6 
#
# 1 -0.047984 -0.005371 0.070113 0.084164 0.069456 0.143450
# 2 -0.005371 0.057011 0.012917 0.064454 0.029312 0.003726
# 3 0.070113 0.012917 -0.072429 -0.082351 -0.069990 -0.173836
# 4 0.084164 0.064454 -0.082351 -0.006071 -0.058906 -0.190691
# 5 0.069456 0.029312 -0.069990 -0.058906 -0.025518 -0.149732
# 6 0.143450 0.003726 -0.173836 -0.190691 -0.149732 -0.313647
#
#
# Mechanical properties :
#
#
# Convention : Reuss Voigt Hill
#
# Bulk Modulus (GPa) = 10.87952 45.36473 28.12212
# Shear Modulus (GPa) = -9.37526 28.10844 9.36659
#
# Velocity S-wave (km/s) = -2.09473 3.62705 2.09376
# Velocity P-wave (km/s) = 0.87097 6.22677 4.35970
#
# Compressibility (1/GPa) = 0.09191581
#
# Stress axis : x y z
#
# Youngs Moduli (GPa) = -20.84027 17.54056 -13.80658
#
# Poissons Ratio (x) = 0.09421 0.96802
# Poissons Ratio (y) = -0.11193 0.17834
# Poissons Ratio (z) = 1.46117 -0.22658
#
# Static dielectric constant tensor:
#      x y z
#    x 1.863580 0.042570 0.045280 
#    y 0.042570 1.762330 0.024720 
#    z 0.045280 0.024720 1.774990 
# 
# From -- ./inp_files/515747.got.cif
#   From: 2010.05.17/outbox.ucp.g08.bks.cvg/sg2_258_cif.got.tgz:515747.got - 2010.06.11 11:32:03.
