data_PCOD9074053
_publ_section_title
;
Structure prediction by ZEFSAII (Michael W. Deem and Ramdas Pophale) SiO2 
 PCOD9074053
Probable space group: P -1
;
_chemical_formula_sum "Si O2"
_cell_formula_units_Z 16
_cell_length_a 21.000000
_cell_length_b 12.000000
_cell_length_c 18.000000
_cell_angle_alpha 150.000000
_cell_angle_beta 30.000000
_cell_angle_gamma 160.000000
_cell_volume 738.640068
_symmetry_space_group_name_H-M "P -1"
_symmetry_group_IT_number 2
_symmetry_cell_setting 'triclinic'
loop_
_space_group_symop_operation_xyz
x,y,z
-x,-y,-z
loop_
_atom_site_type_symbol
_atom_site_label
_atom_site_fract_x
_atom_site_fract_y
_atom_site_fract_z
Si Si1 0.628310 0.645975 0.255854
Si Si2 0.137693 0.786654 0.878522
Si Si3 0.162126 0.150563 0.202395
Si Si4 0.674918 0.886169 0.627685
Si Si5 0.262302 0.661896 0.062839
Si Si6 0.499908 0.246675 0.680975
Si Si7 0.857881 0.106967 0.417293
Si Si8 0.082718 0.210217 0.615318
O O1 0.530933 0.407572 0.291393
O O2 0.475219 0.555803 0.302142
O O3 0.775016 0.998062 0.354429
O O4 0.746880 0.612938 0.074627
O O5 0.180881 0.579432 0.719936
O O6 0.908822 0.509525 0.923725
O O7 0.289709 0.047679 0.810210
O O8 0.189347 0.993632 0.021307
O O9 0.351196 0.526213 0.267382
O O10 0.999325 0.091856 0.292730
O O11 0.070568 0.941939 0.251666
O O12 0.782803 0.804567 0.496247
O O13 0.773632 0.227651 0.766611
O O14 0.694466 0.926623 0.542911
O O15 0.500000 0.000000 0.000000
O O16 0.500000 0.000000 0.500000
O O17 0.000000 0.500000 0.500000
O O18 0.000000 0.000000 0.500000
#
# Coordination Sequence:
#
# PCOD9074053 Si02
#       8
#     2   2   2   2   2   2   2   2
#     4  11  23  45  65  97 135 177 225 281 341 408
#     4  12  24  44  69 100 140 180 227 288 345 401
#     4  11  25  45  64 102 140 177 228 282 340 413
#     4  10  22  41  66  97 132 176 229 275 340 403
#     4  10  23  41  69  97 134 172 230 273 343 405
#     4  12  27  44  72  99 137 182 234 281 344 410
#     4  11  24  40  68  96 137 173 225 284 342 401
#     4  11  21  39  71  96 131 181 228 279 336 402
#
# _framework density 21.661429999999999
#
# number of rings (size 3 to 8) (size 9 to 14) (size 15 to 20)
#    0.000    1.000    2.500    4.125    5.250    1.500 
#    0.000    1.250    0.000    0.000    0.000    0.000 
#    0.000    0.000    0.000    0.000    0.000    0.000 
#
# Total GULP energy -89077.649322 kJ/mol
# GULP energy per Si atom -5567.353083 kJ/mol
# Density = 2.161213 g / cm^3
# Si number density = 21.661430 Si / 1000 Ang^3
#
#
#
# Elastic Constant Matrix: (Units=GPa)
#
#
# Indices 1 2 3 4 5 6 
#
# 1 72.6832 -6.4736 33.6423 0.2499 21.9270 14.0773
# 2 -6.4736 52.2114 14.0628 -7.7955 19.4811 7.4739
# 3 33.6423 14.0628 155.8998 19.4143 29.3080 5.6320
# 4 0.2499 -7.7955 19.4143 33.0163 12.1794 7.2343
# 5 21.9270 19.4811 29.3080 12.1794 34.4399 6.1800
# 6 14.0773 7.4739 5.6320 7.2343 6.1800 46.3751
#
#
#
# Elastic Compliance Matrix: (Units=1/GPa)
#
#
# Indices 1 2 3 4 5 6 
#
# 1 0.030627 0.023181 -0.004639 0.023341 -0.034861 -0.011465
# 2 0.023181 0.048154 -0.004059 0.034294 -0.048299 -0.013218
# 3 -0.004639 -0.004059 0.008521 -0.006332 -0.000126 0.002032
# 4 0.023341 0.034294 -0.006332 0.063151 -0.048470 -0.015235
# 5 -0.034861 -0.048299 -0.000126 -0.048470 0.093378 0.013499
# 6 -0.011465 -0.013218 0.002032 -0.015235 0.013499 0.027505
#
#
# Mechanical properties :
#
#
# Convention : Reuss Voigt Hill
#
# Bulk Modulus (GPa) = 8.60094 40.36194 24.48144
# Shear Modulus (GPa) = 17.78558 38.73711 28.26135
#
# Velocity S-wave (km/s) = 2.86854 4.23342 3.61596
# Velocity P-wave (km/s) = 3.86660 6.52451 5.36283
#
# Compressibility (1/GPa) = 0.11626629
#
# Stress axis : x y z
#
# Youngs Moduli (GPa) = 32.65047 20.76671 117.36326
#
# Poissons Ratio (x) = -0.48138 0.54446
# Poissons Ratio (y) = -0.75686 0.47642
# Poissons Ratio (z) = 0.15147 0.08430
#
# Static dielectric constant tensor:
#      x y z
#    x 1.711880 -0.147330 -0.000220 
#    y -0.147330 1.771590 0.047090 
#    z -0.000220 0.047090 1.827170 
# 
# From -- ./inp_files/578035.got.cif
#   From: 2010.05.17/outbox.ucp.g08.bks.cvg/sg2_290_cif.got.tgz:578035.got - 2010.06.11 11:32:03.
