data_PCOD9074458
_publ_section_title
;
Structure prediction by ZEFSAII (Michael W. Deem and Ramdas Pophale) SiO2 
 PCOD9074458
Probable space group: P -1
;
_chemical_formula_sum "Si O2"
_cell_formula_units_Z 16
_cell_length_a 9.000000
_cell_length_b 15.000000
_cell_length_c 12.000000
_cell_angle_alpha 120.000000
_cell_angle_beta 120.000000
_cell_angle_gamma 110.000000
_cell_volume 745.925389
_symmetry_space_group_name_H-M "P -1"
_symmetry_group_IT_number 2
_symmetry_cell_setting 'triclinic'
loop_
_space_group_symop_operation_xyz
x,y,z
-x,-y,-z
loop_
_atom_site_type_symbol
_atom_site_label
_atom_site_fract_x
_atom_site_fract_y
_atom_site_fract_z
Si Si1 0.464832 0.833876 0.461755
Si Si2 0.707805 0.020753 0.438692
Si Si3 0.242848 0.554677 0.349483
Si Si4 0.381275 0.626053 0.704859
Si Si5 0.351360 0.723096 0.981382
Si Si6 0.648008 0.677206 0.193779
Si Si7 0.274142 0.332420 0.521172
Si Si8 0.979509 0.998501 0.123874
O O1 0.362501 0.894858 0.507271
O O2 0.252450 0.649433 0.318942
O O3 0.752078 0.932868 0.685819
O O4 0.548807 0.884505 0.394591
O O5 0.041678 0.165762 0.645314
O O6 0.583471 0.919913 0.212705
O O7 0.316722 0.620637 0.546716
O O8 0.467102 0.579319 0.405069
O O9 0.929974 0.366851 0.125312
O O10 0.278130 0.459681 0.591006
O O11 0.281597 0.653167 0.785653
O O12 0.712547 0.809016 0.948823
O O13 0.463741 0.678016 0.065536
O O14 0.675023 0.683972 0.343158
O O15 0.500000 0.500000 0.000000
O O16 0.018003 0.137810 0.260394
O O17 0.000000 0.000000 0.000000
#
# Coordination Sequence:
#
# PCOD9074458 Si02
#       8
#     2   2   2   2   2   2   2   2
#     4  10  23  43  68 100 137 175 225 288 339 404
#     4  11  25  43  70 101 134 176 230 287 347 409
#     4  11  25  45  65 100 139 177 232 276 336 412
#     4  12  24  45  69 101 141 185 229 280 340 415
#     4  12  25  42  69  99 139 177 225 288 345 402
#     4  12  24  45  68  98 135 176 224 286 343 412
#     4  11  25  43  73 102 135 185 229 282 343 407
#     4  11  22  42  70  99 137 178 229 281 332 405
#
# _framework density 21.449867000000001
#
# number of rings (size 3 to 8) (size 9 to 14) (size 15 to 20)
#    0.000    0.750    3.750    4.875    1.750    3.000 
#    0.000    0.625    0.000    0.000    0.000    0.000 
#    0.000    0.000    0.000    0.000    0.000    0.000 
#
# Total GULP energy -89301.214002 kJ/mol
# GULP energy per Si atom -5581.325875 kJ/mol
# Density = 2.140105 g / cm^3
# Si number density = 21.449867 Si / 1000 Ang^3
#
#
#
# Elastic Constant Matrix: (Units=GPa)
#
#
# Indices 1 2 3 4 5 6 
#
# 1 71.5381 7.1002 14.9765 -6.3552 -11.2934 21.6415
# 2 7.1002 68.0730 -6.4979 -7.5321 -12.9681 20.4513
# 3 14.9765 -6.4979 81.7040 8.7965 -12.9658 12.0486
# 4 -6.3552 -7.5321 8.7965 21.1334 12.8975 -6.1538
# 5 -11.2934 -12.9681 -12.9658 12.8975 45.6386 -0.1374
# 6 21.6415 20.4513 12.0486 -6.1538 -0.1374 33.5877
#
#
#
# Elastic Compliance Matrix: (Units=1/GPa)
#
#
# Indices 1 2 3 4 5 6 
#
# 1 0.018809 0.003310 -0.000093 -0.000771 0.005743 -0.014219
# 2 0.003310 0.021851 0.006069 -0.005382 0.010217 -0.018559
# 3 -0.000093 0.006069 0.018236 -0.016251 0.011435 -0.013108
# 4 -0.000771 -0.005382 -0.016251 0.075591 -0.027629 0.023340
# 5 0.005743 0.010217 0.011435 -0.027629 0.037235 -0.018934
# 6 -0.014219 -0.018559 -0.013108 0.023340 -0.018934 0.059135
#
#
# Mechanical properties :
#
#
# Convention : Reuss Voigt Hill
#
# Bulk Modulus (GPa) = 12.90874 28.05253 20.48064
# Shear Modulus (GPa) = 20.99873 33.78768 27.39321
#
# Velocity S-wave (km/s) = 3.13224 3.97318 3.57750
# Velocity P-wave (km/s) = 4.37177 5.84421 5.16077
#
# Compressibility (1/GPa) = 0.07746690
#
# Stress axis : x y z
#
# Youngs Moduli (GPa) = 53.16515 45.76536 54.83551
#
# Poissons Ratio (x) = -0.15148 0.00512
# Poissons Ratio (y) = -0.17597 -0.33278
# Poissons Ratio (z) = 0.00496 -0.27774
#
# Static dielectric constant tensor:
#      x y z
#    x 1.795570 0.017670 -0.006900 
#    y 0.017670 1.823180 -0.003900 
#    z -0.006900 -0.003900 1.800540 
# 
# From -- ./inp_files/399479.got.cif
#   From: 2010.05.17/outbox.ucp.g08.bks.cvg/sg2_200_cif.got.tgz:399479.got - 2010.06.11 11:32:03.
