data_PCOD9074939
_publ_section_title
;
Structure prediction by ZEFSAII (Michael W. Deem and Ramdas Pophale) SiO2 
 PCOD9074939
Probable space group: P -1
;
_chemical_formula_sum "Si O2"
_cell_formula_units_Z 12
_cell_length_a 9.000000
_cell_length_b 9.000000
_cell_length_c 12.000000
_cell_angle_alpha 60.000000
_cell_angle_beta 130.000000
_cell_angle_gamma 90.000000
_cell_volume 564.115245
_symmetry_space_group_name_H-M "P -1"
_symmetry_group_IT_number 2
_symmetry_cell_setting 'triclinic'
loop_
_space_group_symop_operation_xyz
x,y,z
-x,-y,-z
loop_
_atom_site_type_symbol
_atom_site_label
_atom_site_fract_x
_atom_site_fract_y
_atom_site_fract_z
Si Si1 0.880385 0.032538 0.076445
Si Si2 0.688301 0.976954 0.813477
Si Si3 0.515219 0.482859 0.650247
Si Si4 0.117072 0.794319 0.488631
Si Si5 0.199978 0.123844 0.503096
Si Si6 0.208531 0.317613 0.217018
O O1 0.693164 0.259725 0.866830
O O2 0.793221 0.906562 0.011711
O O3 0.126127 0.977427 0.169187
O O4 0.932583 0.957918 0.255359
O O5 0.685330 0.830357 0.776650
O O6 0.428374 0.120752 0.648586
O O7 0.500000 0.500000 0.500000
O O8 0.285451 0.604330 0.566578
O O9 0.625862 0.615917 0.681478
O O10 0.979547 0.760956 0.532083
O O11 0.224263 0.909736 0.566255
O O12 0.133642 0.228038 0.313347
O O13 0.000000 0.500000 0.000000
#
# Coordination Sequence:
#
# PCOD9074939 Si02
#       6
#     2   2   2   2   2   2
#     4  11  23  42  65  98 126 168 216 268 320 370
#     4  11  21  41  67  91 129 166 220 262 310 383
#     4  12  24  41  69  99 127 166 219 270 313 377
#     4  11  24  43  64  93 138 167 211 264 324 386
#     4  11  23  42  64  94 130 175 206 265 328 376
#     4  12  22  40  66  98 123 167 226 261 312 383
#
# _framework density 21.272248999999999
#
# number of rings (size 3 to 8) (size 9 to 14) (size 15 to 20)
#    0.000    0.667    5.000    4.500    0.000    0.667 
#    3.000    5.833    0.000    0.000    0.000    0.000 
#    0.000    0.000    0.000    0.000    0.000    0.000 
#
# Total GULP energy -66802.255522 kJ/mol
# GULP energy per Si atom -5566.854627 kJ/mol
# Density = 2.122383 g / cm^3
# Si number density = 21.272249 Si / 1000 Ang^3
#
#
#
# Elastic Constant Matrix: (Units=GPa)
#
#
# Indices 1 2 3 4 5 6 
#
# 1 86.1315 52.4645 35.9947 -15.4583 41.0499 -21.6470
# 2 52.4645 87.7634 30.1489 28.4732 0.8807 -19.8855
# 3 35.9947 30.1489 69.6329 4.9367 30.8860 1.8858
# 4 -15.4583 28.4732 4.9367 42.5501 -0.8774 6.7251
# 5 41.0499 0.8807 30.8860 -0.8774 10.1410 -6.8089
# 6 -21.6470 -19.8855 1.8858 6.7251 -6.8089 31.1914
#
#
#
# Elastic Compliance Matrix: (Units=1/GPa)
#
#
# Indices 1 2 3 4 5 6 
#
# 1 0.009470 0.002761 -0.017524 0.001863 0.024602 0.014361
# 2 0.002761 0.012254 0.005853 -0.009297 -0.027221 0.005437
# 3 -0.017524 0.005853 0.020094 -0.011539 0.004011 -0.006282
# 4 0.001863 -0.009297 -0.011539 0.033101 0.027931 -0.004976
# 5 0.024602 -0.027221 0.004011 0.027931 -0.015008 -0.009821
# 6 0.014361 0.005437 -0.006282 -0.004976 -0.009821 0.044802
#
#
# Mechanical properties :
#
#
# Convention : Reuss Voigt Hill
#
# Bulk Modulus (GPa) = 41.66876 53.41600 47.54238
# Shear Modulus (GPa) = 38.30454 25.10448 31.70451
#
# Velocity S-wave (km/s) = 4.24805 3.43906 3.86478
# Velocity P-wave (km/s) = 6.61000 6.39802 6.50487
#
# Compressibility (1/GPa) = 0.02399879
#
# Stress axis : x y z
#
# Youngs Moduli (GPa) = 105.59526 81.60428 49.76512
#
# Poissons Ratio (x) = -0.22533 0.87209
# Poissons Ratio (y) = -0.29158 -0.29127
# Poissons Ratio (z) = 1.85047 -0.47762
#
# Static dielectric constant tensor:
#      x y z
#    x 1.744970 -0.018190 -0.015270 
#    y -0.018190 1.824870 -0.036370 
#    z -0.015270 -0.036370 1.776720 
# 
# From -- ./inp_files/231118.got.cif
#   From: 2010.05.17/outbox.ucp.g08.bks.cvg/sg2_116_cif.got.tgz:231118.got - 2010.06.11 11:32:03.
