data_PCOD9074598
_publ_section_title
;
Structure prediction by ZEFSAII (Michael W. Deem and Ramdas Pophale) SiO2 
 PCOD9074598
Probable space group: P -1
;
_chemical_formula_sum "Si O2"
_cell_formula_units_Z 14
_cell_length_a 9.000000
_cell_length_b 15.000000
_cell_length_c 15.000000
_cell_angle_alpha 160.000000
_cell_angle_beta 100.000000
_cell_angle_gamma 80.000000
_cell_volume 681.739035
_symmetry_space_group_name_H-M "P -1"
_symmetry_group_IT_number 2
_symmetry_cell_setting 'triclinic'
loop_
_space_group_symop_operation_xyz
x,y,z
-x,-y,-z
loop_
_atom_site_type_symbol
_atom_site_label
_atom_site_fract_x
_atom_site_fract_y
_atom_site_fract_z
Si Si1 0.335391 0.557221 0.170520
Si Si2 0.660269 0.871414 0.870347
Si Si3 0.174622 0.112540 0.621074
Si Si4 0.683102 0.579168 0.243805
Si Si5 0.252198 0.509316 0.321882
Si Si6 0.742830 0.998027 0.794844
Si Si7 0.903061 0.996634 0.146845
O O1 0.514333 0.541415 0.151747
O O2 0.332307 0.528614 0.252253
O O3 0.271284 0.840780 0.394661
O O4 0.232616 0.326331 0.901365
O O5 0.667328 0.606312 0.686263
O O6 0.809536 0.007428 0.054077
O O7 0.670314 0.913701 0.803906
O O8 0.500000 0.000000 0.000000
O O9 0.214159 0.278640 0.689565
O O10 0.000000 0.000000 0.500000
O O11 0.683890 0.794971 0.525085
O O12 0.724075 0.294220 0.028160
O O13 0.181648 0.791008 0.601036
O O14 0.124254 0.294653 0.094935
O O15 0.921539 0.953201 0.789032
#
# Coordination Sequence:
#
# PCOD9074598 Si02
#       7
#     2   2   2   2   2   2   2
#     4  12  25  49  73 102 145 183 231 290 357 412
#     4  10  25  42  69 102 143 184 236 280 345 417
#     4  12  28  46  76 107 139 181 236 291 355 420
#     4  12  28  46  74 102 143 185 236 289 354 420
#     4  10  24  40  73  96 139 182 234 279 351 401
#     4  12  26  44  71 103 143 185 235 286 351 410
#     4  10  24  42  65  97 144 180 233 286 340 400
#
# _framework density 20.535717000000002
#
# number of rings (size 3 to 8) (size 9 to 14) (size 15 to 20)
#    0.857    0.000    0.000    6.000   10.000    1.143 
#    0.000    0.000    0.000    0.000    0.000    0.000 
#    0.000    0.000    0.000    0.000    0.000    0.000 
#
# Total GULP energy -77962.044642 kJ/mol
# GULP energy per Si atom -5568.717474 kJ/mol
# Density = 2.048898 g / cm^3
# Si number density = 20.535717 Si / 1000 Ang^3
#
#
#
# Elastic Constant Matrix: (Units=GPa)
#
#
# Indices 1 2 3 4 5 6 
#
# 1 94.3505 39.6184 -0.7235 -14.8233 10.6841 -12.8756
# 2 39.6184 159.2175 39.2559 -3.6460 -1.8447 20.1457
# 3 -0.7235 39.2559 128.5631 -6.5475 13.8142 -7.8338
# 4 -14.8233 -3.6460 -6.5475 32.6774 -0.2069 -6.1450
# 5 10.6841 -1.8447 13.8142 -0.2069 27.9962 4.6021
# 6 -12.8756 20.1457 -7.8338 -6.1450 4.6021 47.7325
#
#
#
# Elastic Compliance Matrix: (Units=1/GPa)
#
#
# Indices 1 2 3 4 5 6 
#
# 1 0.017873 -0.006848 0.004583 0.010234 -0.011244 0.010865
# 2 -0.006848 0.010116 -0.004578 -0.004373 0.006836 -0.008090
# 3 0.004583 -0.004578 0.010735 0.004863 -0.008358 0.006362
# 4 0.010234 -0.004373 0.004863 0.037757 -0.008130 0.011049
# 5 -0.011244 0.006836 -0.008358 -0.008130 0.046634 -0.012833
# 6 0.010865 -0.008090 0.006362 0.011049 -0.012833 0.030999
#
#
# Mechanical properties :
#
#
# Convention : Reuss Voigt Hill
#
# Bulk Modulus (GPa) = 39.93739 59.82587 49.88163
# Shear Modulus (GPa) = 28.38530 41.94655 35.16593
#
# Velocity S-wave (km/s) = 3.72188 4.52443 4.14264
# Velocity P-wave (km/s) = 6.16116 7.51597 6.87203
#
# Compressibility (1/GPa) = 0.02503919
#
# Stress axis : x y z
#
# Youngs Moduli (GPa) = 55.94896 98.85195 93.15166
#
# Poissons Ratio (x) = 0.67696 -0.42692
# Poissons Ratio (y) = 0.38315 0.42642
# Poissons Ratio (z) = -0.25642 0.45251
#
# Static dielectric constant tensor:
#      x y z
#    x 1.743530 0.016980 -0.015470 
#    y 0.016980 1.778470 -0.021660 
#    z -0.015470 -0.021660 1.743370 
# 
# From -- ./inp_files/503439.got.cif
#   From: 2010.05.17/outbox.ucp.g08.bks.cvg/sg2_252_cif.got.tgz:503439.got - 2010.06.11 11:32:03.
