data_PCOD9074351
_publ_section_title
;
Structure prediction by ZEFSAII (Michael W. Deem and Ramdas Pophale) SiO2 
 PCOD9074351
Probable space group: P -1
;
_chemical_formula_sum "Si O2"
_cell_formula_units_Z 16
_cell_length_a 15.000000
_cell_length_b 15.000000
_cell_length_c 15.000000
_cell_angle_alpha 40.000000
_cell_angle_beta 40.000000
_cell_angle_gamma 20.000000
_cell_volume 725.414092
_symmetry_space_group_name_H-M "P -1"
_symmetry_group_IT_number 2
_symmetry_cell_setting 'triclinic'
loop_
_space_group_symop_operation_xyz
x,y,z
-x,-y,-z
loop_
_atom_site_type_symbol
_atom_site_label
_atom_site_fract_x
_atom_site_fract_y
_atom_site_fract_z
Si Si1 0.177801 0.123275 0.823677
Si Si2 0.704955 0.737740 0.953011
Si Si3 0.228760 0.298705 0.782289
Si Si4 0.394856 0.437552 0.165577
Si Si5 0.511839 0.342322 0.555903
Si Si6 0.748269 0.986874 0.803023
Si Si7 0.498822 0.423227 0.293641
Si Si8 0.922342 0.970430 0.853122
O O1 0.226669 0.241457 0.726469
O O2 0.898338 0.338512 0.822373
O O3 0.408703 0.849742 0.801251
O O4 0.170895 0.048229 0.981360
O O5 0.944907 0.495284 0.890341
O O6 0.473526 0.011149 0.863120
O O7 0.809444 0.773286 0.907388
O O8 0.546018 0.762408 0.115752
O O9 0.279415 0.419642 0.670692
O O10 0.393822 0.431687 0.279341
O O11 0.500000 0.500000 0.000000
O O12 0.500000 0.500000 0.500000
O O13 0.734824 0.073881 0.651643
O O14 0.545723 0.333567 0.429610
O O15 0.939223 0.888185 0.805441
O O16 0.789640 0.221943 0.194137
O O17 0.290564 0.726180 0.227630
#
# Coordination Sequence:
#
# PCOD9074351 Si02
#       8
#     2   2   2   2   2   2   2   2
#     4  12  23  42  72 104 135 169 222 295 346 388
#     4  10  23  40  66  98 138 171 223 280 334 395
#     4  11  25  44  68 102 137 179 228 279 338 400
#     4  12  23  43  71 105 135 170 224 286 348 395
#     4  11  26  47  68  96 143 188 228 270 334 411
#     4  10  23  40  66 100 137 179 220 276 336 399
#     4  12  27  43  66 102 138 180 228 272 334 415
#     4  12  23  39  69 100 138 168 227 275 344 398
#
# _framework density 22.056367999999999
#
# number of rings (size 3 to 8) (size 9 to 14) (size 15 to 20)
#    0.000    0.750    5.000    1.875    3.500    7.000 
#    0.000    1.250    0.000    0.000    0.000    0.000 
#    0.000    0.000    0.000    0.000    0.000    0.000 
#
# Total GULP energy -89338.926609 kJ/mol
# GULP energy per Si atom -5583.682913 kJ/mol
# Density = 2.200617 g / cm^3
# Si number density = 22.056368 Si / 1000 Ang^3
#
#
#
# Elastic Constant Matrix: (Units=GPa)
#
#
# Indices 1 2 3 4 5 6 
#
# 1 176.4995 33.5782 28.0930 -12.7800 15.3558 8.8681
# 2 33.5782 126.7420 7.4972 -7.8665 -5.5456 9.8195
# 3 28.0930 7.4972 81.6155 -8.3534 20.6686 2.3051
# 4 -12.7800 -7.8665 -8.3534 20.9478 -2.1800 5.5162
# 5 15.3558 -5.5456 20.6686 -2.1800 43.4555 0.6914
# 6 8.8681 9.8195 2.3051 5.5162 0.6914 36.8934
#
#
#
# Elastic Compliance Matrix: (Units=1/GPa)
#
#
# Indices 1 2 3 4 5 6 
#
# 1 0.006609 -0.001425 -0.001343 0.003199 -0.001693 -0.001572
# 2 -0.001425 0.008766 -0.000440 0.003107 0.002027 -0.002466
# 3 -0.001343 -0.000440 0.014875 0.004556 -0.006411 -0.001050
# 4 0.003199 0.003107 0.004556 0.055351 0.000038 -0.010157
# 5 -0.001693 0.002027 -0.006411 0.000038 0.026924 -0.000242
# 6 -0.001572 -0.002466 -0.001050 -0.010157 -0.000242 0.029728
#
#
# Mechanical properties :
#
#
# Convention : Reuss Voigt Hill
#
# Bulk Modulus (GPa) = 41.96027 58.13266 50.04646
# Shear Modulus (GPa) = 31.92543 41.30523 36.61533
#
# Velocity S-wave (km/s) = 3.80866 4.33218 4.07883
# Velocity P-wave (km/s) = 6.19731 7.17198 6.70239
#
# Compressibility (1/GPa) = 0.02383207
#
# Stress axis : x y z
#
# Youngs Moduli (GPa) = 151.31956 114.07422 67.22677
#
# Poissons Ratio (x) = 0.16257 0.09031
# Poissons Ratio (y) = 0.21565 0.02960
# Poissons Ratio (z) = 0.20328 0.05023
#
# Static dielectric constant tensor:
#      x y z
#    x 1.851620 0.030130 -0.029390 
#    y 0.030130 1.813660 0.003880 
#    z -0.029390 0.003880 1.844540 
# 
# From -- ./inp_files/534256.got.cif
#   From: 2010.05.17/outbox.ucp.g08.bks.cvg/sg2_268_cif.got.tgz:534256.got - 2010.06.11 11:32:03.
