data_PCOD9074275
_publ_section_title
;
Structure prediction by ZEFSAII (Michael W. Deem and Ramdas Pophale) SiO2 
 PCOD9074275
Probable space group: P -1
;
_chemical_formula_sum "Si O2"
_cell_formula_units_Z 16
_cell_length_a 9.000000
_cell_length_b 15.000000
_cell_length_c 15.000000
_cell_angle_alpha 130.000000
_cell_angle_beta 130.000000
_cell_angle_gamma 30.000000
_cell_volume 755.761493
_symmetry_space_group_name_H-M "P -1"
_symmetry_group_IT_number 2
_symmetry_cell_setting 'triclinic'
loop_
_space_group_symop_operation_xyz
x,y,z
-x,-y,-z
loop_
_atom_site_type_symbol
_atom_site_label
_atom_site_fract_x
_atom_site_fract_y
_atom_site_fract_z
Si Si1 0.574685 0.513567 0.133979
Si Si2 0.525001 0.438588 0.368109
Si Si3 0.210326 0.939861 0.759879
Si Si4 0.761304 0.504865 0.878254
Si Si5 0.702885 0.863777 0.797913
Si Si6 0.177939 0.192565 0.395939
Si Si7 0.418153 0.838768 0.341077
Si Si8 0.233322 0.929661 0.967869
O O1 0.323570 0.563523 0.132409
O O2 0.553283 0.663780 0.230759
O O3 0.933358 0.316106 0.158546
O O4 0.500000 0.500000 0.000000
O O5 0.500000 0.500000 0.500000
O O6 0.641346 0.255055 0.309648
O O7 0.241667 0.550738 0.259821
O O8 0.811049 0.368589 0.382211
O O9 0.466811 0.897177 0.784450
O O10 0.138894 0.008011 0.880201
O O11 0.883436 0.075870 0.673829
O O12 0.448876 0.721632 0.900898
O O13 0.000000 0.500000 0.000000
O O14 0.699004 0.842577 0.677914
O O15 0.603043 0.038553 0.901777
O O16 0.336745 0.212790 0.534509
O O17 0.286058 0.009858 0.343452
O O18 0.000000 0.000000 0.000000
#
# Coordination Sequence:
#
# PCOD9074275 Si02
#       8
#     2   2   2   2   2   2   2   2
#     4  12  27  41  68 105 139 177 228 294 344 402
#     4  10  22  45  69  96 136 183 233 279 346 418
#     4  10  24  41  64 101 131 172 224 280 340 405
#     4  11  26  44  66 105 139 180 233 283 350 409
#     4  12  24  42  70  97 133 182 222 275 351 412
#     4  10  23  47  72  94 132 194 222 275 355 418
#     4  10  24  45  67  99 140 169 238 283 335 416
#     4  11  21  44  68  89 137 181 223 269 340 428
#
# _framework density 21.1707
#
# number of rings (size 3 to 8) (size 9 to 14) (size 15 to 20)
#    0.000    1.250    2.500    2.625    8.750    2.000 
#    4.500    0.000    0.000    0.000    0.000    0.000 
#    0.000    0.000    0.000    0.000    0.000    0.000 
#
# Total GULP energy -89105.362243 kJ/mol
# GULP energy per Si atom -5569.085140 kJ/mol
# Density = 2.112251 g / cm^3
# Si number density = 21.170700 Si / 1000 Ang^3
#
#
#
# Elastic Constant Matrix: (Units=GPa)
#
#
# Indices 1 2 3 4 5 6 
#
# 1 144.3159 11.1857 61.3112 -7.0478 5.4143 -20.7801
# 2 11.1857 31.0690 25.6902 0.3169 2.8049 2.1476
# 3 61.3112 25.6902 164.5656 2.8651 -8.8727 2.5071
# 4 -7.0478 0.3169 2.8651 40.0313 -5.9828 8.9103
# 5 5.4143 2.8049 -8.8727 -5.9828 39.7243 1.2050
# 6 -20.7801 2.1476 2.5071 8.9103 1.2050 21.9213
#
#
#
# Elastic Compliance Matrix: (Units=1/GPa)
#
#
# Indices 1 2 3 4 5 6 
#
# 1 0.010310 -0.000903 -0.003995 -0.000681 -0.002662 0.010742
# 2 -0.000903 0.037828 -0.005713 0.000249 -0.003671 -0.003809
# 3 -0.003995 -0.005713 0.008686 0.000168 0.003049 -0.004457
# 4 -0.000681 0.000249 0.000168 0.028333 0.004758 -0.012466
# 5 -0.002662 -0.003671 0.003049 0.004758 0.027374 -0.005951
# 6 0.010742 -0.003809 -0.004457 -0.012466 -0.005951 0.062077
#
#
# Mechanical properties :
#
#
# Convention : Reuss Voigt Hill
#
# Bulk Modulus (GPa) = 28.08943 59.59164 43.84053
# Shear Modulus (GPa) = 24.07341 36.45295 30.26318
#
# Velocity S-wave (km/s) = 3.37576 4.15403 3.78495
# Velocity P-wave (km/s) = 5.33772 7.15662 6.31302
#
# Compressibility (1/GPa) = 0.03560058
#
# Stress axis : x y z
#
# Youngs Moduli (GPa) = 96.99283 26.43565 115.12308
#
# Poissons Ratio (x) = 0.02388 0.45997
# Poissons Ratio (y) = 0.08762 0.65769
# Poissons Ratio (z) = 0.38753 0.15102
#
# Static dielectric constant tensor:
#      x y z
#    x 1.853250 0.026880 0.003210 
#    y 0.026880 1.848300 -0.076270 
#    z 0.003210 -0.076270 1.815630 
# 
# From -- ./inp_files/299556.got.cif
#   From: 2010.05.17/outbox.ucp.g08.bks.cvg/sg2_150_cif.got.tgz:299556.got - 2010.06.11 11:32:03.
