data_PCOD9074051
_publ_section_title
;
Structure prediction by ZEFSAII (Michael W. Deem and Ramdas Pophale) SiO2 
 PCOD9074051
Probable space group: P -1
;
_chemical_formula_sum "Si O2"
_cell_formula_units_Z 16
_cell_length_a 18.000000
_cell_length_b 12.000000
_cell_length_c 9.000000
_cell_angle_alpha 50.000000
_cell_angle_beta 150.000000
_cell_angle_gamma 120.000000
_cell_volume 736.400153
_symmetry_space_group_name_H-M "P -1"
_symmetry_group_IT_number 2
_symmetry_cell_setting 'triclinic'
loop_
_space_group_symop_operation_xyz
x,y,z
-x,-y,-z
loop_
_atom_site_type_symbol
_atom_site_label
_atom_site_fract_x
_atom_site_fract_y
_atom_site_fract_z
Si Si1 0.282185 0.800593 0.457167
Si Si2 0.478890 0.995021 0.788037
Si Si3 0.465583 0.712842 0.544058
Si Si4 0.009074 0.009975 0.328720
Si Si5 0.049548 0.307381 0.481103
Si Si6 0.742291 0.487802 0.808694
Si Si7 0.762941 0.784104 0.414771
Si Si8 0.246175 0.500195 0.822232
O O1 0.382431 0.758998 0.516551
O O2 0.263139 0.657191 0.644593
O O3 0.330866 0.930873 0.533000
O O4 0.122887 0.869713 0.058104
O O5 0.505780 0.146782 0.626018
O O6 0.500000 0.000000 0.000000
O O7 0.599057 0.868765 0.030284
O O8 0.384489 0.600282 0.400820
O O9 0.624735 0.616293 0.929281
O O10 0.156046 0.084754 0.486801
O O11 0.983744 0.847189 0.372824
O O12 0.000000 0.000000 0.500000
O O13 0.153956 0.271696 0.546702
O O14 0.104361 0.423818 0.590550
O O15 0.890218 0.390288 0.083252
O O16 0.744270 0.650173 0.606761
O O17 0.740391 0.492271 0.981652
#
# Coordination Sequence:
#
# PCOD9074051 Si02
#       8
#     2   2   2   2   2   2   2   2
#     4  12  24  43  68  96 127 171 218 263 316 385
#     4  12  25  43  66  99 134 168 209 266 325 380
#     4  12  23  42  66  92 127 173 216 261 313 382
#     4  10  22  41  66  95 123 160 215 269 313 369
#     4  11  22  41  64  91 123 166 215 263 315 382
#     4  12  24  41  63  93 130 169 211 267 322 373
#     4  11  22  42  66  93 126 170 216 261 315 384
#     4  12  25  41  61  95 131 167 212 266 322 377
#
# _framework density 21.727318
#
# number of rings (size 3 to 8) (size 9 to 14) (size 15 to 20)
#    0.000    0.500    0.000   10.875    0.000    0.000 
#    0.000    1.875    0.000    0.000    0.000    0.000 
#    0.000    0.000    0.000    0.000    0.000    0.000 
#
# Total GULP energy -89384.881206 kJ/mol
# GULP energy per Si atom -5586.555075 kJ/mol
# Density = 2.167787 g / cm^3
# Si number density = 21.727318 Si / 1000 Ang^3
#
#
#
# Elastic Constant Matrix: (Units=GPa)
#
#
# Indices 1 2 3 4 5 6 
#
# 1 -89.1390 149.8322 -22.4628 77.3522 -43.0041 -32.7750
# 2 149.8322 77.6843 12.8214 -55.3269 -41.1137 65.6588
# 3 -22.4628 12.8214 54.6010 0.6817 -14.3490 13.5668
# 4 77.3522 -55.3269 0.6817 11.8338 10.3267 6.1254
# 5 -43.0041 -41.1137 -14.3490 10.3267 35.6951 -15.0138
# 6 -32.7750 65.6588 13.5668 6.1254 -15.0138 23.6071
#
#
#
# Elastic Compliance Matrix: (Units=1/GPa)
#
#
# Indices 1 2 3 4 5 6 
#
# 1 0.006636 0.011145 0.008606 0.003120 0.016117 -0.017290
# 2 0.011145 0.018267 0.014286 -0.007806 0.034138 -0.019807
# 3 0.008606 0.014286 0.033064 -0.003176 0.029624 -0.027123
# 4 0.003120 -0.007806 -0.003176 0.022755 -0.005262 0.018616
# 5 0.016117 0.034138 0.029624 -0.005262 0.086104 -0.033470
# 6 -0.017290 -0.019807 -0.027123 0.018616 -0.033470 0.062916
#
#
# Mechanical properties :
#
#
# Convention : Reuss Voigt Hill
#
# Bulk Modulus (GPa) = 7.93390 35.94755 21.94072
# Shear Modulus (GPa) = 24.54782 7.75755 16.15269
#
# Velocity S-wave (km/s) = 3.36492 1.89160 2.72954
# Velocity P-wave (km/s) = 4.33086 4.62079 4.47817
#
# Compressibility (1/GPa) = 0.12604150
#
# Stress axis : x y z
#
# Youngs Moduli (GPa) = 150.68804 54.74228 30.24394
#
# Poissons Ratio (x) = -0.61012 -0.26027
# Poissons Ratio (y) = -1.67946 -0.43206
# Poissons Ratio (z) = -1.29675 -0.78204
#
# Static dielectric constant tensor:
#      x y z
#    x 1.711560 -0.056250 -0.002590 
#    y -0.056250 1.601740 -0.045470 
#    z -0.002590 -0.045470 1.779040 
# 
# From -- ./inp_files/184212.got.cif
#   From: 2010.05.17/outbox.ucp.g08.bks.cvg/sg2_93_cif.got.tgz:184212.got - 2010.06.11 11:32:03.
