data_PCOD9074486
_publ_section_title
;
Structure prediction by ZEFSAII (Michael W. Deem and Ramdas Pophale) SiO2 
 PCOD9074486
Probable space group: P -1
;
_chemical_formula_sum "Si O2"
_cell_formula_units_Z 16
_cell_length_a 8.613135
_cell_length_b 12.131298
_cell_length_c 8.438549
_cell_angle_alpha 76.083946
_cell_angle_beta 105.504510
_cell_angle_gamma 55.112676
_cell_volume 604.495792
_symmetry_space_group_name_H-M "P -1"
_symmetry_group_IT_number 2
_symmetry_cell_setting 'triclinic'
loop_
_space_group_symop_operation_xyz
x,y,z
-x,-y,-z
loop_
_atom_site_type_symbol
_atom_site_label
_atom_site_fract_x
_atom_site_fract_y
_atom_site_fract_z
Si Si1 0.152214 0.750988 0.819320
Si Si2 0.638687 0.585785 0.020094
Si Si3 0.776593 0.242896 0.729296
Si Si4 0.267180 0.987133 0.182591
Si Si5 0.622569 0.829479 0.874590
Si Si6 0.117260 0.097857 0.603753
Si Si7 0.279165 0.243207 0.437654
Si Si8 0.334225 0.456740 0.329509
O O1 0.391727 0.673905 0.971821
O O2 0.966424 0.870537 0.853932
O O3 0.051573 0.856379 0.597794
O O4 0.201052 0.595617 0.838206
O O5 0.704743 0.682117 0.047810
O O6 0.628206 0.592682 0.824571
O O7 0.566115 0.353560 0.516903
O O8 0.778385 0.367105 0.762538
O O9 0.993320 0.132676 0.719768
O O10 0.744052 0.135990 0.840414
O O11 0.334923 0.066957 0.076042
O O12 0.460860 0.889883 0.401416
O O13 0.733446 0.778752 0.746229
O O14 0.363755 0.932024 0.737960
O O15 0.165710 0.206353 0.532769
O O16 0.213098 0.405705 0.388048
#
# Coordination Sequence:
#
# PCOD9074486 Si02
#       8
#     2   2   2   2   2   2   2   2
#     4  11  20  33  51  84 105 130 167 207 274 304
#     4  10  22  34  52  76 111 134 161 217 256 310
#     4  10  20  31  55  75 100 142 174 208 246 297
#     4  10  18  32  51  78 104 131 173 209 254 307
#     4  10  18  33  52  79 107 129 166 219 261 297
#     4  11  18  31  54  83 104 130 167 216 257 304
#     4   9  17  31  51  77 107 127 166 219 254 298
#     4   9  19  36  48  73 107 138 175 203 250 298
#
# _framework density 26.468340999999999
#
# number of rings (size 3 to 8) (size 9 to 14) (size 15 to 20)
#    0.000    2.000    3.750    1.500    0.000    2.000 
#    0.000    0.625    0.000    0.000    0.000    3.500 
#    0.000    0.000    0.000    0.000    0.000    0.000 
#
# Total GULP energy -89483.897887 kJ/mol
# GULP energy per Si atom -5592.743618 kJ/mol
# Density = 2.640810 g / cm^3
# Si number density = 26.468341 Si / 1000 Ang^3
#
#
#
# Elastic Constant Matrix: (Units=GPa)
#
#
# Indices 1 2 3 4 5 6 
#
# 1 115.0979 67.8312 26.6803 -34.0133 -18.2584 22.5544
# 2 67.8312 114.6427 34.7527 -39.7749 -13.6617 26.3605
# 3 26.6803 34.7527 105.8573 -37.8378 11.7204 17.9194
# 4 -34.0133 -39.7749 -37.8378 38.4402 8.3056 -14.1762
# 5 -18.2584 -13.6617 11.7204 8.3056 43.1841 -22.8645
# 6 22.5544 26.3605 17.9194 -14.1762 -22.8645 39.8729
#
#
#
# Elastic Compliance Matrix: (Units=1/GPa)
#
#
# Indices 1 2 3 4 5 6 
#
# 1 0.014572 -0.006164 0.000335 0.006033 0.002598 -0.000684
# 2 -0.006164 0.017200 0.001809 0.012581 -0.003320 -0.006128
# 3 0.000335 0.001809 0.019564 0.020415 -0.014458 -0.011210
# 4 0.006033 0.012581 0.020415 0.065399 -0.014857 -0.006172
# 5 0.002598 -0.003320 -0.014458 -0.014857 0.044535 0.027479
# 6 -0.000684 -0.006128 -0.011210 -0.006172 0.027479 0.048119
#
#
# Mechanical properties :
#
#
# Convention : Reuss Voigt Hill
#
# Bulk Modulus (GPa) = 23.09657 66.01402 44.55529
# Shear Modulus (GPa) = 21.56473 38.05500 29.80987
#
# Velocity S-wave (km/s) = 2.85746 3.79589 3.35960
# Velocity P-wave (km/s) = 4.43078 6.64880 5.64971
#
# Compressibility (1/GPa) = 0.04329647
#
# Stress axis : x y z
#
# Youngs Moduli (GPa) = 68.62584 58.14080 51.11418
#
# Poissons Ratio (x) = 0.35835 -0.01714
# Poissons Ratio (y) = 0.42298 -0.09245
# Poissons Ratio (z) = -0.02301 -0.10516
#
# Static dielectric constant tensor:
#      x y z
#    x 2.110230 0.077360 -0.019970 
#    y 0.077360 2.087230 0.008210 
#    z -0.019970 0.008210 2.074480 
# 
# From -- ./inp_files/185889.got.cif
#   From: 2010.05.17/outbox.cif.g08.bks.cpg/sg2_93_cif.got.tgz:185889.got - 2010.06.03 11:33:40.
