data_PCOD9074773
_publ_section_title
;
Structure prediction by ZEFSAII (Michael W. Deem and Ramdas Pophale) SiO2 
 PCOD9074773
Probable space group: P -1
;
_chemical_formula_sum "Si O2"
_cell_formula_units_Z 16
_cell_length_a 12.000000
_cell_length_b 9.000000
_cell_length_c 15.000000
_cell_angle_alpha 110.000000
_cell_angle_beta 60.000000
_cell_angle_gamma 60.000000
_cell_volume 745.925389
_symmetry_space_group_name_H-M "P -1"
_symmetry_group_IT_number 2
_symmetry_cell_setting 'triclinic'
loop_
_space_group_symop_operation_xyz
x,y,z
-x,-y,-z
loop_
_atom_site_type_symbol
_atom_site_label
_atom_site_fract_x
_atom_site_fract_y
_atom_site_fract_z
Si Si1 0.213910 0.178706 0.747348
Si Si2 0.111116 0.073847 0.261894
Si Si3 0.846377 0.807144 0.437312
Si Si4 0.740751 0.179425 0.046582
Si Si5 0.939639 0.318620 0.044230
Si Si6 0.255068 0.789889 0.329536
Si Si7 0.315656 0.217771 0.196939
Si Si8 0.350526 0.297077 0.402544
O O1 0.198474 0.149336 0.642661
O O2 0.014031 0.305133 0.913508
O O3 0.430006 0.898960 0.661981
O O4 0.190056 0.395457 0.805681
O O5 0.212570 0.148078 0.242236
O O6 0.840376 0.370968 0.450197
O O7 0.235692 0.849218 0.244000
O O8 0.154108 0.963763 0.122746
O O9 0.758447 0.739813 0.508204
O O10 0.115874 0.529225 0.297635
O O11 0.719809 0.077972 0.593261
O O12 0.467154 0.461201 0.200276
O O13 0.854512 0.941452 0.023346
O O14 0.806861 0.288879 0.076108
O O15 0.000000 0.000000 0.500000
O O16 0.388438 0.209227 0.264837
O O17 0.500000 0.000000 0.000000
#
# Coordination Sequence:
#
# PCOD9074773 Si02
#       8
#     2   2   2   2   2   2   2   2
#     4  11  25  41  77 100 134 177 243 284 345 407
#     4  11  24  44  68 102 136 183 229 282 352 413
#     4  11  23  45  64 104 135 176 227 285 345 405
#     4  11  26  47  69  95 148 183 227 280 360 410
#     4  10  25  46  67 105 134 184 229 292 341 419
#     4  12  27  43  68  99 142 184 232 281 340 421
#     4  11  24  39  74  99 137 174 227 290 351 401
#     4  11  22  44  70 102 141 172 225 298 342 406
#
# _framework density 21.449866
#
# number of rings (size 3 to 8) (size 9 to 14) (size 15 to 20)
#    0.000    1.000    2.500    3.750   10.500    2.000 
#    0.000    1.250    0.000    0.000    0.000    0.000 
#    0.000    0.000    0.000    0.000    0.000    0.000 
#
# Total GULP energy -89409.626597 kJ/mol
# GULP energy per Si atom -5588.101662 kJ/mol
# Density = 2.140105 g / cm^3
# Si number density = 21.449866 Si / 1000 Ang^3
#
#
#
# Elastic Constant Matrix: (Units=GPa)
#
#
# Indices 1 2 3 4 5 6 
#
# 1 65.6328 37.1432 8.4334 -3.3701 5.1121 -32.6415
# 2 37.1432 135.6983 37.6873 -2.3687 10.6699 -42.9407
# 3 8.4334 37.6873 92.0642 3.2440 10.5736 -29.0738
# 4 -3.3701 -2.3687 3.2440 50.0711 -11.2539 6.2048
# 5 5.1121 10.6699 10.5736 -11.2539 39.4795 -9.3719
# 6 -32.6415 -42.9407 -29.0738 6.2048 -9.3719 51.7113
#
#
#
# Elastic Compliance Matrix: (Units=1/GPa)
#
#
# Indices 1 2 3 4 5 6 
#
# 1 0.023658 -0.002854 0.003659 -0.000590 0.000050 0.014701
# 2 -0.002854 0.010609 -0.002188 -0.000407 -0.000673 0.005705
# 3 0.003659 -0.002188 0.014460 -0.002389 -0.002426 0.008469
# 4 -0.000590 -0.000407 -0.002389 0.021907 0.006227 -0.003553
# 5 0.000050 -0.000673 -0.002426 0.006227 0.028531 0.002532
# 6 0.014701 0.005705 0.008469 -0.003553 0.002532 0.039002
#
#
# Mechanical properties :
#
#
# Convention : Reuss Voigt Hill
#
# Bulk Modulus (GPa) = 21.75807 51.10256 36.43031
# Shear Modulus (GPa) = 31.99891 42.26114 37.13002
#
# Velocity S-wave (km/s) = 3.86657 4.44354 4.16506
# Velocity P-wave (km/s) = 5.48631 7.08538 6.33649
#
# Compressibility (1/GPa) = 0.04595997
#
# Stress axis : x y z
#
# Youngs Moduli (GPa) = 42.26836 94.25625 69.15649
#
# Poissons Ratio (x) = 0.26903 -0.25302
# Poissons Ratio (y) = 0.12064 0.15134
# Poissons Ratio (z) = -0.15465 0.20627
#
# Static dielectric constant tensor:
#      x y z
#    x 1.822290 0.024450 -0.062930 
#    y 0.024450 1.749990 0.011320 
#    z -0.062930 0.011320 1.827630 
# 
# From -- ./inp_files/242718.got.cif
#   From: 2010.05.17/outbox.ucp.g08.bks.cvg/sg2_122_cif.got.tgz:242718.got - 2010.06.11 11:32:03.
