data_PCOD9074736
_publ_section_title
;
Structure prediction by ZEFSAII (Michael W. Deem and Ramdas Pophale) SiO2 
 PCOD9074736
Probable space group: P -1
;
_chemical_formula_sum "Si O2"
_cell_formula_units_Z 12
_cell_length_a 9.000000
_cell_length_b 12.000000
_cell_length_c 9.000000
_cell_angle_alpha 100.000000
_cell_angle_beta 60.000000
_cell_angle_gamma 140.000000
_cell_volume 501.352703
_symmetry_space_group_name_H-M "P -1"
_symmetry_group_IT_number 2
_symmetry_cell_setting 'triclinic'
loop_
_space_group_symop_operation_xyz
x,y,z
-x,-y,-z
loop_
_atom_site_type_symbol
_atom_site_label
_atom_site_fract_x
_atom_site_fract_y
_atom_site_fract_z
Si Si1 0.239079 0.181219 0.821060
Si Si2 0.812850 0.294478 0.493533
Si Si3 0.767575 0.554290 0.190187
Si Si4 0.614235 0.837031 0.565823
Si Si5 0.279636 0.890268 0.222575
Si Si6 0.700294 0.498961 0.876433
O O1 0.253632 0.322618 0.807180
O O2 0.206710 0.107580 0.656397
O O3 0.512264 0.314473 0.826959
O O4 0.000000 0.000000 0.000000
O O5 0.633912 0.234355 0.424486
O O6 0.652978 0.151221 0.676153
O O7 0.000000 0.500000 0.500000
O O8 0.042888 0.329076 0.318374
O O9 0.512633 0.343202 0.334537
O O10 0.002231 0.686947 0.236127
O O11 0.810728 0.524005 0.993532
O O12 0.727820 0.987077 0.667633
O O13 0.500000 0.000000 0.000000
O O14 0.500000 0.500000 0.000000
#
# Coordination Sequence:
#
# PCOD9074736 Si02
#       6
#     2   2   2   2   2   2
#     4  11  26  46  74 109 146 196 249 302 367 443
#     4  12  24  47  76 103 148 195 244 299 372 426
#     4  11  26  47  72 108 150 190 247 296 376 430
#     4  12  27  47  77 104 151 197 243 307 369 434
#     4  12  29  45  73 110 148 187 252 306 362 441
#     4  10  24  46  77 101 149 194 240 300 370 434
#
# _framework density 23.935244999999998
#
# number of rings (size 3 to 8) (size 9 to 14) (size 15 to 20)
#    0.000    0.667    3.333    2.000   11.667    3.333 
#    0.000    0.000    0.000    0.000    0.000    0.000 
#    0.000    0.000    0.000    0.000    0.000    0.000 
#
# Total GULP energy -66870.300643 kJ/mol
# GULP energy per Si atom -5572.525054 kJ/mol
# Density = 2.388077 g / cm^3
# Si number density = 23.935245 Si / 1000 Ang^3
#
#
#
# Elastic Constant Matrix: (Units=GPa)
#
#
# Indices 1 2 3 4 5 6 
#
# 1 71.3493 29.4719 45.7703 -2.1180 10.6406 -7.9769
# 2 29.4719 136.3768 38.9792 16.2808 19.6049 -3.2171
# 3 45.7703 38.9792 191.1654 -2.1166 41.8179 -20.0882
# 4 -2.1180 16.2808 -2.1166 46.3718 5.1738 20.7750
# 5 10.6406 19.6049 41.8179 5.1738 37.3528 3.6454
# 6 -7.9769 -3.2171 -20.0882 20.7750 3.6454 55.3865
#
#
#
# Elastic Compliance Matrix: (Units=1/GPa)
#
#
# Indices 1 2 3 4 5 6 
#
# 1 0.017613 -0.002981 -0.003619 0.001426 0.000353 0.000493
# 2 -0.002981 0.008993 -0.000300 -0.003653 -0.003181 0.001564
# 3 -0.003619 -0.000300 0.008321 -0.000121 -0.008411 0.003078
# 4 0.001426 -0.003653 -0.000121 0.027677 -0.001177 -0.010355
# 5 0.000353 -0.003181 -0.008411 -0.001177 0.038434 -0.005273
# 6 0.000493 0.001564 0.003078 -0.010355 -0.005273 0.023564
#
#
# Mechanical properties :
#
#
# Convention : Reuss Voigt Hill
#
# Bulk Modulus (GPa) = 47.33416 69.70382 58.51899
# Shear Modulus (GPa) = 34.37715 46.80023 40.58869
#
# Velocity S-wave (km/s) = 3.79391 4.42666 4.12244
# Velocity P-wave (km/s) = 6.24584 7.43721 6.86741
#
# Compressibility (1/GPa) = 0.02112639
#
# Stress axis : x y z
#
# Youngs Moduli (GPa) = 56.77522 111.19765 120.18275
#
# Poissons Ratio (x) = 0.33152 0.43493
# Poissons Ratio (y) = 0.16927 0.03606
# Poissons Ratio (z) = 0.20546 0.03337
#
# Static dielectric constant tensor:
#      x y z
#    x 1.888730 0.190720 -0.217570 
#    y 0.190720 1.711130 0.107180 
#    z -0.217570 0.107180 1.949560 
# 
# From -- ./inp_files/188354.got.cif
#   From: 2010.05.17/outbox.ucp.g08.bks.cvg/sg2_95_cif.got.tgz:188354.got - 2010.06.11 11:32:03.
