data_PCOD9074121
_publ_section_title
;
Structure prediction by ZEFSAII (Michael W. Deem and Ramdas Pophale) SiO2 
 PCOD9074121
Probable space group: P -1
;
_chemical_formula_sum "Si O2"
_cell_formula_units_Z 16
_cell_length_a 9.000000
_cell_length_b 9.000000
_cell_length_c 21.000000
_cell_angle_alpha 130.000000
_cell_angle_beta 100.000000
_cell_angle_gamma 120.000000
_cell_volume 751.240448
_symmetry_space_group_name_H-M "P -1"
_symmetry_group_IT_number 2
_symmetry_cell_setting 'triclinic'
loop_
_space_group_symop_operation_xyz
x,y,z
-x,-y,-z
loop_
_atom_site_type_symbol
_atom_site_label
_atom_site_fract_x
_atom_site_fract_y
_atom_site_fract_z
Si Si1 0.899749 0.893489 0.289268
Si Si2 0.030944 0.701248 0.504771
Si Si3 0.477139 0.880897 0.760297
Si Si4 0.873148 0.261322 0.145095
Si Si5 0.344166 0.160810 0.864064
Si Si6 0.387438 0.179124 0.379733
Si Si7 0.529259 0.804413 0.880378
Si Si8 0.532697 0.071834 0.596607
O O1 0.833460 0.947098 0.236193
O O2 0.628112 0.543102 0.201930
O O3 0.026837 0.158999 0.425762
O O4 0.082191 0.902690 0.289269
O O5 0.000000 0.500000 0.500000
O O6 0.833008 0.461068 0.366401
O O7 0.321288 0.004929 0.584560
O O8 0.578742 0.885635 0.704679
O O9 0.577252 0.871999 0.827328
O O10 0.509681 0.147350 0.846743
O O11 0.678462 0.239308 0.135081
O O12 0.178803 0.597689 0.265817
O O13 0.813299 0.074076 0.151529
O O14 0.777870 0.084587 0.020913
O O15 0.500000 0.500000 0.000000
O O16 0.500000 0.500000 0.500000
O O17 0.530065 0.188456 0.442282
O O18 0.500000 0.000000 0.500000
#
# Coordination Sequence:
#
# PCOD9074121 Si02
#       8
#     2   2   2   2   2   2   2   2
#     4  12  23  42  69  99 133 179 230 281 341 408
#     4  12  23  43  68  98 139 177 227 278 346 413
#     4  11  24  44  70 100 137 180 227 281 348 407
#     4  10  22  42  67  97 139 178 226 277 349 405
#     4  11  22  42  73  98 133 186 225 272 348 417
#     4  12  25  43  66 103 138 174 231 286 341 408
#     4  10  22  42  68  97 133 181 225 283 336 411
#     4  12  25  42  69 101 136 181 224 288 350 404
#
# _framework density 21.298107999999999
#
# number of rings (size 3 to 8) (size 9 to 14) (size 15 to 20)
#    0.000    0.750    6.250    1.500    1.750    1.500 
#    0.000    4.375    0.000    0.000    0.000    0.000 
#    0.000    0.000    0.000    0.000    0.000    0.000 
#
# Total GULP energy -89197.232609 kJ/mol
# GULP energy per Si atom -5574.827038 kJ/mol
# Density = 2.124963 g / cm^3
# Si number density = 21.298108 Si / 1000 Ang^3
#
#
#
# Elastic Constant Matrix: (Units=GPa)
#
#
# Indices 1 2 3 4 5 6 
#
# 1 106.1686 39.6253 40.0597 -6.5406 -4.4870 24.4075
# 2 39.6253 100.9033 40.3861 -39.6317 -6.1423 0.2764
# 3 40.0597 40.3861 128.4533 -22.0220 -10.3321 10.0166
# 4 -6.5406 -39.6317 -22.0220 43.7978 2.8244 2.6624
# 5 -4.4870 -6.1423 -10.3321 2.8244 29.0963 -4.1504
# 6 24.4075 0.2764 10.0166 2.6624 -4.1504 28.2122
#
#
#
# Elastic Compliance Matrix: (Units=1/GPa)
#
#
# Indices 1 2 3 4 5 6 
#
# 1 0.015362 -0.006725 -0.002567 -0.004264 -0.001274 -0.012098
# 2 -0.006725 0.019251 -0.001605 0.015194 0.001697 0.005015
# 3 -0.002567 -0.001605 0.009897 0.003066 0.002307 -0.001228
# 4 -0.004264 0.015194 0.003066 0.037565 -0.000167 -0.001119
# 5 -0.001274 0.001697 0.002307 -0.000167 0.036165 0.005602
# 6 -0.012098 0.005015 -0.001228 -0.001119 0.005602 0.047229
#
#
# Mechanical properties :
#
#
# Convention : Reuss Voigt Hill
#
# Bulk Modulus (GPa) = 44.01868 63.96307 53.99088
# Shear Modulus (GPa) = 25.66287 34.58488 30.12388
#
# Velocity S-wave (km/s) = 3.47499 4.03407 3.76492
# Velocity P-wave (km/s) = 6.06741 7.19693 6.65617
#
# Compressibility (1/GPa) = 0.02271763
#
# Stress axis : x y z
#
# Youngs Moduli (GPa) = 65.09576 51.94506 101.04045
#
# Poissons Ratio (x) = 0.34930 0.25934
# Poissons Ratio (y) = 0.43774 0.16218
# Poissons Ratio (z) = 0.16708 0.08338
#
# Static dielectric constant tensor:
#      x y z
#    x 1.780930 0.098220 0.039270 
#    y 0.098220 1.735550 0.010700 
#    z 0.039270 0.010700 1.729910 
# 
# From -- ./inp_files/335836.got.cif
#   From: 2010.05.17/outbox.ucp.g08.bks.cvg/sg2_168_cif.got.tgz:335836.got - 2010.06.11 11:32:03.
