data_PCOD9074300
_publ_section_title
;
Structure prediction by ZEFSAII (Michael W. Deem and Ramdas Pophale) SiO2 
 PCOD9074300
Probable space group: P -1
;
_chemical_formula_sum "Si O2"
_cell_formula_units_Z 15
_cell_length_a 21.000000
_cell_length_b 6.000000
_cell_length_c 6.000000
_cell_angle_alpha 90.000000
_cell_angle_beta 60.000000
_cell_angle_gamma 100.000000
_cell_volume 641.418803
_symmetry_space_group_name_H-M "P -1"
_symmetry_group_IT_number 2
_symmetry_cell_setting 'triclinic'
loop_
_space_group_symop_operation_xyz
x,y,z
-x,-y,-z
loop_
_atom_site_type_symbol
_atom_site_label
_atom_site_fract_x
_atom_site_fract_y
_atom_site_fract_z
Si Si1 0.825020 0.577251 0.300117
Si Si2 0.778879 0.185234 0.755163
Si Si3 0.635882 0.946705 0.791157
Si Si4 0.907335 0.975751 0.449711
Si Si5 0.958450 0.655333 0.726159
Si Si6 0.549470 0.216902 0.287260
Si Si7 0.313154 0.675995 0.675321
Si Si8 0.500000 0.500000 0.000000
O O1 0.808381 0.381356 0.519947
O O2 0.859758 0.823685 0.341422
O O3 0.740534 0.537918 0.347536
O O4 0.889301 0.544155 0.007737
O O5 0.716425 0.975548 0.769531
O O6 0.852483 0.098302 0.687160
O O7 0.738849 0.273172 0.032509
O O8 0.659607 0.098744 0.526022
O O9 0.581921 0.699638 0.882194
O O10 0.590535 0.103361 0.017212
O O11 0.930515 0.804792 0.584685
O O12 0.977546 0.168661 0.249486
O O13 0.000000 0.500000 0.500000
O O14 0.609430 0.355085 0.353170
O O15 0.500000 0.000000 0.500000
O O16 0.510767 0.390754 0.222761
#
# Coordination Sequence:
#
# PCOD9074300 Si02
#       8
#     2   2   2   2   2   2   2   1
#     4  11  23  42  69  97 136 184 229 287 357 409
#     4  10  24  45  66  95 139 179 231 290 349 419
#     4  10  24  44  67 101 137 178 235 292 356 430
#     4  11  24  42  67 103 135 177 238 287 340 433
#     4  11  25  43  67 100 141 183 228 287 357 413
#     4  11  24  46  69 103 146 178 237 300 352 432
#     4  10  22  46  69  93 144 187 223 302 355 417
#     4  12  24  42  72 102 132 190 230 286 372 422
#
# _framework density 23.385656999999998
#
# number of rings (size 3 to 8) (size 9 to 14) (size 15 to 20)
#    0.000    1.333    1.333    3.200    0.000   11.200 
#    0.000    2.667    0.000    0.000    0.000    0.000 
#    0.000    0.000    0.000    0.000    0.000    0.000 
#
# Total GULP energy -83536.830969 kJ/mol
# GULP energy per Si atom -5569.122065 kJ/mol
# Density = 2.333243 g / cm^3
# Si number density = 23.385657 Si / 1000 Ang^3
#
#
#
# Elastic Constant Matrix: (Units=GPa)
#
#
# Indices 1 2 3 4 5 6 
#
# 1 131.6063 59.1986 24.0685 -5.4881 -1.3217 34.2273
# 2 59.1986 90.7454 48.7002 -21.6695 -6.7000 43.0732
# 3 24.0685 48.7002 152.4684 -28.4368 -21.0186 2.9561
# 4 -5.4881 -21.6695 -28.4368 39.5825 1.5197 -15.4351
# 5 -1.3217 -6.7000 -21.0186 1.5197 32.2833 -9.9054
# 6 34.2273 43.0732 2.9561 -15.4351 -9.9054 56.2948
#
#
#
# Elastic Compliance Matrix: (Units=1/GPa)
#
#
# Indices 1 2 3 4 5 6 
#
# 1 0.011319 -0.006580 -0.000584 -0.003610 -0.002087 -0.003174
# 2 -0.006580 0.027749 -0.007751 0.002241 -0.004901 -0.017072
# 3 -0.000584 -0.007751 0.011412 0.007100 0.008251 0.009085
# 4 -0.003610 0.002241 0.007100 0.035085 0.006631 0.010894
# 5 -0.002087 -0.004901 0.008251 0.006631 0.039003 0.013266
# 6 -0.003174 -0.017072 0.009085 0.010894 0.013266 0.037599
#
#
# Mechanical properties :
#
#
# Convention : Reuss Voigt Hill
#
# Bulk Modulus (GPa) = 48.42904 70.97274 59.70089
# Shear Modulus (GPa) = 25.14052 41.82232 33.48142
#
# Velocity S-wave (km/s) = 3.28234 4.23351 3.78790
# Velocity P-wave (km/s) = 5.92611 7.36963 6.68694
#
# Compressibility (1/GPa) = 0.02064877
#
# Stress axis : x y z
#
# Youngs Moduli (GPa) = 88.34668 36.03745 87.62402
#
# Poissons Ratio (x) = 0.23713 0.05121
# Poissons Ratio (y) = 0.58134 0.67918
# Poissons Ratio (z) = 0.05164 0.27933
#
# Static dielectric constant tensor:
#      x y z
#    x 1.972890 0.010930 0.026560 
#    y 0.010930 1.909850 0.065860 
#    z 0.026560 0.065860 1.872720 
# 
# From -- ./inp_files/114635.got.cif
#   From: 2010.05.17/outbox.ucp.g08.bks.cvg/sg2_58_cif.got.tgz:114635.got - 2010.06.11 11:32:03.
