data_PCOD9074058
_publ_section_title
;
Structure prediction by ZEFSAII (Michael W. Deem and Ramdas Pophale) SiO2 
 PCOD9074058
Probable space group: P -1
;
_chemical_formula_sum "Si O2"
_cell_formula_units_Z 16
_cell_length_a 12.000000
_cell_length_b 15.000000
_cell_length_c 12.000000
_cell_angle_alpha 150.000000
_cell_angle_beta 100.000000
_cell_angle_gamma 60.000000
_cell_volume 748.962810
_symmetry_space_group_name_H-M "P -1"
_symmetry_group_IT_number 2
_symmetry_cell_setting 'triclinic'
loop_
_space_group_symop_operation_xyz
x,y,z
-x,-y,-z
loop_
_atom_site_type_symbol
_atom_site_label
_atom_site_fract_x
_atom_site_fract_y
_atom_site_fract_z
Si Si1 0.937063 0.290560 0.472343
Si Si2 0.520150 0.788149 0.498780
Si Si3 0.330195 0.131501 0.048871
Si Si4 0.036670 0.760659 0.305827
Si Si5 0.255067 0.176937 0.691684
Si Si6 0.271012 0.117071 0.369060
Si Si7 0.554337 0.414293 0.237100
Si Si8 0.241807 0.836198 0.782884
O O1 0.795915 0.571701 0.692393
O O2 0.947959 0.245390 0.561361
O O3 0.907646 0.124921 0.235241
O O4 0.103053 0.219217 0.407225
O O5 0.676556 0.738925 0.490909
O O6 0.566486 0.531916 0.259916
O O7 0.416266 0.951294 0.546282
O O8 0.396229 0.980103 0.781393
O O9 0.500000 0.000000 0.000000
O O10 0.244210 0.053780 0.010303
O O11 0.892471 0.792652 0.268841
O O12 0.193308 0.453858 0.980435
O O13 0.000000 0.000000 0.500000
O O14 0.274692 0.105218 0.489525
O O15 0.413770 0.827124 0.043144
O O16 0.380751 0.629526 0.494826
O O17 0.686191 0.307156 0.240413
#
# Coordination Sequence:
#
# PCOD9074058 Si02
#       8
#     2   2   2   2   2   2   2   2
#     4  11  23  40  64  95 127 170 209 266 330 380
#     4  11  22  40  66  88 130 173 216 264 314 384
#     4  11  22  41  70  94 121 167 222 270 318 376
#     4  10  23  39  65  95 131 164 216 267 319 378
#     4  10  23  41  60  96 128 171 218 262 317 385
#     4  11  25  40  60  93 138 168 211 267 325 388
#     4  10  23  41  63  95 124 167 220 265 321 382
#     4  10  22  41  67  92 124 163 221 271 311 380
#
# _framework density 21.362876
#
# number of rings (size 3 to 8) (size 9 to 14) (size 15 to 20)
#    0.000    1.500    1.250    4.125    3.500    4.000 
#    0.000    4.375    0.000    0.000    0.000    0.000 
#    0.000    0.000    0.000    0.000    0.000    0.000 
#
# Total GULP energy -89114.964897 kJ/mol
# GULP energy per Si atom -5569.685306 kJ/mol
# Density = 2.131425 g / cm^3
# Si number density = 21.362876 Si / 1000 Ang^3
#
#
#
# Elastic Constant Matrix: (Units=GPa)
#
#
# Indices 1 2 3 4 5 6 
#
# 1 113.1298 46.4636 5.4799 16.3460 18.2393 -15.9607
# 2 46.4636 121.2738 27.2611 22.6324 4.9935 -0.4768
# 3 5.4799 27.2611 47.8268 7.0998 11.5139 3.3474
# 4 16.3460 22.6324 7.0998 40.7554 8.6651 7.8538
# 5 18.2393 4.9935 11.5139 8.6651 31.6974 3.6660
# 6 -15.9607 -0.4768 3.3474 7.8538 3.6660 37.7420
#
#
#
# Elastic Compliance Matrix: (Units=1/GPa)
#
#
# Indices 1 2 3 4 5 6 
#
# 1 0.013362 -0.004969 0.003187 -0.002717 -0.008091 0.006657
# 2 -0.004969 0.012337 -0.006876 -0.004503 0.004744 -0.000860
# 3 0.003187 -0.006876 0.027001 0.000110 -0.010573 -0.000130
# 4 -0.002717 -0.004503 0.000110 0.030600 -0.005314 -0.007067
# 5 -0.008091 0.004744 -0.010573 -0.005314 0.041367 -0.005336
# 6 0.006657 -0.000860 -0.000130 -0.007067 -0.005336 0.031300
#
#
# Mechanical properties :
#
#
# Convention : Reuss Voigt Hill
#
# Bulk Modulus (GPa) = 28.26214 48.95996 38.61105
# Shear Modulus (GPa) = 27.01538 35.57401 31.29470
#
# Velocity S-wave (km/s) = 3.55997 4.08514 3.83157
# Velocity P-wave (km/s) = 5.49146 6.72452 6.13903
#
# Compressibility (1/GPa) = 0.03538302
#
# Stress axis : x y z
#
# Youngs Moduli (GPa) = 74.83789 81.05641 37.03520
#
# Poissons Ratio (x) = 0.40280 -0.11802
# Poissons Ratio (y) = 0.37190 0.25466
# Poissons Ratio (z) = -0.23849 0.55736
#
# Static dielectric constant tensor:
#      x y z
#    x 1.851150 0.025140 -0.018870 
#    y 0.025140 1.783130 -0.027470 
#    z -0.018870 -0.027470 1.829690 
# 
# From -- ./inp_files/434370.got.cif
#   From: 2010.05.17/outbox.ucp.g08.bks.cvg/sg2_218_cif.got.tgz:434370.got - 2010.06.11 11:32:03.
