data_PCOD9074917
_publ_section_title
;
Structure prediction by ZEFSAII (Michael W. Deem and Ramdas Pophale) SiO2 
 PCOD9074917
Probable space group: P -1
;
_chemical_formula_sum "Si O2"
_cell_formula_units_Z 16
_cell_length_a 9.000000
_cell_length_b 9.000000
_cell_length_c 15.000000
_cell_angle_alpha 130.000000
_cell_angle_beta 110.000000
_cell_angle_gamma 100.000000
_cell_volume 732.374747
_symmetry_space_group_name_H-M "P -1"
_symmetry_group_IT_number 2
_symmetry_cell_setting 'triclinic'
loop_
_space_group_symop_operation_xyz
x,y,z
-x,-y,-z
loop_
_atom_site_type_symbol
_atom_site_label
_atom_site_fract_x
_atom_site_fract_y
_atom_site_fract_z
Si Si1 0.584691 0.720828 0.669917
Si Si2 0.000483 0.526332 0.405423
Si Si3 0.709596 0.293263 0.705544
Si Si4 0.999450 0.085039 0.208903
Si Si5 0.053095 0.937437 0.349776
Si Si6 0.326458 0.315891 0.123945
Si Si7 0.737933 0.637909 0.314085
Si Si8 0.613459 0.110195 0.421119
O O1 0.500000 0.500000 0.500000
O O2 0.589143 0.680918 0.760114
O O3 0.465363 0.824667 0.653505
O O4 0.806763 0.895559 0.765562
O O5 0.168682 0.786150 0.513574
O O6 0.000000 0.500000 0.500000
O O7 0.809610 0.483512 0.311182
O O8 0.043881 0.342316 0.307055
O O9 0.848125 0.202535 0.707501
O O10 0.787019 0.558094 0.840160
O O11 0.625120 0.235085 0.565479
O O12 0.538167 0.150551 0.684483
O O13 0.975326 0.004784 0.275496
O O14 0.820542 0.919860 0.046825
O O15 0.879384 0.779610 0.317867
O O16 0.212359 0.171441 0.524557
O O17 0.524015 0.478116 0.176470
#
# Coordination Sequence:
#
# PCOD9074917 Si02
#       8
#     2   2   2   2   2   2   2   2
#     4  12  21  42  69  97 128 168 227 275 319 384
#     4  12  23  40  68  96 131 172 222 272 326 389
#     4  11  22  40  69  97 131 168 220 275 324 385
#     4  12  26  43  65  99 138 175 214 273 336 394
#     4  11  23  44  69  97 129 172 232 274 318 386
#     4  12  27  43  64  99 142 176 210 270 341 394
#     4  11  24  43  68  97 129 174 227 275 319 390
#     4  11  21  37  69 101 121 165 229 281 315 370
#
# _framework density 21.846738999999999
#
# number of rings (size 3 to 8) (size 9 to 14) (size 15 to 20)
#    0.000    0.500    6.250    3.375    1.750    1.500 
#    0.000    0.000    0.000    0.000    0.000    0.000 
#    0.000    0.000    0.000    0.000    0.000    0.000 
#
# Total GULP energy -89336.593735 kJ/mol
# GULP energy per Si atom -5583.537108 kJ/mol
# Density = 2.179701 g / cm^3
# Si number density = 21.846739 Si / 1000 Ang^3
#
#
#
# Elastic Constant Matrix: (Units=GPa)
#
#
# Indices 1 2 3 4 5 6 
#
# 1 80.2871 29.6647 30.1389 1.6234 19.0831 -4.0575
# 2 29.6647 93.4817 23.2513 -6.7699 -0.6538 -2.8914
# 3 30.1389 23.2513 81.7750 0.1542 28.1354 8.4934
# 4 1.6234 -6.7699 0.1542 15.2756 -5.0209 2.1487
# 5 19.0831 -0.6538 28.1354 -5.0209 25.8273 3.1162
# 6 -4.0575 -2.8914 8.4934 2.1487 3.1162 43.7297
#
#
#
# Elastic Compliance Matrix: (Units=1/GPa)
#
#
# Indices 1 2 3 4 5 6 
#
# 1 0.019550 -0.007291 0.000828 -0.011720 -0.018177 0.003042
# 2 -0.007291 0.016005 -0.007648 0.013444 0.016736 0.000014
# 3 0.000828 -0.007648 0.024693 -0.013240 -0.029985 -0.002438
# 4 -0.011720 0.013444 -0.013240 0.086922 0.040901 -0.004813
# 5 -0.018177 0.016736 -0.029985 0.040901 0.093603 -0.003436
# 6 0.003042 0.000014 -0.002438 -0.004813 -0.003436 0.024106
#
#
# Mechanical properties :
#
#
# Convention : Reuss Voigt Hill
#
# Bulk Modulus (GPa) = 31.22733 46.85039 39.03886
# Shear Modulus (GPa) = 16.45953 28.46577 22.46265
#
# Velocity S-wave (km/s) = 2.74781 3.61359 3.21002
# Velocity P-wave (km/s) = 4.93884 6.23717 5.62559
#
# Compressibility (1/GPa) = 0.03202323
#
# Stress axis : x y z
#
# Youngs Moduli (GPa) = 51.15201 62.48225 40.49759
#
# Poissons Ratio (x) = 0.45558 -0.03353
# Poissons Ratio (y) = 0.37297 0.30974
# Poissons Ratio (z) = -0.04235 0.47789
#
# Static dielectric constant tensor:
#      x y z
#    x 1.859220 0.052700 -0.043700 
#    y 0.052700 1.884430 0.026910 
#    z -0.043700 0.026910 1.734350 
# 
# From -- ./inp_files/187828.got.cif
#   From: 2010.05.17/outbox.ucp.g08.bks.cvg/sg2_94_cif.got.tgz:187828.got - 2010.06.11 11:32:03.
