data_PCOD9074031
_publ_section_title
;
Structure prediction by ZEFSAII (Michael W. Deem and Ramdas Pophale) SiO2 
 PCOD9074031
Probable space group: P -1
;
_chemical_formula_sum "Si O2"
_cell_formula_units_Z 10
_cell_length_a 9.000000
_cell_length_b 15.000000
_cell_length_c 15.000000
_cell_angle_alpha 160.000000
_cell_angle_beta 40.000000
_cell_angle_gamma 140.000000
_cell_volume 435.248455
_symmetry_space_group_name_H-M "P -1"
_symmetry_group_IT_number 2
_symmetry_cell_setting 'triclinic'
loop_
_space_group_symop_operation_xyz
x,y,z
-x,-y,-z
loop_
_atom_site_type_symbol
_atom_site_label
_atom_site_fract_x
_atom_site_fract_y
_atom_site_fract_z
Si Si1 0.295530 0.831817 0.308590
Si Si2 0.117713 0.609343 0.887826
Si Si3 0.352751 0.125865 0.375261
Si Si4 0.795516 0.896214 0.207734
Si Si5 0.139032 0.791917 0.702567
O O1 0.544940 0.751955 0.143422
O O2 0.115707 0.556868 0.112532
O O3 0.274941 0.028042 0.420326
O O4 0.234315 0.980831 0.565725
O O5 0.272220 0.378992 0.604827
O O6 0.996211 0.721615 0.962738
O O7 0.261690 0.868454 0.114233
O O8 0.629343 0.184916 0.322309
O O9 0.841540 0.140620 0.347659
O O10 0.000000 0.500000 0.500000
O O11 0.000000 0.000000 0.000000
#
# Coordination Sequence:
#
# PCOD9074031 Si02
#       5
#     2   2   2   2   2
#     4  10  22  41  65 100 138 169 204 255 325 396
#     4  12  22  41  63 105 135 163 204 266 326 383
#     4  11  25  40  68  99 130 170 209 260 328 380
#     4  10  24  41  68  98 129 173 215 259 318 383
#     4  11  26  50  69  87 124 176 225 266 313 380
#
# _framework density 22.975383000000001
#
# number of rings (size 3 to 8) (size 9 to 14) (size 15 to 20)
#    0.000    1.200    2.000    3.000    5.600    0.000 
#    0.000    6.000    0.000    0.000    0.000    0.000 
#    0.000    0.000    0.000    0.000    0.000    0.000 
#
# Total GULP energy -55760.536815 kJ/mol
# GULP energy per Si atom -5576.053682 kJ/mol
# Density = 2.292309 g / cm^3
# Si number density = 22.975383 Si / 1000 Ang^3
#
#
#
# Elastic Constant Matrix: (Units=GPa)
#
#
# Indices 1 2 3 4 5 6 
#
# 1 135.3728 27.3920 61.5395 21.0138 -55.6967 59.6533
# 2 27.3920 55.9794 37.4489 24.9638 -14.4876 46.6433
# 3 61.5395 37.4489 138.2840 44.0144 -27.9930 36.5774
# 4 21.0138 24.9638 44.0144 21.3054 -7.3158 11.4358
# 5 -55.6967 -14.4876 -27.9930 -7.3158 49.8885 9.5916
# 6 59.6533 46.6433 36.5774 11.4358 9.5916 21.2239
#
#
#
# Elastic Compliance Matrix: (Units=1/GPa)
#
#
# Indices 1 2 3 4 5 6 
#
# 1 0.008597 -0.013531 -0.008497 0.022101 0.002787 0.007049
# 2 -0.013531 0.018166 0.002388 -0.026092 -0.015185 0.014915
# 3 -0.008497 0.002388 0.021862 -0.045038 -0.004528 0.007270
# 4 0.022101 -0.026092 -0.045038 0.173430 0.023239 -0.031108
# 5 0.002787 -0.015185 -0.004528 0.023239 0.017095 0.013095
# 6 0.007049 0.014915 0.007270 -0.031108 0.013095 -0.007160
#
#
# Mechanical properties :
#
#
# Convention : Reuss Voigt Hill
#
# Bulk Modulus (GPa) = 107.01149 64.71076 85.86113
# Shear Modulus (GPa) = 18.22267 32.03395 25.12831
#
# Velocity S-wave (km/s) = 2.81933 3.73805 3.31071
# Velocity P-wave (km/s) = 7.56808 6.84522 7.21571
#
# Compressibility (1/GPa) = 0.00934479
#
# Stress axis : x y z
#
# Youngs Moduli (GPa) = 116.32217 55.04918 45.74231
#
# Poissons Ratio (x) = 0.74487 0.38865
# Poissons Ratio (y) = 1.57396 -0.10923
# Poissons Ratio (z) = 0.98834 -0.13145
#
# Static dielectric constant tensor:
#      x y z
#    x 1.841430 -0.002020 -0.030220 
#    y -0.002020 2.028480 -0.078400 
#    z -0.030220 -0.078400 1.807880 
# 
# From -- ./inp_files/17325.got.cif
#   From: 2010.05.17/outbox.ucp.g08.bks.cvg/sg2_9_cif.got.tgz:17325.got - 2010.06.11 11:32:03.
