data_PCOD9074400
_publ_section_title
;
Structure prediction by ZEFSAII (Michael W. Deem and Ramdas Pophale) SiO2 
 PCOD9074400
Probable space group: P -1
;
_chemical_formula_sum "Si O2"
_cell_formula_units_Z 16
_cell_length_a 9.597213
_cell_length_b 8.052875
_cell_length_c 9.573204
_cell_angle_alpha 90.552031
_cell_angle_beta 112.452194
_cell_angle_gamma 65.124781
_cell_volume 610.201434
_symmetry_space_group_name_H-M "P -1"
_symmetry_group_IT_number 2
_symmetry_cell_setting 'triclinic'
loop_
_space_group_symop_operation_xyz
x,y,z
-x,-y,-z
loop_
_atom_site_type_symbol
_atom_site_label
_atom_site_fract_x
_atom_site_fract_y
_atom_site_fract_z
Si Si1 0.112079 0.925356 0.181493
Si Si2 0.277053 0.177607 0.195366
Si Si3 0.195407 0.425547 0.529928
Si Si4 0.796429 0.466507 0.188371
Si Si5 0.665601 0.481656 0.831962
Si Si6 0.273743 0.710542 0.607750
Si Si7 0.668746 0.963744 0.392875
Si Si8 0.158458 0.193703 0.837175
O O1 0.270012 0.725164 0.205219
O O2 0.987646 0.870074 0.221571
O O3 0.163194 0.092343 0.223134
O O4 0.000000 0.000000 0.000000
O O5 0.244019 0.393372 0.187695
O O6 0.468781 0.059917 0.316246
O O7 0.259486 0.141544 0.021681
O O8 0.302139 0.400202 0.716706
O O9 0.235995 0.581804 0.483228
O O10 0.262443 0.224856 0.494147
O O11 0.000000 0.500000 0.500000
O O12 0.841077 0.282263 0.299662
O O13 0.902137 0.580730 0.191214
O O14 0.705004 0.459039 0.013427
O O15 0.468337 0.611817 0.730191
O O16 0.252136 0.899732 0.534053
O O17 0.731934 0.908449 0.256821
#
# Coordination Sequence:
#
# PCOD9074400 Si02
#       8
#     2   2   2   2   2   2   2   2
#     4  10  21  29  44  68 104 143 159 192 240 288
#     4   9  19  30  47  69  94 135 164 199 237 277
#     4   9  19  32  46  72 104 125 156 206 252 289
#     4   8  18  30  48  71  97 131 160 196 243 281
#     4  10  18  33  47  71 105 128 169 195 234 300
#     4   9  19  30  52  75  92 135 158 200 248 280
#     4  10  18  32  51  71  95 126 171 201 234 299
#     4   9  18  31  43  72 105 133 163 192 240 292
#
# _framework density 26.220848
#
# number of rings (size 3 to 8) (size 9 to 14) (size 15 to 20)
#    0.750    2.000    0.000    1.500    3.500    6.000 
#    0.000    0.000    0.000    0.000    0.000   14.000 
#    0.000   45.000    0.000    0.000    0.000    0.000 
#
# Total GULP energy -89119.217288 kJ/mol
# GULP energy per Si atom -5569.951080 kJ/mol
# Density = 2.616117 g / cm^3
# Si number density = 26.220848 Si / 1000 Ang^3
#
#
#
# Elastic Constant Matrix: (Units=GPa)
#
#
# Indices 1 2 3 4 5 6 
#
# 1 129.5456 27.2388 24.6829 2.5268 15.5505 28.1363
# 2 27.2388 89.1784 32.4833 7.5388 6.1782 42.4806
# 3 24.6829 32.4833 87.6525 8.0128 -8.5776 12.0558
# 4 2.5268 7.5388 8.0128 44.1795 12.6337 3.6467
# 5 15.5505 6.1782 -8.5776 12.6337 33.3707 8.8025
# 6 28.1363 42.4806 12.0558 3.6467 8.8025 63.0149
#
#
#
# Elastic Compliance Matrix: (Units=1/GPa)
#
#
# Indices 1 2 3 4 5 6 
#
# 1 0.009513 -0.000290 -0.002809 0.001676 -0.004966 -0.002918
# 2 -0.000290 0.018809 -0.005399 -0.000874 -0.001432 -0.011266
# 3 -0.002809 -0.005399 0.015105 -0.003854 0.007333 0.001203
# 4 0.001676 -0.000874 -0.003854 0.026737 -0.011916 0.000696
# 5 -0.004966 -0.001432 0.007333 -0.011916 0.039755 -0.003084
# 6 -0.002918 -0.011266 0.001203 0.000696 -0.003084 0.024928
#
#
# Mechanical properties :
#
#
# Convention : Reuss Voigt Hill
#
# Bulk Modulus (GPa) = 37.83654 52.79850 45.31752
# Shear Modulus (GPa) = 31.12294 42.91114 37.01704
#
# Velocity S-wave (km/s) = 3.44896 4.04979 3.76139
# Velocity P-wave (km/s) = 5.50651 6.48441 6.01536
#
# Compressibility (1/GPa) = 0.02642948
#
# Stress axis : x y z
#
# Youngs Moduli (GPa) = 105.12325 53.16677 66.20274
#
# Poissons Ratio (x) = 0.01542 0.18597
# Poissons Ratio (y) = 0.03050 0.35745
# Poissons Ratio (z) = 0.29530 0.28706
#
# Static dielectric constant tensor:
#      x y z
#    x 2.112100 0.091620 -0.049000 
#    y 0.091620 2.288130 0.029420 
#    z -0.049000 0.029420 2.125830 
# 
# From -- ./inp_files/387409.got.cif
#   From: 2010.05.17/outbox.cif.g08.bks.cpg/sg2_194_cif.got.tgz:387409.got - 2010.06.03 11:33:40.
