data_PCOD9074662
_publ_section_title
;
Structure prediction by ZEFSAII (Michael W. Deem and Ramdas Pophale) SiO2 
 PCOD9074662
Probable space group: P -1
;
_chemical_formula_sum "Si O2"
_cell_formula_units_Z 16
_cell_length_a 12.000000
_cell_length_b 12.000000
_cell_length_c 12.000000
_cell_angle_alpha 130.000000
_cell_angle_beta 100.000000
_cell_angle_gamma 120.000000
_cell_volume 763.164900
_symmetry_space_group_name_H-M "P -1"
_symmetry_group_IT_number 2
_symmetry_cell_setting 'triclinic'
loop_
_space_group_symop_operation_xyz
x,y,z
-x,-y,-z
loop_
_atom_site_type_symbol
_atom_site_label
_atom_site_fract_x
_atom_site_fract_y
_atom_site_fract_z
Si Si1 0.852245 0.400317 0.815155
Si Si2 0.994821 0.208931 0.081086
Si Si3 0.690392 0.491279 0.969791
Si Si4 0.718609 0.659357 0.630052
Si Si5 0.688221 0.813963 0.156576
Si Si6 0.019920 0.755474 0.365367
Si Si7 0.735230 0.090563 0.151539
Si Si8 0.274251 0.594977 0.705607
O O1 0.840482 0.236177 0.637943
O O2 0.952159 0.616779 0.888200
O O3 0.684898 0.331249 0.796722
O O4 0.000000 0.500000 0.000000
O O5 0.863007 0.150673 0.114685
O O6 0.189587 0.339207 0.250405
O O7 0.864780 0.947351 0.835334
O O8 0.685349 0.643440 0.002792
O O9 0.891910 0.679491 0.191668
O O10 0.517061 0.341124 0.931512
O O11 0.500000 0.500000 0.500000
O O12 0.741778 0.570160 0.474670
O O13 0.838221 0.975092 0.388166
O O14 0.764620 0.014351 0.212292
O O15 0.861107 0.548815 0.300436
O O16 0.777783 0.308372 0.306482
O O17 0.503767 0.842267 0.930237
#
# Coordination Sequence:
#
# PCOD9074662 Si02
#       8
#     2   2   2   2   2   2   2   2
#     4  10  24  44  68  93 134 172 217 269 322 388
#     4  11  24  44  68  98 134 173 219 267 334 390
#     4  10  24  45  62  94 132 169 215 269 316 381
#     4  11  25  42  65 100 133 174 216 272 331 393
#     4  11  24  41  70  94 127 171 218 264 324 385
#     4  11  22  43  66  95 126 170 220 262 323 382
#     4  11  23  42  70  99 132 173 213 276 330 384
#     4  11  23  40  68  98 135 168 217 273 329 391
#
# _framework density 20.965325
#
# number of rings (size 3 to 8) (size 9 to 14) (size 15 to 20)
#    0.000    1.250    3.750    1.125    7.000    1.500 
#    0.000    0.000    0.000    0.000    0.000    0.000 
#    0.000    0.000    0.000    0.000    0.000    0.000 
#
# Total GULP energy -89274.361005 kJ/mol
# GULP energy per Si atom -5579.647563 kJ/mol
# Density = 2.091761 g / cm^3
# Si number density = 20.965325 Si / 1000 Ang^3
#
#
#
# Elastic Constant Matrix: (Units=GPa)
#
#
# Indices 1 2 3 4 5 6 
#
# 1 188.4012 23.9709 25.4742 1.6822 -14.4392 5.1425
# 2 23.9709 49.7338 -18.9880 -6.6484 1.1194 -6.0329
# 3 25.4742 -18.9880 50.8179 -7.2547 2.2889 2.2048
# 4 1.6822 -6.6484 -7.2547 13.1201 0.0909 -0.9534
# 5 -14.4392 1.1194 2.2889 0.0909 53.1976 -1.0499
# 6 5.1425 -6.0329 2.2048 -0.9534 -1.0499 39.4272
#
#
#
# Elastic Compliance Matrix: (Units=1/GPa)
#
#
# Indices 1 2 3 4 5 6 
#
# 1 0.008039 -0.009063 -0.008984 -0.010764 0.002736 -0.002120
# 2 -0.009063 0.039221 0.024081 0.034859 -0.004251 0.006567
# 3 -0.008984 0.024081 0.038198 0.034758 -0.004580 0.003439
# 4 -0.010764 0.034859 0.034758 0.115059 -0.005200 0.007438
# 5 0.002736 -0.004251 -0.004580 -0.005200 0.019829 -0.000349
# 6 -0.002120 0.006567 0.003439 0.007438 -0.000349 0.026623
#
#
# Mechanical properties :
#
#
# Convention : Reuss Voigt Hill
#
# Bulk Modulus (GPa) = 10.25358 38.87414 24.56386
# Shear Modulus (GPa) = 18.69788 38.38201 28.53994
#
# Velocity S-wave (km/s) = 2.98962 4.28335 3.69357
# Velocity P-wave (km/s) = 4.10103 6.56088 5.47100
#
# Compressibility (1/GPa) = 0.09752694
#
# Stress axis : x y z
#
# Youngs Moduli (GPa) = 124.38890 25.49653 26.17910
#
# Poissons Ratio (x) = 0.23106 0.23519
# Poissons Ratio (y) = 1.12728 -0.63041
# Poissons Ratio (z) = 1.11751 -0.61397
#
# Static dielectric constant tensor:
#      x y z
#    x 1.754170 0.006820 -0.014040 
#    y 0.006820 1.767240 -0.041090 
#    z -0.014040 -0.041090 1.810610 
# 
# From -- ./inp_files/428950.got.cif
#   From: 2010.05.17/outbox.ucp.g08.bks.cvg/sg2_215_cif.got.tgz:428950.got - 2010.06.11 11:32:03.
