data_PCOD9074780
_publ_section_title
;
Structure prediction by ZEFSAII (Michael W. Deem and Ramdas Pophale) SiO2 
 PCOD9074780
Probable space group: P -1
;
_chemical_formula_sum "Si O2"
_cell_formula_units_Z 14
_cell_length_a 15.000000
_cell_length_b 6.000000
_cell_length_c 24.000000
_cell_angle_alpha 90.000000
_cell_angle_beta 160.000000
_cell_angle_gamma 80.000000
_cell_volume 636.464036
_symmetry_space_group_name_H-M "P -1"
_symmetry_group_IT_number 2
_symmetry_cell_setting 'triclinic'
loop_
_space_group_symop_operation_xyz
x,y,z
-x,-y,-z
loop_
_atom_site_type_symbol
_atom_site_label
_atom_site_fract_x
_atom_site_fract_y
_atom_site_fract_z
Si Si1 0.162597 0.651028 0.482609
Si Si2 0.520662 0.174481 0.758319
Si Si3 0.131779 0.410081 0.791501
Si Si4 0.744898 0.712594 0.809047
Si Si5 0.711787 0.075156 0.291327
Si Si6 0.784105 0.128747 0.113062
Si Si7 0.819434 0.337759 0.017931
O O1 0.232223 0.449348 0.573263
O O2 0.448131 0.685966 0.640709
O O3 0.113196 0.525085 0.399782
O O4 0.864196 0.921411 0.323969
O O5 0.757362 0.240394 0.923367
O O6 0.635681 0.992108 0.772370
O O7 0.454663 0.035385 0.769438
O O8 0.084703 0.681776 0.788639
O O9 0.118099 0.175690 0.817602
O O10 0.453771 0.276173 0.948073
O O11 0.000000 0.500000 0.000000
O O12 0.875545 0.667598 0.822502
O O13 0.467551 0.375816 0.138850
O O14 0.000000 0.000000 0.500000
O O15 0.819253 0.162047 0.067953
#
# Coordination Sequence:
#
# PCOD9074780 Si02
#       7
#     2   2   2   2   2   2   2
#     4  12  26  41  70 102 139 182 228 293 354 418
#     4  12  23  40  69  98 139 180 229 285 354 427
#     4  10  25  47  71 102 138 184 239 297 353 409
#     4  12  24  45  62 101 146 185 223 278 358 434
#     4  12  23  39  62 104 141 167 228 291 351 419
#     4  10  25  46  72 101 139 184 241 295 350 412
#     4  12  26  42  69 100 138 185 233 284 353 423
#
# _framework density 21.99653
#
# number of rings (size 3 to 8) (size 9 to 14) (size 15 to 20)
#    0.000    0.571    5.714    1.714   12.000    0.000 
#    0.000    1.429    0.000    0.000    0.000    0.000 
#    0.000    0.000    0.000    0.000    0.000    0.000 
#
# Total GULP energy -78075.541876 kJ/mol
# GULP energy per Si atom -5576.824420 kJ/mol
# Density = 2.194646 g / cm^3
# Si number density = 21.996530 Si / 1000 Ang^3
#
#
#
# Elastic Constant Matrix: (Units=GPa)
#
#
# Indices 1 2 3 4 5 6 
#
# 1 122.3121 39.9165 31.1419 0.2218 2.8672 25.1340
# 2 39.9165 127.8297 39.1260 11.4142 -3.8345 0.6077
# 3 31.1419 39.1260 43.5569 2.2882 6.5447 -5.6017
# 4 0.2218 11.4142 2.2882 15.6058 -12.6038 -5.3973
# 5 2.8672 -3.8345 6.5447 -12.6038 30.6638 -2.1995
# 6 25.1340 0.6077 -5.6017 -5.3973 -2.1995 47.8959
#
#
#
# Elastic Compliance Matrix: (Units=1/GPa)
#
#
# Indices 1 2 3 4 5 6 
#
# 1 0.012315 -0.001057 -0.008713 -0.001096 -0.000420 -0.007611
# 2 -0.001057 0.011811 -0.009753 -0.007272 0.000559 -0.001530
# 3 -0.008713 -0.009753 0.040774 -0.003923 -0.010106 0.008559
# 4 -0.001096 -0.007272 -0.003923 0.114029 0.047995 0.015263
# 5 -0.000420 0.000559 -0.010106 0.047995 0.055106 0.006971
# 6 -0.007611 -0.001530 0.008559 0.015263 0.006971 0.027933
#
#
# Mechanical properties :
#
#
# Convention : Reuss Voigt Hill
#
# Bulk Modulus (GPa) = 38.67839 57.11860 47.89850
# Shear Modulus (GPa) = 16.14811 31.06738 23.60775
#
# Velocity S-wave (km/s) = 2.71241 3.76224 3.27960
# Velocity P-wave (km/s) = 5.23752 6.70045 6.01363
#
# Compressibility (1/GPa) = 0.02585423
#
# Stress axis : x y z
#
# Youngs Moduli (GPa) = 81.20063 84.66345 24.52525
#
# Poissons Ratio (x) = 0.08950 0.21370
# Poissons Ratio (y) = 0.08584 0.23919
# Poissons Ratio (z) = 0.70754 0.82570
#
# Static dielectric constant tensor:
#      x y z
#    x 1.829030 0.005090 0.010140 
#    y 0.005090 1.891330 0.057000 
#    z 0.010140 0.057000 1.878620 
# 
# From -- ./inp_files/27024.got.cif
#   From: 2010.05.17/outbox.ucp.g08.bks.cvg/sg2_14_cif.got.tgz:27024.got - 2010.06.11 11:32:03.
