data_PCOD9074999
_publ_section_title
;
Structure prediction by ZEFSAII (Michael W. Deem and Ramdas Pophale) SiO2 
 PCOD9074999
Probable space group: P -1
;
_chemical_formula_sum "Si O2"
_cell_formula_units_Z 16
_cell_length_a 12.000000
_cell_length_b 15.000000
_cell_length_c 9.000000
_cell_angle_alpha 140.000000
_cell_angle_beta 50.000000
_cell_angle_gamma 130.000000
_cell_volume 759.581896
_symmetry_space_group_name_H-M "P -1"
_symmetry_group_IT_number 2
_symmetry_cell_setting 'triclinic'
loop_
_space_group_symop_operation_xyz
x,y,z
-x,-y,-z
loop_
_atom_site_type_symbol
_atom_site_label
_atom_site_fract_x
_atom_site_fract_y
_atom_site_fract_z
Si Si1 0.999031 0.677401 0.829140
Si Si2 0.154094 0.104167 0.809679
Si Si3 0.401954 0.101919 0.100103
Si Si4 0.862389 0.818650 0.737046
Si Si5 0.739321 0.190296 0.001098
Si Si6 0.507617 0.906198 0.519337
Si Si7 0.213291 0.648168 0.387532
Si Si8 0.064326 0.651186 0.222469
O O1 0.871973 0.520796 0.711863
O O2 0.143847 0.698696 0.842930
O O3 0.097134 0.728281 0.659636
O O4 0.906892 0.785575 0.094957
O O5 0.319267 0.095008 0.611772
O O6 0.174128 0.171144 0.045161
O O7 0.011633 0.957491 0.752487
O O8 0.288945 0.177593 0.216939
O O9 0.566276 0.202528 0.150406
O O10 0.295942 0.979159 0.142830
O O11 0.453104 0.996054 0.806859
O O12 0.921649 0.686528 0.465674
O O13 0.838273 0.225463 0.813203
O O14 0.383582 0.744579 0.407354
O O15 0.500000 0.000000 0.500000
O O16 0.188127 0.644041 0.229457
O O17 0.000000 0.500000 0.000000
#
# Coordination Sequence:
#
# PCOD9074999 Si02
#       8
#     2   2   2   2   2   2   2   2
#     4  11  22  44  69  95 132 178 220 274 330 396
#     4  11  22  38  69 103 131 163 225 282 330 385
#     4  11  23  42  67  97 135 168 217 279 336 388
#     4  11  22  41  66 100 131 170 224 276 327 396
#     4  11  23  43  64  96 136 172 212 272 337 392
#     4  12  22  39  69 102 132 171 219 278 330 388
#     4  11  23  42  69  92 133 180 224 266 330 398
#     4  12  25  43  66  94 132 182 223 263 331 402
#
# _framework density 21.064219999999999
#
# number of rings (size 3 to 8) (size 9 to 14) (size 15 to 20)
#    0.000    0.750    6.250    2.250    0.000    1.000 
#    4.500    0.625    5.500    0.000    0.000    0.000 
#    0.000    0.000    0.000    0.000    0.000    0.000 
#
# Total GULP energy -89242.320273 kJ/mol
# GULP energy per Si atom -5577.645017 kJ/mol
# Density = 2.101628 g / cm^3
# Si number density = 21.064220 Si / 1000 Ang^3
#
#
#
# Elastic Constant Matrix: (Units=GPa)
#
#
# Indices 1 2 3 4 5 6 
#
# 1 120.5301 29.8458 29.1077 3.5778 -13.6451 37.3350
# 2 29.8458 85.9708 25.1864 -9.9814 4.0403 24.9267
# 3 29.1077 25.1864 88.1383 4.0467 -8.7711 12.9709
# 4 3.5778 -9.9814 4.0467 29.1967 3.4756 7.7483
# 5 -13.6451 4.0403 -8.7711 3.4756 31.5946 -6.4048
# 6 37.3350 24.9267 12.9709 7.7483 -6.4048 38.9865
#
#
#
# Elastic Compliance Matrix: (Units=1/GPa)
#
#
# Indices 1 2 3 4 5 6 
#
# 1 0.012549 -0.000616 -0.002186 0.001079 0.002607 -0.010683
# 2 -0.000616 0.018839 -0.004510 0.011696 -0.007968 -0.013588
# 3 -0.002186 -0.004510 0.013688 -0.004204 0.004293 0.001964
# 4 0.001079 0.011696 -0.004204 0.044686 -0.010711 -0.017754
# 5 0.002607 -0.007968 0.004293 -0.010711 0.038104 0.009558
# 6 -0.010683 -0.013588 0.001964 -0.017754 0.009558 0.049013
#
#
# Mechanical properties :
#
#
# Convention : Reuss Voigt Hill
#
# Bulk Modulus (GPa) = 32.83946 51.43544 42.13745
# Shear Modulus (GPa) = 24.79481 33.98886 29.39184
#
# Velocity S-wave (km/s) = 3.43462 4.02130 3.73948
# Velocity P-wave (km/s) = 5.59936 6.78473 6.22034
#
# Compressibility (1/GPa) = 0.03045117
#
# Stress axis : x y z
#
# Youngs Moduli (GPa) = 79.68514 53.08047 73.05730
#
# Poissons Ratio (x) = 0.03270 0.15973
# Poissons Ratio (y) = 0.04909 0.32951
# Poissons Ratio (z) = 0.17422 0.23941
#
# Static dielectric constant tensor:
#      x y z
#    x 1.814810 -0.083810 0.065420 
#    y -0.083810 1.841770 -0.021430 
#    z 0.065420 -0.021430 1.806510 
# 
# From -- ./inp_files/259958.got.cif
#   From: 2010.05.17/outbox.ucp.g08.bks.cvg/sg2_130_cif.got.tgz:259958.got - 2010.06.11 11:32:03.
