data_PCOD9074573
_publ_section_title
;
Structure prediction by ZEFSAII (Michael W. Deem and Ramdas Pophale) SiO2 
 PCOD9074573
Probable space group: P -1
;
_chemical_formula_sum "Si O2"
_cell_formula_units_Z 14
_cell_length_a 21.000000
_cell_length_b 12.000000
_cell_length_c 9.000000
_cell_angle_alpha 120.000000
_cell_angle_beta 140.000000
_cell_angle_gamma 30.000000
_cell_volume 627.666119
_symmetry_space_group_name_H-M "P -1"
_symmetry_group_IT_number 2
_symmetry_cell_setting 'triclinic'
loop_
_space_group_symop_operation_xyz
x,y,z
-x,-y,-z
loop_
_atom_site_type_symbol
_atom_site_label
_atom_site_fract_x
_atom_site_fract_y
_atom_site_fract_z
Si Si1 0.639491 0.322049 0.773593
Si Si2 0.455931 0.414347 0.792755
Si Si3 0.196927 0.616370 0.694564
Si Si4 0.186753 0.091787 0.719105
Si Si5 0.859333 0.857670 0.686403
Si Si6 0.220496 0.318658 0.078816
Si Si7 0.314541 0.206359 0.519890
O O1 0.500000 0.500000 0.500000
O O2 0.518222 0.367323 0.703944
O O3 0.806849 0.043119 0.812466
O O4 0.712007 0.373988 0.023992
O O5 0.241427 0.613021 0.602630
O O6 0.500000 0.500000 0.000000
O O7 0.609380 0.155895 0.989936
O O8 0.279149 0.374275 0.671576
O O9 0.966431 0.849160 0.472473
O O10 0.196662 0.077520 0.547078
O O11 0.125126 0.297777 0.818534
O O12 0.752874 0.851847 0.564489
O O13 0.093744 0.572431 0.942687
O O14 0.214848 0.329599 0.257116
O O15 0.450204 0.067771 0.275909
#
# Coordination Sequence:
#
# PCOD9074573 Si02
#       7
#     2   2   2   2   2   2   2
#     4  11  27  50  73 108 146 187 237 301 363 426
#     4  10  23  47  71  98 141 189 234 291 352 423
#     4  11  25  47  75 104 142 194 236 289 360 427
#     4  12  25  46  71 109 146 186 242 295 357 424
#     4  12  26  45  72 108 150 187 239 302 352 428
#     4  11  25  44  71 107 145 187 241 298 357 417
#     4  11  25  46  76 106 143 193 242 294 359 425
#
# _framework density 22.304852
#
# number of rings (size 3 to 8) (size 9 to 14) (size 15 to 20)
#    0.000    0.857    2.857    3.429    4.000    5.714 
#    0.000    0.000    0.000    0.000    0.000    0.000 
#    0.000    0.000    0.000    0.000    0.000    0.000 
#
# Total GULP energy -78095.323123 kJ/mol
# GULP energy per Si atom -5578.237366 kJ/mol
# Density = 2.225409 g / cm^3
# Si number density = 22.304852 Si / 1000 Ang^3
#
#
#
# Elastic Constant Matrix: (Units=GPa)
#
#
# Indices 1 2 3 4 5 6 
#
# 1 120.2666 14.8471 45.8980 -0.2076 -11.9814 -22.4360
# 2 14.8471 135.5918 27.4995 26.2998 -8.2507 3.3318
# 3 45.8980 27.4995 95.2358 19.8079 -4.4478 -13.1757
# 4 -0.2076 26.2998 19.8079 39.5536 -0.5533 -7.9766
# 5 -11.9814 -8.2507 -4.4478 -0.5533 53.2617 9.1874
# 6 -22.4360 3.3318 -13.1757 -7.9766 9.1874 23.7330
#
#
#
# Elastic Compliance Matrix: (Units=1/GPa)
#
#
# Indices 1 2 3 4 5 6 
#
# 1 0.012709 -0.001775 -0.005327 0.006195 0.000256 0.011289
# 2 -0.001775 0.009490 -0.001277 -0.007040 0.002080 -0.006890
# 3 -0.005327 -0.001277 0.014944 -0.006371 -0.000470 0.001480
# 4 0.006195 -0.007040 -0.006371 0.036501 -0.002718 0.016628
# 5 0.000256 0.002080 -0.000470 -0.002718 0.020680 -0.009229
# 6 0.011289 -0.006890 0.001480 0.016628 -0.009229 0.063758
#
#
# Mechanical properties :
#
#
# Convention : Reuss Voigt Hill
#
# Bulk Modulus (GPa) = 49.05327 58.62037 53.83682
# Shear Modulus (GPa) = 27.52780 40.83299 34.18039
#
# Velocity S-wave (km/s) = 3.51688 4.28328 3.91886
# Velocity P-wave (km/s) = 6.20735 7.12745 6.68325
#
# Compressibility (1/GPa) = 0.02038600
#
# Stress axis : x y z
#
# Youngs Moduli (GPa) = 78.68279 105.37766 66.91518
#
# Poissons Ratio (x) = 0.18700 0.35648
# Poissons Ratio (y) = 0.13963 0.08543
# Poissons Ratio (z) = 0.41917 0.13454
#
# Static dielectric constant tensor:
#      x y z
#    x 2.808850 2.442240 -0.560870 
#    y 2.442240 8.081730 -1.560630 
#    z -0.560870 -1.560630 2.181910 
# 
# From -- ./inp_files/346304.got.cif
#   From: 2010.05.17/outbox.ucp.g08.bks.cvg/sg2_174_cif.got.tgz:346304.got - 2010.06.11 11:32:03.
