data_PCOD9074802
_publ_section_title
;
Structure prediction by ZEFSAII (Michael W. Deem and Ramdas Pophale) SiO2 
 PCOD9074802
Probable space group: P -1
;
_chemical_formula_sum "Si O2"
_cell_formula_units_Z 13
_cell_length_a 9.000000
_cell_length_b 9.000000
_cell_length_c 12.000000
_cell_angle_alpha 140.000000
_cell_angle_beta 100.000000
_cell_angle_gamma 60.000000
_cell_volume 501.352703
_symmetry_space_group_name_H-M "P -1"
_symmetry_group_IT_number 2
_symmetry_cell_setting 'triclinic'
loop_
_space_group_symop_operation_xyz
x,y,z
-x,-y,-z
loop_
_atom_site_type_symbol
_atom_site_label
_atom_site_fract_x
_atom_site_fract_y
_atom_site_fract_z
Si Si1 0.000000 0.000000 0.500000
Si Si2 0.564526 0.879250 0.687525
Si Si3 0.211552 0.956396 0.290649
Si Si4 0.942931 0.225058 0.025855
Si Si5 0.677880 0.451227 0.656548
Si Si6 0.562421 0.633816 0.309687
Si Si7 0.822614 0.634777 0.973283
O O1 0.924854 0.898787 0.540107
O O2 0.807309 0.114185 0.464033
O O3 0.632023 0.627934 0.641361
O O4 0.534216 0.815112 0.520279
O O5 0.743289 0.884052 0.699777
O O6 0.376091 0.158621 0.874670
O O7 0.134613 0.820515 0.124538
O O8 0.413697 0.754401 0.259546
O O9 0.125031 0.209446 0.015161
O O10 0.762302 0.510680 0.216627
O O11 0.000000 0.000000 0.000000
O O12 0.482373 0.575879 0.761169
O O13 0.814900 0.420092 0.761777
O O14 0.000000 0.500000 0.000000
#
# Coordination Sequence:
#
# PCOD9074802 Si02
#       7
#     1   2   2   2   2   2   2
#     4  10  26  42  74 100 136 184 236 288 350 404
#     4  12  26  45  75 105 141 187 239 291 351 426
#     4  11  25  46  71  98 149 182 237 280 364 414
#     4  12  26  44  71 105 143 184 236 289 351 418
#     4  11  25  46  72  99 150 185 235 287 362 413
#     4  11  25  45  69 103 142 189 232 284 356 421
#     4  12  26  44  73 106 142 185 239 288 355 420
#
# _framework density 25.929849000000001
#
# number of rings (size 3 to 8) (size 9 to 14) (size 15 to 20)
#    0.000    0.615    0.000    7.385   12.923    0.615 
#    0.000    0.000    0.000    0.000    0.000    0.000 
#    0.000    0.000    0.000    0.000    0.000    0.000 
#
# Total GULP energy -72424.266117 kJ/mol
# GULP energy per Si atom -5571.097394 kJ/mol
# Density = 2.587083 g / cm^3
# Si number density = 25.929849 Si / 1000 Ang^3
#
#
#
# Elastic Constant Matrix: (Units=GPa)
#
#
# Indices 1 2 3 4 5 6 
#
# 1 147.0949 2.9674 43.3542 -8.1810 -13.3189 20.3168
# 2 2.9674 89.3194 20.6788 5.2984 0.4157 23.6430
# 3 43.3542 20.6788 104.1675 -31.0340 -21.9211 -2.7765
# 4 -8.1810 5.2984 -31.0340 28.0388 -2.7074 -12.2728
# 5 -13.3189 0.4157 -21.9211 -2.7074 56.3577 -7.7198
# 6 20.3168 23.6430 -2.7765 -12.2728 -7.7198 52.6254
#
#
#
# Elastic Compliance Matrix: (Units=1/GPa)
#
#
# Indices 1 2 3 4 5 6 
#
# 1 0.010894 0.007546 -0.013390 -0.019586 -0.005504 -0.013677
# 2 0.007546 0.028166 -0.027040 -0.047849 -0.015407 -0.030413
# 3 -0.013390 -0.027040 0.050318 0.077771 0.026087 0.041936
# 4 -0.019586 -0.047849 0.077771 0.163419 0.044482 0.077798
# 5 -0.005504 -0.015407 0.026087 0.044482 0.032339 0.025540
# 6 -0.013677 -0.030413 0.041936 0.077798 0.025540 0.062048
#
#
# Mechanical properties :
#
#
# Convention : Reuss Voigt Hill
#
# Bulk Modulus (GPa) = 42.35501 52.73140 47.54321
# Shear Modulus (GPa) = 11.88151 45.64314 28.76233
#
# Velocity S-wave (km/s) = 2.14292 4.20009 3.33413
# Velocity P-wave (km/s) = 4.74265 6.62581 5.76169
#
# Compressibility (1/GPa) = 0.02360996
#
# Stress axis : x y z
#
# Youngs Moduli (GPa) = 91.79311 35.50431 19.87358
#
# Poissons Ratio (x) = -0.26791 0.26610
# Poissons Ratio (y) = -0.69266 0.53738
# Poissons Ratio (z) = 1.22909 0.96003
#
# Static dielectric constant tensor:
#      x y z
#    x 1.439420 1.088890 2.635160 
#    y 1.088890 0.782280 -3.151930 
#    z 2.635160 -3.151930 -6.224290 
# 
# From -- ./inp_files/147384.got.cif
#   From: 2010.05.17/outbox.ucp.g08.bks.cvg/sg2_74_cif.got.tgz:147384.got - 2010.06.11 11:32:03.
