data_PCOD9074884
_publ_section_title
;
Structure prediction by ZEFSAII (Michael W. Deem and Ramdas Pophale) SiO2 
 PCOD9074884
Probable space group: P -1
;
_chemical_formula_sum "Si O2"
_cell_formula_units_Z 14
_cell_length_a 9.000000
_cell_length_b 12.000000
_cell_length_c 21.000000
_cell_angle_alpha 30.000000
_cell_angle_beta 140.000000
_cell_angle_gamma 120.000000
_cell_volume 627.666119
_symmetry_space_group_name_H-M "P -1"
_symmetry_group_IT_number 2
_symmetry_cell_setting 'triclinic'
loop_
_space_group_symop_operation_xyz
x,y,z
-x,-y,-z
loop_
_atom_site_type_symbol
_atom_site_label
_atom_site_fract_x
_atom_site_fract_y
_atom_site_fract_z
Si Si1 0.189585 0.951687 0.770556
Si Si2 0.139528 0.077167 0.415100
Si Si3 0.287303 0.459131 0.319059
Si Si4 0.254174 0.342546 0.512392
Si Si5 0.772569 0.892394 0.868704
Si Si6 0.586929 0.348929 0.181698
Si Si7 0.120854 0.770946 0.353154
O O1 0.932126 0.932200 0.676485
O O2 0.180863 0.141225 0.618203
O O3 0.438080 0.657745 0.993136
O O4 0.119805 0.109617 0.734760
O O5 0.299079 0.225396 0.399754
O O6 0.850391 0.249035 0.272617
O O7 0.301256 0.808670 0.638335
O O8 0.221431 0.409248 0.394142
O O9 0.577540 0.430519 0.423014
O O10 0.034753 0.713585 0.083451
O O11 0.099872 0.603573 0.372395
O O12 0.578810 0.156813 0.713562
O O13 0.608861 0.748057 0.865114
O O14 0.855758 0.992719 0.784770
#
# Coordination Sequence:
#
# PCOD9074884 Si02
#       7
#     2   2   2   2   2   2   2
#     4  12  24  41  65  96 133 165 203 261 323 379
#     4  11  20  39  67  98 123 154 217 265 318 364
#     4  11  22  42  68  96 123 165 215 266 311 363
#     4  11  23  44  66  91 125 173 220 254 298 375
#     4  11  21  43  68  95 123 163 219 262 311 366
#     4  11  21  39  67  99 122 160 212 270 312 368
#     4  11  27  42  60  94 137 173 201 252 319 384
#
# _framework density 22.304852
#
# number of rings (size 3 to 8) (size 9 to 14) (size 15 to 20)
#    0.000    0.857    5.714    4.286    0.000    4.571 
#    0.000    0.000    0.000    6.000    0.000    0.000 
#    0.000    0.000    0.000    0.000    0.000    0.000 
#
# Total GULP energy -78132.490187 kJ/mol
# GULP energy per Si atom -5580.892156 kJ/mol
# Density = 2.225409 g / cm^3
# Si number density = 22.304852 Si / 1000 Ang^3
#
#
#
# Elastic Constant Matrix: (Units=GPa)
#
#
# Indices 1 2 3 4 5 6 
#
# 1 39.0556 4.8495 24.5740 -8.3906 12.2172 -7.0298
# 2 4.8495 40.9567 15.3828 -17.2615 4.1261 -6.8243
# 3 24.5740 15.3828 155.5364 2.9885 -5.1401 -13.6431
# 4 -8.3906 -17.2615 2.9885 22.5667 -2.8674 6.2608
# 5 12.2172 4.1261 -5.1401 -2.8674 16.8491 -6.1108
# 6 -7.0298 -6.8243 -13.6431 6.2608 -6.1108 22.9188
#
#
#
# Elastic Compliance Matrix: (Units=1/GPa)
#
#
# Indices 1 2 3 4 5 6 
#
# 1 0.047252 0.011843 -0.010846 0.024699 -0.038217 -0.005373
# 2 0.011843 0.042412 -0.007506 0.036486 -0.015932 -0.002422
# 3 -0.010846 -0.007506 0.010183 -0.011410 0.013482 0.007212
# 4 0.024699 0.036486 -0.011410 0.084943 -0.022208 -0.017478
# 5 -0.038217 -0.015932 0.013482 -0.022208 0.100117 0.024320
# 6 -0.005373 -0.002422 0.007212 -0.017478 0.024320 0.056815
#
#
# Mechanical properties :
#
#
# Convention : Reuss Voigt Hill
#
# Bulk Modulus (GPa) = 11.51688 36.12904 23.82296
# Shear Modulus (GPa) = 13.03166 25.18307 19.10736
#
# Velocity S-wave (km/s) = 2.41975 3.36376 2.93003
# Velocity P-wave (km/s) = 3.60299 5.59639 4.70644
#
# Compressibility (1/GPa) = 0.08682905
#
# Stress axis : x y z
#
# Youngs Moduli (GPa) = 21.16311 23.57849 98.20675
#
# Poissons Ratio (x) = -0.27923 1.06512
# Poissons Ratio (y) = -0.25063 0.73711
# Poissons Ratio (z) = 0.22953 0.17697
#
# Static dielectric constant tensor:
#      x y z
#    x 1.858130 0.031390 -0.013940 
#    y 0.031390 1.899220 0.016320 
#    z -0.013940 0.016320 1.821400 
# 
# From -- ./inp_files/282213.got.cif
#   From: 2010.05.17/outbox.ucp.g08.bks.cvg/sg2_142_cif.got.tgz:282213.got - 2010.06.11 11:32:03.
