data_PCOD9074020
_publ_section_title
;
Structure prediction by ZEFSAII (Michael W. Deem and Ramdas Pophale) SiO2 
 PCOD9074020
Probable space group: P -1
;
_chemical_formula_sum "Si O2"
_cell_formula_units_Z 16
_cell_length_a 18.000000
_cell_length_b 9.000000
_cell_length_c 12.000000
_cell_angle_alpha 130.000000
_cell_angle_beta 30.000000
_cell_angle_gamma 130.000000
_cell_volume 725.531033
_symmetry_space_group_name_H-M "P -1"
_symmetry_group_IT_number 2
_symmetry_cell_setting 'triclinic'
loop_
_space_group_symop_operation_xyz
x,y,z
-x,-y,-z
loop_
_atom_site_type_symbol
_atom_site_label
_atom_site_fract_x
_atom_site_fract_y
_atom_site_fract_z
Si Si1 0.800006 0.833233 0.607563
Si Si2 0.149957 0.960008 0.845727
Si Si3 0.790497 0.650250 0.960730
Si Si4 0.720633 0.242677 0.992164
Si Si5 0.157360 0.769697 0.531098
Si Si6 0.672242 0.573536 0.854124
Si Si7 0.594869 0.892084 0.739142
Si Si8 0.067145 0.722595 0.064888
O O1 0.771566 0.710793 0.698759
O O2 0.659815 0.744602 0.662971
O O3 0.948689 0.806998 0.337059
O O4 0.784530 0.058074 0.766929
O O5 0.194978 0.802831 0.629270
O O6 0.114838 0.867213 0.967785
O O7 0.247784 0.183179 0.826800
O O8 0.000000 0.000000 0.000000
O O9 0.763024 0.436015 0.951170
O O10 0.687494 0.678825 0.003362
O O11 0.974441 0.713661 0.723060
O O12 0.795309 0.285540 0.035524
O O13 0.537470 0.189065 0.214530
O O14 0.241258 0.598328 0.308151
O O15 0.253978 0.966166 0.439949
O O16 0.500000 0.500000 0.000000
O O17 0.500000 0.000000 0.000000
O O18 0.000000 0.500000 0.000000
#
# Coordination Sequence:
#
# PCOD9074020 Si02
#       8
#     2   2   2   2   2   2   2   2
#     4  11  22  39  63  92 125 166 208 258 315 371
#     4  10  22  41  63  91 124 163 208 259 308 367
#     4  11  23  42  67  95 124 166 213 258 308 374
#     4  11  23  42  65  96 127 163 208 261 315 370
#     4  11  23  43  66  90 124 169 210 252 313 378
#     4  12  23  38  62  97 129 162 209 265 314 368
#     4  10  22  42  64  91 128 165 203 257 315 371
#     4  12  24  41  63  94 128 164 211 262 308 371
#
# _framework density 22.052813
#
# number of rings (size 3 to 8) (size 9 to 14) (size 15 to 20)
#    0.000    1.000    0.000    9.750    0.000    3.000 
#    0.000    6.250    0.000    0.000    0.000    0.000 
#    0.000    0.000    0.000    0.000    0.000    0.000 
#
# Total GULP energy -89244.740243 kJ/mol
# GULP energy per Si atom -5577.796265 kJ/mol
# Density = 2.200262 g / cm^3
# Si number density = 22.052813 Si / 1000 Ang^3
#
#
#
# Elastic Constant Matrix: (Units=GPa)
#
#
# Indices 1 2 3 4 5 6 
#
# 1 168.2849 36.7346 7.7384 -14.7799 -5.6966 -0.2351
# 2 36.7346 95.7487 7.6596 -8.4283 5.3002 -8.4401
# 3 7.7384 7.6596 8.4194 -21.6739 -0.5950 4.5720
# 4 -14.7799 -8.4283 -21.6739 30.8422 1.7734 5.3102
# 5 -5.6966 5.3002 -0.5950 1.7734 37.4158 -10.1880
# 6 -0.2351 -8.4401 4.5720 5.3102 -10.1880 42.2085
#
#
#
# Elastic Compliance Matrix: (Units=1/GPa)
#
#
# Indices 1 2 3 4 5 6 
#
# 1 0.006670 -0.002351 -0.002888 0.000423 0.001322 0.000146
# 2 -0.002351 0.011615 0.004517 0.005218 -0.001993 0.000683
# 3 -0.002888 0.004517 -0.112538 -0.084109 0.008091 0.025612
# 4 0.000423 0.005218 -0.084109 -0.027724 0.003229 0.014424
# 5 0.001322 -0.001993 0.008091 0.003229 0.028611 0.005232
# 6 0.000146 0.000683 0.025612 0.014424 0.005232 0.020503
#
#
# Mechanical properties :
#
#
# Convention : Reuss Voigt Hill
#
# Bulk Modulus (GPa) = -10.44952 41.85759 15.70404
# Shear Modulus (GPa) = -48.39511 36.78135 -5.80688
#
# Velocity S-wave (km/s) = -4.68964 4.08839 -1.62446
# Velocity P-wave (km/s) = 5.83715 6.42716 1.90212
#
# Compressibility (1/GPa) = -0.09569818
#
# Stress axis : x y z
#
# Youngs Moduli (GPa) = 149.91388 86.09878 -8.88592
#
# Poissons Ratio (x) = 0.20244 -0.02567
# Poissons Ratio (y) = 0.35248 0.04014
# Poissons Ratio (z) = 0.43301 -0.38889
#
# Static dielectric constant tensor:
#      x y z
#    x 1.916820 0.083930 0.039290 
#    y 0.083930 1.862120 0.047460 
#    z 0.039290 0.047460 1.889680 
# 
# From -- ./inp_files/462402.got.cif
#   From: 2010.05.17/outbox.ucp.g08.bks.cvg/sg2_232_cif.got.tgz:462402.got - 2010.06.11 11:32:03.
