data_PCOD9074671
_publ_section_title
;
Structure prediction by ZEFSAII (Michael W. Deem and Ramdas Pophale) SiO2 
 PCOD9074671
Probable space group: P -1
;
_chemical_formula_sum "Si O2"
_cell_formula_units_Z 16
_cell_length_a 8.664889
_cell_length_b 14.468041
_cell_length_c 22.105248
_cell_angle_alpha 31.085360
_cell_angle_beta 145.808225
_cell_angle_gamma 125.667369
_cell_volume 725.223276
_symmetry_space_group_name_H-M "P -1"
_symmetry_group_IT_number 2
_symmetry_cell_setting 'triclinic'
loop_
_space_group_symop_operation_xyz
x,y,z
-x,-y,-z
loop_
_atom_site_type_symbol
_atom_site_label
_atom_site_fract_x
_atom_site_fract_y
_atom_site_fract_z
Si Si1 0.087326 0.245676 0.427846
Si Si2 0.829057 0.466422 0.104993
Si Si3 0.420127 0.792071 0.151871
Si Si4 0.793121 0.618727 0.481819
Si Si5 0.632286 0.365458 0.409091
Si Si6 0.001587 0.807876 0.262614
Si Si7 0.816602 0.702909 0.788809
Si Si8 0.495039 0.847407 0.715906
O O1 0.201262 0.313581 0.486148
O O2 0.030793 0.395458 0.269592
O O3 0.766624 0.227548 0.344300
O O4 0.324414 0.034800 0.597566
O O5 0.947829 0.297611 0.185556
O O6 0.500000 0.500000 0.000000
O O7 0.763003 0.675791 0.936512
O O8 0.503986 0.754786 0.270831
O O9 0.438443 0.587801 0.246010
O O10 0.705883 0.808720 0.201111
O O11 0.121658 0.987734 0.928379
O O12 0.077980 0.634135 0.532130
O O13 0.858468 0.388677 0.623551
O O14 0.434411 0.316157 0.324436
O O15 0.760851 0.224698 0.587997
O O16 0.648319 0.869092 0.690914
O O17 0.000000 0.500000 0.000000
#
# Coordination Sequence:
#
# PCOD9074671 Si02
#       8
#     2   2   2   2   2   2   2   2
#     4  10  18  32  52  76 109 144 179 221 262 315
#     4   9  20  36  52  74 104 139 181 226 267 317
#     4   8  15  28  47  75 108 139 177 220 264 313
#     4   9  16  27  51  77 107 143 177 215 265 313
#     4   9  16  30  49  75 108 141 176 220 265 311
#     4   8  15  28  47  77 107 135 177 224 263 314
#     4  10  19  35  57  77 108 148 181 220 271 317
#     4   9  19  34  51  74 107 146 183 218 262 313
#
# _framework density 22.062173000000001
#
# number of rings (size 3 to 8) (size 9 to 14) (size 15 to 20)
#    0.000    3.000    1.250    1.500    0.000    1.500 
#    0.000    5.000    0.000    3.000    0.000   15.750 
#    0.000    0.000    0.000    1.000    0.000    0.500 
#
# Total GULP energy -89306.429084 kJ/mol
# GULP energy per Si atom -5581.651818 kJ/mol
# Density = 2.201196 g / cm^3
# Si number density = 22.062173 Si / 1000 Ang^3
#
#
#
# Elastic Constant Matrix: (Units=GPa)
#
#
# Indices 1 2 3 4 5 6 
#
# 1 96.7608 43.5465 39.0031 2.2765 -2.2560 -34.3069
# 2 43.5465 112.9632 74.8508 6.3519 -19.6694 -45.4763
# 3 39.0031 74.8508 177.6863 2.2877 -30.7397 -30.0529
# 4 2.2765 6.3519 2.2877 18.9630 -4.0369 -1.1855
# 5 -2.2560 -19.6694 -30.7397 -4.0369 34.3780 11.3662
# 6 -34.3069 -45.4763 -30.0529 -1.1855 11.3662 47.7604
#
#
#
# Elastic Compliance Matrix: (Units=1/GPa)
#
#
# Indices 1 2 3 4 5 6 
#
# 1 0.014985 -0.001592 -0.001881 -0.001491 -0.004818 0.009174
# 2 -0.001592 0.018367 -0.004949 -0.004300 0.001232 0.012831
# 3 -0.001881 -0.004949 0.008779 0.001929 0.005735 -0.001857
# 4 -0.001491 -0.004300 0.001929 0.055361 0.007077 -0.004261
# 5 -0.004818 0.001232 0.005735 0.007077 0.037926 -0.007529
# 6 0.009174 0.012831 -0.001857 -0.004261 -0.007529 0.040263
#
#
# Mechanical properties :
#
#
# Convention : Reuss Voigt Hill
#
# Bulk Modulus (GPa) = 39.54687 78.02346 58.78517
# Shear Modulus (GPa) = 24.88127 35.55427 30.21777
#
# Velocity S-wave (km/s) = 3.36189 4.01877 3.70491
# Velocity P-wave (km/s) = 5.74751 7.54825 6.70857
#
# Compressibility (1/GPa) = 0.02528645
#
# Stress axis : x y z
#
# Youngs Moduli (GPa) = 66.73399 54.44451 113.90760
#
# Poissons Ratio (x) = 0.08667 0.21430
# Poissons Ratio (y) = 0.10623 0.56375
# Poissons Ratio (z) = 0.12555 0.26946
#
# Static dielectric constant tensor:
#      x y z
#    x 1.889420 0.046110 0.000630 
#    y 0.046110 1.810200 -0.016170 
#    z 0.000630 -0.016170 1.837050 
# 
# From -- ./inp_files/507657.got.cif
#   From: 2010.05.17/outbox.cif.g08.bks.cpg/sg2_254_cif.got.tgz:507657.got - 2010.06.03 11:33:40.
