data_PCOD9074742
_publ_section_title
;
Structure prediction by ZEFSAII (Michael W. Deem and Ramdas Pophale) SiO2 
 PCOD9074742
Probable space group: P -1
;
_chemical_formula_sum "Si O2"
_cell_formula_units_Z 16
_cell_length_a 9.000000
_cell_length_b 12.000000
_cell_length_c 9.000000
_cell_angle_alpha 100.000000
_cell_angle_beta 50.000000
_cell_angle_gamma 90.000000
_cell_volume 725.212580
_symmetry_space_group_name_H-M "P -1"
_symmetry_group_IT_number 2
_symmetry_cell_setting 'triclinic'
loop_
_space_group_symop_operation_xyz
x,y,z
-x,-y,-z
loop_
_atom_site_type_symbol
_atom_site_label
_atom_site_fract_x
_atom_site_fract_y
_atom_site_fract_z
Si Si1 0.739089 0.851842 0.255498
Si Si2 0.349353 0.759145 0.993787
Si Si3 0.951616 0.607382 0.942247
Si Si4 0.540565 0.684266 0.540509
Si Si5 0.280640 0.549508 0.499204
Si Si6 0.271013 0.540616 0.159507
Si Si7 0.635333 0.900101 0.991011
Si Si8 0.972719 0.019381 0.702545
O O1 0.603156 0.796768 0.449792
O O2 0.848496 0.945125 0.299548
O O3 0.874044 0.731060 0.091271
O O4 0.638030 0.900308 0.172951
O O5 0.405882 0.727971 0.779705
O O6 0.542699 0.789383 0.965714
O O7 0.250698 0.657894 0.107901
O O8 0.188283 0.869819 0.140715
O O9 0.818043 0.556847 0.893467
O O10 0.138799 0.618665 0.725063
O O11 0.000000 0.500000 0.000000
O O12 0.473278 0.607589 0.428157
O O13 0.693642 0.584179 0.499767
O O14 0.215884 0.559428 0.372491
O O15 0.500000 0.500000 0.000000
O O16 0.859967 0.915338 0.808245
O O17 0.500000 0.000000 0.000000
O O18 0.000000 0.000000 0.500000
#
# Coordination Sequence:
#
# PCOD9074742 Si02
#       8
#     2   2   2   2   2   2   2   2
#     4  12  24  43  73 101 133 185 226 282 356 404
#     4  11  23  43  69  98 135 186 225 278 346 409
#     4  12  24  41  64 103 146 180 226 272 332 420
#     4  11  22  39  66  97 139 184 226 266 333 411
#     4  11  23  38  59  99 146 187 223 268 318 403
#     4  12  23  40  65 101 143 186 225 269 332 411
#     4  10  24  47  69  96 130 172 235 292 345 402
#     4  11  25  47  70  99 132 170 232 303 348 402
#
# _framework density 22.062495999999999
#
# number of rings (size 3 to 8) (size 9 to 14) (size 15 to 20)
#    0.000    0.750    2.500    6.000    0.000    1.000 
#    0.000   15.000    0.000    0.000    0.000    0.000 
#    0.000    0.000    0.000    0.000    0.000    0.000 
#
# Total GULP energy -89225.697698 kJ/mol
# GULP energy per Si atom -5576.606106 kJ/mol
# Density = 2.201228 g / cm^3
# Si number density = 22.062496 Si / 1000 Ang^3
#
#
#
# Elastic Constant Matrix: (Units=GPa)
#
#
# Indices 1 2 3 4 5 6 
#
# 1 138.3137 28.9758 30.4564 -12.5439 41.2478 24.0153
# 2 28.9758 66.1780 12.3968 -14.3512 7.7315 6.3090
# 3 30.4564 12.3968 126.3224 -5.7627 45.7804 -13.4458
# 4 -12.5439 -14.3512 -5.7627 50.2419 -1.6681 2.8225
# 5 41.2478 7.7315 45.7804 -1.6681 40.3825 0.8445
# 6 24.0153 6.3090 -13.4458 2.8225 0.8445 49.2632
#
#
#
# Elastic Compliance Matrix: (Units=1/GPa)
#
#
# Indices 1 2 3 4 5 6 
#
# 1 0.013011 -0.003357 0.002127 0.002333 -0.014853 -0.005211
# 2 -0.003357 0.017675 -0.001643 0.004168 0.002108 -0.001350
# 3 0.002127 -0.001643 0.014699 0.000938 -0.018556 0.003450
# 4 0.002333 0.004168 0.000938 0.021822 -0.003288 -0.002609
# 5 -0.014853 0.002108 -0.018556 -0.003288 0.060409 0.001059
# 6 -0.005211 -0.001350 0.003450 -0.002609 0.001059 0.024085
#
#
# Mechanical properties :
#
#
# Convention : Reuss Voigt Hill
#
# Bulk Modulus (GPa) = 25.22731 52.71912 38.97322
# Shear Modulus (GPa) = 29.29821 45.24320 37.27070
#
# Velocity S-wave (km/s) = 3.64808 4.53336 4.11460
# Velocity P-wave (km/s) = 5.40407 7.16582 6.34638
#
# Compressibility (1/GPa) = 0.03963958
#
# Stress axis : x y z
#
# Youngs Moduli (GPa) = 76.86030 56.57802 68.03008
#
# Poissons Ratio (x) = 0.18994 -0.14471
# Poissons Ratio (y) = 0.25803 0.11174
# Poissons Ratio (z) = -0.16349 0.09293
#
# Static dielectric constant tensor:
#      x y z
#    x 2.008170 0.175560 -0.204260 
#    y 0.175560 1.976120 -0.148670 
#    z -0.204260 -0.148670 1.935580 
# 
# From -- ./inp_files/188147.got.cif
#   From: 2010.05.17/outbox.ucp.g08.bks.cvg/sg2_95_cif.got.tgz:188147.got - 2010.06.11 11:32:03.
