data_PCOD9074636
_publ_section_title
;
Structure prediction by ZEFSAII (Michael W. Deem and Ramdas Pophale) SiO2 
 PCOD9074636
Probable space group: P -1
;
_chemical_formula_sum "Si O2"
_cell_formula_units_Z 16
_cell_length_a 18.000000
_cell_length_b 9.000000
_cell_length_c 6.000000
_cell_angle_alpha 60.000000
_cell_angle_beta 60.000000
_cell_angle_gamma 70.000000
_cell_volume 723.492119
_symmetry_space_group_name_H-M "P -1"
_symmetry_group_IT_number 2
_symmetry_cell_setting 'triclinic'
loop_
_space_group_symop_operation_xyz
x,y,z
-x,-y,-z
loop_
_atom_site_type_symbol
_atom_site_label
_atom_site_fract_x
_atom_site_fract_y
_atom_site_fract_z
Si Si1 0.893794 0.563646 0.293158
Si Si2 0.815899 0.671878 0.835599
Si Si3 0.346128 0.311971 0.209085
Si Si4 0.684757 0.319551 0.802010
Si Si5 0.977002 0.194269 0.270624
Si Si6 0.352055 0.925525 0.567446
Si Si7 0.528101 0.318604 0.713988
Si Si8 0.810684 0.079156 0.505785
O O1 0.857486 0.597731 0.583136
O O2 0.943729 0.365212 0.349979
O O3 0.841114 0.583993 0.108845
O O4 0.951597 0.721420 0.045222
O O5 0.713502 0.680644 0.928990
O O6 0.830900 0.874356 0.681483
O O7 0.311385 0.488259 0.256244
O O8 0.340405 0.130458 0.479013
O O9 0.446371 0.299965 0.004787
O O10 0.614323 0.343253 0.697959
O O11 0.770643 0.202568 0.675365
O O12 0.647349 0.200329 0.131561
O O13 0.898029 0.156153 0.258617
O O14 0.000000 0.000000 0.500000
O O15 0.438783 0.850460 0.357895
O O16 0.265294 0.902623 0.575407
O O17 0.500000 0.500000 0.500000
#
# Coordination Sequence:
#
# PCOD9074636 Si02
#       8
#     2   2   2   2   2   2   2   2
#     4  11  27  50  71 110 149 187 241 296 359 431
#     4  11  26  49  74 106 148 190 240 295 359 430
#     4  11  24  42  72 101 134 191 233 292 355 419
#     4  11  24  45  67  98 140 182 234 292 356 420
#     4  11  24  47  76 107 143 194 235 299 359 429
#     4  10  24  43  65  98 138 184 232 297 349 430
#     4  11  23  44  65 100 142 178 240 292 352 422
#     4  10  24  45  69 102 139 184 238 293 353 432
#
# _framework density 22.114961000000001
#
# number of rings (size 3 to 8) (size 9 to 14) (size 15 to 20)
#    0.000    1.250    2.500    1.500    5.250    4.000 
#    9.000    0.000    0.000    0.000    0.000    0.000 
#    0.000    0.000    0.000    0.000    0.000    0.000 
#
# Total GULP energy -89173.418236 kJ/mol
# GULP energy per Si atom -5573.338640 kJ/mol
# Density = 2.206463 g / cm^3
# Si number density = 22.114961 Si / 1000 Ang^3
#
#
#
# Elastic Constant Matrix: (Units=GPa)
#
#
# Indices 1 2 3 4 5 6 
#
# 1 47.2665 24.0135 20.4628 -5.2028 -6.6860 -2.9297
# 2 24.0135 172.1584 41.6907 -28.6738 15.6839 -3.3229
# 3 20.4628 41.6907 66.4499 -9.5688 10.3333 -0.9057
# 4 -5.2028 -28.6738 -9.5688 41.0467 -3.0527 -1.3261
# 5 -6.6860 15.6839 10.3333 -3.0527 34.1042 -10.4764
# 6 -2.9297 -3.3229 -0.9057 -1.3261 -10.4764 30.4716
#
#
#
# Elastic Compliance Matrix: (Units=1/GPa)
#
#
# Indices 1 2 3 4 5 6 
#
# 1 0.028296 -0.002645 -0.008621 0.000768 0.011318 0.006101
# 2 -0.002645 0.007887 -0.003073 0.004230 -0.002931 -0.000309
# 3 -0.008621 -0.003073 0.020891 0.000976 -0.007461 -0.003066
# 4 0.000768 0.004230 0.000976 0.027790 0.001053 0.002136
# 5 0.011318 -0.002931 -0.007461 0.001053 0.039609 0.014211
# 6 0.006101 -0.000309 -0.003066 0.002136 0.014211 0.038258
#
#
# Mechanical properties :
#
#
# Convention : Reuss Voigt Hill
#
# Bulk Modulus (GPa) = 35.21514 50.91208 43.06361
# Shear Modulus (GPa) = 24.89125 34.43834 29.66479
#
# Velocity S-wave (km/s) = 3.35854 3.95047 3.66647
# Velocity P-wave (km/s) = 5.56759 6.62419 6.11874
#
# Compressibility (1/GPa) = 0.02839687
#
# Stress axis : x y z
#
# Youngs Moduli (GPa) = 35.34066 126.78505 47.86778
#
# Poissons Ratio (x) = 0.33530 0.41265
# Poissons Ratio (y) = 0.09346 0.14712
# Poissons Ratio (z) = 0.30466 0.38967
#
# Static dielectric constant tensor:
#      x y z
#    x 1.862630 0.009940 -0.024120 
#    y 0.009940 1.844010 0.020150 
#    z -0.024120 0.020150 1.858480 
# 
# From -- ./inp_files/106198.got.cif
#   From: 2010.05.17/outbox.ucp.g08.bks.cvg/sg2_54_cif.got.tgz:106198.got - 2010.06.11 11:32:03.
