data_PCOD9074741
_publ_section_title
;
Structure prediction by ZEFSAII (Michael W. Deem and Ramdas Pophale) SiO2 
 PCOD9074741
Probable space group: P -1
;
_chemical_formula_sum "Si O2"
_cell_formula_units_Z 16
_cell_length_a 9.000000
_cell_length_b 15.000000
_cell_length_c 15.000000
_cell_angle_alpha 140.000000
_cell_angle_beta 100.000000
_cell_angle_gamma 50.000000
_cell_volume 759.999475
_symmetry_space_group_name_H-M "P -1"
_symmetry_group_IT_number 2
_symmetry_cell_setting 'triclinic'
loop_
_space_group_symop_operation_xyz
x,y,z
-x,-y,-z
loop_
_atom_site_type_symbol
_atom_site_label
_atom_site_fract_x
_atom_site_fract_y
_atom_site_fract_z
Si Si1 0.215230 0.030632 0.313536
Si Si2 0.785127 0.071137 0.579838
Si Si3 0.696672 0.844317 0.298185
Si Si4 0.010270 0.347932 0.996971
Si Si5 0.297107 0.522438 0.509912
Si Si6 0.621977 0.008373 0.093092
Si Si7 0.888205 0.231059 0.136900
Si Si8 0.356219 0.616675 0.952212
O O1 0.097454 0.075215 0.429733
O O2 0.439118 0.974534 0.323016
O O3 0.342124 0.791236 0.107646
O O4 0.975127 0.256868 0.401518
O O5 0.582508 0.343113 0.790705
O O6 0.678176 0.009236 0.471764
O O7 0.000000 0.000000 0.500000
O O8 0.900707 0.719509 0.146632
O O9 0.822523 0.621308 0.196636
O O10 0.262748 0.164307 0.944273
O O11 0.878630 0.297255 0.964975
O O12 0.500000 0.500000 0.500000
O O13 0.440453 0.271718 0.306836
O O14 0.215126 0.599872 0.663719
O O15 0.500000 0.000000 0.000000
O O16 0.873550 0.877826 0.970850
O O17 0.671161 0.370650 0.147710
O O18 0.000000 0.000000 0.000000
#
# Coordination Sequence:
#
# PCOD9074741 Si02
#       8
#     2   2   2   2   2   2   2   2
#     4  12  26  45  73 106 140 186 243 295 363 429
#     4  12  28  42  70 107 140 185 240 294 365 425
#     4  11  26  46  72 101 142 187 238 301 357 431
#     4  10  24  47  69  95 146 184 233 295 368 415
#     4  12  26  47  75 107 145 193 243 293 363 442
#     4  11  27  44  73 106 143 187 244 303 359 431
#     4  11  23  47  72 101 142 190 239 295 361 425
#     4  11  24  45  71  99 143 182 238 298 357 434
#
# _framework density 21.052645999999999
#
# number of rings (size 3 to 8) (size 9 to 14) (size 15 to 20)
#    0.000    0.750    3.750    2.250   10.500    1.500 
#    0.000    0.000    0.000    0.000    0.000    0.000 
#    0.000    0.000    0.000    0.000    0.000    0.000 
#
# Total GULP energy -89248.117835 kJ/mol
# GULP energy per Si atom -5578.007365 kJ/mol
# Density = 2.100473 g / cm^3
# Si number density = 21.052646 Si / 1000 Ang^3
#
#
#
# Elastic Constant Matrix: (Units=GPa)
#
#
# Indices 1 2 3 4 5 6 
#
# 1 80.5227 20.1410 40.4358 -7.1070 20.6858 -10.8158
# 2 20.1410 120.3169 40.9021 0.4295 8.1786 -10.9019
# 3 40.4358 40.9021 155.1908 -7.6789 16.1919 -9.7097
# 4 -7.1070 0.4295 -7.6789 42.7196 2.2530 -3.0850
# 5 20.6858 8.1786 16.1919 2.2530 38.0954 -9.6054
# 6 -10.8158 -10.9019 -9.7097 -3.0850 -9.6054 35.0035
#
#
#
# Elastic Compliance Matrix: (Units=1/GPa)
#
#
# Indices 1 2 3 4 5 6 
#
# 1 0.016567 -0.001072 -0.003018 0.002760 -0.007079 0.002249
# 2 -0.001072 0.009384 -0.002094 -0.000507 -0.000018 0.001961
# 3 -0.003018 -0.002094 0.007990 0.001050 -0.001276 0.000374
# 4 0.002760 -0.000507 0.001050 0.024376 -0.002672 0.002401
# 5 -0.007079 -0.000018 -0.001276 -0.002672 0.032333 0.006090
# 6 0.002249 0.001961 0.000374 0.002401 0.006090 0.031861
#
#
# Mechanical properties :
#
#
# Convention : Reuss Voigt Hill
#
# Bulk Modulus (GPa) = 46.35720 62.10979 54.23349
# Shear Modulus (GPa) = 35.19379 40.13380 37.66380
#
# Velocity S-wave (km/s) = 4.09308 4.37092 4.23428
# Velocity P-wave (km/s) = 6.66373 7.41885 7.05141
#
# Compressibility (1/GPa) = 0.02157162
#
# Stress axis : x y z
#
# Youngs Moduli (GPa) = 60.36145 106.56995 125.14914
#
# Poissons Ratio (x) = 0.11426 0.37772
# Poissons Ratio (y) = 0.06472 0.26210
# Poissons Ratio (z) = 0.18218 0.22319
#
# Static dielectric constant tensor:
#      x y z
#    x 1.651500 -0.021360 0.012010 
#    y -0.021360 1.825340 -0.007650 
#    z 0.012010 -0.007650 1.744830 
# 
# From -- ./inp_files/505603.got.cif
#   From: 2010.05.17/outbox.ucp.g08.bks.cvg/sg2_253_cif.got.tgz:505603.got - 2010.06.11 11:32:03.
