data_PCOD9074213
_publ_section_title
;
Structure prediction by ZEFSAII (Michael W. Deem and Ramdas Pophale) SiO2 
 PCOD9074213
Probable space group: P -1
;
_chemical_formula_sum "Si O2"
_cell_formula_units_Z 16
_cell_length_a 9.000000
_cell_length_b 9.000000
_cell_length_c 12.000000
_cell_angle_alpha 100.000000
_cell_angle_beta 80.000000
_cell_angle_gamma 130.000000
_cell_volume 730.800219
_symmetry_space_group_name_H-M "P -1"
_symmetry_group_IT_number 2
_symmetry_cell_setting 'triclinic'
loop_
_space_group_symop_operation_xyz
x,y,z
-x,-y,-z
loop_
_atom_site_type_symbol
_atom_site_label
_atom_site_fract_x
_atom_site_fract_y
_atom_site_fract_z
Si Si1 0.995255 0.315658 0.673784
Si Si2 0.442964 0.691074 0.941149
Si Si3 0.710636 0.711743 0.509039
Si Si4 0.946538 0.758118 0.099547
Si Si5 0.181232 0.184990 0.228706
Si Si6 0.700108 0.047649 0.511233
Si Si7 0.078013 0.717022 0.696827
Si Si8 0.302029 0.931991 0.905098
O O1 0.138989 0.292562 0.584923
O O2 0.006592 0.303849 0.802827
O O3 0.053555 0.523901 0.673318
O O4 0.779808 0.145102 0.634445
O O5 0.265496 0.452416 0.938019
O O6 0.619185 0.732766 0.849476
O O7 0.372789 0.806542 0.911352
O O8 0.551633 0.835990 0.054499
O O9 0.500000 0.500000 0.500000
O O10 0.780380 0.791983 0.638426
O O11 0.686342 0.860569 0.478950
O O12 0.008993 0.966889 0.169235
O O13 0.105736 0.833820 0.991797
O O14 0.110678 0.312201 0.239423
O O15 0.500000 0.000000 0.500000
O O16 0.865676 0.203560 0.424472
O O17 0.248218 0.883100 0.776984
#
# Coordination Sequence:
#
# PCOD9074213 Si02
#       8
#     2   2   2   2   2   2   2   2
#     4  12  24  45  72  97 145 187 233 284 352 424
#     4  10  22  43  73 102 129 185 239 284 349 423
#     4  12  25  45  71 100 138 194 234 281 352 432
#     4  11  22  45  75 101 132 191 241 284 351 421
#     4  11  25  44  69  98 146 180 234 292 353 416
#     4  12  27  43  69 107 142 180 233 295 353 419
#     4  12  26  46  65 103 147 182 227 299 352 407
#     4  10  24  43  73 102 140 179 239 297 342 420
#
# _framework density 21.893808
#
# number of rings (size 3 to 8) (size 9 to 14) (size 15 to 20)
#    0.000    0.750    3.750    3.375    3.500    3.000 
#    0.000    1.250    0.000    0.000    0.000    0.000 
#    0.000    0.000    0.000    0.000    0.000    0.000 
#
# Total GULP energy -89320.480671 kJ/mol
# GULP energy per Si atom -5582.530042 kJ/mol
# Density = 2.184398 g / cm^3
# Si number density = 21.893808 Si / 1000 Ang^3
#
#
#
# Elastic Constant Matrix: (Units=GPa)
#
#
# Indices 1 2 3 4 5 6 
#
# 1 106.0881 34.8122 18.6523 14.7623 -13.4808 -7.6660
# 2 34.8122 137.9306 19.7705 31.4560 4.2794 0.7867
# 3 18.6523 19.7705 52.2678 17.9649 -0.1456 -9.2194
# 4 14.7623 31.4560 17.9649 34.9844 -1.4842 -1.3451
# 5 -13.4808 4.2794 -0.1456 -1.4842 28.2183 7.7848
# 6 -7.6660 0.7867 -9.2194 -1.3451 7.7848 46.1366
#
#
#
# Elastic Compliance Matrix: (Units=1/GPa)
#
#
# Indices 1 2 3 4 5 6 
#
# 1 0.011631 -0.002495 -0.002781 -0.000976 0.005753 0.000420
# 2 -0.002495 0.009776 -0.000205 -0.007772 -0.002990 -0.000344
# 3 -0.002781 -0.000205 0.024943 -0.011399 -0.003068 0.004711
# 4 -0.000976 -0.007772 -0.011399 0.041915 0.003312 -0.001644
# 5 0.005753 -0.002990 -0.003068 0.003312 0.040551 -0.006352
# 6 0.000420 -0.000344 0.004711 -0.001644 -0.006352 0.023716
#
#
# Mechanical properties :
#
#
# Convention : Reuss Voigt Hill
#
# Bulk Modulus (GPa) = 28.25901 49.19516 38.72708
# Shear Modulus (GPa) = 28.52392 36.73796 32.63094
#
# Velocity S-wave (km/s) = 3.61339 4.10079 3.86478
# Velocity P-wave (km/s) = 5.50855 6.70378 6.13534
#
# Compressibility (1/GPa) = 0.03538695
#
# Stress axis : x y z
#
# Youngs Moduli (GPa) = 85.97560 102.28679 40.09155
#
# Poissons Ratio (x) = 0.25523 0.11151
# Poissons Ratio (y) = 0.21453 0.00823
# Poissons Ratio (z) = 0.23913 0.02099
#
# Static dielectric constant tensor:
#      x y z
#    x 1.861610 0.001230 0.051190 
#    y 0.001230 1.829470 -0.004440 
#    z 0.051190 -0.004440 1.777860 
# 
# From -- ./inp_files/382611.got.cif
#   From: 2010.05.17/outbox.ucp.g08.bks.cvg/sg2_192_cif.got.tgz:382611.got - 2010.06.11 11:32:03.
