data_PCOD9074966
_publ_section_title
;
Structure prediction by ZEFSAII (Michael W. Deem and Ramdas Pophale) SiO2 
 PCOD9074966
Probable space group: P -1
;
_chemical_formula_sum "Si O2"
_cell_formula_units_Z 16
_cell_length_a 9.000000
_cell_length_b 24.000000
_cell_length_c 15.000000
_cell_angle_alpha 30.000000
_cell_angle_beta 50.000000
_cell_angle_gamma 30.000000
_cell_volume 731.734496
_symmetry_space_group_name_H-M "P -1"
_symmetry_group_IT_number 2
_symmetry_cell_setting 'triclinic'
loop_
_space_group_symop_operation_xyz
x,y,z
-x,-y,-z
loop_
_atom_site_type_symbol
_atom_site_label
_atom_site_fract_x
_atom_site_fract_y
_atom_site_fract_z
Si Si1 0.278334 0.438636 0.428656
Si Si2 0.785439 0.433391 0.430671
Si Si3 0.773073 0.560258 0.924206
Si Si4 0.354728 0.977912 0.513902
Si Si5 0.116392 0.964325 0.289798
Si Si6 0.549967 0.010118 0.740318
Si Si7 0.430174 0.613370 0.135888
Si Si8 0.068966 0.388024 0.854374
O O1 0.612410 0.217356 0.625605
O O2 0.258950 0.575948 0.272611
O O3 0.000000 0.500000 0.500000
O O4 0.229129 0.467177 0.301303
O O5 0.500000 0.500000 0.500000
O O6 0.708997 0.481841 0.286964
O O7 0.764598 0.569903 0.281596
O O8 0.153643 0.213756 0.609543
O O9 0.557142 0.770506 0.701089
O O10 0.939810 0.444993 0.927798
O O11 0.573739 0.556191 0.059069
O O12 0.000000 0.500000 0.000000
O O13 0.326243 0.041044 0.339174
O O14 0.500000 0.000000 0.500000
O O15 0.033967 0.072004 0.550384
O O16 0.281030 0.976091 0.279309
O O17 0.826415 0.164646 0.071559
O O18 0.687544 0.824969 0.970747
#
# Coordination Sequence:
#
# PCOD9074966 Si02
#       8
#     2   2   2   2   2   2   2   2
#     4  12  27  47  72 104 144 190 241 289 354 430
#     4  12  27  48  72 103 147 189 244 297 348 428
#     4  11  21  43  69 103 148 174 233 300 354 421
#     4  11  24  41  70 108 143 183 234 295 361 423
#     4  11  26  46  71 104 143 187 235 294 359 425
#     4  12  25  46  71 103 144 189 235 294 358 429
#     4  11  26  45  72 108 139 187 237 297 362 413
#     4  12  25  45  74 105 141 193 236 293 363 419
#
# _framework density 21.865853999999999
#
# number of rings (size 3 to 8) (size 9 to 14) (size 15 to 20)
#    0.000    0.500    5.000    1.875    7.000    3.500 
#    0.000    0.000    0.000    0.000    0.000    0.000 
#    0.000    0.000    0.000    0.000    0.000    0.000 
#
# Total GULP energy -89342.975724 kJ/mol
# GULP energy per Si atom -5583.935983 kJ/mol
# Density = 2.181609 g / cm^3
# Si number density = 21.865854 Si / 1000 Ang^3
#
#
#
# Elastic Constant Matrix: (Units=GPa)
#
#
# Indices 1 2 3 4 5 6 
#
# 1 49.1505 3.1969 26.1850 2.4772 -6.9427 -11.3740
# 2 3.1969 112.2981 39.4900 -9.1242 -15.4241 -20.5621
# 3 26.1850 39.4900 115.9800 -9.2780 -18.9974 -11.8538
# 4 2.4772 -9.1242 -9.2780 26.3799 -4.2093 -1.5813
# 5 -6.9427 -15.4241 -18.9974 -4.2093 45.9498 9.0231
# 6 -11.3740 -20.5621 -11.8538 -1.5813 9.0231 32.9237
#
#
#
# Elastic Compliance Matrix: (Units=1/GPa)
#
#
# Indices 1 2 3 4 5 6 
#
# 1 0.025443 0.002669 -0.006009 -0.003034 0.000400 0.008038
# 2 0.002669 0.011771 -0.003335 0.003364 0.001969 0.006695
# 3 -0.006009 -0.003335 0.011940 0.004118 0.003403 -0.000594
# 4 -0.003034 0.003364 0.004118 0.041881 0.005619 0.003007
# 5 0.000400 0.001969 0.003403 0.005619 0.025200 -0.004043
# 6 0.008038 0.006695 -0.000594 0.003007 -0.004043 0.038370
#
#
# Mechanical properties :
#
#
# Convention : Reuss Voigt Hill
#
# Bulk Modulus (GPa) = 27.92908 46.13026 37.02967
# Shear Modulus (GPa) = 27.79500 34.95447 31.37473
#
# Velocity S-wave (km/s) = 3.56920 4.00257 3.79208
# Velocity P-wave (km/s) = 5.45768 6.51947 6.01206
#
# Compressibility (1/GPa) = 0.03580498
#
# Stress axis : x y z
#
# Youngs Moduli (GPa) = 39.30421 84.95381 83.75024
#
# Poissons Ratio (x) = -0.22672 0.50323
# Poissons Ratio (y) = -0.10489 0.27927
# Poissons Ratio (z) = 0.23616 0.28329
#
# Static dielectric constant tensor:
#      x y z
#    x 1.817980 0.026950 -0.284310 
#    y 0.026950 1.775320 0.249700 
#    z -0.284310 0.249700 0.667460 
# 
# From -- ./inp_files/505288.got.cif
#   From: 2010.05.17/outbox.ucp.g08.bks.cvg/sg2_253_cif.got.tgz:505288.got - 2010.06.11 11:32:03.
