data_PCOD9074737
_publ_section_title
;
Structure prediction by ZEFSAII (Michael W. Deem and Ramdas Pophale) SiO2 
 PCOD9074737
Probable space group: P -1
;
_chemical_formula_sum "Si O2"
_cell_formula_units_Z 12
_cell_length_a 9.000000
_cell_length_b 9.000000
_cell_length_c 21.000000
_cell_angle_alpha 140.000000
_cell_angle_beta 30.000000
_cell_angle_gamma 140.000000
_cell_volume 518.068193
_symmetry_space_group_name_H-M "P -1"
_symmetry_group_IT_number 2
_symmetry_cell_setting 'triclinic'
loop_
_space_group_symop_operation_xyz
x,y,z
-x,-y,-z
loop_
_atom_site_type_symbol
_atom_site_label
_atom_site_fract_x
_atom_site_fract_y
_atom_site_fract_z
Si Si1 0.428282 0.255586 0.035832
Si Si2 0.422997 0.226896 0.172763
Si Si3 0.297976 0.889297 0.602598
Si Si4 0.840316 0.404016 0.807402
Si Si5 0.646346 0.992798 0.643874
Si Si6 0.493421 0.465358 0.362250
O O1 0.504790 0.337355 0.107675
O O2 0.135647 0.333268 0.145196
O O3 0.681857 0.377576 0.927110
O O4 0.396320 0.971287 0.951735
O O5 0.481461 0.396828 0.269510
O O6 0.047162 0.084894 0.263019
O O7 0.465571 0.974720 0.637041
O O8 0.248829 0.600376 0.517740
O O9 0.500000 0.000000 0.500000
O O10 0.166022 0.358142 0.685087
O O11 0.653928 0.219061 0.761247
O O12 0.539786 0.765000 0.656760
O O13 0.000000 0.000000 0.500000
#
# Coordination Sequence:
#
# PCOD9074737 Si02
#       6
#     2   2   2   2   2   2
#     4  10  24  47  65  97 141 180 229 274 322 418
#     4  11  24  45  68 101 139 179 224 273 349 395
#     4  12  26  44  71 105 138 175 225 287 346 400
#     4  11  24  47  71 101 132 180 235 271 339 398
#     4  12  25  45  72 102 138 175 229 281 342 404
#     4  12  25  45  74 101 137 176 226 288 339 400
#
# _framework density 23.162973999999998
#
# number of rings (size 3 to 8) (size 9 to 14) (size 15 to 20)
#    0.000    0.667    3.333    4.000    4.667    1.333 
#   12.000    0.000    0.000    0.000    0.000    0.000 
#    0.000    0.000    0.000    0.000    0.000    0.000 
#
# Total GULP energy -67063.572684 kJ/mol
# GULP energy per Si atom -5588.631057 kJ/mol
# Density = 2.311025 g / cm^3
# Si number density = 23.162974 Si / 1000 Ang^3
#
#
#
# Elastic Constant Matrix: (Units=GPa)
#
#
# Indices 1 2 3 4 5 6 
#
# 1 181.5715 47.8934 46.6698 7.5258 46.4469 -5.8202
# 2 47.8934 47.1154 26.8977 8.5558 5.8459 -12.8624
# 3 46.6698 26.8977 89.2553 9.1580 19.6987 -5.3429
# 4 7.5258 8.5558 9.1580 21.0378 -9.2047 4.8157
# 5 46.4469 5.8459 19.6987 -9.2047 57.4730 6.9290
# 6 -5.8202 -12.8624 -5.3429 4.8157 6.9290 43.0623
#
#
#
# Elastic Compliance Matrix: (Units=1/GPa)
#
#
# Indices 1 2 3 4 5 6 
#
# 1 0.009866 -0.007942 -0.000736 -0.003368 -0.007508 0.000455
# 2 -0.007942 0.037272 -0.005567 -0.011670 0.001406 0.010448
# 3 -0.000736 -0.005567 0.015267 -0.006880 -0.005387 0.001768
# 4 -0.003368 -0.011670 -0.006880 0.068383 0.019090 -0.015514
# 5 -0.007508 0.001406 -0.005387 0.019090 0.029203 -0.008097
# 6 0.000455 0.010448 0.001768 -0.015514 -0.008097 0.029661
#
#
# Mechanical properties :
#
#
# Convention : Reuss Voigt Hill
#
# Bulk Modulus (GPa) = 29.48469 62.31821 45.90145
# Shear Modulus (GPa) = 21.79144 37.41336 29.60240
#
# Velocity S-wave (km/s) = 3.07055 4.02334 3.57880
# Velocity P-wave (km/s) = 5.03269 6.96747 6.07757
#
# Compressibility (1/GPa) = 0.03391590
#
# Stress axis : x y z
#
# Youngs Moduli (GPa) = 101.35833 26.82951 65.50090
#
# Poissons Ratio (x) = 0.21307 0.04819
# Poissons Ratio (y) = 0.80494 0.36467
# Poissons Ratio (z) = 0.07457 0.14937
#
# Static dielectric constant tensor:
#      x y z
#    x 1.813610 -0.002820 -0.033210 
#    y -0.002820 1.977000 -0.030570 
#    z -0.033210 -0.030570 1.875020 
# 
# From -- ./inp_files/23718.got.cif
#   From: 2010.05.17/outbox.ucp.g08.bks.cvg/sg2_12_cif.got.tgz:23718.got - 2010.06.11 11:32:03.
