data_PCOD9074749
_publ_section_title
;
Structure prediction by ZEFSAII (Michael W. Deem and Ramdas Pophale) SiO2 
 PCOD9074749
Probable space group: P -1
;
_chemical_formula_sum "Si O2"
_cell_formula_units_Z 16
_cell_length_a 12.000000
_cell_length_b 9.000000
_cell_length_c 18.000000
_cell_angle_alpha 140.000000
_cell_angle_beta 40.000000
_cell_angle_gamma 140.000000
_cell_volume 723.717541
_symmetry_space_group_name_H-M "P -1"
_symmetry_group_IT_number 2
_symmetry_cell_setting 'triclinic'
loop_
_space_group_symop_operation_xyz
x,y,z
-x,-y,-z
loop_
_atom_site_type_symbol
_atom_site_label
_atom_site_fract_x
_atom_site_fract_y
_atom_site_fract_z
Si Si1 0.072613 0.783214 0.413609
Si Si2 0.325343 0.004398 0.227240
Si Si3 0.035090 0.066025 0.689385
Si Si4 0.627398 0.407706 0.453629
Si Si5 0.307775 0.057377 0.774342
Si Si6 0.428154 0.400760 0.699819
Si Si7 0.628692 0.795591 0.036758
Si Si8 0.917796 0.731756 0.760662
O O1 0.211696 0.961319 0.347025
O O2 0.145755 0.569618 0.315596
O O3 0.854170 0.609848 0.425463
O O4 0.079494 0.951784 0.546908
O O5 0.483794 0.906276 0.125336
O O6 0.143797 0.866583 0.211493
O O7 0.450539 0.292796 0.244922
O O8 0.216878 0.288362 0.723952
O O9 0.958720 0.826695 0.692545
O O10 0.500000 0.500000 0.500000
O O11 0.549298 0.335037 0.550099
O O12 0.595522 0.133872 0.333456
O O13 0.411073 0.279281 0.744304
O O14 0.275385 0.125523 0.900598
O O15 0.111802 0.878030 0.764358
O O16 0.500000 0.500000 0.000000
O O17 0.774394 0.825842 0.908276
#
# Coordination Sequence:
#
# PCOD9074749 Si02
#       8
#     2   2   2   2   2   2   2   2
#     4  11  23  43  71 104 141 179 225 289 344 409
#     4  12  26  44  69 105 142 180 231 283 349 411
#     4  11  25  44  72 105 144 171 229 290 347 415
#     4  11  22  40  72 103 144 182 225 283 350 413
#     4  10  25  45  68 100 140 182 235 283 340 417
#     4  11  25  43  67 106 142 187 220 279 357 411
#     4  12  26  46  72  96 134 185 237 286 339 414
#     4  10  24  49  70 101 133 187 231 285 350 400
#
# _framework density 22.108073000000001
#
# number of rings (size 3 to 8) (size 9 to 14) (size 15 to 20)
#    0.000    1.000    2.500    3.000    5.250    1.500 
#    2.250    1.250    0.000    0.000    0.000    0.000 
#    0.000    0.000    0.000    0.000    0.000    0.000 
#
# Total GULP energy -89295.784808 kJ/mol
# GULP energy per Si atom -5580.986550 kJ/mol
# Density = 2.205775 g / cm^3
# Si number density = 22.108073 Si / 1000 Ang^3
#
#
#
# Elastic Constant Matrix: (Units=GPa)
#
#
# Indices 1 2 3 4 5 6 
#
# 1 119.8549 26.1885 37.3774 -0.2243 -21.1661 3.9241
# 2 26.1885 103.3115 28.9866 -4.3517 -28.5825 5.0221
# 3 37.3774 28.9866 65.1089 -20.4599 -8.0030 -13.8955
# 4 -0.2243 -4.3517 -20.4599 5.0880 18.7914 -8.8438
# 5 -21.1661 -28.5825 -8.0030 18.7914 3.9870 14.0140
# 6 3.9241 5.0221 -13.8955 -8.8438 14.0140 4.8945
#
#
#
# Elastic Compliance Matrix: (Units=1/GPa)
#
#
# Indices 1 2 3 4 5 6 
#
# 1 0.009074 -0.002355 -0.002660 0.003869 -0.002953 0.003035
# 2 -0.002355 0.011013 0.001099 0.010615 0.002943 0.004460
# 3 -0.002660 0.001099 0.019827 0.002321 0.021351 0.000359
# 4 0.003869 0.010615 0.002321 0.038381 0.032805 -0.031980
# 5 -0.002953 0.002943 0.021351 0.032805 0.030299 0.032485
# 6 0.003035 0.004460 0.000359 -0.031980 0.032485 0.047525
#
#
# Mechanical properties :
#
#
# Convention : Reuss Voigt Hill
#
# Bulk Modulus (GPa) = 31.17172 52.59781 41.88476
# Shear Modulus (GPa) = 28.62923 15.84208 22.23565
#
# Velocity S-wave (km/s) = 3.60247 2.67979 3.17483
# Velocity P-wave (km/s) = 5.60660 5.78083 5.69438
#
# Compressibility (1/GPa) = 0.03208036
#
# Stress axis : x y z
#
# Youngs Moduli (GPa) = 110.20398 90.80258 50.43542
#
# Poissons Ratio (x) = 0.21387 0.13417
# Poissons Ratio (y) = 0.25957 -0.05541
# Poissons Ratio (z) = 0.29317 -0.09975
#
# Static dielectric constant tensor:
#      x y z
#    x 1.893550 -0.024570 0.119750 
#    y -0.024570 1.844870 -0.084850 
#    z 0.119750 -0.084850 2.149830 
# 
# From -- ./inp_files/428323.got.cif
#   From: 2010.05.17/outbox.ucp.g08.bks.cvg/sg2_215_cif.got.tgz:428323.got - 2010.06.11 11:32:03.
