data_PCOD9074612
_publ_section_title
;
Structure prediction by ZEFSAII (Michael W. Deem and Ramdas Pophale) SiO2 
 PCOD9074612
Probable space group: P -1
;
_chemical_formula_sum "Si O2"
_cell_formula_units_Z 16
_cell_length_a 9.000000
_cell_length_b 12.000000
_cell_length_c 18.000000
_cell_angle_alpha 140.000000
_cell_angle_beta 50.000000
_cell_angle_gamma 100.000000
_cell_volume 729.599496
_symmetry_space_group_name_H-M "P -1"
_symmetry_group_IT_number 2
_symmetry_cell_setting 'triclinic'
loop_
_space_group_symop_operation_xyz
x,y,z
-x,-y,-z
loop_
_atom_site_type_symbol
_atom_site_label
_atom_site_fract_x
_atom_site_fract_y
_atom_site_fract_z
Si Si1 0.375321 0.914132 0.036889
Si Si2 0.135622 0.155687 0.859650
Si Si3 0.471604 0.278034 0.831089
Si Si4 0.882462 0.151904 0.379941
Si Si5 0.856990 0.795163 0.541912
Si Si6 0.648692 0.374171 0.213397
Si Si7 0.447386 0.732577 0.659501
Si Si8 0.654771 0.544939 0.876159
O O1 0.432587 0.712986 0.868025
O O2 0.477031 0.796411 0.024743
O O3 0.074295 0.121095 0.241785
O O4 0.500000 0.000000 0.000000
O O5 0.284379 0.244941 0.838202
O O6 0.075984 0.077364 0.764903
O O7 0.291664 0.931970 0.749499
O O8 0.889304 0.332686 0.080249
O O9 0.559755 0.399880 0.821314
O O10 0.699381 0.024991 0.660446
O O11 0.338132 0.428412 0.024893
O O12 0.591619 0.363003 0.566141
O O13 0.985709 0.183824 0.437138
O O14 0.683453 0.733719 0.596418
O O15 0.070937 0.588801 0.315631
O O16 0.690774 0.229407 0.198359
O O17 0.500000 0.500000 0.500000
#
# Coordination Sequence:
#
# PCOD9074612 Si02
#       8
#     2   2   2   2   2   2   2   2
#     4  11  24  38  64  97 131 169 210 264 327 386
#     4  10  24  42  64  89 131 176 219 265 322 380
#     4  10  24  45  67  93 128 169 225 271 313 384
#     4  11  22  42  62  96 134 163 220 263 324 390
#     4  11  23  40  69  94 130 167 217 271 324 379
#     4  11  23  39  61  91 134 174 211 261 326 388
#     4  11  23  39  61  97 134 170 214 267 320 390
#     4  11  23  42  69  95 127 170 220 268 325 379
#
# _framework density 21.929839999999999
#
# number of rings (size 3 to 8) (size 9 to 14) (size 15 to 20)
#    0.000    1.250    3.750    1.500    5.250    1.000 
#    0.000    3.125    0.000    0.000    0.000    0.000 
#    0.000    0.000    0.000    0.000    0.000    0.000 
#
# Total GULP energy -89225.209085 kJ/mol
# GULP energy per Si atom -5576.575568 kJ/mol
# Density = 2.187993 g / cm^3
# Si number density = 21.929840 Si / 1000 Ang^3
#
#
#
# Elastic Constant Matrix: (Units=GPa)
#
#
# Indices 1 2 3 4 5 6 
#
# 1 82.6714 12.8145 12.3344 -4.0669 -0.7075 19.4477
# 2 12.8145 79.9184 3.6894 7.3031 -8.2938 22.2470
# 3 12.3344 3.6894 110.7950 -1.9080 -12.6005 5.4796
# 4 -4.0669 7.3031 -1.9080 23.0475 -4.4729 2.6115
# 5 -0.7075 -8.2938 -12.6005 -4.4729 24.2782 -6.2355
# 6 19.4477 22.2470 5.4796 2.6115 -6.2355 31.2963
#
#
#
# Elastic Compliance Matrix: (Units=1/GPa)
#
#
# Indices 1 2 3 4 5 6 
#
# 1 0.014690 -0.000175 -0.001354 0.003185 -0.002179 -0.009467
# 2 -0.000175 0.016025 0.000202 -0.003462 0.002217 -0.010588
# 3 -0.001354 0.000202 0.009814 0.001564 0.005391 -0.000077
# 4 0.003185 -0.003462 0.001564 0.046938 0.007817 -0.002151
# 5 -0.002179 0.002217 0.005391 0.007817 0.048117 0.007769
# 6 -0.009467 -0.010588 -0.000077 -0.002151 0.007769 0.047103
#
#
# Mechanical properties :
#
#
# Convention : Reuss Voigt Hill
#
# Bulk Modulus (GPa) = 26.40276 36.78458 31.59367
# Shear Modulus (GPa) = 25.25683 32.02750 28.64217
#
# Velocity S-wave (km/s) = 3.39737 3.82573 3.61790
# Velocity P-wave (km/s) = 5.23978 6.02704 5.64714
#
# Compressibility (1/GPa) = 0.03787483
#
# Stress axis : x y z
#
# Youngs Moduli (GPa) = 68.07173 62.40152 101.89935
#
# Poissons Ratio (x) = 0.01091 0.13801
# Poissons Ratio (y) = 0.01190 -0.02058
# Poissons Ratio (z) = 0.09219 -0.01260
#
# Static dielectric constant tensor:
#      x y z
#    x 1.891940 -0.046410 0.008840 
#    y -0.046410 1.789800 -0.019110 
#    z 0.008840 -0.019110 1.885880 
# 
# From -- ./inp_files/279070.got.cif
#   From: 2010.05.17/outbox.ucp.g08.bks.cvg/sg2_140_cif.got.tgz:279070.got - 2010.06.11 11:32:03.
