data_PCOD9074848
_publ_section_title
;
Structure prediction by ZEFSAII (Michael W. Deem and Ramdas Pophale) SiO2 
 PCOD9074848
Probable space group: P -1
;
_chemical_formula_sum "Si O2"
_cell_formula_units_Z 16
_cell_length_a 27.000000
_cell_length_b 18.000000
_cell_length_c 27.000000
_cell_angle_alpha 20.000000
_cell_angle_beta 170.000000
_cell_angle_gamma 160.000000
_cell_volume 756.481449
_symmetry_space_group_name_H-M "P -1"
_symmetry_group_IT_number 2
_symmetry_cell_setting 'triclinic'
loop_
_space_group_symop_operation_xyz
x,y,z
-x,-y,-z
loop_
_atom_site_type_symbol
_atom_site_label
_atom_site_fract_x
_atom_site_fract_y
_atom_site_fract_z
Si Si1 0.893512 0.261841 0.810048
Si Si2 0.563791 0.757938 0.703661
Si Si3 0.622827 0.071109 0.762331
Si Si4 0.780470 0.697692 0.303989
Si Si5 0.763729 0.620148 0.566791
Si Si6 0.666425 0.061631 0.237669
Si Si7 0.999593 0.259795 0.620211
Si Si8 0.304979 0.694329 0.992131
O O1 0.630372 0.330348 0.480321
O O2 0.740192 0.090379 0.808987
O O3 0.107839 0.463455 0.922321
O O4 0.100462 0.200491 0.009380
O O5 0.435587 0.552807 0.743743
O O6 0.500000 0.000000 0.500000
O O7 0.695810 0.342147 0.682171
O O8 0.286553 0.938703 0.522591
O O9 0.762971 0.880063 0.043897
O O10 0.933413 0.700421 0.398290
O O11 0.039648 0.775773 0.551042
O O12 0.583101 0.875889 0.011627
O O13 0.100358 0.733455 0.812215
O O14 0.680492 0.798031 0.413031
O O15 0.589801 0.652991 0.325081
O O16 0.640430 0.141859 0.104315
O O17 0.000000 0.500000 0.500000
#
# Coordination Sequence:
#
# PCOD9074848 Si02
#       8
#     2   2   2   2   2   2   2   2
#     4  11  22  40  68  97 136 175 213 285 343 400
#     4  12  24  41  64 100 137 175 220 278 361 411
#     4  11  25  46  71  99 136 173 243 283 330 399
#     4  12  26  45  69  98 143 180 233 285 342 412
#     4  11  23  39  69 102 140 184 225 274 340 410
#     4  12  23  42  66 103 142 184 224 276 350 413
#     4  12  28  51  73  96 129 188 238 289 337 402
#     4  11  19  38  63 100 145 181 216 267 335 420
#
# _framework density 21.150552000000001
#
# number of rings (size 3 to 8) (size 9 to 14) (size 15 to 20)
#    0.000    0.500    2.500    7.500    3.500    0.000 
#    0.000    3.750    0.000    0.000    0.000    0.000 
#    0.000    0.000    0.000    0.000    0.000    0.000 
#
# Total GULP energy -89088.256528 kJ/mol
# GULP energy per Si atom -5568.016033 kJ/mol
# Density = 2.110241 g / cm^3
# Si number density = 21.150552 Si / 1000 Ang^3
#
#
#
# Elastic Constant Matrix: (Units=GPa)
#
#
# Indices 1 2 3 4 5 6 
#
# 1 90.5113 48.8968 3.3851 -6.6214 10.1025 -0.1176
# 2 48.8968 131.2481 3.6836 -16.4490 21.3566 -1.9208
# 3 3.3851 3.6836 78.5006 3.6449 13.5025 -12.6980
# 4 -6.6214 -16.4490 3.6449 42.9185 2.7127 8.2732
# 5 10.1025 21.3566 13.5025 2.7127 34.0106 -10.3097
# 6 -0.1176 -1.9208 -12.6980 8.2732 -10.3097 36.2008
#
#
#
# Elastic Compliance Matrix: (Units=1/GPa)
#
#
# Indices 1 2 3 4 5 6 
#
# 1 0.013886 -0.004919 -0.000313 0.000510 -0.001189 -0.000781
# 2 -0.004919 0.011017 0.000273 0.004276 -0.006568 -0.002183
# 3 -0.000313 0.000273 0.014236 -0.001680 -0.004336 0.004156
# 4 0.000510 0.004276 -0.001680 0.027250 -0.006939 -0.008564
# 5 -0.001189 -0.006568 -0.004336 -0.006939 0.039476 0.010955
# 6 -0.000781 -0.002183 0.004156 -0.008564 0.010955 0.034040
#
#
# Mechanical properties :
#
#
# Convention : Reuss Voigt Hill
#
# Bulk Modulus (GPa) = 34.22239 45.79900 40.01070
# Shear Modulus (GPa) = 31.33570 38.91229 35.12400
#
# Velocity S-wave (km/s) = 3.85327 4.29391 4.07955
# Velocity P-wave (km/s) = 6.00104 6.80327 6.41470
#
# Compressibility (1/GPa) = 0.02922063
#
# Stress axis : x y z
#
# Youngs Moduli (GPa) = 72.01372 90.77125 70.24682
#
# Poissons Ratio (x) = 0.44647 0.02202
# Poissons Ratio (y) = 0.35421 -0.01919
# Poissons Ratio (z) = 0.02257 -0.02480
#
# Static dielectric constant tensor:
#      x y z
#    x 1.831990 -0.031530 0.046230 
#    y -0.031530 1.800230 -0.010580 
#    z 0.046230 -0.010580 1.936940 
# 
# From -- ./inp_files/519713.got.cif
#   From: 2010.05.17/outbox.ucp.g08.bks.cvg/sg2_260_cif.got.tgz:519713.got - 2010.06.11 11:32:03.
