data_PCOD9074590
_publ_section_title
;
Structure prediction by ZEFSAII (Michael W. Deem and Ramdas Pophale) SiO2 
 PCOD9074590
Probable space group: P -1
;
_chemical_formula_sum "Si O2"
_cell_formula_units_Z 16
_cell_length_a 9.000000
_cell_length_b 9.000000
_cell_length_c 12.000000
_cell_angle_alpha 80.000000
_cell_angle_beta 80.000000
_cell_angle_gamma 50.000000
_cell_volume 730.800219
_symmetry_space_group_name_H-M "P -1"
_symmetry_group_IT_number 2
_symmetry_cell_setting 'triclinic'
loop_
_space_group_symop_operation_xyz
x,y,z
-x,-y,-z
loop_
_atom_site_type_symbol
_atom_site_label
_atom_site_fract_x
_atom_site_fract_y
_atom_site_fract_z
Si Si1 0.385518 0.690934 0.412531
Si Si2 0.293796 0.381499 0.239918
Si Si3 0.698000 0.679108 0.999379
Si Si4 0.061567 0.968560 0.815869
Si Si5 0.977195 0.266805 0.606790
Si Si6 0.392448 0.543336 0.801046
Si Si7 0.330815 0.076379 0.425398
Si Si8 0.235408 0.023388 0.003779
O O1 0.500000 0.500000 0.500000
O O2 0.176648 0.745728 0.428939
O O3 0.500769 0.611167 0.291354
O O4 0.355273 0.884586 0.418931
O O5 0.143251 0.533688 0.333346
O O6 0.453246 0.416799 0.198176
O O7 0.358503 0.177601 0.307045
O O8 0.214435 0.406768 0.123076
O O9 0.684883 0.531645 0.090321
O O10 0.794750 0.775130 0.017655
O O11 0.467331 0.858415 0.993045
O O12 0.199370 0.757162 0.769825
O O13 0.151187 0.987796 0.912846
O O14 0.059921 0.106548 0.712588
O O15 0.865708 0.003467 0.876048
O O16 0.131002 0.225022 0.501570
O O17 0.500000 0.000000 0.500000
#
# Coordination Sequence:
#
# PCOD9074590 Si02
#       8
#     2   2   2   2   2   2   2   2
#     4  11  25  47  74 101 133 181 234 282 350 414
#     4  11  24  42  69  99 134 182 231 282 345 403
#     4  11  24  43  67  99 139 184 233 279 342 407
#     4  11  23  43  67 100 139 180 224 282 349 406
#     4  11  25  46  71  96 138 181 229 285 352 407
#     4  11  24  42  69  98 140 181 226 284 346 405
#     4  12  26  45  71 102 137 177 232 291 346 409
#     4  10  24  40  67  95 141 177 232 275 341 404
#
# _framework density 21.893808
#
# number of rings (size 3 to 8) (size 9 to 14) (size 15 to 20)
#    0.000    1.000    1.250    5.625    8.750    0.500 
#    2.250    0.000    0.000    0.000    0.000    0.000 
#    0.000    0.000    0.000    0.000    0.000    0.000 
#
# Total GULP energy -89309.648245 kJ/mol
# GULP energy per Si atom -5581.853015 kJ/mol
# Density = 2.184398 g / cm^3
# Si number density = 21.893808 Si / 1000 Ang^3
#
#
#
# Elastic Constant Matrix: (Units=GPa)
#
#
# Indices 1 2 3 4 5 6 
#
# 1 79.7036 29.5221 20.8170 21.4304 -20.9025 6.9256
# 2 29.5221 84.0724 7.9279 -0.5289 0.5036 33.1677
# 3 20.8170 7.9279 52.4918 -7.9272 -33.2519 -4.4231
# 4 21.4304 -0.5289 -7.9272 42.7781 9.1793 -5.3679
# 5 -20.9025 0.5036 -33.2519 9.1793 23.3817 -19.6187
# 6 6.9256 33.1677 -4.4231 -5.3679 -19.6187 8.3323
#
#
#
# Elastic Compliance Matrix: (Units=1/GPa)
#
#
# Indices 1 2 3 4 5 6 
#
# 1 0.021934 -0.002850 -0.008585 -0.014894 0.004454 -0.010552
# 2 -0.002850 0.009846 0.009930 0.000733 0.015381 0.005133
# 3 -0.008585 0.009930 0.019061 0.005494 -0.001377 -0.021976
# 4 -0.014894 0.000733 0.005494 0.035445 -0.010365 0.010808
# 5 0.004454 0.015381 -0.001377 -0.010365 0.012469 -0.042977
# 6 -0.010552 0.005133 -0.021976 0.010808 -0.042977 0.002458
#
#
# Mechanical properties :
#
#
# Convention : Reuss Voigt Hill
#
# Bulk Modulus (GPa) = 20.90713 36.97799 28.94256
# Shear Modulus (GPa) = 41.60843 25.43181 33.52012
#
# Velocity S-wave (km/s) = 4.36416 3.41192 3.91709
# Velocity P-wave (km/s) = 5.91309 5.69631 5.80571
#
# Compressibility (1/GPa) = 0.04783057
#
# Stress axis : x y z
#
# Youngs Moduli (GPa) = 45.59128 101.56185 52.46261
#
# Poissons Ratio (x) = 0.28946 0.45040
# Poissons Ratio (y) = 0.12994 -0.52094
# Poissons Ratio (z) = 0.39141 -1.00849
#
# Static dielectric constant tensor:
#      x y z
#    x 1.811630 -0.001070 0.028660 
#    y -0.001070 1.845300 0.015800 
#    z 0.028660 0.015800 1.746530 
# 
# From -- ./inp_files/241987.got.cif
#   From: 2010.05.17/outbox.ucp.g08.bks.cvg/sg2_121_cif.got.tgz:241987.got - 2010.06.11 11:32:03.
