data_PCOD9074205
_publ_section_title
;
Structure prediction by ZEFSAII (Michael W. Deem and Ramdas Pophale) SiO2 
 PCOD9074205
Probable space group: P -1
;
_chemical_formula_sum "Si O2"
_cell_formula_units_Z 16
_cell_length_a 15.000000
_cell_length_b 9.000000
_cell_length_c 12.000000
_cell_angle_alpha 100.000000
_cell_angle_beta 30.000000
_cell_angle_gamma 110.000000
_cell_volume 734.803614
_symmetry_space_group_name_H-M "P -1"
_symmetry_group_IT_number 2
_symmetry_cell_setting 'triclinic'
loop_
_space_group_symop_operation_xyz
x,y,z
-x,-y,-z
loop_
_atom_site_type_symbol
_atom_site_label
_atom_site_fract_x
_atom_site_fract_y
_atom_site_fract_z
Si Si1 0.256581 0.836263 0.959264
Si Si2 0.118368 0.324515 0.791756
Si Si3 0.474666 0.804059 0.353017
Si Si4 0.195695 0.962209 0.280690
Si Si5 0.934583 0.370547 0.220556
Si Si6 0.996101 0.345272 0.409788
Si Si7 0.514775 0.682448 0.539012
Si Si8 0.597854 0.677815 0.980329
O O1 0.350180 0.708691 0.796915
O O2 0.399622 0.013314 0.791525
O O3 0.211006 0.858256 0.140967
O O4 0.066964 0.798593 0.086191
O O5 0.143817 0.492713 0.721437
O O6 0.288577 0.259727 0.595613
O O7 0.076156 0.354771 0.970241
O O8 0.256960 0.791707 0.596081
O O9 0.528714 0.763797 0.412954
O O10 0.495267 0.694517 0.210703
O O11 0.170285 0.830292 0.391861
O O12 0.360376 0.150893 0.113331
O O13 0.000000 0.000000 0.500000
O O14 0.994249 0.391923 0.287526
O O15 0.000000 0.500000 0.500000
O O16 0.193275 0.318850 0.212611
O O17 0.500000 0.500000 0.500000
O O18 0.500000 0.500000 0.000000
#
# Coordination Sequence:
#
# PCOD9074205 Si02
#       8
#     2   2   2   2   2   2   2   2
#     4  11  24  45  71 101 143 176 231 295 350 414
#     4  11  23  42  70  99 136 184 227 282 351 414
#     4  11  23  44  66  99 143 174 227 297 345 420
#     4   9  22  46  71  99 138 185 235 291 347 424
#     4  11  22  42  66  97 138 179 228 285 345 417
#     4  11  22  41  69  99 134 187 233 283 357 418
#     4  12  23  43  68 105 138 182 233 279 348 419
#     4  10  22  43  70  99 137 181 235 296 351 414
#
# _framework density 21.774525000000001
#
# number of rings (size 3 to 8) (size 9 to 14) (size 15 to 20)
#    0.000    1.250    2.500    3.375    0.000    2.500 
#    6.750    6.875    0.000    0.000    0.000    0.000 
#    0.000    0.000    0.000    0.000    0.000    0.000 
#
# Total GULP energy -89251.498331 kJ/mol
# GULP energy per Si atom -5578.218646 kJ/mol
# Density = 2.172497 g / cm^3
# Si number density = 21.774525 Si / 1000 Ang^3
#
#
#
# Elastic Constant Matrix: (Units=GPa)
#
#
# Indices 1 2 3 4 5 6 
#
# 1 107.6981 20.2233 39.1921 -4.9049 16.5663 2.4270
# 2 20.2233 89.3072 22.4889 2.6233 13.0362 14.0057
# 3 39.1921 22.4889 101.4504 4.8936 6.4098 3.4581
# 4 -4.9049 2.6233 4.8936 41.5963 -0.5692 0.1237
# 5 16.5663 13.0362 6.4098 -0.5692 51.2472 -3.6493
# 6 2.4270 14.0057 3.4581 0.1237 -3.6493 30.6357
#
#
#
# Elastic Compliance Matrix: (Units=1/GPa)
#
#
# Indices 1 2 3 4 5 6 
#
# 1 0.011535 -0.001167 -0.004094 0.001876 -0.002918 -0.000273
# 2 -0.001167 0.013453 -0.002078 -0.000767 -0.003235 -0.006205
# 3 -0.004094 -0.002078 0.011964 -0.001755 0.000334 -0.000029
# 4 0.001876 -0.000767 -0.001755 0.024517 0.000103 0.000313
# 5 -0.002918 -0.003235 0.000334 0.000103 0.021541 0.004238
# 6 -0.000273 -0.006205 -0.000029 0.000313 0.004238 0.036007
#
#
# Mechanical properties :
#
#
# Convention : Reuss Voigt Hill
#
# Bulk Modulus (GPa) = 44.89907 51.36271 48.13089
# Shear Modulus (GPa) = 35.43080 39.13261 37.28170
#
# Velocity S-wave (km/s) = 4.03819 4.24391 4.14233
# Velocity P-wave (km/s) = 6.51210 6.90319 6.71049
#
# Compressibility (1/GPa) = 0.02227218
#
# Stress axis : x y z
#
# Youngs Moduli (GPa) = 86.69401 74.33316 83.58489
#
# Poissons Ratio (x) = 0.08677 0.34221
# Poissons Ratio (y) = 0.10120 0.17371
# Poissons Ratio (z) = 0.35494 0.15448
#
# Static dielectric constant tensor:
#      x y z
#    x 1.796920 0.005870 0.045170 
#    y 0.005870 1.800070 0.037030 
#    z 0.045170 0.037030 1.537860 
# 
# From -- ./inp_files/447613.got.cif
#   From: 2010.05.17/outbox.ucp.g08.bks.cvg/sg2_224_cif.got.tgz:447613.got - 2010.06.11 11:32:03.
