data_PCOD9074665
_publ_section_title
;
Structure prediction by ZEFSAII (Michael W. Deem and Ramdas Pophale) SiO2 
 PCOD9074665
Probable space group: P -1
;
_chemical_formula_sum "Si O2"
_cell_formula_units_Z 16
_cell_length_a 12.000000
_cell_length_b 9.000000
_cell_length_c 21.000000
_cell_angle_alpha 40.000000
_cell_angle_beta 30.000000
_cell_angle_gamma 50.000000
_cell_volume 727.418465
_symmetry_space_group_name_H-M "P -1"
_symmetry_group_IT_number 2
_symmetry_cell_setting 'triclinic'
loop_
_space_group_symop_operation_xyz
x,y,z
-x,-y,-z
loop_
_atom_site_type_symbol
_atom_site_label
_atom_site_fract_x
_atom_site_fract_y
_atom_site_fract_z
Si Si1 0.920934 0.339731 0.926734
Si Si2 0.017203 0.938782 0.437253
Si Si3 0.380940 0.089794 0.448015
Si Si4 0.854509 0.172092 0.870237
Si Si5 0.882696 0.256491 0.115441
Si Si6 0.823771 0.546955 0.475459
Si Si7 0.580498 0.448650 0.405015
Si Si8 0.386510 0.300510 0.074945
O O1 0.867584 0.215060 0.926440
O O2 0.763632 0.552279 0.944076
O O3 0.173920 0.439490 0.762638
O O4 0.885474 0.209668 0.053233
O O5 0.076609 0.681362 0.471680
O O6 0.770969 0.950622 0.526167
O O7 0.209559 0.120123 0.255365
O O8 0.000000 0.000000 0.500000
O O9 0.625346 0.218483 0.276535
O O10 0.238049 0.242688 0.516736
O O11 0.425267 0.820106 0.527083
O O12 0.007027 0.365610 0.693387
O O13 0.594093 0.183101 0.979697
O O14 0.962367 0.939672 0.871903
O O15 0.000000 0.500000 0.000000
O O16 0.596013 0.445759 0.588597
O O17 0.500000 0.500000 0.500000
O O18 0.500000 0.500000 0.000000
#
# Coordination Sequence:
#
# PCOD9074665 Si02
#       8
#     2   2   2   2   2   2   2   2
#     4  11  23  45  71 101 136 180 235 287 350 411
#     4  12  26  46  76 103 137 187 242 287 342 421
#     4  12  27  47  70 102 146 186 234 291 353 416
#     4  11  25  45  69 103 138 182 232 291 348 413
#     4  12  28  45  68 103 144 186 229 286 354 419
#     4  12  26  45  71 103 145 182 232 294 354 415
#     4  12  22  44  74 102 133 184 240 289 343 411
#     4  10  24  44  69 104 138 175 228 292 348 404
#
# _framework density 21.995591999999998
#
# number of rings (size 3 to 8) (size 9 to 14) (size 15 to 20)
#    0.000    0.500    3.750    4.125   10.500    0.000 
#    0.000    1.250    0.000    0.000    0.000    0.000 
#    0.000    0.000    0.000    0.000    0.000    0.000 
#
# Total GULP energy -89346.386415 kJ/mol
# GULP energy per Si atom -5584.149151 kJ/mol
# Density = 2.194553 g / cm^3
# Si number density = 21.995592 Si / 1000 Ang^3
#
#
#
# Elastic Constant Matrix: (Units=GPa)
#
#
# Indices 1 2 3 4 5 6 
#
# 1 63.9191 20.0848 -5.1477 21.5014 -4.5878 -12.7977
# 2 20.0848 103.2132 55.1909 3.8463 -0.0171 -12.6352
# 3 -5.1477 55.1909 26.4663 28.3389 -6.9089 -23.0078
# 4 21.5014 3.8463 28.3389 40.4186 -7.3339 -3.8406
# 5 -4.5878 -0.0171 -6.9089 -7.3339 25.4370 12.6683
# 6 -12.7977 -12.6352 -23.0078 -3.8406 12.6683 46.5009
#
#
#
# Elastic Compliance Matrix: (Units=1/GPa)
#
#
# Indices 1 2 3 4 5 6 
#
# 1 0.011162 0.005164 -0.014547 0.003595 0.000359 -0.002523
# 2 0.005164 0.003587 0.012249 -0.011464 -0.003222 0.008387
# 3 -0.014547 0.012249 -0.021443 0.021133 0.002782 -0.010297
# 4 0.003595 -0.011464 0.021133 0.010864 0.005689 0.007678
# 5 0.000359 -0.003222 0.002782 0.005689 0.047712 -0.011929
# 6 -0.002523 0.008387 -0.010297 0.007678 -0.011929 0.021879
#
#
# Mechanical properties :
#
#
# Convention : Reuss Voigt Hill
#
# Bulk Modulus (GPa) = -1040.15579 37.09495 -501.53042
# Shear Modulus (GPa) = 73.84625 30.70266 52.27446
#
# Velocity S-wave (km/s) = 5.80052 3.74017 4.88031
# Velocity P-wave (km/s) = 20.71371 5.96265 14.02685
#
# Compressibility (1/GPa) = -0.00096139
#
# Stress axis : x y z
#
# Youngs Moduli (GPa) = 89.59114 278.75480 -46.63586
#
# Poissons Ratio (x) = -1.43939 -0.67840
# Poissons Ratio (y) = -0.46262 0.57125
# Poissons Ratio (z) = 1.30325 -3.41450
#
# Static dielectric constant tensor:
#      x y z
#    x 1.751320 -0.042420 0.102750 
#    y -0.042420 1.799140 -0.015070 
#    z 0.102750 -0.015070 1.712680 
# 
# From -- ./inp_files/184386.got.cif
#   From: 2010.05.17/outbox.ucp.g08.bks.cvg/sg2_93_cif.got.tgz:184386.got - 2010.06.11 11:32:03.
