data_PCOD9074006
_publ_section_title
;
Structure prediction by ZEFSAII (Michael W. Deem and Ramdas Pophale) SiO2 
 PCOD9074006
Probable space group: P -1
;
_chemical_formula_sum "Si O2"
_cell_formula_units_Z 15
_cell_length_a 9.000000
_cell_length_b 9.000000
_cell_length_c 24.000000
_cell_angle_alpha 30.000000
_cell_angle_beta 140.000000
_cell_angle_gamma 130.000000
_cell_volume 623.501542
_symmetry_space_group_name_H-M "P -1"
_symmetry_group_IT_number 2
_symmetry_cell_setting 'triclinic'
loop_
_space_group_symop_operation_xyz
x,y,z
-x,-y,-z
loop_
_atom_site_type_symbol
_atom_site_label
_atom_site_fract_x
_atom_site_fract_y
_atom_site_fract_z
Si Si1 0.631765 0.212319 0.855273
Si Si2 0.443463 0.057897 0.199338
Si Si3 0.233728 0.915890 0.302419
Si Si4 0.618539 0.136354 0.416136
Si Si5 0.500000 0.000000 0.000000
Si Si6 0.949839 0.480168 0.084436
Si Si7 0.102746 0.514264 0.699789
Si Si8 0.975630 0.182301 0.309279
O O1 0.512592 0.546441 0.710178
O O2 0.502711 0.011827 0.926882
O O3 0.873841 0.255985 0.943448
O O4 0.631151 0.088093 0.833103
O O5 0.354715 0.919022 0.275918
O O6 0.721913 0.054765 0.283947
O O7 0.299646 0.381234 0.050905
O O8 0.427905 0.929482 0.401980
O O9 0.068198 0.222283 0.162738
O O10 0.068856 0.643783 0.340151
O O11 0.788119 0.214366 0.388623
O O12 0.788355 0.028326 0.550053
O O13 0.313375 0.284729 0.852324
O O14 0.951992 0.345560 0.190625
O O15 0.988695 0.611522 0.693762
#
# Coordination Sequence:
#
# PCOD9074006 Si02
#       8
#     2   2   2   2   1   2   2   2
#     4  10  23  44  72  99 142 178 231 286 344 411
#     4  12  24  43  71 106 137 181 229 288 349 412
#     4  11  25  44  73 102 137 186 227 285 352 403
#     4  10  25  49  65 103 141 184 233 284 339 412
#     4  10  22  40  72 104 136 174 224 284 350 400
#     4  11  25  44  67 105 137 179 232 289 346 412
#     4  11  23  42  71 101 137 183 223 290 341 408
#     4  12  26  44  69 100 145 179 235 285 337 415
#
# _framework density 24.057679
#
# number of rings (size 3 to 8) (size 9 to 14) (size 15 to 20)
#    0.000    1.067    1.333    4.000    5.600    3.200 
#    2.400    0.000    0.000    0.000    0.000    0.000 
#    0.000    0.000    0.000    0.000    0.000    0.000 
#
# Total GULP energy -83721.394170 kJ/mol
# GULP energy per Si atom -5581.426278 kJ/mol
# Density = 2.400292 g / cm^3
# Si number density = 24.057679 Si / 1000 Ang^3
#
#
#
# Elastic Constant Matrix: (Units=GPa)
#
#
# Indices 1 2 3 4 5 6 
#
# 1 61.2281 -1.8512 -13.4015 -8.1890 1.6365 -39.5639
# 2 -1.8512 107.3701 -8.8001 8.8000 16.2109 -12.4078
# 3 -13.4015 -8.8001 85.1875 27.5280 10.2150 14.8081
# 4 -8.1890 8.8000 27.5280 25.6135 1.3410 4.1486
# 5 1.6365 16.2109 10.2150 1.3410 37.0862 7.9320
# 6 -39.5639 -12.4078 14.8081 4.1486 7.9320 22.5490
#
#
#
# Elastic Compliance Matrix: (Units=1/GPa)
#
#
# Indices 1 2 3 4 5 6 
#
# 1 -0.034924 -0.012967 0.003967 0.000655 0.023041 -0.079242
# 2 -0.012967 0.007875 0.005232 -0.009207 0.000361 -0.020287
# 3 0.003967 0.005232 0.020687 -0.022875 -0.008036 0.003289
# 4 0.000655 -0.009207 -0.022875 0.067245 0.008798 -0.004362
# 5 0.023041 0.000361 -0.008036 0.008798 0.019695 0.037357
# 6 -0.079242 -0.020287 0.003289 -0.004362 0.037357 -0.120349
#
#
# Mechanical properties :
#
#
# Convention : Reuss Voigt Hill
#
# Bulk Modulus (GPa) = -71.95294 22.85335 -24.54980
# Shear Modulus (GPa) = -135.62389 35.57228 -50.02580
#
# Velocity S-wave (km/s) = -7.51644 3.84946 -4.56500
# Velocity P-wave (km/s) = 10.26170 5.41090 6.16542
#
# Compressibility (1/GPa) = -0.01389797
#
# Stress axis : x y z
#
# Youngs Moduli (GPa) = -28.63392 126.99059 48.33890
#
# Poissons Ratio (x) = 1.64665 -0.19174
# Poissons Ratio (y) = -0.37129 -0.25291
# Poissons Ratio (z) = 0.11358 -0.66443
#
# Static dielectric constant tensor:
#      x y z
#    x 1.989120 0.081600 0.013100 
#    y 0.081600 1.946500 -0.053590 
#    z 0.013100 -0.053590 1.932270 
# 
# From -- ./inp_files/241298.got.cif
#   From: 2010.05.17/outbox.ucp.g08.bks.cvg/sg2_121_cif.got.tgz:241298.got - 2010.06.11 11:32:03.
