data_PCOD9074905
_publ_section_title
;
Structure prediction by ZEFSAII (Michael W. Deem and Ramdas Pophale) SiO2 
 PCOD9074905
Probable space group: P -1
;
_chemical_formula_sum "Si O2"
_cell_formula_units_Z 16
_cell_length_a 9.000000
_cell_length_b 27.000000
_cell_length_c 12.000000
_cell_angle_alpha 150.000000
_cell_angle_beta 40.000000
_cell_angle_gamma 150.000000
_cell_volume 727.497153
_symmetry_space_group_name_H-M "P -1"
_symmetry_group_IT_number 2
_symmetry_cell_setting 'triclinic'
loop_
_space_group_symop_operation_xyz
x,y,z
-x,-y,-z
loop_
_atom_site_type_symbol
_atom_site_label
_atom_site_fract_x
_atom_site_fract_y
_atom_site_fract_z
Si Si1 0.006056 0.999089 0.157336
Si Si2 0.090594 0.557472 0.386530
Si Si3 0.487268 0.486901 0.618174
Si Si4 0.416462 0.630647 0.113486
Si Si5 0.048109 0.319242 0.958544
Si Si6 0.469290 0.049377 0.825440
Si Si7 0.706597 0.706708 0.454923
Si Si8 0.747814 0.913815 0.383385
O O1 0.137303 0.144938 0.350521
O O2 0.259400 0.998478 0.955801
O O3 0.707305 0.929805 0.121218
O O4 0.914845 0.947249 0.233951
O O5 0.179531 0.594689 0.276885
O O6 0.383744 0.638250 0.451695
O O7 0.841165 0.565497 0.588347
O O8 0.970940 0.413499 0.187915
O O9 0.500000 0.500000 0.500000
O O10 0.328757 0.353878 0.520837
O O11 0.354829 0.545831 0.875175
O O12 0.649965 0.626914 0.044141
O O13 0.563360 0.769530 0.250418
O O14 0.111190 0.308362 0.771298
O O15 0.794079 0.186523 0.905765
O O16 0.534561 0.952688 0.569917
O O17 0.000000 0.000000 0.500000
#
# Coordination Sequence:
#
# PCOD9074905 Si02
#       8
#     2   2   2   2   2   2   2   2
#     4  11  26  44  70 100 136 180 231 278 332 401
#     4  11  23  43  73  97 127 180 226 272 332 399
#     4  12  27  43  65 105 140 170 217 279 348 400
#     4  11  24  43  66 101 138 172 222 281 334 397
#     4  11  20  44  76  95 126 177 233 276 328 399
#     4  11  25  45  69 101 132 181 232 276 335 400
#     4  11  21  43  73  97 129 177 229 271 329 404
#     4  12  24  43  67 100 140 181 223 278 339 398
#
# _framework density 21.993213000000001
#
# number of rings (size 3 to 8) (size 9 to 14) (size 15 to 20)
#    0.000    0.750    5.000    3.000    1.750    6.000 
#    0.000    0.000    0.000    0.000    0.000    0.000 
#    0.000    0.000    0.000    0.000    0.000    0.000 
#
# Total GULP energy -89439.145181 kJ/mol
# GULP energy per Si atom -5589.946574 kJ/mol
# Density = 2.194316 g / cm^3
# Si number density = 21.993213 Si / 1000 Ang^3
#
#
#
# Elastic Constant Matrix: (Units=GPa)
#
#
# Indices 1 2 3 4 5 6 
#
# 1 61.7874 21.0975 -3.8740 -11.9545 15.4971 -32.8066
# 2 21.0975 95.3961 24.3095 -20.9355 -4.1443 -36.0136
# 3 -3.8740 24.3095 42.8947 -13.2500 5.6838 -11.6908
# 4 -11.9545 -20.9355 -13.2500 54.1255 -11.9470 -0.5224
# 5 15.4971 -4.1443 5.6838 -11.9470 28.1492 -8.9433
# 6 -32.8066 -36.0136 -11.6908 -0.5224 -8.9433 56.5277
#
#
#
# Elastic Compliance Matrix: (Units=1/GPa)
#
#
# Indices 1 2 3 4 5 6 
#
# 1 0.031310 -0.002765 0.012667 0.006465 -0.011996 0.017191
# 2 -0.002765 0.019735 -0.007486 0.008191 0.013090 0.011567
# 3 0.012667 -0.007486 0.034123 0.006182 -0.009751 0.008154
# 4 0.006465 0.008191 0.006182 0.027340 0.011939 0.012391
# 5 -0.011996 0.013090 -0.009751 0.011939 0.053620 0.007955
# 6 0.017191 0.011567 0.008154 0.012391 0.007955 0.038096
#
#
# Mechanical properties :
#
#
# Convention : Reuss Voigt Hill
#
# Bulk Modulus (GPa) = 11.11101 31.46047 21.28574
# Shear Modulus (GPa) = 21.79681 38.33016 30.06348
#
# Velocity S-wave (km/s) = 3.15154 4.17924 3.70123
# Velocity P-wave (km/s) = 4.27854 6.13382 5.28818
#
# Compressibility (1/GPa) = 0.09000085
#
# Stress axis : x y z
#
# Youngs Moduli (GPa) = 31.93838 50.67250 29.30562
#
# Poissons Ratio (x) = 0.14009 -0.37120
# Poissons Ratio (y) = 0.08830 0.21937
# Poissons Ratio (z) = -0.40455 0.37931
#
# Static dielectric constant tensor:
#      x y z
#    x 1.816430 0.052230 0.052610 
#    y 0.052230 1.811000 0.024310 
#    z 0.052610 0.024310 1.864190 
# 
# From -- ./inp_files/273299.got.cif
#   From: 2010.05.17/outbox.ucp.g08.bks.cvg/sg2_137_cif.got.tgz:273299.got - 2010.06.11 11:32:03.
