data_PCOD9074673
_publ_section_title
;
Structure prediction by ZEFSAII (Michael W. Deem and Ramdas Pophale) SiO2 
 PCOD9074673
Probable space group: P -1
;
_chemical_formula_sum "Si O2"
_cell_formula_units_Z 16
_cell_length_a 9.000000
_cell_length_b 9.000000
_cell_length_c 12.000000
_cell_angle_alpha 100.000000
_cell_angle_beta 80.000000
_cell_angle_gamma 130.000000
_cell_volume 730.800219
_symmetry_space_group_name_H-M "P -1"
_symmetry_group_IT_number 2
_symmetry_cell_setting 'triclinic'
loop_
_space_group_symop_operation_xyz
x,y,z
-x,-y,-z
loop_
_atom_site_type_symbol
_atom_site_label
_atom_site_fract_x
_atom_site_fract_y
_atom_site_fract_z
Si Si1 0.284268 0.810846 0.477343
Si Si2 0.187904 0.454149 0.841656
Si Si3 0.155819 0.609534 0.236373
Si Si4 0.637188 0.404022 0.402957
Si Si5 0.157273 0.093722 0.893777
Si Si6 0.792059 0.801864 0.542625
Si Si7 0.556823 0.358398 0.961868
Si Si8 0.015345 0.784771 0.681716
O O1 0.236051 0.760716 0.347359
O O2 0.262170 0.637570 0.522751
O O3 0.145957 0.837591 0.563613
O O4 0.500000 0.000000 0.500000
O O5 0.301282 0.570354 0.729523
O O6 0.179763 0.271773 0.853796
O O7 0.970642 0.376370 0.834114
O O8 0.310356 0.602258 0.946198
O O9 0.319948 0.612209 0.157297
O O10 0.021720 0.399145 0.283114
O O11 0.715213 0.620749 0.448856
O O12 0.406012 0.228058 0.422983
O O13 0.348281 0.156053 0.941026
O O14 0.107963 0.948515 0.783268
O O15 0.000000 0.000000 0.000000
O O16 0.827746 0.749942 0.652311
O O17 0.000000 0.000000 0.500000
O O18 0.500000 0.500000 0.000000
#
# Coordination Sequence:
#
# PCOD9074673 Si02
#       8
#     2   2   2   2   2   2   2   2
#     4  12  25  44  69 103 145 188 237 296 365 429
#     4  11  24  46  72 100 145 187 238 294 365 428
#     4  12  24  46  73 102 142 189 234 294 362 433
#     4  11  24  43  67 106 146 187 246 299 355 437
#     4  11  26  46  71 106 137 185 243 298 362 434
#     4  11  24  40  67 104 143 193 242 296 359 427
#     4  10  24  44  71 100 136 183 234 292 355 427
#     4  12  23  42  70  98 141 181 235 292 356 420
#
# _framework density 21.893808
#
# number of rings (size 3 to 8) (size 9 to 14) (size 15 to 20)
#    0.000    0.750    2.500    5.250    5.250    2.000 
#    0.000    1.250    0.000    0.000    0.000    0.000 
#    0.000    0.000    0.000    0.000    0.000    0.000 
#
# Total GULP energy -89288.263151 kJ/mol
# GULP energy per Si atom -5580.516447 kJ/mol
# Density = 2.184398 g / cm^3
# Si number density = 21.893808 Si / 1000 Ang^3
#
#
#
# Elastic Constant Matrix: (Units=GPa)
#
#
# Indices 1 2 3 4 5 6 
#
# 1 118.5362 43.8351 61.7345 14.3077 7.1636 18.3842
# 2 43.8351 74.0759 33.6151 2.7345 -0.4563 14.2623
# 3 61.7345 33.6151 152.8941 25.2378 -0.0474 18.2086
# 4 14.3077 2.7345 25.2378 39.7472 7.5512 5.1777
# 5 7.1636 -0.4563 -0.0474 7.5512 44.2485 -4.5930
# 6 18.3842 14.2623 18.2086 5.1777 -4.5930 31.5958
#
#
#
# Elastic Compliance Matrix: (Units=1/GPa)
#
#
# Indices 1 2 3 4 5 6 
#
# 1 0.013077 -0.005503 -0.003476 -0.001262 -0.002299 -0.003249
# 2 -0.005503 0.018276 -0.001647 0.002306 0.000223 -0.004444
# 3 -0.003476 -0.001647 0.009248 -0.004511 0.001153 -0.001657
# 4 -0.001262 0.002306 -0.004511 0.029741 -0.005199 -0.003337
# 5 -0.002299 0.000223 0.001153 -0.005199 0.024378 0.004968
# 6 -0.003249 -0.004444 -0.001657 -0.003337 0.004968 0.037770
#
#
# Mechanical properties :
#
#
# Convention : Reuss Voigt Hill
#
# Bulk Modulus (GPa) = 51.68400 69.31950 60.50175
# Shear Modulus (GPa) = 31.21260 36.87305 34.04283
#
# Velocity S-wave (km/s) = 3.77986 4.10832 3.94751
# Velocity P-wave (km/s) = 6.53511 7.36443 6.96213
#
# Compressibility (1/GPa) = 0.01934835
#
# Stress axis : x y z
#
# Youngs Moduli (GPa) = 76.47272 54.71794 108.12712
#
# Poissons Ratio (x) = 0.30111 0.37581
# Poissons Ratio (y) = 0.42083 0.17814
# Poissons Ratio (z) = 0.26579 0.09015
#
# Static dielectric constant tensor:
#      x y z
#    x 2.191150 -0.005280 0.127650 
#    y -0.005280 1.842730 -0.013070 
#    z 0.127650 -0.013070 1.733880 
# 
# From -- ./inp_files/382616.got.cif
#   From: 2010.05.17/outbox.ucp.g08.bks.cvg/sg2_192_cif.got.tgz:382616.got - 2010.06.11 11:32:03.
