data_PCOD9074092
_publ_section_title
;
Structure prediction by ZEFSAII (Michael W. Deem and Ramdas Pophale) SiO2 
 PCOD9074092
Probable space group: P -1
;
_chemical_formula_sum "Si O2"
_cell_formula_units_Z 16
_cell_length_a 12.000000
_cell_length_b 15.000000
_cell_length_c 9.000000
_cell_angle_alpha 100.000000
_cell_angle_beta 110.000000
_cell_angle_gamma 30.000000
_cell_volume 734.803614
_symmetry_space_group_name_H-M "P -1"
_symmetry_group_IT_number 2
_symmetry_cell_setting 'triclinic'
loop_
_space_group_symop_operation_xyz
x,y,z
-x,-y,-z
loop_
_atom_site_type_symbol
_atom_site_label
_atom_site_fract_x
_atom_site_fract_y
_atom_site_fract_z
Si Si1 0.331197 0.037080 0.870815
Si Si2 0.221829 0.894677 0.158279
Si Si3 0.233371 0.486911 0.755729
Si Si4 0.053362 0.892819 0.617914
Si Si5 0.993704 0.219145 0.041607
Si Si6 0.621100 0.514875 0.768747
Si Si7 0.920835 0.326012 0.552763
Si Si8 0.244854 0.379950 0.014637
O O1 0.178197 0.173333 0.701834
O O2 0.510881 0.832495 0.881612
O O3 0.132200 0.156802 0.939992
O O4 0.500000 0.000000 0.000000
O O5 0.480012 0.686380 0.170928
O O6 0.187130 0.022464 0.139912
O O7 0.142189 0.945623 0.305082
O O8 0.000000 0.000000 0.000000
O O9 0.148482 0.553150 0.566130
O O10 0.083948 0.661462 0.829493
O O11 0.217491 0.408926 0.831624
O O12 0.338208 0.708897 0.729977
O O13 0.032218 0.802815 0.536641
O O14 0.000000 0.000000 0.500000
O O15 0.741793 0.357957 0.885008
O O16 0.710973 0.450319 0.619498
O O17 0.728194 0.537557 0.885186
O O18 0.000000 0.500000 0.000000
#
# Coordination Sequence:
#
# PCOD9074092 Si02
#       8
#     2   2   2   2   2   2   2   2
#     4  11  23  45  72  96 129 179 227 273 343 415
#     4  12  25  38  67  98 136 182 229 267 332 398
#     4  11  23  43  65 101 135 171 227 287 330 390
#     4  12  25  40  63  97 140 181 222 275 344 400
#     4  10  22  42  63  94 133 175 223 274 326 400
#     4  10  23  40  65  93 135 180 227 268 338 402
#     4  11  24  42  67  97 141 173 222 289 341 391
#     4  11  22  44  71  97 131 177 229 278 331 411
#
# _framework density 21.774525000000001
#
# number of rings (size 3 to 8) (size 9 to 14) (size 15 to 20)
#    0.000    1.000    2.500    5.625    5.250    1.000 
#    0.000    5.000    0.000    0.000    0.000    0.000 
#    0.000    0.000    0.000    0.000    0.000    0.000 
#
# Total GULP energy -89094.019277 kJ/mol
# GULP energy per Si atom -5568.376205 kJ/mol
# Density = 2.172497 g / cm^3
# Si number density = 21.774525 Si / 1000 Ang^3
#
#
#
# Elastic Constant Matrix: (Units=GPa)
#
#
# Indices 1 2 3 4 5 6 
#
# 1 51.6001 8.3639 34.6106 -17.5997 -0.0569 -12.8237
# 2 8.3639 99.6198 4.4691 -18.7573 7.2908 -12.3783
# 3 34.6106 4.4691 73.4378 -24.2436 -20.2483 -6.1760
# 4 -17.5997 -18.7573 -24.2436 45.4139 3.6693 0.7382
# 5 -0.0569 7.2908 -20.2483 3.6693 34.8362 -4.1263
# 6 -12.8237 -12.3783 -6.1760 0.7382 -4.1263 21.9606
#
#
#
# Elastic Compliance Matrix: (Units=1/GPa)
#
#
# Indices 1 2 3 4 5 6 
#
# 1 0.035787 0.001450 -0.015804 0.006448 -0.008274 0.015499
# 2 0.001450 0.012041 0.000609 0.005898 -0.001927 0.007245
# 3 -0.015804 0.000609 0.028018 0.007805 0.015505 0.001645
# 4 0.006448 0.005898 0.007805 0.030898 0.001058 0.008445
# 5 -0.008274 -0.001927 0.015505 0.001058 0.038668 0.005673
# 6 0.015499 0.007245 0.001645 0.008445 0.005673 0.059915
#
#
# Mechanical properties :
#
#
# Convention : Reuss Voigt Hill
#
# Bulk Modulus (GPa) = 20.67997 35.50499 28.09248
# Shear Modulus (GPa) = 20.08561 32.25639 26.17100
#
# Velocity S-wave (km/s) = 3.04046 3.85305 3.47062
# Velocity P-wave (km/s) = 4.67373 6.01130 5.38422
#
# Compressibility (1/GPa) = 0.04835596
#
# Stress axis : x y z
#
# Youngs Moduli (GPa) = 27.94331 83.05050 35.69156
#
# Poissons Ratio (x) = -0.12040 0.56406
# Poissons Ratio (y) = -0.04051 -0.02174
# Poissons Ratio (z) = 0.44161 -0.05059
#
# Static dielectric constant tensor:
#      x y z
#    x 1.810480 -0.031460 0.063480 
#    y -0.031460 1.629990 0.038080 
#    z 0.063480 0.038080 1.860440 
# 
# From -- ./inp_files/273445.got.cif
#   From: 2010.05.17/outbox.ucp.g08.bks.cvg/sg2_137_cif.got.tgz:273445.got - 2010.06.11 11:32:03.
