data_PCOD9074376
_publ_section_title
;
Structure prediction by ZEFSAII (Michael W. Deem and Ramdas Pophale) SiO2 
 PCOD9074376
Probable space group: P -1
;
_chemical_formula_sum "Si O2"
_cell_formula_units_Z 16
_cell_length_a 15.000000
_cell_length_b 15.000000
_cell_length_c 15.000000
_cell_angle_alpha 40.000000
_cell_angle_beta 20.000000
_cell_angle_gamma 40.000000
_cell_volume 725.414092
_symmetry_space_group_name_H-M "P -1"
_symmetry_group_IT_number 2
_symmetry_cell_setting 'triclinic'
loop_
_space_group_symop_operation_xyz
x,y,z
-x,-y,-z
loop_
_atom_site_type_symbol
_atom_site_label
_atom_site_fract_x
_atom_site_fract_y
_atom_site_fract_z
Si Si1 0.472125 0.153400 0.455552
Si Si2 0.162077 0.726150 0.293838
Si Si3 0.270019 0.896411 0.390494
Si Si4 0.250981 0.406570 0.120592
Si Si5 0.023126 0.531777 0.062208
Si Si6 0.875640 0.310888 0.856166
Si Si7 0.471713 0.714987 0.506279
Si Si8 0.714943 0.067971 0.841135
O O1 0.517817 0.182863 0.495924
O O2 0.172912 0.231844 0.657770
O O3 0.500000 0.000000 0.500000
O O4 0.671113 0.229109 0.156504
O O5 0.158627 0.696350 0.213761
O O6 0.216766 0.871720 0.174136
O O7 0.887586 0.706483 0.611702
O O8 0.428867 0.620486 0.159373
O O9 0.430100 0.796882 0.389831
O O10 0.286079 0.835957 0.320945
O O11 0.965418 0.942439 0.674493
O O12 0.429322 0.024957 0.142450
O O13 0.152829 0.413705 0.104580
O O14 0.163233 0.541479 0.166175
O O15 0.741417 0.599425 0.322095
O O16 0.219279 0.641334 0.806678
O O17 0.000000 0.500000 0.000000
#
# Coordination Sequence:
#
# PCOD9074376 Si02
#       8
#     2   2   2   2   2   2   2   2
#     4  12  26  44  71  99 136 176 221 274 333 394
#     4  12  26  40  73  92 128 172 225 267 326 382
#     4  10  23  41  66  88 136 162 214 260 339 378
#     4  12  24  46  64  97 131 170 217 275 326 388
#     4  12  27  44  71 100 136 174 223 272 333 397
#     4  12  25  47  66  97 134 170 224 274 329 390
#     4  12  24  46  70 100 132 180 216 277 332 397
#     4  10  23  42  61  99 123 170 210 277 310 396
#
# _framework density 22.056367999999999
#
# number of rings (size 3 to 8) (size 9 to 14) (size 15 to 20)
#    0.000    0.500    2.500    5.250    7.000    0.000 
#    0.000    0.000    0.000    0.000    0.000    0.000 
#    0.000    0.000    0.000    0.000    0.000    0.000 
#
# Total GULP energy -89300.844767 kJ/mol
# GULP energy per Si atom -5581.302798 kJ/mol
# Density = 2.200617 g / cm^3
# Si number density = 22.056368 Si / 1000 Ang^3
#
#
#
# Elastic Constant Matrix: (Units=GPa)
#
#
# Indices 1 2 3 4 5 6 
#
# 1 93.9463 -18.9858 0.7154 4.7214 -10.2211 -11.1929
# 2 -18.9858 28.7787 3.4164 12.6978 -13.9709 8.1095
# 3 0.7154 3.4164 88.4561 0.4300 -16.0691 1.1001
# 4 4.7214 12.6978 0.4300 29.1585 1.8948 -1.4956
# 5 -10.2211 -13.9709 -16.0691 1.8948 43.9661 -4.2405
# 6 -11.1929 8.1095 1.1001 -1.4956 -4.2405 39.1797
#
#
#
# Elastic Compliance Matrix: (Units=1/GPa)
#
#
# Indices 1 2 3 4 5 6 
#
# 1 0.017561 0.023424 0.001315 -0.013838 0.012697 0.000978
# 2 0.023424 0.090764 0.003288 -0.046253 0.036518 -0.010000
# 3 0.001315 0.003288 0.012254 -0.002215 0.005916 -0.000093
# 4 -0.013838 -0.046253 -0.002215 0.058346 -0.020692 0.005670
# 5 0.012697 0.036518 0.005916 -0.020692 0.040304 -0.000525
# 6 0.000978 -0.010000 -0.000093 0.005670 -0.000525 0.028035
#
#
# Mechanical properties :
#
#
# Convention : Reuss Voigt Hill
#
# Bulk Modulus (GPa) = 5.66144 20.16367 12.91255
# Shear Modulus (GPa) = 19.99290 37.52987 28.76139
#
# Velocity S-wave (km/s) = 3.01399 4.12945 3.61500
# Velocity P-wave (km/s) = 3.83204 5.64785 4.82612
#
# Compressibility (1/GPa) = 0.17663363
#
# Stress axis : x y z
#
# Youngs Moduli (GPa) = 56.94281 11.01755 81.60595
#
# Poissons Ratio (x) = -0.25807 -0.10731
# Poissons Ratio (y) = -1.33381 -0.26834
# Poissons Ratio (z) = -0.07488 -0.03623
#
# Static dielectric constant tensor:
#      x y z
#    x 1.838940 -0.039400 0.010280 
#    y -0.039400 1.989900 -0.035260 
#    z 0.010280 -0.035260 1.833720 
# 
# From -- ./inp_files/534223.got.cif
#   From: 2010.05.17/outbox.ucp.g08.bks.cvg/sg2_268_cif.got.tgz:534223.got - 2010.06.11 11:32:03.
