data_PCOD9074937
_publ_section_title
;
Structure prediction by ZEFSAII (Michael W. Deem and Ramdas Pophale) SiO2 
 PCOD9074937
Probable space group: P -1
;
_chemical_formula_sum "Si O2"
_cell_formula_units_Z 16
_cell_length_a 15.000000
_cell_length_b 15.000000
_cell_length_c 12.000000
_cell_angle_alpha 140.000000
_cell_angle_beta 60.000000
_cell_angle_gamma 150.000000
_cell_volume 747.221570
_symmetry_space_group_name_H-M "P -1"
_symmetry_group_IT_number 2
_symmetry_cell_setting 'triclinic'
loop_
_space_group_symop_operation_xyz
x,y,z
-x,-y,-z
loop_
_atom_site_type_symbol
_atom_site_label
_atom_site_fract_x
_atom_site_fract_y
_atom_site_fract_z
Si Si1 0.107135 0.052799 0.140267
Si Si2 0.925143 0.529702 0.490683
Si Si3 0.261752 0.010449 0.566546
Si Si4 0.186602 0.852919 0.953794
Si Si5 0.720828 0.553686 0.758967
Si Si6 0.394094 0.751433 0.898941
Si Si7 0.975782 0.891472 0.528622
Si Si8 0.848899 0.385076 0.891114
O O1 0.277082 0.344500 0.252310
O O2 0.088448 0.077645 0.303604
O O3 0.148680 0.939941 0.984195
O O4 0.887434 0.814492 0.988530
O O5 0.818413 0.305597 0.250204
O O6 0.790209 0.485990 0.598570
O O7 0.000000 0.500000 0.500000
O O8 0.114885 0.822905 0.586761
O O9 0.504324 0.297499 0.711663
O O10 0.235289 0.842153 0.345122
O O11 0.184264 0.055077 0.591330
O O12 0.004088 0.646680 0.961499
O O13 0.421959 0.144695 0.123382
O O14 0.190537 0.430465 0.678644
O O15 0.323392 0.729082 0.042967
O O16 0.500000 0.000000 0.000000
O O17 0.000000 0.000000 0.500000
O O18 0.000000 0.500000 0.000000
#
# Coordination Sequence:
#
# PCOD9074937 Si02
#       8
#     2   2   2   2   2   2   2   2
#     4  11  26  47  68 101 145 181 239 290 351 430
#     4  11  22  48  73 102 138 176 240 297 348 421
#     4  11  25  44  73 101 138 187 232 293 357 420
#     4  11  24  42  69 101 136 179 230 290 344 420
#     4  11  25  48  73  99 139 189 232 294 355 421
#     4  12  24  42  71  99 136 192 235 285 353 416
#     4  12  27  46  68 107 151 187 238 293 356 439
#     4  11  21  41  66 101 139 172 232 291 340 413
#
# _framework density 21.412658
#
# number of rings (size 3 to 8) (size 9 to 14) (size 15 to 20)
#    0.000    0.750    5.000    2.250    3.500    1.500 
#    4.500    0.000    0.000    0.000    0.000    0.000 
#    0.000    0.000    0.000    0.000    0.000    0.000 
#
# Total GULP energy -89291.611540 kJ/mol
# GULP energy per Si atom -5580.725721 kJ/mol
# Density = 2.136392 g / cm^3
# Si number density = 21.412658 Si / 1000 Ang^3
#
#
#
# Elastic Constant Matrix: (Units=GPa)
#
#
# Indices 1 2 3 4 5 6 
#
# 1 83.9512 37.0523 1.2186 11.6048 -11.5985 -17.1446
# 2 37.0523 77.7971 5.1944 -1.9203 4.9649 14.2502
# 3 1.2186 5.1944 51.9456 -2.3192 -6.6676 -1.1055
# 4 11.6048 -1.9203 -2.3192 31.4030 2.5508 4.8623
# 5 -11.5985 4.9649 -6.6676 2.5508 30.3389 -3.5679
# 6 -17.1446 14.2502 -1.1055 4.8623 -3.5679 27.6527
#
#
#
# Elastic Compliance Matrix: (Units=1/GPa)
#
#
# Indices 1 2 3 4 5 6 
#
# 1 0.055858 -0.043364 0.008178 -0.036760 0.041467 0.069119
# 2 -0.043364 0.048583 -0.008448 0.030983 -0.036328 -0.062394
# 3 0.008178 -0.008448 0.021380 -0.004804 0.011088 0.012554
# 4 -0.036760 0.030983 -0.004804 0.057737 -0.031283 -0.053138
# 5 0.041467 -0.036328 0.011088 -0.031283 0.066763 0.058988
# 6 0.069119 -0.062394 0.012554 -0.053138 0.058988 0.128626
#
#
# Mechanical properties :
#
#
# Convention : Reuss Voigt Hill
#
# Bulk Modulus (GPa) = 25.93849 33.40273 29.67061
# Shear Modulus (GPa) = 10.43701 29.22749 19.83225
#
# Velocity S-wave (km/s) = 2.21016 3.69855 3.04664
# Velocity P-wave (km/s) = 4.31891 5.82000 5.12471
#
# Compressibility (1/GPa) = 0.03855275
#
# Stress axis : x y z
#
# Youngs Moduli (GPa) = 17.90264 20.58345 46.77314
#
# Poissons Ratio (x) = 0.89257 -0.38252
# Poissons Ratio (y) = 0.77632 0.39516
# Poissons Ratio (z) = -0.14641 0.17390
#
# Static dielectric constant tensor:
#      x y z
#    x 1.855340 -0.051580 0.047040 
#    y -0.051580 1.731170 -0.033640 
#    z 0.047040 -0.033640 1.798390 
# 
# From -- ./inp_files/455926.got.cif
#   From: 2010.05.17/outbox.ucp.g08.bks.cvg/sg2_228_cif.got.tgz:455926.got - 2010.06.11 11:32:03.
