data_PCOD9074048
_publ_section_title
;
Structure prediction by ZEFSAII (Michael W. Deem and Ramdas Pophale) SiO2 
 PCOD9074048
Probable space group: P -1
;
_chemical_formula_sum "Si O2"
_cell_formula_units_Z 16
_cell_length_a 7.632940
_cell_length_b 14.818101
_cell_length_c 9.321270
_cell_angle_alpha 37.741008
_cell_angle_beta 104.384533
_cell_angle_gamma 105.876483
_cell_volume 619.782988
_symmetry_space_group_name_H-M "P -1"
_symmetry_group_IT_number 2
_symmetry_cell_setting 'triclinic'
loop_
_space_group_symop_operation_xyz
x,y,z
-x,-y,-z
loop_
_atom_site_type_symbol
_atom_site_label
_atom_site_fract_x
_atom_site_fract_y
_atom_site_fract_z
Si Si1 0.860651 0.124053 0.219476
Si Si2 0.820586 0.891784 0.931630
Si Si3 0.740122 0.373597 0.698176
Si Si4 0.290505 0.786503 0.535243
Si Si5 0.562569 0.641063 0.564404
Si Si6 0.459509 0.308519 0.064272
Si Si7 0.970048 0.675681 0.436757
Si Si8 0.811576 0.792685 0.627258
O O1 0.014118 0.100648 0.159080
O O2 0.980254 0.182141 0.308811
O O3 0.755637 0.959339 0.426155
O O4 0.751217 0.246703 0.976959
O O5 0.655445 0.779626 0.973239
O O6 0.751918 0.050960 0.721860
O O7 0.890994 0.823311 0.177362
O O8 0.540706 0.357988 0.608386
O O9 0.813639 0.534699 0.575186
O O10 0.886099 0.351246 0.630181
O O11 0.436026 0.731936 0.524695
O O12 0.385286 0.773147 0.724990
O O13 0.102668 0.682905 0.591476
O O14 0.758493 0.728003 0.541182
O O15 0.537909 0.472295 0.826031
O O16 0.303729 0.315191 0.147065
#
# Coordination Sequence:
#
# PCOD9074048 Si02
#       8
#     2   2   2   2   2   2   2   2
#     4   9  19  31  49  72 100 127 157 196 236 282
#     4  10  18  32  47  72 104 124 154 194 244 290
#     4   9  17  29  48  73  94 127 157 199 240 271
#     4  10  19  27  48  76  98 126 152 195 249 283
#     4  10  19  32  51  76  96 121 162 203 236 276
#     4  10  19  32  51  73  99 123 159 202 237 277
#     4   9  17  28  46  71 101 122 158 197 237 284
#     4   9  18  31  48  74  97 124 160 201 231 275
#
# _framework density 25.815487999999998
#
# number of rings (size 3 to 8) (size 9 to 14) (size 15 to 20)
#    0.000    2.500    1.250    2.250    7.000    0.500 
#    0.000    0.000    0.000    3.000    6.500    4.375 
#    0.000    0.000    0.000    0.000    0.000    0.000 
#
# Total GULP energy -89629.939658 kJ/mol
# GULP energy per Si atom -5601.871229 kJ/mol
# Density = 2.575673 g / cm^3
# Si number density = 25.815488 Si / 1000 Ang^3
#
#
#
# Elastic Constant Matrix: (Units=GPa)
#
#
# Indices 1 2 3 4 5 6 
#
# 1 86.6646 5.9659 15.0687 2.8355 0.9123 13.2024
# 2 5.9659 138.8054 49.0813 6.0562 -1.6998 39.6041
# 3 15.0687 49.0813 147.7392 9.2065 8.6230 10.1537
# 4 2.8355 6.0562 9.2065 37.9304 -8.1148 9.7947
# 5 0.9123 -1.6998 8.6230 -8.1148 41.4685 5.5661
# 6 13.2024 39.6041 10.1537 9.7947 5.5661 41.8091
#
#
#
# Elastic Compliance Matrix: (Units=1/GPa)
#
#
# Indices 1 2 3 4 5 6 
#
# 1 0.012468 0.001481 -0.001504 0.000765 0.000958 -0.005282
# 2 0.001481 0.011671 -0.003578 0.002616 0.003273 -0.011703
# 3 -0.001504 -0.003578 0.008238 -0.002633 -0.002723 0.002843
# 4 0.000765 0.002616 -0.002633 0.030947 0.008091 -0.010408
# 5 0.000958 0.003273 -0.002723 0.008091 0.027491 -0.008296
# 6 -0.005282 -0.011703 0.002843 -0.010408 -0.008296 0.039524
#
#
# Mechanical properties :
#
#
# Convention : Reuss Voigt Hill
#
# Bulk Modulus (GPa) = 39.72192 57.04899 48.38545
# Shear Modulus (GPa) = 34.26244 44.44783 39.35514
#
# Velocity S-wave (km/s) = 3.64703 4.15390 3.90869
# Velocity P-wave (km/s) = 5.75802 6.71962 6.25731
#
# Compressibility (1/GPa) = 0.02517502
#
# Stress axis : x y z
#
# Youngs Moduli (GPa) = 80.20630 85.68366 121.38199
#
# Poissons Ratio (x) = -0.12694 0.18261
# Poissons Ratio (y) = -0.11882 0.43432
# Poissons Ratio (z) = 0.12066 0.30658
#
# Static dielectric constant tensor:
#      x y z
#    x 2.139200 -0.069650 -0.007720 
#    y -0.069650 2.047410 0.013190 
#    z -0.007720 0.013190 1.918070 
# 
# From -- ./inp_files/256931.got.cif
#   From: 2010.05.17/outbox.cif.g08.bks.cpg/sg2_129_cif.got.tgz:256931.got - 2010.06.03 11:33:40.
