data_PCOD9074870
_publ_section_title
;
Structure prediction by ZEFSAII (Michael W. Deem and Ramdas Pophale) SiO2 
 PCOD9074870
Probable space group: P -1
;
_chemical_formula_sum "Si O2"
_cell_formula_units_Z 16
_cell_length_a 12.000000
_cell_length_b 27.000000
_cell_length_c 27.000000
_cell_angle_alpha 10.000000
_cell_angle_beta 150.000000
_cell_angle_gamma 150.000000
_cell_volume 750.765935
_symmetry_space_group_name_H-M "P -1"
_symmetry_group_IT_number 2
_symmetry_cell_setting 'triclinic'
loop_
_space_group_symop_operation_xyz
x,y,z
-x,-y,-z
loop_
_atom_site_type_symbol
_atom_site_label
_atom_site_fract_x
_atom_site_fract_y
_atom_site_fract_z
Si Si1 0.870787 0.674024 0.391116
Si Si2 0.479902 0.648879 0.951415
Si Si3 0.354312 0.855356 0.219932
Si Si4 0.705279 0.339992 0.497729
Si Si5 0.812234 0.207250 0.506912
Si Si6 0.598686 0.229699 0.084975
Si Si7 0.891331 0.267810 0.357615
Si Si8 0.171090 0.803820 0.893187
O O1 0.660231 0.419800 0.551395
O O2 0.067891 0.584743 0.520060
O O3 0.983306 0.713581 0.451107
O O4 0.793298 0.944400 0.065499
O O5 0.593632 0.361731 0.281168
O O6 0.369678 0.682548 0.931052
O O7 0.314428 0.671899 0.817623
O O8 0.705280 0.879000 0.800673
O O9 0.266260 0.743695 0.351329
O O10 0.600679 0.028256 0.158971
O O11 0.558448 0.075373 0.673833
O O12 0.552620 0.585118 0.188779
O O13 0.863145 0.263986 0.411061
O O14 0.799759 0.210055 0.142000
O O15 0.960871 0.963752 0.668333
O O16 0.105027 0.494773 0.197713
#
# Coordination Sequence:
#
# PCOD9074870 Si02
#       8
#     2   2   2   2   2   2   2   2
#     4  12  21  38  63  97 127 167 213 257 329 373
#     4  12  23  44  70  99 128 159 216 271 335 372
#     4  11  23  38  63  92 131 174 208 257 312 387
#     4  11  20  37  60  98 136 162 202 259 333 381
#     4  12  25  44  67  99 132 158 218 275 316 377
#     4  11  21  39  66  97 133 167 196 276 318 378
#     4  12  26  45  69  90 126 184 213 260 316 379
#     4  11  25  45  62  93 135 169 224 252 307 387
#
# _framework density 21.311568999999999
#
# number of rings (size 3 to 8) (size 9 to 14) (size 15 to 20)
#    0.000    0.500    2.500    8.250    0.000    1.000 
#    0.000    3.750    0.000    0.000    0.000    0.000 
#    0.000    0.000    0.000    0.000    0.000    0.000 
#
# Total GULP energy -89230.960051 kJ/mol
# GULP energy per Si atom -5576.935003 kJ/mol
# Density = 2.126306 g / cm^3
# Si number density = 21.311569 Si / 1000 Ang^3
#
#
#
# Elastic Constant Matrix: (Units=GPa)
#
#
# Indices 1 2 3 4 5 6 
#
# 1 138.6063 40.0304 -7.0361 3.8984 -15.7165 -38.7680
# 2 40.0304 109.3922 8.7771 11.4039 -12.0108 -35.2593
# 3 -7.0361 8.7771 65.2927 10.6409 2.7582 -15.0926
# 4 3.8984 11.4039 10.6409 45.7341 0.6157 -17.3961
# 5 -15.7165 -12.0108 2.7582 0.6157 32.5766 6.2998
# 6 -38.7680 -35.2593 -15.0926 -17.3961 6.2998 43.0256
#
#
#
# Elastic Compliance Matrix: (Units=1/GPa)
#
#
# Indices 1 2 3 4 5 6 
#
# 1 0.010904 -0.000662 0.003299 0.002676 0.002530 0.011151
# 2 -0.000662 0.012730 0.000294 0.000502 0.002448 0.009784
# 3 0.003299 0.000294 0.018026 -0.000956 -0.001624 0.009387
# 4 0.002676 0.000502 -0.000956 0.026932 -0.001584 0.013608
# 5 0.002530 0.002448 -0.001624 -0.001584 0.033337 -0.001805
# 6 0.011151 0.009784 0.009387 0.013608 -0.001805 0.050366
#
#
# Mechanical properties :
#
#
# Convention : Reuss Voigt Hill
#
# Bulk Modulus (GPa) = 21.04343 44.09267 32.56805
# Shear Modulus (GPa) = 30.81220 42.36859 36.59039
#
# Velocity S-wave (km/s) = 3.80649 4.46360 4.14808
# Velocity P-wave (km/s) = 5.40507 6.87746 6.18523
#
# Compressibility (1/GPa) = 0.04752076
#
# Stress axis : x y z
#
# Youngs Moduli (GPa) = 91.71137 78.55573 55.47569
#
# Poissons Ratio (x) = 0.05198 -0.18299
# Poissons Ratio (y) = 0.06068 -0.01629
# Poissons Ratio (z) = -0.30252 -0.02307
#
# Static dielectric constant tensor:
#      x y z
#    x 1.760780 0.010300 0.029970 
#    y 0.010300 1.773730 -0.032120 
#    z 0.029970 -0.032120 1.814730 
# 
# From -- ./inp_files/522033.got.cif
#   From: 2010.05.17/outbox.ucp.g08.bks.cvg/sg2_262_cif.got.tgz:522033.got - 2010.06.11 11:32:03.
