data_PCOD9074450
_publ_section_title
;
Structure prediction by ZEFSAII (Michael W. Deem and Ramdas Pophale) SiO2 
 PCOD9074450
Probable space group: P -1
;
_chemical_formula_sum "Si O2"
_cell_formula_units_Z 15
_cell_length_a 6.000000
_cell_length_b 6.000000
_cell_length_c 18.000000
_cell_angle_alpha 100.000000
_cell_angle_beta 80.000000
_cell_angle_gamma 100.000000
_cell_volume 621.543548
_symmetry_space_group_name_H-M "P -1"
_symmetry_group_IT_number 2
_symmetry_cell_setting 'triclinic'
loop_
_space_group_symop_operation_xyz
x,y,z
-x,-y,-z
loop_
_atom_site_type_symbol
_atom_site_label
_atom_site_fract_x
_atom_site_fract_y
_atom_site_fract_z
Si Si1 0.691865 0.869094 0.240628
Si Si2 0.890015 0.804284 0.367871
Si Si3 0.500000 0.000000 0.500000
Si Si4 0.156040 0.139631 0.166571
Si Si5 0.503876 0.801298 0.093001
Si Si6 0.318632 0.182221 0.316351
Si Si7 0.185019 0.563695 0.429873
Si Si8 0.840885 0.627422 0.965586
O O1 0.736030 0.724873 0.300939
O O2 0.556918 0.753663 0.172453
O O3 0.542660 0.059327 0.290104
O O4 0.938640 0.969256 0.198863
O O5 0.024267 0.602341 0.372705
O O6 0.733805 0.902069 0.444189
O O7 0.094004 0.005453 0.343044
O O8 0.661213 0.203865 0.544111
O O9 0.265253 0.265355 0.241447
O O10 0.062223 0.274527 0.112529
O O11 0.358549 0.010422 0.114427
O O12 0.349561 0.578388 0.059840
O O13 0.731584 0.816744 0.030685
O O14 0.338777 0.371391 0.390063
O O15 0.000000 0.500000 0.500000
O O16 0.000000 0.500000 0.000000
#
# Coordination Sequence:
#
# PCOD9074450 Si02
#       8
#     2   2   1   2   2   2   2   2
#     4  10  23  45  73  96 140 184 235 290 354 416
#     4  11  25  46  69 105 137 178 238 297 353 436
#     4  12  26  44  76 102 138 186 232 294 362 428
#     4  10  23  43  67  97 137 182 235 283 349 424
#     4  10  23  43  66  98 140 183 228 295 345 419
#     4  10  24  47  68  99 141 185 234 295 360 426
#     4  12  27  47  74 104 146 184 236 299 363 434
#     4  11  24  40  67 103 141 183 234 285 354 413
#
# _framework density 24.133465999999999
#
# number of rings (size 3 to 8) (size 9 to 14) (size 15 to 20)
#    0.000    1.333    1.333    2.400    1.867   14.400 
#    0.000    2.667    0.000    0.000    0.000    0.000 
#    0.000    0.000    0.000    0.000    0.000    0.000 
#
# Total GULP energy -83598.890707 kJ/mol
# GULP energy per Si atom -5573.259380 kJ/mol
# Density = 2.407854 g / cm^3
# Si number density = 24.133466 Si / 1000 Ang^3
#
#
#
# Elastic Constant Matrix: (Units=GPa)
#
#
# Indices 1 2 3 4 5 6 
#
# 1 96.9591 9.7181 38.1734 -0.7814 3.7333 -12.3925
# 2 9.7181 2.1744 36.1866 -14.2297 20.2628 -8.8349
# 3 38.1734 36.1866 105.4000 5.6281 2.3578 -16.0911
# 4 -0.7814 -14.2297 5.6281 31.9349 3.2747 -3.8508
# 5 3.7333 20.2628 2.3578 3.2747 51.6155 9.0701
# 6 -12.3925 -8.8349 -16.0911 -3.8508 9.0701 9.9151
#
#
#
# Elastic Compliance Matrix: (Units=1/GPa)
#
#
# Indices 1 2 3 4 5 6 
#
# 1 0.012428 -0.005483 -0.001311 -0.000907 -0.000076 0.008238
# 2 -0.005483 -0.021495 0.003292 -0.017295 0.017389 -0.043289
# 3 -0.001311 0.003292 0.013684 0.003660 -0.007667 0.031938
# 4 -0.000907 -0.017295 0.003660 0.021193 0.006864 -0.008653
# 5 -0.000076 0.017389 -0.007667 0.006864 0.013679 -0.006891
# 6 0.008238 -0.043289 0.031938 -0.008653 -0.006891 0.127354
#
#
# Mechanical properties :
#
#
# Convention : Reuss Voigt Hill
#
# Bulk Modulus (GPa) = -418.70480 41.40996 -188.64742
# Shear Modulus (GPa) = 28.89325 26.72344 27.80835
#
# Velocity S-wave (km/s) = 3.46385 3.33125 3.39820
# Velocity P-wave (km/s) = 12.56481 5.65617 7.93354
#
# Compressibility (1/GPa) = -0.00238832
#
# Stress axis : x y z
#
# Youngs Moduli (GPa) = 80.46499 -46.52137 73.07690
#
# Poissons Ratio (x) = -0.25509 0.09578
# Poissons Ratio (y) = 0.44121 -0.24054
# Poissons Ratio (z) = 0.10547 0.15313
#
# Static dielectric constant tensor:
#      x y z
#    x 1.776280 0.121180 -0.016390 
#    y 0.121180 1.850150 -0.078640 
#    z -0.016390 -0.078640 1.982540 
# 
# From -- ./inp_files/7440.got.cif
#   From: 2010.05.17/outbox.ucp.g08.bks.cvg/sg2_4_cif.got.tgz:7440.got - 2010.06.11 11:32:03.
