data_PCOD9074335
_publ_section_title
;
Structure prediction by ZEFSAII (Michael W. Deem and Ramdas Pophale) SiO2 
 PCOD9074335
Probable space group: P -1
;
_chemical_formula_sum "Si O2"
_cell_formula_units_Z 14
_cell_length_a 9.000000
_cell_length_b 9.000000
_cell_length_c 18.000000
_cell_angle_alpha 60.000000
_cell_angle_beta 50.000000
_cell_angle_gamma 100.000000
_cell_volume 643.920384
_symmetry_space_group_name_H-M "P -1"
_symmetry_group_IT_number 2
_symmetry_cell_setting 'triclinic'
loop_
_space_group_symop_operation_xyz
x,y,z
-x,-y,-z
loop_
_atom_site_type_symbol
_atom_site_label
_atom_site_fract_x
_atom_site_fract_y
_atom_site_fract_z
Si Si1 0.327460 0.812301 0.393552
Si Si2 0.684942 0.373636 0.147013
Si Si3 0.146220 0.387181 0.813692
Si Si4 0.512292 0.852910 0.167539
Si Si5 0.285541 0.237568 0.682176
Si Si6 0.641302 0.715877 0.025451
Si Si7 0.123866 0.579294 0.239267
O O1 0.317226 0.726088 0.335222
O O2 0.580063 0.862439 0.336675
O O3 0.066839 0.633408 0.581147
O O4 0.434819 0.075051 0.283205
O O5 0.669511 0.409418 0.230807
O O6 0.659176 0.525366 0.067551
O O7 0.000000 0.500000 0.000000
O O8 0.279455 0.308178 0.750542
O O9 0.074883 0.456884 0.747005
O O10 0.826430 0.139460 0.012605
O O11 0.338902 0.833535 0.160386
O O12 0.600202 0.741575 0.120009
O O13 0.500000 0.500000 0.500000
O O14 0.944774 0.998163 0.830248
O O15 0.341302 0.595622 0.121599
#
# Coordination Sequence:
#
# PCOD9074335 Si02
#       7
#     2   2   2   2   2   2   2
#     4  12  22  39  65  96 124 163 216 253 298 383
#     4  12  23  40  65  91 124 173 210 245 309 378
#     4  11  21  40  66  91 127 165 202 262 312 369
#     4   9  20  38  66  87 121 162 211 255 306 361
#     4  11  21  37  65  97 122 156 214 263 305 359
#     4   9  22  41  63  90 124 164 208 255 310 367
#     4  10  23  39  63  93 128 159 207 259 322 349
#
# _framework density 21.741817999999999
#
# number of rings (size 3 to 8) (size 9 to 14) (size 15 to 20)
#    0.857    0.571    4.286    1.714    0.000    3.429 
#    0.000    0.714    3.143    0.000    0.000    0.000 
#    0.000    0.000    0.000    0.000    0.000    0.000 
#
# Total GULP energy -77982.235863 kJ/mol
# GULP energy per Si atom -5570.159704 kJ/mol
# Density = 2.169233 g / cm^3
# Si number density = 21.741818 Si / 1000 Ang^3
#
#
#
# Elastic Constant Matrix: (Units=GPa)
#
#
# Indices 1 2 3 4 5 6 
#
# 1 51.6239 6.2030 14.2561 -5.3228 -0.4581 -18.1637
# 2 6.2030 42.3575 15.5674 -3.2047 -5.7331 -21.0825
# 3 14.2561 15.5674 144.3847 13.1916 3.0164 -21.7740
# 4 -5.3228 -3.2047 13.1916 18.1003 -1.2918 10.1352
# 5 -0.4581 -5.7331 3.0164 -1.2918 23.5585 -0.6989
# 6 -18.1637 -21.0825 -21.7740 10.1352 -0.6989 24.9031
#
#
#
# Elastic Compliance Matrix: (Units=1/GPa)
#
#
# Indices 1 2 3 4 5 6 
#
# 1 0.031283 0.016985 0.003608 -0.016515 0.004775 0.047206
# 2 0.016985 0.059854 0.007784 -0.036782 0.014412 0.085240
# 3 0.003608 0.007784 0.012214 -0.022801 0.000016 0.029180
# 4 -0.016515 -0.036782 -0.022801 0.123917 -0.002930 -0.113635
# 5 0.004775 0.014412 0.000016 -0.002930 0.046425 0.018192
# 6 0.047206 0.085240 0.029180 -0.113635 0.018192 0.219021
#
#
# Mechanical properties :
#
#
# Convention : Reuss Voigt Hill
#
# Bulk Modulus (GPa) = 6.24592 34.49102 20.36847
# Shear Modulus (GPa) = 10.21812 26.80169 18.50991
#
# Velocity S-wave (km/s) = 2.17024 3.51483 2.92096
# Velocity P-wave (km/s) = 3.02637 5.68950 4.55683
#
# Compressibility (1/GPa) = 0.16010463
#
# Stress axis : x y z
#
# Youngs Moduli (GPa) = 31.96675 16.70724 81.87435
#
# Poissons Ratio (x) = -0.28378 -0.29541
# Poissons Ratio (y) = -0.54297 -0.63728
# Poissons Ratio (z) = -0.11534 -0.13004
#
# Static dielectric constant tensor:
#      x y z
#    x 1.886050 -0.026790 -0.019270 
#    y -0.026790 1.803530 -0.010630 
#    z -0.019270 -0.010630 1.808910 
# 
# From -- ./inp_files/193368.got.cif
#   From: 2010.05.17/outbox.ucp.g08.bks.cvg/sg2_97_cif.got.tgz:193368.got - 2010.06.11 11:32:03.
