data_PCOD9074145
_publ_section_title
;
Structure prediction by ZEFSAII (Michael W. Deem and Ramdas Pophale) SiO2 
 PCOD9074145
Probable space group: P -1
;
_chemical_formula_sum "Si O2"
_cell_formula_units_Z 14
_cell_length_a 12.000000
_cell_length_b 12.000000
_cell_length_c 15.000000
_cell_angle_alpha 130.000000
_cell_angle_beta 150.000000
_cell_angle_gamma 40.000000
_cell_volume 692.779491
_symmetry_space_group_name_H-M "P -1"
_symmetry_group_IT_number 2
_symmetry_cell_setting 'triclinic'
loop_
_space_group_symop_operation_xyz
x,y,z
-x,-y,-z
loop_
_atom_site_type_symbol
_atom_site_label
_atom_site_fract_x
_atom_site_fract_y
_atom_site_fract_z
Si Si1 0.426399 0.601887 0.643287
Si Si2 0.131184 0.732510 0.023322
Si Si3 0.860537 0.254896 0.661076
Si Si4 0.201515 0.142758 0.327251
Si Si5 0.120964 0.972137 0.845779
Si Si6 0.258651 0.432679 0.581026
Si Si7 0.308008 0.338287 0.986288
O O1 0.629835 0.411944 0.642779
O O2 0.267104 0.729641 0.516591
O O3 0.261734 0.574141 0.592275
O O4 0.589918 0.661240 0.843198
O O5 0.445940 0.675707 0.220872
O O6 0.182153 0.538471 0.967721
O O7 0.968359 0.870281 0.062464
O O8 0.953760 0.832719 0.862961
O O9 0.992896 0.077080 0.718276
O O10 0.083052 0.297058 0.816713
O O11 0.225541 0.307396 0.429289
O O12 0.015558 0.125885 0.261289
O O13 0.500000 0.000000 0.500000
O O14 0.433333 0.818536 0.968412
O O15 0.000000 0.500000 0.500000
#
# Coordination Sequence:
#
# PCOD9074145 Si02
#       7
#     2   2   2   2   2   2   2
#     4  10  22  42  70  99 132 181 223 274 338 403
#     4  11  25  47  67  98 141 175 230 285 331 411
#     4  11  22  44  67  97 140 173 226 279 330 406
#     4  12  24  44  68  98 134 184 223 276 353 397
#     4  12  25  44  66 102 136 173 234 278 330 419
#     4  11  23  44  71 102 136 178 229 278 339 407
#     4  11  24  44  69  98 130 179 224 276 348 389
#
# _framework density 20.208449999999999
#
# number of rings (size 3 to 8) (size 9 to 14) (size 15 to 20)
#    0.000    0.857    4.286    3.857    0.000    5.143 
#    2.571    0.000    0.000    0.000    0.000    0.000 
#    0.000    0.000    0.000    0.000    0.000    0.000 
#
# Total GULP energy -78045.828482 kJ/mol
# GULP energy per Si atom -5574.702034 kJ/mol
# Density = 2.016246 g / cm^3
# Si number density = 20.208450 Si / 1000 Ang^3
#
#
#
# Elastic Constant Matrix: (Units=GPa)
#
#
# Indices 1 2 3 4 5 6 
#
# 1 101.5994 17.4830 45.0069 -25.0136 -1.9593 0.6048
# 2 17.4830 73.7551 14.2660 -19.1576 -9.7882 1.2879
# 3 45.0069 14.2660 123.0118 -14.8172 -20.9094 8.2712
# 4 -25.0136 -19.1576 -14.8172 30.9358 5.7930 2.4839
# 5 -1.9593 -9.7882 -20.9094 5.7930 40.1490 -5.0543
# 6 0.6048 1.2879 8.2712 2.4839 -5.0543 40.6754
#
#
#
# Elastic Compliance Matrix: (Units=1/GPa)
#
#
# Indices 1 2 3 4 5 6 
#
# 1 0.014249 -0.000395 -0.004520 0.009731 -0.003193 -0.000271
# 2 -0.000395 0.016464 -0.000165 0.009398 0.002458 -0.000750
# 3 -0.004520 -0.000165 0.010846 0.000605 0.005107 -0.001535
# 4 0.009731 0.009398 0.000605 0.047422 -0.004263 -0.003991
# 5 -0.003193 0.002458 0.005107 -0.004263 0.028977 0.002792
# 6 -0.000271 -0.000750 -0.001535 -0.003991 0.002792 0.025516
#
#
# Mechanical properties :
#
#
# Convention : Reuss Voigt Hill
#
# Bulk Modulus (GPa) = 31.84608 50.20868 41.02738
# Shear Modulus (GPa) = 30.46941 37.12607 33.79774
#
# Velocity S-wave (km/s) = 3.88720 4.29086 4.09400
# Velocity P-wave (km/s) = 5.99500 7.03192 6.53406
#
# Compressibility (1/GPa) = 0.03140103
#
# Stress axis : x y z
#
# Youngs Moduli (GPa) = 70.18260 60.73799 92.19679
#
# Poissons Ratio (x) = 0.02397 0.41670
# Poissons Ratio (y) = 0.02769 0.01518
# Poissons Ratio (z) = 0.31721 0.01000
#
# Static dielectric constant tensor:
#      x y z
#    x 1.728700 -0.024800 -0.012830 
#    y -0.024800 1.761950 -0.000850 
#    z -0.012830 -0.000850 1.725350 
# 
# From -- ./inp_files/182023.got.cif
#   From: 2010.05.17/outbox.ucp.g08.bks.cvg/sg2_92_cif.got.tgz:182023.got - 2010.06.11 11:32:03.
