data_PCOD9074751
_publ_section_title
;
Structure prediction by ZEFSAII (Michael W. Deem and Ramdas Pophale) SiO2 
 PCOD9074751
Probable space group: P -1
;
_chemical_formula_sum "Si O2"
_cell_formula_units_Z 14
_cell_length_a 24.000000
_cell_length_b 6.000000
_cell_length_c 15.000000
_cell_angle_alpha 100.000000
_cell_angle_beta 160.000000
_cell_angle_gamma 70.000000
_cell_volume 616.509588
_symmetry_space_group_name_H-M "P -1"
_symmetry_group_IT_number 2
_symmetry_cell_setting 'triclinic'
loop_
_space_group_symop_operation_xyz
x,y,z
-x,-y,-z
loop_
_atom_site_type_symbol
_atom_site_label
_atom_site_fract_x
_atom_site_fract_y
_atom_site_fract_z
Si Si1 0.216163 0.802930 0.843786
Si Si2 0.261705 0.342516 0.761077
Si Si3 0.135736 0.672011 0.405832
Si Si4 0.179536 0.306411 0.193593
Si Si5 0.057024 0.754613 0.770813
Si Si6 0.395412 0.335865 0.366419
Si Si7 0.451648 0.153058 0.742011
O O1 0.272212 0.521518 0.866283
O O2 0.191241 0.809425 0.912941
O O3 0.367269 0.870446 0.038210
O O4 0.000000 0.000000 0.500000
O O5 0.205692 0.509329 0.594604
O O6 0.083616 0.301832 0.501068
O O7 0.458394 0.055244 0.054472
O O8 0.307760 0.455827 0.584461
O O9 0.087328 0.972351 0.372627
O O10 0.934538 0.743738 0.060047
O O11 0.303592 0.405656 0.333536
O O12 0.331871 0.101918 0.482648
O O13 0.000000 0.500000 0.000000
O O14 0.203376 0.490273 0.027377
O O15 0.500000 0.500000 0.500000
O O16 0.500000 0.000000 0.500000
#
# Coordination Sequence:
#
# PCOD9074751 Si02
#       7
#     2   2   2   2   2   2   2
#     4  12  25  45  68 108 147 194 245 317 381 456
#     4  12  24  43  76 101 149 189 254 303 387 449
#     4  11  24  49  73 107 147 199 254 313 386 460
#     4  10  24  50  75 109 154 204 258 322 389 463
#     4  12  26  46  75 104 150 196 249 316 386 460
#     4  12  27  48  79 114 153 204 263 324 394 472
#     4  11  26  45  73 108 147 195 255 313 380 462
#
# _framework density 22.708487000000002
#
# number of rings (size 3 to 8) (size 9 to 14) (size 15 to 20)
#    0.000    0.571    4.286    2.571    2.000    3.429 
#    2.571    3.571    0.000    0.000    0.000    0.000 
#    0.000    0.000    0.000    0.000    0.000    0.000 
#
# Total GULP energy -78035.387001 kJ/mol
# GULP energy per Si atom -5573.956214 kJ/mol
# Density = 2.265680 g / cm^3
# Si number density = 22.708487 Si / 1000 Ang^3
#
#
#
# Elastic Constant Matrix: (Units=GPa)
#
#
# Indices 1 2 3 4 5 6 
#
# 1 94.4447 1.1227 20.4176 -16.1924 -5.7993 6.5962
# 2 1.1227 87.0818 35.4760 -23.4436 -2.1325 2.5559
# 3 20.4176 35.4760 161.1271 -24.8156 -25.6481 8.3742
# 4 -16.1924 -23.4436 -24.8156 42.8651 4.1176 -2.5898
# 5 -5.7993 -2.1325 -25.6481 4.1176 53.2944 -5.2128
# 6 6.5962 2.5559 8.3742 -2.5898 -5.2128 28.3673
#
#
#
# Elastic Compliance Matrix: (Units=1/GPa)
#
#
# Indices 1 2 3 4 5 6 
#
# 1 0.011726 0.001537 -0.000963 0.004555 0.000316 -0.002107
# 2 0.001537 0.014341 -0.002393 0.007106 -0.001007 -0.000479
# 3 -0.000963 -0.002393 0.007810 0.002472 0.003265 -0.001040
# 4 0.004555 0.007106 0.002472 0.030418 -0.000353 0.000283
# 5 0.000316 -0.001007 0.003265 -0.000353 0.020632 0.002812
# 6 -0.002107 -0.000479 -0.001040 0.000283 0.002812 0.036635
#
#
# Mechanical properties :
#
#
# Convention : Reuss Voigt Hill
#
# Bulk Modulus (GPa) = 33.07084 50.74291 41.90688
# Shear Modulus (GPa) = 36.96076 43.94785 40.45430
#
# Velocity S-wave (km/s) = 4.03875 4.40398 4.22532
# Velocity P-wave (km/s) = 6.02856 6.94651 6.50375
#
# Compressibility (1/GPa) = 0.03023812
#
# Stress axis : x y z
#
# Youngs Moduli (GPa) = 85.28367 69.72964 128.04480
#
# Poissons Ratio (x) = -0.10717 0.12330
# Poissons Ratio (y) = -0.13107 0.30643
# Poissons Ratio (z) = 0.08212 0.16687
#
# Static dielectric constant tensor:
#      x y z
#    x 1.930860 -0.017120 -0.028910 
#    y -0.017120 1.897280 0.012470 
#    z -0.028910 0.012470 1.868890 
# 
# From -- ./inp_files/510949.got.cif
#   From: 2010.05.17/outbox.ucp.g08.bks.cvg/sg2_256_cif.got.tgz:510949.got - 2010.06.11 11:32:03.
