data_PCOD9074339
_publ_section_title
;
Structure prediction by ZEFSAII (Michael W. Deem and Ramdas Pophale) SiO2 
 PCOD9074339
Probable space group: P -1
;
_chemical_formula_sum "Si O2"
_cell_formula_units_Z 16
_cell_length_a 8.917416
_cell_length_b 22.506492
_cell_length_c 10.566054
_cell_angle_alpha 139.450038
_cell_angle_beta 138.012868
_cell_angle_gamma 25.674167
_cell_volume 584.281758
_symmetry_space_group_name_H-M "P -1"
_symmetry_group_IT_number 2
_symmetry_cell_setting 'triclinic'
loop_
_space_group_symop_operation_xyz
x,y,z
-x,-y,-z
loop_
_atom_site_type_symbol
_atom_site_label
_atom_site_fract_x
_atom_site_fract_y
_atom_site_fract_z
Si Si1 0.597257 0.015747 0.953250
Si Si2 0.483357 0.379432 0.111199
Si Si3 0.783628 0.622206 0.298988
Si Si4 0.534129 0.561627 0.408820
Si Si5 0.055955 0.290661 0.161991
Si Si6 0.256028 0.891448 0.098642
Si Si7 0.499813 0.907858 0.505737
Si Si8 0.284612 0.794557 0.472640
O O1 0.663741 0.937169 0.740303
O O2 0.242994 0.190258 0.993472
O O3 0.132038 0.721034 0.877866
O O4 0.500000 0.000000 0.000000
O O5 0.389913 0.513989 0.306579
O O6 0.222745 0.433263 0.922182
O O7 0.540064 0.269553 0.051218
O O8 0.698020 0.753712 0.422799
O O9 0.440462 0.701136 0.291777
O O10 0.150473 0.500039 0.405706
O O11 0.277877 0.722731 0.466175
O O12 0.738525 0.463959 0.249839
O O13 0.393801 0.236778 0.346555
O O14 0.943648 0.964385 0.117918
O O15 0.473739 0.900760 0.325172
O O16 0.000000 0.000000 0.000000
O O17 0.098180 0.043496 0.523924
#
# Coordination Sequence:
#
# PCOD9074339 Si02
#       8
#     2   2   2   2   2   2   2   2
#     4  12  20  36  60  89 123 156 195 245 304 362
#     4   9  19  34  54  80 109 159 194 235 294 358
#     4  10  18  32  50  79 119 156 193 235 299 360
#     4   9  20  35  50  82 127 158 190 240 301 361
#     4   9  17  31  51  81 118 153 187 236 297 354
#     4  11  24  41  60  87 124 160 205 256 300 356
#     4  11  24  35  60  89 121 160 202 247 307 358
#     4  11  19  33  53  88 127 153 192 250 302 353
#
# _framework density 27.384049000000001
#
# number of rings (size 3 to 8) (size 9 to 14) (size 15 to 20)
#    0.750    1.000    2.500    4.875    1.750    1.000 
#    2.250    0.000    0.000    0.750    0.000    4.375 
#    0.000    0.000    0.000    0.000    0.000    0.000 
#
# Total GULP energy -89240.580719 kJ/mol
# GULP energy per Si atom -5577.536295 kJ/mol
# Density = 2.732172 g / cm^3
# Si number density = 27.384049 Si / 1000 Ang^3
#
#
#
# Elastic Constant Matrix: (Units=GPa)
#
#
# Indices 1 2 3 4 5 6 
#
# 1 47.5254 41.4028 36.6186 5.6247 4.2860 8.7432
# 2 41.4028 97.1753 27.6796 2.7645 -4.6163 -6.8792
# 3 36.6186 27.6796 130.1306 -16.8487 12.2279 12.9259
# 4 5.6247 2.7645 -16.8487 25.8168 -1.4549 -12.1266
# 5 4.2860 -4.6163 12.2279 -1.4549 34.3735 -3.3402
# 6 8.7432 -6.8792 12.9259 -12.1266 -3.3402 38.3102
#
#
#
# Elastic Compliance Matrix: (Units=1/GPa)
#
#
# Indices 1 2 3 4 5 6 
#
# 1 0.059975 -0.023274 -0.012579 -0.030699 -0.009779 -0.024192
# 2 -0.023274 0.020648 0.001610 0.010038 0.006716 0.012239
# 3 -0.012579 0.001610 0.012318 0.011698 -0.001855 0.002545
# 4 -0.030699 0.010038 0.011698 0.064458 0.006251 0.025810
# 5 -0.009779 0.006716 -0.001855 0.006251 0.033005 0.008920
# 6 -0.024192 0.012239 0.002545 0.025810 0.008920 0.041910
#
#
# Mechanical properties :
#
#
# Convention : Reuss Voigt Hill
#
# Bulk Modulus (GPa) = 40.89110 54.02593 47.45851
# Shear Modulus (GPa) = 16.18374 30.97545 23.57960
#
# Velocity S-wave (km/s) = 2.43367 3.36691 2.93758
# Velocity P-wave (km/s) = 4.78141 5.90648 5.37347
#
# Compressibility (1/GPa) = 0.02445520
#
# Stress axis : x y z
#
# Youngs Moduli (GPa) = 16.67358 48.43044 81.18215
#
# Poissons Ratio (x) = 1.12717 1.02120
# Poissons Ratio (y) = 0.38806 -0.13071
# Poissons Ratio (z) = 0.20974 -0.07798
#
# Static dielectric constant tensor:
#      x y z
#    x 2.272200 0.076320 -0.040950 
#    y 0.076320 2.219400 0.122710 
#    z -0.040950 0.122710 2.254880 
# 
# From -- ./inp_files/283734.got.cif
#   From: 2010.05.17/outbox.cif.g08.bks.cpg/sg2_142_cif.got.tgz:283734.got - 2010.06.03 11:33:40.
