data_PCOD9074871
_publ_section_title
;
Structure prediction by ZEFSAII (Michael W. Deem and Ramdas Pophale) SiO2 
 PCOD9074871
Probable space group: P -1
;
_chemical_formula_sum "Si O2"
_cell_formula_units_Z 16
_cell_length_a 15.000000
_cell_length_b 15.000000
_cell_length_c 15.000000
_cell_angle_alpha 140.000000
_cell_angle_beta 140.000000
_cell_angle_gamma 20.000000
_cell_volume 725.414092
_symmetry_space_group_name_H-M "P -1"
_symmetry_group_IT_number 2
_symmetry_cell_setting 'triclinic'
loop_
_space_group_symop_operation_xyz
x,y,z
-x,-y,-z
loop_
_atom_site_type_symbol
_atom_site_label
_atom_site_fract_x
_atom_site_fract_y
_atom_site_fract_z
Si Si1 0.408491 0.381191 0.886596
Si Si2 0.603763 0.755555 0.418138
Si Si3 0.497504 0.018303 0.786616
Si Si4 0.058624 0.016028 0.926347
Si Si5 0.872074 0.455652 0.846562
Si Si6 0.893400 0.437577 0.644049
Si Si7 0.672626 0.063791 0.100213
Si Si8 0.955373 0.808613 0.601992
O O1 0.395425 0.342302 0.744679
O O2 0.443699 0.204187 0.830811
O O3 0.172110 0.681138 0.978611
O O4 0.696607 0.204834 0.986300
O O5 0.896394 0.458473 0.451649
O O6 0.500000 0.000000 0.500000
O O7 0.366145 0.925330 0.436708
O O8 0.206340 0.203665 0.713780
O O9 0.722853 0.718263 0.696434
O O10 0.602086 0.979474 0.932623
O O11 0.188168 0.968513 0.897866
O O12 0.993589 0.913897 0.770872
O O13 0.798836 0.495482 0.717274
O O14 0.610884 0.649877 0.856191
O O15 0.107323 0.150312 0.820630
O O16 0.000000 0.500000 0.000000
O O17 0.906269 0.306318 0.478004
#
# Coordination Sequence:
#
# PCOD9074871 Si02
#       8
#     2   2   2   2   2   2   2   2
#     4  11  23  41  68  95 122 171 213 261 313 366
#     4  12  26  45  70  99 131 158 210 267 328 376
#     4  11  20  37  61  93 127 160 204 263 325 381
#     4  11  25  44  65  91 130 173 222 249 305 380
#     4  12  21  36  61  99 127 157 211 268 322 372
#     4  12  23  37  61  91 131 166 207 258 332 372
#     4  11  21  38  60  93 128 162 205 268 313 371
#     4  12  27  45  64  92 132 176 209 260 312 382
#
# _framework density 22.056367999999999
#
# number of rings (size 3 to 8) (size 9 to 14) (size 15 to 20)
#    0.000    0.500    2.500    8.250    0.000    3.000 
#    0.000    1.250    0.000    0.000    0.000    0.000 
#    0.000    0.000    0.000    0.000    0.000    0.000 
#
# Total GULP energy -89276.014335 kJ/mol
# GULP energy per Si atom -5579.750896 kJ/mol
# Density = 2.200617 g / cm^3
# Si number density = 22.056368 Si / 1000 Ang^3
#
#
#
# Elastic Constant Matrix: (Units=GPa)
#
#
# Indices 1 2 3 4 5 6 
#
# 1 58.1332 22.0650 14.5936 10.8810 -20.4061 -6.7370
# 2 22.0650 164.4233 30.3972 23.5451 -6.1211 -18.0327
# 3 14.5936 30.3972 99.4020 24.2999 -28.0376 -6.4578
# 4 10.8810 23.5451 24.2999 41.9465 -6.3815 -12.6642
# 5 -20.4061 -6.1211 -28.0376 -6.3815 35.3921 5.1505
# 6 -6.7370 -18.0327 -6.4578 -12.6642 5.1505 34.1779
#
#
#
# Elastic Compliance Matrix: (Units=1/GPa)
#
#
# Indices 1 2 3 4 5 6 
#
# 1 0.023218 -0.002446 0.002222 -0.003742 0.014019 0.000207
# 2 -0.002446 0.007231 -0.001889 -0.001898 -0.002381 0.002632
# 3 0.002222 -0.001889 0.015359 -0.007220 0.012134 -0.002160
# 4 -0.003742 -0.001898 -0.007220 0.032339 -0.003748 0.009445
# 5 0.014019 -0.002381 0.012134 -0.003748 0.045510 -0.004447
# 6 0.000207 0.002632 -0.002160 0.009445 -0.004447 0.034450
#
#
# Mechanical properties :
#
#
# Convention : Reuss Voigt Hill
#
# Bulk Modulus (GPa) = 24.04946 50.67445 37.36196
# Shear Modulus (GPa) = 28.37784 39.29681 33.83733
#
# Velocity S-wave (km/s) = 3.59082 4.22554 3.92105
# Velocity P-wave (km/s) = 5.30276 6.84338 6.12173
#
# Compressibility (1/GPa) = 0.04158097
#
# Stress axis : x y z
#
# Youngs Moduli (GPa) = 43.07028 138.29205 65.10936
#
# Poissons Ratio (x) = 0.33828 -0.14465
# Poissons Ratio (y) = 0.10535 0.12298
# Poissons Ratio (z) = -0.09569 0.26122
#
# Static dielectric constant tensor:
#      x y z
#    x 1.901460 0.035130 -0.007700 
#    y 0.035130 1.784020 -0.057780 
#    z -0.007700 -0.057780 1.864520 
# 
# From -- ./inp_files/534465.got.cif
#   From: 2010.05.17/outbox.ucp.g08.bks.cvg/sg2_268_cif.got.tgz:534465.got - 2010.06.11 11:32:03.
