data_PCOD9074840
_publ_section_title
;
Structure prediction by ZEFSAII (Michael W. Deem and Ramdas Pophale) SiO2 
 PCOD9074840
Probable space group: P -1
;
_chemical_formula_sum "Si O2"
_cell_formula_units_Z 16
_cell_length_a 25.490465
_cell_length_b 10.808648
_cell_length_c 24.767236
_cell_angle_alpha 30.570702
_cell_angle_beta 11.363676
_cell_angle_gamma 29.414662
_cell_volume 658.611412
_symmetry_space_group_name_H-M "P -1"
_symmetry_group_IT_number 2
_symmetry_cell_setting 'triclinic'
loop_
_space_group_symop_operation_xyz
x,y,z
-x,-y,-z
loop_
_atom_site_type_symbol
_atom_site_label
_atom_site_fract_x
_atom_site_fract_y
_atom_site_fract_z
Si Si1 0.057070 0.004480 0.700527
Si Si2 0.910380 0.116749 0.171936
Si Si3 0.133119 0.727570 0.438700
Si Si4 0.496582 0.821068 0.204349
Si Si5 0.321185 0.453489 0.984622
Si Si6 0.443873 0.969984 0.630485
Si Si7 0.336652 0.338942 0.795737
Si Si8 0.099721 0.861577 0.302140
O O1 0.978383 0.054892 0.823406
O O2 0.386333 0.881093 0.414580
O O3 0.954205 0.207481 0.679650
O O4 0.913477 0.784734 0.912795
O O5 0.733967 0.396252 0.262659
O O6 0.706025 0.002388 0.386477
O O7 0.164939 0.159095 0.864442
O O8 0.456633 0.647708 0.154786
O O9 0.091926 0.713120 0.421261
O O10 0.979084 0.546110 0.692302
O O11 0.000000 0.000000 0.500000
O O12 0.602526 0.743034 0.067691
O O13 0.619092 0.609478 0.204938
O O14 0.167156 0.897750 0.510112
O O15 0.617694 0.053960 0.012009
O O16 0.374564 0.706287 0.812002
O O17 0.500000 0.000000 0.500000
#
# Coordination Sequence:
#
# PCOD9074840 Si02
#       8
#     2   2   2   2   2   2   2   2
#     4  10  21  37  61  92 123 157 201 254 320 370
#     4  12  23  42  64  84 123 164 213 260 300 360
#     4  12  21  36  62  92 127 156 197 253 323 368
#     4  10  18  32  52  84 122 153 187 240 304 374
#     4  12  23  38  60  87 124 164 205 248 302 368
#     4  12  28  45  63  88 123 171 218 250 295 358
#     4  10  20  34  60  92 121 154 203 254 316 365
#     4  10  20  33  55  90 122 151 183 245 319 371
#
# _framework density 24.293536
#
# number of rings (size 3 to 8) (size 9 to 14) (size 15 to 20)
#    0.000    1.000    2.500    5.250    0.000    3.000 
#    0.000    0.000    0.000    4.500    0.000    0.000 
#    0.000    0.000    0.000    0.000    0.000    0.000 
#
# Total GULP energy -89438.080611 kJ/mol
# GULP energy per Si atom -5589.880038 kJ/mol
# Density = 2.423824 g / cm^3
# Si number density = 24.293536 Si / 1000 Ang^3
#
#
#
# Elastic Constant Matrix: (Units=GPa)
#
#
# Indices 1 2 3 4 5 6 
#
# 1 163.6562 -5.7905 34.2709 -5.0660 16.3166 -11.8619
# 2 -5.7905 27.4275 -0.1007 -5.2105 2.6755 -4.6088
# 3 34.2709 -0.1007 98.9506 1.8300 6.9390 0.1817
# 4 -5.0660 -5.2105 1.8300 28.7628 -6.9960 2.4125
# 5 16.3166 2.6755 6.9390 -6.9960 37.7924 -1.7122
# 6 -11.8619 -4.6088 0.1817 2.4125 -1.7122 21.5057
#
#
#
# Elastic Compliance Matrix: (Units=1/GPa)
#
#
# Indices 1 2 3 4 5 6 
#
# 1 0.007296 0.002683 -0.002372 0.000944 -0.002535 0.004312
# 2 0.002683 0.040007 -0.000869 0.006467 -0.002219 0.009159
# 3 -0.002372 -0.000869 0.011046 -0.001462 -0.001282 -0.001526
# 4 0.000944 0.006467 -0.001462 0.037892 0.006335 -0.001827
# 5 -0.002535 -0.002219 -0.001282 0.006335 0.029108 -0.000256
# 6 0.004312 0.009159 -0.001526 -0.001827 -0.000256 0.051038
#
#
# Mechanical properties :
#
#
# Convention : Reuss Voigt Hill
#
# Bulk Modulus (GPa) = 17.47243 38.53261 28.00252
# Shear Modulus (GPa) = 25.43462 35.05584 30.24523
#
# Velocity S-wave (km/s) = 3.23920 3.80282 3.53227
# Velocity P-wave (km/s) = 4.60410 5.93107 5.30921
#
# Compressibility (1/GPa) = 0.05723301
#
# Stress axis : x y z
#
# Youngs Moduli (GPa) = 137.05319 24.99562 90.52675
#
# Poissons Ratio (x) = -0.06706 0.21473
# Poissons Ratio (y) = -0.36769 0.07869
# Poissons Ratio (z) = 0.32509 0.02173
#
# Static dielectric constant tensor:
#      x y z
#    x 2.004360 -0.007760 0.037390 
#    y -0.007760 1.985600 0.010530 
#    z 0.037390 0.010530 1.858900 
# 
# From -- ./inp_files/535091.got.cif
#   From: 2010.05.17/outbox.cif.g08.bks.cpg/sg2_268_cif.got.tgz:535091.got - 2010.06.03 11:33:40.
