data_PCOD9074926
_publ_section_title
;
Structure prediction by ZEFSAII (Michael W. Deem and Ramdas Pophale) SiO2 
 PCOD9074926
Probable space group: P -1
;
_chemical_formula_sum "Si O2"
_cell_formula_units_Z 16
_cell_length_a 12.000000
_cell_length_b 24.000000
_cell_length_c 6.000000
_cell_angle_alpha 60.000000
_cell_angle_beta 110.000000
_cell_angle_gamma 150.000000
_cell_volume 731.538865
_symmetry_space_group_name_H-M "P -1"
_symmetry_group_IT_number 2
_symmetry_cell_setting 'triclinic'
loop_
_space_group_symop_operation_xyz
x,y,z
-x,-y,-z
loop_
_atom_site_type_symbol
_atom_site_label
_atom_site_fract_x
_atom_site_fract_y
_atom_site_fract_z
Si Si1 0.836381 0.285177 0.887231
Si Si2 0.438797 0.813239 0.488418
Si Si3 0.064476 0.142253 0.768383
Si Si4 0.456372 0.597903 0.284041
Si Si5 0.405318 0.026705 0.367751
Si Si6 0.333543 0.483647 0.925227
Si Si7 0.166250 0.078042 0.667285
Si Si8 0.204947 0.614322 0.071008
O O1 0.781051 0.259608 0.638710
O O2 0.876951 0.378533 0.797700
O O3 0.057145 0.349059 0.994367
O O4 0.597475 0.150256 0.098781
O O5 0.590328 0.938280 0.455553
O O6 0.585926 0.835231 0.388556
O O7 0.362707 0.733698 0.795835
O O8 0.267888 0.270182 0.783996
O O9 0.174251 0.154334 0.611240
O O10 0.851255 0.087720 0.668299
O O11 0.947439 0.028278 0.041674
O O12 0.383098 0.533120 0.604387
O O13 0.351449 0.619794 0.203059
O O14 0.382232 0.538842 0.098816
O O15 0.500000 0.000000 0.500000
O O16 0.500000 0.500000 0.000000
O O17 0.000000 0.000000 0.500000
O O18 0.000000 0.500000 0.000000
#
# Coordination Sequence:
#
# PCOD9074926 Si02
#       8
#     2   2   2   2   2   2   2   2
#     4  11  25  46  72 101 142 186 238 305 360 426
#     4  11  23  41  70 101 141 184 229 302 361 425
#     4  11  25  41  66 106 138 182 232 294 357 429
#     4  12  28  47  78 110 143 191 240 300 361 433
#     4  11  26  45  67 100 138 188 243 289 354 426
#     4  12  30  52  74 104 146 196 244 295 356 427
#     4  11  21  40  66  98 145 176 224 289 369 421
#     4  11  23  42  70 108 142 178 239 299 368 426
#
# _framework density 21.871701999999999
#
# number of rings (size 3 to 8) (size 9 to 14) (size 15 to 20)
#    0.000    0.750    3.750    2.625   12.250    2.500 
#    0.000    0.000    0.000    0.000    0.000    0.000 
#    0.000    0.000    0.000    0.000    0.000    0.000 
#
# Total GULP energy -89188.931145 kJ/mol
# GULP energy per Si atom -5574.308197 kJ/mol
# Density = 2.182192 g / cm^3
# Si number density = 21.871702 Si / 1000 Ang^3
#
#
#
# Elastic Constant Matrix: (Units=GPa)
#
#
# Indices 1 2 3 4 5 6 
#
# 1 93.4635 23.3996 18.3154 13.9202 11.9680 29.9593
# 2 23.3996 91.0221 8.2787 23.4380 18.5701 44.4746
# 3 18.3154 8.2787 70.0865 20.1526 8.1257 0.1542
# 4 13.9202 23.4380 20.1526 31.5137 11.5101 4.5115
# 5 11.9680 18.5701 8.1257 11.5101 26.9664 6.4720
# 6 29.9593 44.4746 0.1542 4.5115 6.4720 36.7233
#
#
#
# Elastic Compliance Matrix: (Units=1/GPa)
#
#
# Indices 1 2 3 4 5 6 
#
# 1 0.020316 0.014875 -0.003057 -0.011372 -0.005766 -0.032162
# 2 0.014875 0.050034 0.000393 -0.029953 -0.012340 -0.066877
# 3 -0.003057 0.000393 0.018201 -0.010854 -0.000576 0.003376
# 4 -0.011372 -0.029953 -0.010854 0.063060 -0.007368 0.039149
# 5 -0.005766 -0.012340 -0.000576 -0.007368 0.048579 0.011994
# 6 -0.032162 -0.066877 0.003376 0.039149 0.011994 0.127524
#
#
# Mechanical properties :
#
#
# Convention : Reuss Voigt Hill
#
# Bulk Modulus (GPa) = 8.85174 39.39551 24.12363
# Shear Modulus (GPa) = 14.66491 32.67923 23.67207
#
# Velocity S-wave (km/s) = 2.59220 3.86960 3.29342
# Velocity P-wave (km/s) = 3.60767 6.16573 5.05131
#
# Compressibility (1/GPa) = 0.11297208
#
# Stress axis : x y z
#
# Youngs Moduli (GPa) = 49.22268 19.98650 54.94227
#
# Poissons Ratio (x) = -0.29729 0.16796
# Poissons Ratio (y) = -0.73217 -0.02160
# Poissons Ratio (z) = 0.15048 -0.00786
#
# Static dielectric constant tensor:
#      x y z
#    x 1.853560 -0.050200 -0.057740 
#    y -0.050200 1.842500 0.028950 
#    z -0.057740 0.028950 1.940190 
# 
# From -- ./inp_files/83175.got.cif
#   From: 2010.05.17/outbox.ucp.g08.bks.cvg/sg2_42_cif.got.tgz:83175.got - 2010.06.11 11:32:03.
