data_PCOD9074604
_publ_section_title
;
Structure prediction by ZEFSAII (Michael W. Deem and Ramdas Pophale) SiO2 
 PCOD9074604
Probable space group: P -1
;
_chemical_formula_sum "Si O2"
_cell_formula_units_Z 16
_cell_length_a 12.000000
_cell_length_b 18.000000
_cell_length_c 21.000000
_cell_angle_alpha 20.000000
_cell_angle_beta 150.000000
_cell_angle_gamma 140.000000
_cell_volume 744.844803
_symmetry_space_group_name_H-M "P -1"
_symmetry_group_IT_number 2
_symmetry_cell_setting 'triclinic'
loop_
_space_group_symop_operation_xyz
x,y,z
-x,-y,-z
loop_
_atom_site_type_symbol
_atom_site_label
_atom_site_fract_x
_atom_site_fract_y
_atom_site_fract_z
Si Si1 0.291986 0.567975 0.485000
Si Si2 0.424648 0.301056 0.581341
Si Si3 0.484324 0.431227 0.209218
Si Si4 0.886612 0.446162 0.172704
Si Si5 0.888441 0.960229 0.545023
Si Si6 0.373200 0.796696 0.974261
Si Si7 0.599946 0.113685 0.629183
Si Si8 0.827533 0.597605 0.162710
O O1 0.390985 0.727042 0.360331
O O2 0.249328 0.725091 0.399340
O O3 0.080336 0.512125 0.389581
O O4 0.497408 0.350572 0.783636
O O5 0.500000 0.500000 0.500000
O O6 0.164207 0.397433 0.348117
O O7 0.422212 0.043908 0.806460
O O8 0.571962 0.190411 0.480462
O O9 0.664090 0.462002 0.221075
O O10 0.241350 0.451353 0.037605
O O11 0.463802 0.636796 0.085045
O O12 0.808980 0.214733 0.327873
O O13 0.824086 0.579611 0.099668
O O14 0.673824 0.854791 0.513639
O O15 0.000000 0.000000 0.500000
O O16 0.097313 0.834694 0.796530
O O17 0.729126 0.861943 0.915071
#
# Coordination Sequence:
#
# PCOD9074604 Si02
#       8
#     2   2   2   2   2   2   2   2
#     4  11  25  42  67  97 127 171 215 267 319 387
#     4  11  23  44  65  98 129 169 213 262 330 383
#     4  11  24  42  67  97 126 173 217 266 317 383
#     4  11  23  42  66  93 133 170 211 269 326 376
#     4  11  20  42  69  95 130 167 210 276 324 371
#     4  10  24  41  68  98 126 164 215 272 320 373
#     4  11  25  40  69  98 122 176 221 260 323 380
#     4  12  24  46  60  92 139 174 211 263 322 385
#
# _framework density 21.480985
#
# number of rings (size 3 to 8) (size 9 to 14) (size 15 to 20)
#    0.000    1.000    3.750    3.000    1.750    5.000 
#    0.000    0.000    0.000    0.000    0.000    0.000 
#    0.000    0.000    0.000    0.000    0.000    0.000 
#
# Total GULP energy -89131.978633 kJ/mol
# GULP energy per Si atom -5570.748665 kJ/mol
# Density = 2.143209 g / cm^3
# Si number density = 21.480985 Si / 1000 Ang^3
#
#
#
# Elastic Constant Matrix: (Units=GPa)
#
#
# Indices 1 2 3 4 5 6 
#
# 1 26.5697 -1.4607 6.4323 -4.3136 -2.3121 -0.9394
# 2 -1.4607 110.1421 7.3200 4.1807 -7.1444 -10.9950
# 3 6.4323 7.3200 59.9978 5.7966 -23.7311 -4.0978
# 4 -4.3136 4.1807 5.7966 7.5541 -2.7967 -5.3821
# 5 -2.3121 -7.1444 -23.7311 -2.7967 19.5585 3.3970
# 6 -0.9394 -10.9950 -4.0978 -5.3821 3.3970 28.9989
#
#
#
# Elastic Compliance Matrix: (Units=1/GPa)
#
#
# Indices 1 2 3 4 5 6 
#
# 1 0.045988 0.000461 -0.008223 0.037551 -0.000307 0.007508
# 2 0.000461 0.009646 0.000524 -0.002113 0.003398 0.002956
# 3 -0.008223 0.000524 0.034527 -0.019468 0.038913 -0.003360
# 4 0.037551 -0.002113 -0.019468 0.194582 0.002045 0.033539
# 5 -0.000307 0.003398 0.038913 0.002045 0.100645 -0.004633
# 6 0.007508 0.002956 -0.003360 0.033539 -0.004633 0.042141
#
#
# Mechanical properties :
#
#
# Convention : Reuss Voigt Hill
#
# Bulk Modulus (GPa) = 13.21281 24.58811 18.90046
# Shear Modulus (GPa) = 10.70126 23.51683 17.10904
#
# Velocity S-wave (km/s) = 2.23440 3.31233 2.82525
# Velocity P-wave (km/s) = 3.58065 5.10881 4.41141
#
# Compressibility (1/GPa) = 0.07568415
#
# Stress axis : x y z
#
# Youngs Moduli (GPa) = 21.74483 103.66787 28.96243
#
# Poissons Ratio (x) = -0.04775 0.23816
# Poissons Ratio (y) = -0.01002 -0.01517
# Poissons Ratio (z) = 0.17881 -0.05430
#
# Static dielectric constant tensor:
#      x y z
#    x 1.871230 -0.079970 0.032820 
#    y -0.079970 1.805900 -0.001440 
#    z 0.032820 -0.001440 1.814360 
# 
# From -- ./inp_files/438327.got.cif
#   From: 2010.05.17/outbox.ucp.g08.bks.cvg/sg2_220_cif.got.tgz:438327.got - 2010.06.11 11:32:03.
