data_PCOD9074475
_publ_section_title
;
Structure prediction by ZEFSAII (Michael W. Deem and Ramdas Pophale) SiO2 
 PCOD9074475
Probable space group: P -1
;
_chemical_formula_sum "Si O2"
_cell_formula_units_Z 16
_cell_length_a 12.000000
_cell_length_b 9.000000
_cell_length_c 9.000000
_cell_angle_alpha 50.000000
_cell_angle_beta 90.000000
_cell_angle_gamma 80.000000
_cell_volume 725.212580
_symmetry_space_group_name_H-M "P -1"
_symmetry_group_IT_number 2
_symmetry_cell_setting 'triclinic'
loop_
_space_group_symop_operation_xyz
x,y,z
-x,-y,-z
loop_
_atom_site_type_symbol
_atom_site_label
_atom_site_fract_x
_atom_site_fract_y
_atom_site_fract_z
Si Si1 0.385060 0.526524 0.366618
Si Si2 0.870075 0.988368 0.554925
Si Si3 0.649026 0.471077 0.985608
Si Si4 0.128254 0.411641 0.008605
Si Si5 0.525692 0.153351 0.272584
Si Si6 0.274927 0.139628 0.634180
Si Si7 0.852524 0.191022 0.725710
Si Si8 0.913592 0.768189 0.170708
O O1 0.500000 0.500000 0.500000
O O2 0.392591 0.560405 0.164153
O O3 0.327632 0.333467 0.486127
O O4 0.277173 0.701689 0.301455
O O5 0.846205 0.162990 0.566088
O O6 0.850608 0.799925 0.772155
O O7 0.789641 0.959720 0.432850
O O8 0.000000 0.000000 0.500000
O O9 0.783420 0.458793 0.017982
O O10 0.592654 0.704143 0.869489
O O11 0.599672 0.323724 0.189381
O O12 0.120279 0.384691 0.848781
O O13 0.000000 0.500000 0.000000
O O14 0.500000 0.000000 0.500000
O O15 0.606605 0.021841 0.235577
O O16 0.179501 0.191858 0.725448
O O17 0.956817 0.289026 0.723687
O O18 0.892333 0.975088 0.944376
#
# Coordination Sequence:
#
# PCOD9074475 Si02
#       8
#     2   2   2   2   2   2   2   2
#     4  12  27  45  69 107 149 195 249 307 364 438
#     4  11  23  41  69 105 142 190 234 295 368 436
#     4  11  25  47  72 109 146 193 250 306 368 444
#     4  11  24  43  71 106 146 187 240 298 375 444
#     4  11  24  46  78  99 143 195 246 306 365 443
#     4  12  25  44  71 105 144 184 247 301 364 439
#     4  10  23  45  69 101 149 186 242 299 373 443
#     4  10  23  43  71 105 140 190 239 312 372 434
#
# _framework density 22.062495999999999
#
# number of rings (size 3 to 8) (size 9 to 14) (size 15 to 20)
#    0.000    1.000    3.750    1.500    3.500    5.500 
#    0.000    1.875    0.000    0.000    0.000    0.000 
#    0.000    0.000    0.000    0.000    0.000    0.000 
#
# Total GULP energy -89081.823078 kJ/mol
# GULP energy per Si atom -5567.613942 kJ/mol
# Density = 2.201228 g / cm^3
# Si number density = 22.062496 Si / 1000 Ang^3
#
#
#
# Elastic Constant Matrix: (Units=GPa)
#
#
# Indices 1 2 3 4 5 6 
#
# 1 165.4250 45.9990 37.4909 17.5881 1.9767 7.8604
# 2 45.9990 104.4040 36.7209 32.7830 12.1619 -7.9401
# 3 37.4909 36.7209 70.9729 8.6658 -11.4748 12.6283
# 4 17.5881 32.7830 8.6658 41.8254 9.7961 -4.2321
# 5 1.9767 12.1619 -11.4748 9.7961 44.8973 -5.2118
# 6 7.8604 -7.9401 12.6283 -4.2321 -5.2118 54.1559
#
#
#
# Elastic Compliance Matrix: (Units=1/GPa)
#
#
# Indices 1 2 3 4 5 6 
#
# 1 0.007352 -0.002051 -0.002604 -0.000956 -0.000326 -0.000867
# 2 -0.002051 0.016936 -0.007783 -0.009510 -0.004009 0.003467
# 3 -0.002604 -0.007783 0.021446 0.000605 0.006986 -0.005044
# 4 -0.000956 -0.009510 0.000605 0.032717 -0.004279 0.000748
# 5 -0.000326 -0.004009 0.006986 -0.004279 0.026093 0.000007
# 6 -0.000867 0.003467 -0.005044 0.000748 0.000007 0.020335
#
#
# Mechanical properties :
#
#
# Convention : Reuss Voigt Hill
#
# Bulk Modulus (GPa) = 47.94543 64.58038 56.26291
# Shear Modulus (GPa) = 31.90640 42.88180 37.39410
#
# Velocity S-wave (km/s) = 3.80700 4.41347 4.12140
# Velocity P-wave (km/s) = 6.41117 7.43685 6.94298
#
# Compressibility (1/GPa) = 0.02085705
#
# Stress axis : x y z
#
# Youngs Moduli (GPa) = 136.01160 59.04560 46.62964
#
# Poissons Ratio (x) = 0.12111 0.12144
# Poissons Ratio (y) = 0.27898 0.36292
# Poissons Ratio (z) = 0.35421 0.45955
#
# Static dielectric constant tensor:
#      x y z
#    x 1.822030 -0.032900 0.003020 
#    y -0.032900 1.912060 -0.030670 
#    z 0.003020 -0.030670 1.853070 
# 
# From -- ./inp_files/242062.got.cif
#   From: 2010.05.17/outbox.ucp.g08.bks.cvg/sg2_122_cif.got.tgz:242062.got - 2010.06.11 11:32:03.
