data_PCOD9074394
_publ_section_title
;
Structure prediction by ZEFSAII (Michael W. Deem and Ramdas Pophale) SiO2 
 PCOD9074394
Probable space group: P -1
;
_chemical_formula_sum "Si O2"
_cell_formula_units_Z 16
_cell_length_a 12.000000
_cell_length_b 12.000000
_cell_length_c 9.000000
_cell_angle_alpha 80.000000
_cell_angle_beta 50.000000
_cell_angle_gamma 60.000000
_cell_volume 838.191741
_symmetry_space_group_name_H-M "P -1"
_symmetry_group_IT_number 2
_symmetry_cell_setting 'triclinic'
loop_
_space_group_symop_operation_xyz
x,y,z
-x,-y,-z
loop_
_atom_site_type_symbol
_atom_site_label
_atom_site_fract_x
_atom_site_fract_y
_atom_site_fract_z
Si Si1 0.352059 0.286894 0.062150
Si Si2 0.515484 0.135556 0.234379
Si Si3 0.099074 0.384007 0.819037
Si Si4 0.422221 0.632571 0.328472
Si Si5 0.542215 0.640156 0.551415
Si Si6 0.203488 0.155479 0.003191
Si Si7 0.133395 0.277017 0.500421
Si Si8 0.966744 0.149205 0.466953
O O1 0.426407 0.367494 0.896661
O O2 0.503303 0.184218 0.063594
O O3 0.302934 0.211304 0.001689
O O4 0.193073 0.343915 0.304060
O O5 0.538147 0.232627 0.302048
O O6 0.323964 0.163533 0.418320
O O7 0.661601 0.985443 0.147789
O O8 0.272576 0.384116 0.642307
O O9 0.045170 0.370371 0.698614
O O10 0.119221 0.258143 0.918007
O O11 0.000000 0.500000 0.000000
O O12 0.445096 0.661926 0.474043
O O13 0.440183 0.488580 0.352377
O O14 0.234725 0.744947 0.407266
O O15 0.071301 0.147085 0.229985
O O16 0.037964 0.208980 0.519979
O O17 0.000000 0.000000 0.500000
#
# Coordination Sequence:
#
# PCOD9074394 Si02
#       8
#     2   2   2   2   2   2   2   2
#     4   9  19  38  64  92 121 160 210 257 309 372
#     4   9  20  39  64  93 123 158 227 255 306 375
#     4  11  22  43  66  92 127 166 219 261 315 378
#     4  11  22  41  65  92 133 172 206 262 323 375
#     4  10  23  42  62  96 127 169 215 264 313 378
#     4  11  21  39  67  92 121 173 209 258 317 374
#     4   8  22  41  63  93 126 163 215 265 300 386
#     4  11  24  40  64  98 136 164 206 266 326 377
#
# _framework density 19.088711
#
# number of rings (size 3 to 8) (size 9 to 14) (size 15 to 20)
#    0.750    1.250    1.250    1.875    1.750    3.500 
#    2.250   11.250    0.000    0.000    0.000    0.000 
#    0.000    0.000    0.000    0.000    0.000    0.000 
#
# Total GULP energy -89144.520127 kJ/mol
# GULP energy per Si atom -5571.532508 kJ/mol
# Density = 1.904526 g / cm^3
# Si number density = 19.088711 Si / 1000 Ang^3
#
#
#
# Elastic Constant Matrix: (Units=GPa)
#
#
# Indices 1 2 3 4 5 6 
#
# 1 114.2859 52.0517 39.6750 2.0657 10.7936 19.8190
# 2 52.0517 119.3335 67.2753 -14.8767 11.6320 4.6080
# 3 39.6750 67.2753 122.3285 -7.7499 6.7334 16.8692
# 4 2.0657 -14.8767 -7.7499 39.6167 12.7471 -2.4233
# 5 10.7936 11.6320 6.7334 12.7471 30.7584 -3.6073
# 6 19.8190 4.6080 16.8692 -2.4233 -3.6073 25.4313
#
#
#
# Elastic Compliance Matrix: (Units=1/GPa)
#
#
# Indices 1 2 3 4 5 6 
#
# 1 0.013260 -0.005490 0.000097 -0.002461 -0.002755 -0.010029
# 2 -0.005490 0.015806 -0.007080 0.006674 -0.004552 0.006101
# 3 0.000097 -0.007080 0.013138 -0.000229 -0.001038 -0.007677
# 4 -0.002461 0.006674 -0.000229 0.032762 -0.014970 0.001859
# 5 -0.002755 -0.004552 -0.001038 -0.014970 0.042601 0.008276
# 6 -0.010029 0.006101 -0.007677 0.001859 0.008276 0.052475
#
#
# Mechanical properties :
#
#
# Convention : Reuss Voigt Hill
#
# Bulk Modulus (GPa) = 57.94028 74.88353 66.41190
# Shear Modulus (GPa) = 24.90756 32.29100 28.59928
#
# Velocity S-wave (km/s) = 3.61616 4.11740 3.87490
# Velocity P-wave (km/s) = 6.91770 7.86882 7.40854
#
# Compressibility (1/GPa) = 0.01725915
#
# Stress axis : x y z
#
# Youngs Moduli (GPa) = 75.41203 63.26680 76.11383
#
# Poissons Ratio (x) = 0.34732 -0.00739
# Poissons Ratio (y) = 0.41400 0.53889
# Poissons Ratio (z) = -0.00732 0.44794
#
# Static dielectric constant tensor:
#      x y z
#    x 1.676390 -0.027220 0.010370 
#    y -0.027220 1.676460 0.001270 
#    z 0.010370 0.001270 1.679060 
# 
# From -- ./inp_files/257899.got.cif
#   From: 2010.05.17/outbox.ucp.g08.bks.cvg/sg2_129_cif.got.tgz:257899.got - 2010.06.11 11:32:03.
