data_PCOD9074369
_publ_section_title
;
Structure prediction by ZEFSAII (Michael W. Deem and Ramdas Pophale) SiO2 
 PCOD9074369
Probable space group: P -1
;
_chemical_formula_sum "Si O2"
_cell_formula_units_Z 16
_cell_length_a 12.000000
_cell_length_b 12.000000
_cell_length_c 12.000000
_cell_angle_alpha 40.000000
_cell_angle_beta 80.000000
_cell_angle_gamma 110.000000
_cell_volume 722.981415
_symmetry_space_group_name_H-M "P -1"
_symmetry_group_IT_number 2
_symmetry_cell_setting 'triclinic'
loop_
_space_group_symop_operation_xyz
x,y,z
-x,-y,-z
loop_
_atom_site_type_symbol
_atom_site_label
_atom_site_fract_x
_atom_site_fract_y
_atom_site_fract_z
Si Si1 0.908989 0.486883 0.183034
Si Si2 0.271450 0.308439 0.241734
Si Si3 0.899368 0.601822 0.657035
Si Si4 0.628144 0.720317 0.980003
Si Si5 0.127929 0.805700 0.279458
Si Si6 0.584171 0.334832 0.425722
Si Si7 0.242335 0.913568 0.675476
Si Si8 0.391781 0.976738 0.941444
O O1 0.765618 0.445283 0.293799
O O2 0.820657 0.314240 0.217644
O O3 0.973737 0.397336 0.313469
O O4 0.091712 0.778542 0.893815
O O5 0.138264 0.291298 0.329397
O O6 0.457996 0.579104 0.050197
O O7 0.252650 0.096302 0.459016
O O8 0.271684 0.278856 0.131747
O O9 0.987427 0.764521 0.400385
O O10 0.723335 0.300132 0.889587
O O11 0.598606 0.551069 0.216308
O O12 0.721551 0.994058 0.806529
O O13 0.000000 0.500000 0.500000
O O14 0.250696 0.946491 0.042038
O O15 0.426153 0.085582 0.566398
O O16 0.516776 0.220527 0.649104
O O17 0.500000 0.000000 0.000000
#
# Coordination Sequence:
#
# PCOD9074369 Si02
#       8
#     2   2   2   2   2   2   2   2
#     4  11  23  38  66 101 140 190 222 278 352 422
#     4  10  23  41  69 104 140 179 222 287 358 421
#     4  11  23  41  70 102 139 178 232 293 342 421
#     4  10  23  43  68 102 139 182 228 283 355 423
#     4  10  23  41  64  94 129 178 238 281 330 402
#     4  11  24  42  68  98 141 182 231 292 343 412
#     4  10  23  41  62 100 147 185 224 277 345 430
#     4  11  23  43  68  92 133 188 239 285 340 406
#
# _framework density 22.130583000000001
#
# number of rings (size 3 to 8) (size 9 to 14) (size 15 to 20)
#    0.000    1.500    1.250    2.625    5.250    4.500 
#    0.000    0.000    0.000    6.000    0.000    0.000 
#    0.000    0.000    0.000    0.000    0.000    0.000 
#
# Total GULP energy -89223.683827 kJ/mol
# GULP energy per Si atom -5576.480239 kJ/mol
# Density = 2.208021 g / cm^3
# Si number density = 22.130583 Si / 1000 Ang^3
#
#
#
# Elastic Constant Matrix: (Units=GPa)
#
#
# Indices 1 2 3 4 5 6 
#
# 1 75.4233 12.5671 20.5718 12.2315 -17.4985 5.9154
# 2 12.5671 98.5014 26.1704 3.0983 -5.9652 -6.4588
# 3 20.5718 26.1704 103.3354 33.5739 -20.2387 -3.0185
# 4 12.2315 3.0983 33.5739 46.7640 5.5815 -12.1919
# 5 -17.4985 -5.9652 -20.2387 5.5815 35.6902 11.0955
# 6 5.9154 -6.4588 -3.0185 -12.1919 11.0955 38.8424
#
#
#
# Elastic Compliance Matrix: (Units=1/GPa)
#
#
# Indices 1 2 3 4 5 6 
#
# 1 0.019805 -0.002977 0.004214 -0.013327 0.017534 -0.012375
# 2 -0.002977 0.011711 -0.004900 0.005399 -0.004697 0.005056
# 3 0.004214 -0.004900 0.020443 -0.020994 0.019897 -0.012141
# 4 -0.013327 0.005399 -0.020994 0.050615 -0.033796 0.026837
# 5 0.017534 -0.004697 0.019897 -0.033796 0.061774 -0.030159
# 6 -0.012375 0.005056 -0.012141 0.026837 -0.030159 0.044566
#
#
# Mechanical properties :
#
#
# Convention : Reuss Voigt Hill
#
# Bulk Modulus (GPa) = 22.40492 43.98654 33.19573
# Shear Modulus (GPa) = 21.63409 38.78937 30.21173
#
# Velocity S-wave (km/s) = 3.13000 4.19113 3.69881
# Velocity P-wave (km/s) = 4.81751 6.58330 5.76837
#
# Compressibility (1/GPa) = 0.04463306
#
# Stress axis : x y z
#
# Youngs Moduli (GPa) = 50.49241 85.38987 48.91747
#
# Poissons Ratio (x) = 0.25418 -0.20612
# Poissons Ratio (y) = 0.15030 0.23968
# Poissons Ratio (z) = -0.21276 0.41839
#
# Static dielectric constant tensor:
#      x y z
#    x 1.808120 0.012760 -0.019800 
#    y 0.012760 1.839640 0.031660 
#    z -0.019800 0.031660 1.916310 
# 
# From -- ./inp_files/427392.got.cif
#   From: 2010.05.17/outbox.ucp.g08.bks.cvg/sg2_214_cif.got.tgz:427392.got - 2010.06.11 11:32:03.
