data_PCOD9074829
_publ_section_title
;
Structure prediction by ZEFSAII (Michael W. Deem and Ramdas Pophale) SiO2 
 PCOD9074829
Probable space group: P -1
;
_chemical_formula_sum "Si O2"
_cell_formula_units_Z 16
_cell_length_a 12.233654
_cell_length_b 8.835460
_cell_length_c 11.838899
_cell_angle_alpha 69.589125
_cell_angle_beta 91.173111
_cell_angle_gamma 140.840718
_cell_volume 686.492861
_symmetry_space_group_name_H-M "P -1"
_symmetry_group_IT_number 2
_symmetry_cell_setting 'triclinic'
loop_
_space_group_symop_operation_xyz
x,y,z
-x,-y,-z
loop_
_atom_site_type_symbol
_atom_site_label
_atom_site_fract_x
_atom_site_fract_y
_atom_site_fract_z
Si Si1 0.243935 0.695627 0.908079
Si Si2 0.417627 0.402609 0.843903
Si Si3 0.417277 0.534966 0.571193
Si Si4 0.143845 0.830247 0.057368
Si Si5 0.234632 0.423243 0.177519
Si Si6 0.301139 0.002522 0.377738
Si Si7 0.024700 0.131476 0.580832
Si Si8 0.311098 0.784929 0.255012
O O1 0.196517 0.804325 0.945976
O O2 0.230940 0.538044 0.042199
O O3 0.461388 0.964180 0.804280
O O4 0.085474 0.462805 0.871096
O O5 0.352317 0.355367 0.726942
O O6 0.570169 0.442452 0.848562
O O7 0.549211 0.722404 0.777363
O O8 0.236669 0.121157 0.983794
O O9 0.500000 0.500000 0.500000
O O10 0.581627 0.850839 0.541373
O O11 0.244720 0.417447 0.540285
O O12 0.240308 0.839516 0.153449
O O13 0.226084 0.523346 0.263520
O O14 0.064143 0.090833 0.265668
O O15 0.252942 0.776872 0.378274
O O16 0.115466 0.886576 0.420007
O O17 0.000000 0.000000 0.500000
#
# Coordination Sequence:
#
# PCOD9074829 Si02
#       8
#     2   2   2   2   2   2   2   2
#     4  10  19  31  55  79 115 152 183 216 264 320
#     4   9  17  34  53  80 102 144 194 214 257 328
#     4  10  19  37  60  78 103 134 186 231 270 317
#     4  10  18  32  52  81 111 152 189 211 259 331
#     4  10  18  35  59  82 105 153 184 218 267 325
#     4   9  23  34  56  85 108 147 175 230 279 321
#     4  11  20  39  63  79 102 138 191 232 267 323
#     4  11  20  37  52  81 127 141 172 229 276 317
#
# _framework density 23.306871000000001
#
# number of rings (size 3 to 8) (size 9 to 14) (size 15 to 20)
#    0.750    1.250    3.750    1.500    0.000    1.500 
#    0.000    1.250    0.000    1.500    0.000    0.000 
#    0.000    0.000    0.000    0.000    0.000    0.000 
#
# Total GULP energy -89331.092620 kJ/mol
# GULP energy per Si atom -5583.193289 kJ/mol
# Density = 2.325382 g / cm^3
# Si number density = 23.306871 Si / 1000 Ang^3
#
#
#
# Elastic Constant Matrix: (Units=GPa)
#
#
# Indices 1 2 3 4 5 6 
#
# 1 71.2777 49.6763 7.6367 -3.9376 -10.1752 22.1571
# 2 49.6763 115.6447 12.2810 -5.9216 -17.0880 24.7636
# 3 7.6367 12.2810 29.5304 -14.1072 3.4665 -0.5852
# 4 -3.9376 -5.9216 -14.1072 27.7722 -6.8358 -2.8219
# 5 -10.1752 -17.0880 3.4665 -6.8358 26.7194 -2.1695
# 6 22.1571 24.7636 -0.5852 -2.8219 -2.1695 37.8169
#
#
#
# Elastic Compliance Matrix: (Units=1/GPa)
#
#
# Indices 1 2 3 4 5 6 
#
# 1 0.022367 -0.006839 -0.003564 0.000009 0.003922 -0.008456
# 2 -0.006839 0.014188 -0.004599 0.000922 0.006905 -0.004890
# 3 -0.003564 -0.004599 0.048177 0.022708 -0.004146 0.007302
# 4 0.000009 0.000922 0.022708 0.050871 0.011000 0.004169
# 5 0.003922 0.006905 -0.004146 0.011000 0.046412 -0.003400
# 6 -0.008456 -0.004890 0.007302 0.004169 -0.003400 0.034829
#
#
# Mechanical properties :
#
#
# Convention : Reuss Voigt Hill
#
# Bulk Modulus (GPa) = 18.27189 39.51564 28.89377
# Shear Modulus (GPa) = 18.86167 28.25226 23.55697
#
# Velocity S-wave (km/s) = 2.84786 3.48542 3.18265
# Velocity P-wave (km/s) = 4.32094 5.76098 5.09212
#
# Compressibility (1/GPa) = 0.05472887
#
# Stress axis : x y z
#
# Youngs Moduli (GPa) = 44.70959 70.48332 20.75686
#
# Poissons Ratio (x) = 0.48201 0.07397
# Poissons Ratio (y) = 0.30575 0.09546
# Poissons Ratio (z) = 0.15934 0.32413
#
# Static dielectric constant tensor:
#      x y z
#    x 1.831930 -0.019440 -0.001700 
#    y -0.019440 1.903970 -0.013890 
#    z -0.001700 -0.013890 1.930130 
# 
# From -- ./inp_files/515383.got.cif
#   From: 2010.05.17/outbox.cif.g08.bks.cpg/sg2_258_cif.got.tgz:515383.got - 2010.06.03 11:33:40.
