data_PCOD9074991
_publ_section_title
;
Structure prediction by ZEFSAII (Michael W. Deem and Ramdas Pophale) SiO2 
 PCOD9074991
Probable space group: P -1
;
_chemical_formula_sum "Si O2"
_cell_formula_units_Z 16
_cell_length_a 9.000000
_cell_length_b 21.000000
_cell_length_c 18.000000
_cell_angle_alpha 160.000000
_cell_angle_beta 140.000000
_cell_angle_gamma 40.000000
_cell_volume 731.217405
_symmetry_space_group_name_H-M "P -1"
_symmetry_group_IT_number 2
_symmetry_cell_setting 'triclinic'
loop_
_space_group_symop_operation_xyz
x,y,z
-x,-y,-z
loop_
_atom_site_type_symbol
_atom_site_label
_atom_site_fract_x
_atom_site_fract_y
_atom_site_fract_z
Si Si1 0.128397 0.373528 0.631224
Si Si2 0.753426 0.872796 0.469827
Si Si3 0.493992 0.993651 0.883751
Si Si4 0.036554 0.785222 0.072848
Si Si5 0.373306 0.704886 0.640008
Si Si6 0.815679 0.324969 0.821720
Si Si7 0.724917 0.709634 0.132086
Si Si8 0.480819 0.068552 0.349127
O O1 0.279892 0.302816 0.685203
O O2 0.247972 0.220566 0.450037
O O3 0.876993 0.340820 0.526931
O O4 0.107994 0.591079 0.841687
O O5 0.848350 0.802297 0.348427
O O6 0.500000 0.000000 0.500000
O O7 0.887561 0.027284 0.722700
O O8 0.485091 0.804448 0.722555
O O9 0.528659 0.952260 0.765190
O O10 0.243930 0.145140 0.957285
O O11 0.663706 0.120662 0.123878
O O12 0.145719 0.727742 0.134042
O O13 0.500000 0.500000 0.500000
O O14 0.701594 0.161515 0.561272
O O15 0.076968 0.337049 0.906468
O O16 0.665822 0.524498 0.947735
O O17 0.519996 0.869366 0.191420
#
# Coordination Sequence:
#
# PCOD9074991 Si02
#       8
#     2   2   2   2   2   2   2   2
#     4  12  26  40  67 101 134 173 219 275 333 379
#     4  12  23  37  60  93 139 178 211 257 319 394
#     4  11  25  45  74  94 122 171 225 276 330 393
#     4  12  22  39  67  93 130 180 220 262 321 396
#     4  11  25  49  74  97 120 168 229 282 334 394
#     4  11  23  36  61  96 137 175 225 254 318 391
#     4  11  22  36  59  92 134 182 219 259 305 386
#     4  12  25  41  63 100 138 171 212 277 325 386
#
# _framework density 21.881316999999999
#
# number of rings (size 3 to 8) (size 9 to 14) (size 15 to 20)
#    0.000    0.500    7.500    1.125    1.750    2.500 
#    0.000    0.625    0.000    0.000    0.000    0.000 
#    0.000    0.000    0.000    0.000    0.000    0.000 
#
# Total GULP energy -89216.078622 kJ/mol
# GULP energy per Si atom -5576.004914 kJ/mol
# Density = 2.183151 g / cm^3
# Si number density = 21.881317 Si / 1000 Ang^3
#
#
#
# Elastic Constant Matrix: (Units=GPa)
#
#
# Indices 1 2 3 4 5 6 
#
# 1 44.3146 24.8125 6.8633 15.2273 -15.2973 3.5296
# 2 24.8125 65.5074 15.9475 33.7455 -12.0540 32.6292
# 3 6.8633 15.9475 60.9603 25.4718 -6.5975 17.8302
# 4 15.2273 33.7455 25.4718 47.6590 1.2418 6.2969
# 5 -15.2973 -12.0540 -6.5975 1.2418 25.1730 0.7188
# 6 3.5296 32.6292 17.8302 6.2969 0.7188 26.1982
#
#
#
# Elastic Compliance Matrix: (Units=1/GPa)
#
#
# Indices 1 2 3 4 5 6 
#
# 1 0.035415 -0.000996 0.006020 -0.013783 0.023443 -0.004958
# 2 -0.000996 -0.096029 -0.058194 0.082553 -0.069951 0.141419
# 3 0.006020 -0.058194 -0.006864 0.034629 -0.029680 0.068831
# 4 -0.013783 0.082553 0.034629 -0.037325 0.045407 -0.116803
# 5 0.023443 -0.069951 -0.029680 0.045407 0.007800 0.093036
# 6 -0.004958 0.141419 0.068831 -0.116803 0.093036 -0.158619
#
#
# Mechanical properties :
#
#
# Convention : Reuss Voigt Hill
#
# Bulk Modulus (GPa) = -5.75312 29.55878 11.90283
# Shear Modulus (GPa) = -24.12905 28.01665 1.94380
#
# Velocity S-wave (km/s) = -3.32433 3.58214 0.94354
# Velocity P-wave (km/s) = 4.16772 5.53597 2.57654
#
# Compressibility (1/GPa) = -0.17381882
#
# Stress axis : x y z
#
# Youngs Moduli (GPa) = 28.23664 -10.41355 -145.69132
#
# Poissons Ratio (x) = -0.01037 0.87704
# Poissons Ratio (y) = 0.02813 -8.47841
# Poissons Ratio (z) = -0.16998 -0.60601
#
# Static dielectric constant tensor:
#      x y z
#    x 2.463070 -1.667880 1.274900 
#    y -1.667880 6.326750 -3.621710 
#    z 1.274900 -3.621710 4.793130 
# 
# From -- ./inp_files/216856.got.cif
#   From: 2010.05.17/outbox.ucp.g08.bks.cvg/sg2_109_cif.got.tgz:216856.got - 2010.06.11 11:32:03.
