data_PCOD9074518
_publ_section_title
;
Structure prediction by ZEFSAII (Michael W. Deem and Ramdas Pophale) SiO2 
 PCOD9074518
Probable space group: P -1
;
_chemical_formula_sum "Si O2"
_cell_formula_units_Z 16
_cell_length_a 12.000000
_cell_length_b 15.000000
_cell_length_c 15.000000
_cell_angle_alpha 150.000000
_cell_angle_beta 60.000000
_cell_angle_gamma 140.000000
_cell_volume 747.221570
_symmetry_space_group_name_H-M "P -1"
_symmetry_group_IT_number 2
_symmetry_cell_setting 'triclinic'
loop_
_space_group_symop_operation_xyz
x,y,z
-x,-y,-z
loop_
_atom_site_type_symbol
_atom_site_label
_atom_site_fract_x
_atom_site_fract_y
_atom_site_fract_z
Si Si1 0.738392 0.245433 0.139004
Si Si2 0.052812 0.875261 0.624806
Si Si3 0.923465 0.833336 0.296564
Si Si4 0.168678 0.764200 0.099292
Si Si5 0.186065 0.948257 0.911905
Si Si6 0.553724 0.189347 0.883415
Si Si7 0.807548 0.725425 0.927929
Si Si8 0.491184 0.182197 0.703073
O O1 0.755631 0.080031 0.043428
O O2 0.860030 0.537199 0.393068
O O3 0.843399 0.331092 0.076051
O O4 0.500000 0.000000 0.000000
O O5 0.094599 0.041228 0.665193
O O6 0.260774 0.987647 0.643760
O O7 0.058528 0.009360 0.826935
O O8 0.100786 0.894467 0.240860
O O9 0.717170 0.510716 0.129116
O O10 0.000000 0.000000 0.500000
O O11 0.375867 0.922620 0.199562
O O12 0.000000 0.500000 0.000000
O O13 0.946196 0.718939 0.823293
O O14 0.319723 0.969381 0.809856
O O15 0.252630 0.211866 0.075932
O O16 0.590937 0.258712 0.824904
O O17 0.619980 0.454714 0.826267
O O18 0.500000 0.000000 0.500000
#
# Coordination Sequence:
#
# PCOD9074518 Si02
#       8
#     2   2   2   2   2   2   2   2
#     4  12  26  47  69 101 142 189 231 289 355 427
#     4  12  24  44  72  99 140 184 238 292 352 409
#     4  11  24  40  71 102 138 179 241 295 348 406
#     4  10  23  44  72  96 136 182 237 286 345 413
#     4  11  24  45  70  95 149 183 226 284 359 419
#     4  11  22  46  69 102 139 183 234 293 345 426
#     4  11  24  48  69 105 139 185 230 296 347 422
#     4  12  26  44  76 106 139 186 238 294 350 411
#
# _framework density 21.412658
#
# number of rings (size 3 to 8) (size 9 to 14) (size 15 to 20)
#    0.000    0.750    3.750    4.125    7.000    0.500 
#    6.750    1.250    0.000    0.000    0.000    0.000 
#    0.000    0.000    0.000    0.000    0.000    0.000 
#
# Total GULP energy -89133.003716 kJ/mol
# GULP energy per Si atom -5570.812732 kJ/mol
# Density = 2.136392 g / cm^3
# Si number density = 21.412658 Si / 1000 Ang^3
#
#
#
# Elastic Constant Matrix: (Units=GPa)
#
#
# Indices 1 2 3 4 5 6 
#
# 1 108.4024 7.2227 7.5871 -9.3110 1.4076 -17.4736
# 2 7.2227 107.5865 21.9770 -4.1281 7.8612 -12.9848
# 3 7.5871 21.9770 101.3733 2.2260 10.5984 1.5778
# 4 -9.3110 -4.1281 2.2260 15.6682 9.9296 -4.4780
# 5 1.4076 7.8612 10.5984 9.9296 6.9041 2.1232
# 6 -17.4736 -12.9848 1.5778 -4.4780 2.1232 48.1807
#
#
#
# Elastic Compliance Matrix: (Units=1/GPa)
#
#
# Indices 1 2 3 4 5 6 
#
# 1 0.007172 -0.003541 -0.003184 -0.020290 0.037184 -0.001773
# 2 -0.003541 0.005989 -0.004674 -0.026982 0.041064 -0.003834
# 3 -0.003184 -0.004674 0.009402 -0.019530 0.021310 -0.005476
# 4 -0.020290 -0.026982 -0.019530 -0.151376 0.295183 -0.041068
# 5 0.037184 0.041064 0.021310 0.295183 -0.387778 0.068378
# 6 -0.001773 -0.003834 -0.005476 -0.041068 0.068378 0.012428
#
#
# Mechanical properties :
#
#
# Convention : Reuss Voigt Hill
#
# Bulk Modulus (GPa) = -4274.66620 43.43732 -2115.61444
# Shear Modulus (GPa) = -10.38542 32.85562 11.23510
#
# Velocity S-wave (km/s) = -2.20469 3.92139 2.29311
# Velocity P-wave (km/s) = 44.80113 6.39007 31.35529
#
# Compressibility (1/GPa) = -0.00023394
#
# Stress axis : x y z
#
# Youngs Moduli (GPa) = 139.42874 166.97681 106.35721
#
# Poissons Ratio (x) = 0.59122 0.33859
# Poissons Ratio (y) = 0.49368 0.49715
# Poissons Ratio (z) = 0.44388 0.78050
#
# Static dielectric constant tensor:
#      x y z
#    x 1.858240 0.026470 -0.024490 
#    y 0.026470 1.805240 -0.044110 
#    z -0.024490 -0.044110 1.774960 
# 
# From -- ./inp_files/522634.got.cif
#   From: 2010.05.17/outbox.ucp.g08.bks.cvg/sg2_262_cif.got.tgz:522634.got - 2010.06.11 11:32:03.
