data_PCOD9074727
_publ_section_title
;
Structure prediction by ZEFSAII (Michael W. Deem and Ramdas Pophale) SiO2 
 PCOD9074727
Probable space group: P -1
;
_chemical_formula_sum "Si O2"
_cell_formula_units_Z 15
_cell_length_a 21.000000
_cell_length_b 9.000000
_cell_length_c 21.000000
_cell_angle_alpha 30.000000
_cell_angle_beta 160.000000
_cell_angle_gamma 150.000000
_cell_volume 646.310059
_symmetry_space_group_name_H-M "P -1"
_symmetry_group_IT_number 2
_symmetry_cell_setting 'triclinic'
loop_
_space_group_symop_operation_xyz
x,y,z
-x,-y,-z
loop_
_atom_site_type_symbol
_atom_site_label
_atom_site_fract_x
_atom_site_fract_y
_atom_site_fract_z
Si Si1 0.771175 0.453596 0.882846
Si Si2 0.841477 0.734743 0.486913
Si Si3 0.342546 0.109256 0.617896
Si Si4 0.500000 0.500000 0.000000
Si Si5 0.787032 0.010147 0.600775
Si Si6 0.089964 0.339177 0.927908
Si Si7 0.805515 0.822900 0.108258
Si Si8 0.521611 0.628643 0.801729
O O1 0.541306 0.392752 0.699558
O O2 0.828112 0.774065 0.778216
O O3 0.855645 0.458380 0.031275
O O4 0.815213 0.184298 0.980800
O O5 0.785539 0.860798 0.453903
O O6 0.648584 0.633416 0.297610
O O7 0.936487 0.461064 0.697588
O O8 0.000000 0.000000 0.500000
O O9 0.420296 0.812937 0.808008
O O10 0.248129 0.118545 0.456641
O O11 0.268810 0.278693 0.853676
O O12 0.595947 0.113951 0.399170
O O13 0.004187 0.256303 0.705491
O O14 0.280240 0.328499 0.069072
O O15 0.000000 0.000000 0.000000
O O16 0.604809 0.616802 0.957726
#
# Coordination Sequence:
#
# PCOD9074727 Si02
#       8
#     2   2   2   1   2   2   2   2
#     4  11  23  48  73 107 146 192 243 314 371 440
#     4  12  30  49  77 110 150 206 253 300 377 462
#     4  11  25  47  75 105 148 193 245 307 375 441
#     4  10  24  46  72 102 146 186 246 304 368 428
#     4  12  25  44  78 108 144 190 253 304 379 444
#     4  12  28  50  75 109 156 201 249 310 379 442
#     4  11  25  44  72 106 144 192 244 309 367 437
#     4  12  26  46  71 111 151 190 246 313 370 444
#
# _framework density 23.208674999999999
#
# number of rings (size 3 to 8) (size 9 to 14) (size 15 to 20)
#    0.000    0.533    4.000    4.000    5.600    5.333 
#    0.000    0.000    0.000    0.000    0.000    0.000 
#    0.000    0.000    0.000    0.000    0.000    0.000 
#
# Total GULP energy -83515.788437 kJ/mol
# GULP energy per Si atom -5567.719229 kJ/mol
# Density = 2.315585 g / cm^3
# Si number density = 23.208675 Si / 1000 Ang^3
#
#
#
# Elastic Constant Matrix: (Units=GPa)
#
#
# Indices 1 2 3 4 5 6 
#
# 1 106.8660 21.2061 17.4853 7.9764 33.2189 -16.3213
# 2 21.2061 64.0144 10.1235 11.2045 12.5530 10.4647
# 3 17.4853 10.1235 91.8544 20.2595 22.5452 6.0962
# 4 7.9764 11.2045 20.2595 40.1680 -8.0408 -2.7920
# 5 33.2189 12.5530 22.5452 -8.0408 45.4071 18.4068
# 6 -16.3213 10.4647 6.0962 -2.7920 18.4068 38.7103
#
#
#
# Elastic Compliance Matrix: (Units=1/GPa)
#
#
# Indices 1 2 3 4 5 6 
#
# 1 0.022406 -0.004727 0.003457 -0.008813 -0.027540 0.022640
# 2 -0.004727 0.019252 0.000380 -0.005126 0.000163 -0.007705
# 3 0.003457 0.000380 0.015956 -0.011416 -0.014586 0.004954
# 4 -0.008813 -0.005126 -0.011416 0.037996 0.023990 -0.009199
# 5 -0.027540 0.000163 -0.014586 0.023990 0.070249 -0.041031
# 6 0.022640 -0.007705 0.004954 -0.009199 -0.041031 0.055528
#
#
# Mechanical properties :
#
#
# Convention : Reuss Voigt Hill
#
# Bulk Modulus (GPa) = 17.91051 40.04051 28.97551
# Shear Modulus (GPa) = 20.68001 39.11841 29.89921
#
# Velocity S-wave (km/s) = 2.98828 4.10995 3.59315
# Velocity P-wave (km/s) = 4.43174 6.30968 5.45217
#
# Compressibility (1/GPa) = 0.05583313
#
# Stress axis : x y z
#
# Youngs Moduli (GPa) = 44.63065 51.94210 62.67239
#
# Poissons Ratio (x) = 0.24554 -0.21663
# Poissons Ratio (y) = 0.21098 -0.02382
# Poissons Ratio (z) = -0.15427 -0.01974
#
# Static dielectric constant tensor:
#      x y z
#    x 1.541500 -0.103580 -0.019360 
#    y -0.103580 2.014440 0.029880 
#    z -0.019360 0.029880 1.839470 
# 
# From -- ./inp_files/601276.got.cif
#   From: 2010.05.17/outbox.ucp.g08.bks.cvg/sg2_301_cif.got.tgz:601276.got - 2010.06.11 11:32:03.
