data_PCOD9074811
_publ_section_title
;
Structure prediction by ZEFSAII (Michael W. Deem and Ramdas Pophale) SiO2 
 PCOD9074811
Probable space group: P -1
;
_chemical_formula_sum "Si O2"
_cell_formula_units_Z 16
_cell_length_a 12.000000
_cell_length_b 15.000000
_cell_length_c 9.000000
_cell_angle_alpha 70.000000
_cell_angle_beta 110.000000
_cell_angle_gamma 50.000000
_cell_volume 728.972637
_symmetry_space_group_name_H-M "P -1"
_symmetry_group_IT_number 2
_symmetry_cell_setting 'triclinic'
loop_
_space_group_symop_operation_xyz
x,y,z
-x,-y,-z
loop_
_atom_site_type_symbol
_atom_site_label
_atom_site_fract_x
_atom_site_fract_y
_atom_site_fract_z
Si Si1 0.798273 0.216777 0.301144
Si Si2 0.535360 0.776856 0.462046
Si Si3 0.385327 0.249260 0.151161
Si Si4 0.820232 0.816196 0.855533
Si Si5 0.700143 0.478580 0.614256
Si Si6 0.858084 0.849612 0.511072
Si Si7 0.057392 0.399687 0.435494
Si Si8 0.527380 0.491975 0.264420
O O1 0.652249 0.321625 0.327129
O O2 0.921006 0.235057 0.347869
O O3 0.617146 0.344563 0.009886
O O4 0.000000 0.000000 0.500000
O O5 0.601484 0.714790 0.700150
O O6 0.508516 0.693714 0.419256
O O7 0.741099 0.687401 0.517556
O O8 0.319719 0.997140 0.251266
O O9 0.319932 0.183938 0.185590
O O10 0.630775 0.073706 0.279317
O O11 0.182692 0.435700 0.859107
O O12 0.857365 0.804542 0.702594
O O13 0.057387 0.644933 0.152074
O O14 0.700907 0.434876 0.475791
O O15 0.643113 0.436785 0.732230
O O16 0.859997 0.767062 0.433342
O O17 0.000000 0.500000 0.500000
#
# Coordination Sequence:
#
# PCOD9074811 Si02
#       8
#     2   2   2   2   2   2   2   2
#     4  11  26  46  68  92 130 175 222 264 324 380
#     4  11  22  39  67  95 126 171 212 254 320 389
#     4  11  22  40  67  95 129 166 215 253 310 390
#     4  11  20  40  69  98 126 165 216 263 312 385
#     4  11  23  42  69  96 128 166 215 278 322 366
#     4  11  23  42  65  96 128 170 212 266 313 387
#     4  12  25  39  60  97 138 169 203 255 326 389
#     4  10  26  46  65  95 127 168 225 272 319 378
#
# _framework density 21.948698
#
# number of rings (size 3 to 8) (size 9 to 14) (size 15 to 20)
#    0.000    1.000    5.000    1.875    5.250    2.500 
#    2.250    2.500    0.000    0.000    0.000    0.000 
#    0.000    0.000    0.000    0.000    0.000    0.000 
#
# Total GULP energy -89470.406531 kJ/mol
# GULP energy per Si atom -5591.900408 kJ/mol
# Density = 2.189874 g / cm^3
# Si number density = 21.948698 Si / 1000 Ang^3
#
#
#
# Elastic Constant Matrix: (Units=GPa)
#
#
# Indices 1 2 3 4 5 6 
#
# 1 43.0091 4.1754 6.0658 8.2051 11.6837 -2.6176
# 2 4.1754 160.0929 42.3484 2.1780 -12.8346 3.1885
# 3 6.0658 42.3484 49.7259 -7.8403 -5.9175 -0.1624
# 4 8.2051 2.1780 -7.8403 27.4022 5.6954 2.4795
# 5 11.6837 -12.8346 -5.9175 5.6954 12.1290 -3.6355
# 6 -2.6176 3.1885 -0.1624 2.4795 -3.6355 30.2027
#
#
#
# Elastic Compliance Matrix: (Units=1/GPa)
#
#
# Indices 1 2 3 4 5 6 
#
# 1 0.035903 -0.001755 -0.008235 -0.004886 -0.038458 -0.000975
# 2 -0.001755 0.008967 -0.006911 -0.004266 0.009933 0.000410
# 3 -0.008235 -0.006911 0.029765 0.009163 0.011064 0.000756
# 4 -0.004886 -0.004266 0.009163 0.045259 -0.018342 -0.005847
# 5 -0.038458 0.009933 0.011064 -0.018342 0.148531 0.015062
# 6 -0.000975 0.000410 0.000756 -0.005847 0.015062 0.035279
#
#
# Mechanical properties :
#
#
# Convention : Reuss Voigt Hill
#
# Bulk Modulus (GPa) = 24.49119 39.77857 32.13488
# Shear Modulus (GPa) = 14.24032 27.29597 20.76815
#
# Velocity S-wave (km/s) = 2.54992 3.53033 3.07940
# Velocity P-wave (km/s) = 4.45556 5.89750 5.22650
#
# Compressibility (1/GPa) = 0.04083102
#
# Stress axis : x y z
#
# Youngs Moduli (GPa) = 27.85303 111.52478 33.59681
#
# Poissons Ratio (x) = 0.19577 0.27666
# Poissons Ratio (y) = 0.04889 0.23220
# Poissons Ratio (z) = 0.22936 0.77079
#
# Static dielectric constant tensor:
#      x y z
#    x 1.821030 0.005440 0.004050 
#    y 0.005440 1.790680 -0.003780 
#    z 0.004050 -0.003780 1.782750 
# 
# From -- ./inp_files/272440.got.cif
#   From: 2010.05.17/outbox.ucp.g08.bks.cvg/sg2_137_cif.got.tgz:272440.got - 2010.06.11 11:32:03.
