data_PCOD9074790
_publ_section_title
;
Structure prediction by ZEFSAII (Michael W. Deem and Ramdas Pophale) SiO2 
 PCOD9074790
Probable space group: P -1
;
_chemical_formula_sum "Si O2"
_cell_formula_units_Z 16
_cell_length_a 15.000000
_cell_length_b 6.000000
_cell_length_c 9.000000
_cell_angle_alpha 100.000000
_cell_angle_beta 70.000000
_cell_angle_gamma 100.000000
_cell_volume 743.852236
_symmetry_space_group_name_H-M "P -1"
_symmetry_group_IT_number 2
_symmetry_cell_setting 'triclinic'
loop_
_space_group_symop_operation_xyz
x,y,z
-x,-y,-z
loop_
_atom_site_type_symbol
_atom_site_label
_atom_site_fract_x
_atom_site_fract_y
_atom_site_fract_z
Si Si1 0.163617 0.973438 0.070018
Si Si2 0.233275 0.766834 0.505962
Si Si3 0.575238 0.223446 0.794926
Si Si4 0.003940 0.323868 0.696159
Si Si5 0.716014 0.376604 0.207544
Si Si6 0.520071 0.310486 0.172533
Si Si7 0.160995 0.169987 0.781649
Si Si8 0.887239 0.648097 0.652941
O O1 0.086190 0.829263 0.200651
O O2 0.180270 0.201571 0.194848
O O3 0.240855 0.805571 0.950266
O O4 0.125289 0.041306 0.938245
O O5 0.326676 0.798798 0.351658
O O6 0.257878 0.668127 0.641502
O O7 0.165124 0.579354 0.426586
O O8 0.191153 0.997705 0.615310
O O9 0.533015 0.454491 0.776209
O O10 0.529526 0.950981 0.794102
O O11 0.570456 0.290568 0.979729
O O12 0.965404 0.563203 0.710117
O O13 0.084478 0.318400 0.773259
O O14 0.050416 0.240000 0.507936
O O15 0.603382 0.349998 0.249629
O O16 0.754551 0.641234 0.187610
#
# Coordination Sequence:
#
# PCOD9074790 Si02
#       8
#     2   2   2   2   2   2   2   2
#     4  11  26  42  71  98 134 194 235 298 348 424
#     4  11  27  45  70 105 139 187 231 294 361 421
#     4  10  25  47  77 108 141 186 236 300 360 442
#     4  11  25  44  67  98 142 188 237 295 353 414
#     4  11  26  47  68 104 144 184 230 292 357 431
#     4  10  25  47  75 109 145 182 238 296 365 437
#     4  11  26  46  65 102 144 185 239 289 355 429
#     4  11  26  43  69 102 137 186 243 294 349 420
#
# _framework density 21.509647999999999
#
# number of rings (size 3 to 8) (size 9 to 14) (size 15 to 20)
#    0.000    1.250    1.250    1.500   14.000    5.000 
#    0.000    0.000    0.000    0.000    0.000    0.000 
#    0.000    0.000    0.000    0.000    0.000    0.000 
#
# Total GULP energy -89124.972578 kJ/mol
# GULP energy per Si atom -5570.310786 kJ/mol
# Density = 2.146069 g / cm^3
# Si number density = 21.509648 Si / 1000 Ang^3
#
#
#
# Elastic Constant Matrix: (Units=GPa)
#
#
# Indices 1 2 3 4 5 6 
#
# 1 67.5638 35.7116 22.5544 -5.0794 0.4537 -5.8321
# 2 35.7116 111.6817 39.2584 7.0769 -2.5576 -2.9780
# 3 22.5544 39.2584 129.7533 7.7350 -22.1673 1.0508
# 4 -5.0794 7.0769 7.7350 54.8862 -2.1287 3.0064
# 5 0.4537 -2.5576 -22.1673 -2.1287 23.2289 -1.4157
# 6 -5.8321 -2.9780 1.0508 3.0064 -1.4157 19.7866
#
#
#
# Elastic Compliance Matrix: (Units=1/GPa)
#
#
# Indices 1 2 3 4 5 6 
#
# 1 0.018981 -0.005354 -0.002318 0.002431 -0.002685 0.004350
# 2 -0.005354 0.011723 -0.002750 -0.001699 -0.001355 0.000493
# 3 -0.002318 -0.002750 0.010678 -0.000940 0.009797 -0.000821
# 4 0.002431 -0.001699 -0.000940 0.018942 0.000462 -0.002334
# 5 -0.002685 -0.001355 0.009797 0.000462 0.052477 0.002169
# 6 0.004350 0.000493 -0.000821 -0.002334 0.002169 0.052449
#
#
# Mechanical properties :
#
#
# Convention : Reuss Voigt Hill
#
# Bulk Modulus (GPa) = 48.69319 56.00528 52.34923
# Shear Modulus (GPa) = 25.91472 33.67863 29.79668
#
# Velocity S-wave (km/s) = 3.47478 3.96124 3.72596
# Velocity P-wave (km/s) = 6.22782 6.85680 6.54987
#
# Compressibility (1/GPa) = 0.02053675
#
# Stress axis : x y z
#
# Youngs Moduli (GPa) = 52.68442 85.30510 93.64686
#
# Poissons Ratio (x) = 0.45672 0.21710
# Poissons Ratio (y) = 0.28207 0.25756
# Poissons Ratio (z) = 0.12213 0.23462
#
# Static dielectric constant tensor:
#      x y z
#    x 1.812790 0.010290 0.003410 
#    y 0.010290 1.897960 -0.021310 
#    z 0.003410 -0.021310 1.730410 
# 
# From -- ./inp_files/107155.got.cif
#   From: 2010.05.17/outbox.ucp.g08.bks.cvg/sg2_54_cif.got.tgz:107155.got - 2010.06.11 11:32:03.
