data_PCOD9074895
_publ_section_title
;
Structure prediction by ZEFSAII (Michael W. Deem and Ramdas Pophale) SiO2 
 PCOD9074895
Probable space group: P -1
;
_chemical_formula_sum "Si O2"
_cell_formula_units_Z 14
_cell_length_a 12.000000
_cell_length_b 9.000000
_cell_length_c 18.000000
_cell_angle_alpha 40.000000
_cell_angle_beta 30.000000
_cell_angle_gamma 50.000000
_cell_volume 623.501542
_symmetry_space_group_name_H-M "P -1"
_symmetry_group_IT_number 2
_symmetry_cell_setting 'triclinic'
loop_
_space_group_symop_operation_xyz
x,y,z
-x,-y,-z
loop_
_atom_site_type_symbol
_atom_site_label
_atom_site_fract_x
_atom_site_fract_y
_atom_site_fract_z
Si Si1 0.738910 0.016115 0.135726
Si Si2 0.156123 0.023682 0.078876
Si Si3 0.525034 0.345675 0.821317
Si Si4 0.941838 0.496395 0.426961
Si Si5 0.318498 0.779091 0.699895
Si Si6 0.430461 0.428874 0.148552
Si Si7 0.441418 0.372076 0.508716
O O1 0.602653 0.239241 0.138947
O O2 0.651848 0.869960 0.312724
O O3 0.724261 0.961415 0.076854
O O4 0.000000 0.000000 0.000000
O O5 0.932109 0.167749 0.156133
O O6 0.350653 0.143009 0.972300
O O7 0.044379 0.766343 0.263208
O O8 0.782752 0.384149 0.627585
O O9 0.424370 0.588316 0.762713
O O10 0.525401 0.354886 0.905638
O O11 0.752889 0.504436 0.469161
O O12 0.164616 0.359650 0.336746
O O13 0.338480 0.654597 0.656185
O O14 0.500000 0.000000 0.500000
O O15 0.500000 0.500000 0.000000
O O16 0.500000 0.500000 0.500000
#
# Coordination Sequence:
#
# PCOD9074895 Si02
#       7
#     2   2   2   2   2   2   2
#     4  12  22  42  71 100 138 181 224 282 350 401
#     4  12  23  42  69 100 138 180 231 282 342 412
#     4  11  25  42  70  99 132 185 236 275 345 419
#     4  11  24  47  68  97 146 178 228 289 345 410
#     4  11  20  41  68 101 136 177 228 281 345 408
#     4  12  25  45  70 100 138 186 228 287 352 408
#     4  11  23  42  71 103 136 176 231 286 343 409
#
# _framework density 22.453834000000001
#
# number of rings (size 3 to 8) (size 9 to 14) (size 15 to 20)
#    0.000    0.571    5.714    4.286    0.000    2.857 
#    0.000    2.857    0.000    0.000    0.000    0.000 
#    0.000    0.000    0.000    0.000    0.000    0.000 
#
# Total GULP energy -77968.053013 kJ/mol
# GULP energy per Si atom -5569.146644 kJ/mol
# Density = 2.240273 g / cm^3
# Si number density = 22.453834 Si / 1000 Ang^3
#
#
#
# Elastic Constant Matrix: (Units=GPa)
#
#
# Indices 1 2 3 4 5 6 
#
# 1 118.1584 41.6397 31.2170 19.4706 5.4249 30.0631
# 2 41.6397 114.5013 33.0924 41.5023 -11.8259 -9.6837
# 3 31.2170 33.0924 99.4529 37.1008 -4.0041 13.8667
# 4 19.4706 41.5023 37.1008 38.0812 -1.7109 12.0947
# 5 5.4249 -11.8259 -4.0041 -1.7109 40.1257 12.9912
# 6 30.0631 -9.6837 13.8667 12.0947 12.9912 43.4369
#
#
#
# Elastic Compliance Matrix: (Units=1/GPa)
#
#
# Indices 1 2 3 4 5 6 
#
# 1 0.014398 -0.009160 -0.003398 0.010299 -0.000090 -0.013763
# 2 -0.009160 0.023911 0.003979 -0.031124 0.001309 0.018675
# 3 -0.003398 0.003979 0.016874 -0.019904 0.001515 0.002941
# 4 0.010299 -0.031124 -0.019904 0.084397 0.001276 -0.031594
# 5 -0.000090 0.001309 0.001515 0.001276 0.028436 -0.008989
# 6 -0.013763 0.018675 0.002941 -0.031594 -0.008989 0.047258
#
#
# Mechanical properties :
#
#
# Convention : Reuss Voigt Hill
#
# Bulk Modulus (GPa) = 26.29998 60.44567 43.37283
# Shear Modulus (GPa) = 20.39932 39.40632 29.90282
#
# Velocity S-wave (km/s) = 3.01740 4.19381 3.65327
# Velocity P-wave (km/s) = 4.88651 7.10135 6.09537
#
# Compressibility (1/GPa) = 0.03802285
#
# Stress axis : x y z
#
# Youngs Moduli (GPa) = 69.45493 41.82242 59.26321
#
# Poissons Ratio (x) = 0.38311 0.20138
# Poissons Ratio (y) = 0.63623 -0.23579
# Poissons Ratio (z) = 0.23602 -0.16640
#
# Static dielectric constant tensor:
#      x y z
#    x 1.989360 0.057260 0.017980 
#    y 0.057260 1.813600 -0.012000 
#    z 0.017980 -0.012000 1.730050 
# 
# From -- ./inp_files/332047.got.cif
#   From: 2010.05.17/outbox.ucp.g08.bks.cvg/sg2_167_cif.got.tgz:332047.got - 2010.06.11 11:32:03.
