data_PCOD9074257
_publ_section_title
;
Structure prediction by ZEFSAII (Michael W. Deem and Ramdas Pophale) SiO2 
 PCOD9074257
Probable space group: P -1
;
_chemical_formula_sum "Si O2"
_cell_formula_units_Z 14
_cell_length_a 18.000000
_cell_length_b 9.000000
_cell_length_c 12.000000
_cell_angle_alpha 130.000000
_cell_angle_beta 150.000000
_cell_angle_gamma 40.000000
_cell_volume 623.501542
_symmetry_space_group_name_H-M "P -1"
_symmetry_group_IT_number 2
_symmetry_cell_setting 'triclinic'
loop_
_space_group_symop_operation_xyz
x,y,z
-x,-y,-z
loop_
_atom_site_type_symbol
_atom_site_label
_atom_site_fract_x
_atom_site_fract_y
_atom_site_fract_z
Si Si1 0.963289 0.948632 0.806096
Si Si2 0.818248 0.535959 0.242291
Si Si3 0.633982 0.973697 0.489234
Si Si4 0.693589 0.809743 0.990445
Si Si5 0.538364 0.681369 0.381899
Si Si6 0.475304 0.672244 0.955921
Si Si7 0.132179 0.553384 0.140369
O O1 0.809679 0.901039 0.613157
O O2 0.122013 0.720464 0.843405
O O3 0.915183 0.185020 0.796306
O O4 0.000000 0.000000 0.000000
O O5 0.000000 0.500000 0.500000
O O6 0.721139 0.724445 0.110251
O O7 0.665751 0.639070 0.184755
O O8 0.585012 0.800872 0.400487
O O9 0.481501 0.125073 0.273238
O O10 0.624040 0.121555 0.658240
O O11 0.839208 0.574059 0.002424
O O12 0.676889 0.057756 0.092160
O O13 0.536146 0.460719 0.230840
O O14 0.694277 0.585278 0.626611
O O15 0.500000 0.500000 0.000000
O O16 0.000000 0.500000 0.000000
#
# Coordination Sequence:
#
# PCOD9074257 Si02
#       7
#     2   2   2   2   2   2   2
#     4  12  24  44  71 100 138 180 228 287 347 406
#     4  12  29  46  69 101 143 182 228 289 349 409
#     4  10  22  44  72 101 135 178 234 284 341 409
#     4  11  25  47  70  97 137 181 231 281 337 416
#     4  10  23  41  72 102 134 181 232 284 336 414
#     4  12  26  46  72 100 136 187 232 278 344 418
#     4  11  26  43  70 105 139 176 229 291 347 401
#
# _framework density 22.453834000000001
#
# number of rings (size 3 to 8) (size 9 to 14) (size 15 to 20)
#    0.000    0.857    2.857    3.000    6.000    1.143 
#    0.000    1.429    0.000    0.000    0.000    0.000 
#    0.000    0.000    0.000    0.000    0.000    0.000 
#
# Total GULP energy -77995.784097 kJ/mol
# GULP energy per Si atom -5571.127436 kJ/mol
# Density = 2.240273 g / cm^3
# Si number density = 22.453834 Si / 1000 Ang^3
#
#
#
# Elastic Constant Matrix: (Units=GPa)
#
#
# Indices 1 2 3 4 5 6 
#
# 1 85.6128 32.0913 18.2438 -7.8028 -8.8297 24.8554
# 2 32.0913 152.4324 10.7096 13.2654 -3.3130 8.1988
# 3 18.2438 10.7096 83.6431 17.9244 -6.2818 10.2684
# 4 -7.8028 13.2654 17.9244 36.8786 7.6505 -18.8381
# 5 -8.8297 -3.3130 -6.2818 7.6505 21.0436 7.6300
# 6 24.8554 8.1988 10.2684 -18.8381 7.6300 35.0635
#
#
#
# Elastic Compliance Matrix: (Units=1/GPa)
#
#
# Indices 1 2 3 4 5 6 
#
# 1 0.025022 0.000770 0.011858 -0.036160 0.045712 -0.050764
# 2 0.000770 0.009062 0.006567 -0.019704 0.017778 -0.019042
# 3 0.011858 0.006567 0.038263 -0.071248 0.070437 -0.074752
# 4 -0.036160 -0.019704 -0.071248 0.201667 -0.185293 0.199772
# 5 0.045712 0.017778 0.070437 -0.185293 0.233112 -0.207464
# 6 -0.050764 -0.019042 -0.074752 0.199772 -0.207464 0.243323
#
#
# Mechanical properties :
#
#
# Convention : Reuss Voigt Hill
#
# Bulk Modulus (GPa) = 9.03036 49.30863 29.16949
# Shear Modulus (GPa) = 6.67582 35.97340 21.32461
#
# Velocity S-wave (km/s) = 1.72615 4.00697 3.08508
# Velocity P-wave (km/s) = 2.82900 6.58904 5.07044
#
# Compressibility (1/GPa) = 0.11073760
#
# Stress axis : x y z
#
# Youngs Moduli (GPa) = 39.96482 110.34905 26.13462
#
# Poissons Ratio (x) = -0.08495 -0.30990
# Poissons Ratio (y) = -0.03077 -0.17163
# Poissons Ratio (z) = -0.47390 -0.72468
#
# Static dielectric constant tensor:
#      x y z
#    x 1.121600 -0.305610 -0.044240 
#    y -0.305610 2.095230 -0.025590 
#    z -0.044240 -0.025590 1.848490 
# 
# From -- ./inp_files/215130.got.cif
#   From: 2010.05.17/outbox.ucp.g08.bks.cvg/sg2_108_cif.got.tgz:215130.got - 2010.06.11 11:32:03.
