data_PCOD9074189
_publ_section_title
;
Structure prediction by ZEFSAII (Michael W. Deem and Ramdas Pophale) SiO2 
 PCOD9074189
Probable space group: P -1
;
_chemical_formula_sum "Si O2"
_cell_formula_units_Z 14
_cell_length_a 9.000000
_cell_length_b 18.000000
_cell_length_c 6.000000
_cell_angle_alpha 110.000000
_cell_angle_beta 120.000000
_cell_angle_gamma 50.000000
_cell_volume 644.526612
_symmetry_space_group_name_H-M "P -1"
_symmetry_group_IT_number 2
_symmetry_cell_setting 'triclinic'
loop_
_space_group_symop_operation_xyz
x,y,z
-x,-y,-z
loop_
_atom_site_type_symbol
_atom_site_label
_atom_site_fract_x
_atom_site_fract_y
_atom_site_fract_z
Si Si1 0.827226 0.979697 0.389014
Si Si2 0.205134 0.599114 0.189004
Si Si3 0.460159 0.383669 0.373351
Si Si4 0.650882 0.076199 0.864559
Si Si5 0.156237 0.239824 0.577930
Si Si6 0.142350 0.809128 0.730653
Si Si7 0.897727 0.607246 0.628787
O O1 0.713146 0.026794 0.602759
O O2 0.706672 0.015206 0.087158
O O3 0.000000 0.000000 0.500000
O O4 0.989706 0.865270 0.455788
O O5 0.321833 0.490497 0.268018
O O6 0.391959 0.613495 0.326798
O O7 0.018295 0.683638 0.293302
O O8 0.087724 0.602348 0.885192
O O9 0.637418 0.293922 0.261983
O O10 0.291696 0.366910 0.323155
O O11 0.393088 0.151276 0.744019
O O12 0.780664 0.126302 0.040793
O O13 0.194816 0.308510 0.534496
O O14 0.024956 0.208206 0.302042
O O15 0.000000 0.500000 0.500000
#
# Coordination Sequence:
#
# PCOD9074189 Si02
#       7
#     2   2   2   2   2   2   2
#     4  10  23  47  72 103 137 183 231 289 354 417
#     4  10  23  45  61  96 138 169 231 276 339 414
#     4  10  22  43  68  92 133 183 216 283 344 404
#     4  11  25  46  74 100 142 181 232 289 357 409
#     4  11  26  43  66 103 131 179 233 278 341 419
#     4  10  23  45  70  97 135 178 229 282 345 415
#     4  12  25  40  65  96 135 180 225 280 337 405
#
# _framework density 21.721367999999998
#
# number of rings (size 3 to 8) (size 9 to 14) (size 15 to 20)
#    0.000    1.429    1.429    3.000    8.000    2.857 
#   10.286    0.000    0.000    0.000    0.000    0.000 
#    0.000    0.000    0.000    0.000    0.000    0.000 
#
# Total GULP energy -77938.006795 kJ/mol
# GULP energy per Si atom -5567.000485 kJ/mol
# Density = 2.167193 g / cm^3
# Si number density = 21.721368 Si / 1000 Ang^3
#
#
#
# Elastic Constant Matrix: (Units=GPa)
#
#
# Indices 1 2 3 4 5 6 
#
# 1 62.0436 27.1841 -1.4067 -15.5706 6.8353 -7.6876
# 2 27.1841 123.5886 26.4153 -20.4492 -6.3936 -19.6631
# 3 -1.4067 26.4153 96.3158 -15.7139 2.6801 -11.1617
# 4 -15.5706 -20.4492 -15.7139 40.0159 -5.0186 11.2588
# 5 6.8353 -6.3936 2.6801 -5.0186 37.8410 -0.1457
# 6 -7.6876 -19.6631 -11.1617 11.2588 -0.1457 44.2384
#
#
#
# Elastic Compliance Matrix: (Units=1/GPa)
#
#
# Indices 1 2 3 4 5 6 
#
# 1 0.019946 -0.004000 0.002567 0.006046 -0.003656 0.000785
# 2 -0.004000 0.010466 -0.002286 0.002495 0.002994 0.002755
# 3 0.002567 -0.002286 0.011889 0.003954 -0.001162 0.001420
# 4 0.006046 0.002495 0.003954 0.031979 0.003271 -0.004971
# 5 -0.003656 0.002994 -0.001162 0.003271 0.028107 -0.000338
# 6 0.000785 0.002755 0.001420 -0.004971 -0.000338 0.025588
#
#
# Mechanical properties :
#
#
# Convention : Reuss Voigt Hill
#
# Bulk Modulus (GPa) = 28.68283 42.92596 35.80439
# Shear Modulus (GPa) = 34.00612 39.73608 36.87110
#
# Velocity S-wave (km/s) = 3.96101 4.28174 4.12449
# Velocity P-wave (km/s) = 5.84406 6.65202 6.26108
#
# Compressibility (1/GPa) = 0.03486406
#
# Stress axis : x y z
#
# Youngs Moduli (GPa) = 50.13612 95.55052 84.11205
#
# Poissons Ratio (x) = 0.38218 -0.21595
# Poissons Ratio (y) = 0.20053 0.19226
# Poissons Ratio (z) = -0.12872 0.21840
#
# Static dielectric constant tensor:
#      x y z
#    x 1.886790 0.105120 -0.040680 
#    y 0.105120 1.912040 0.019460 
#    z -0.040680 0.019460 1.858280 
# 
# From -- ./inp_files/48709.got.cif
#   From: 2010.05.17/outbox.ucp.g08.bks.cvg/sg2_25_cif.got.tgz:48709.got - 2010.06.11 11:32:03.
