data_PCOD9074616
_publ_section_title
;
Structure prediction by ZEFSAII (Michael W. Deem and Ramdas Pophale) SiO2 
 PCOD9074616
Probable space group: P -1
;
_chemical_formula_sum "Si O2"
_cell_formula_units_Z 15
_cell_length_a 12.000000
_cell_length_b 12.000000
_cell_length_c 15.000000
_cell_angle_alpha 40.000000
_cell_angle_beta 30.000000
_cell_angle_gamma 50.000000
_cell_volume 692.779491
_symmetry_space_group_name_H-M "P -1"
_symmetry_group_IT_number 2
_symmetry_cell_setting 'triclinic'
loop_
_space_group_symop_operation_xyz
x,y,z
-x,-y,-z
loop_
_atom_site_type_symbol
_atom_site_label
_atom_site_fract_x
_atom_site_fract_y
_atom_site_fract_z
Si Si1 0.016296 0.079441 0.342198
Si Si2 0.232721 0.050968 0.757376
Si Si3 0.733681 0.512330 0.777530
Si Si4 0.500000 0.000000 0.000000
Si Si5 0.075824 0.482875 0.060413
Si Si6 0.568978 0.387880 0.778611
Si Si7 0.294362 0.092585 0.478296
Si Si8 0.140264 0.407071 0.677924
O O1 0.024481 0.280945 0.236271
O O2 0.227972 0.008949 0.187500
O O3 0.000000 0.000000 0.500000
O O4 0.815245 0.037828 0.438480
O O5 0.220289 0.059037 0.653040
O O6 0.273407 0.241874 0.656093
O O7 0.438619 0.928386 0.703275
O O8 0.000000 0.000000 0.000000
O O9 0.706182 0.437300 0.742680
O O10 0.783350 0.718461 0.608118
O O11 0.919017 0.420435 0.762240
O O12 0.500000 0.500000 0.000000
O O13 0.516181 0.182453 0.936511
O O14 0.944324 0.584967 0.165604
O O15 0.346030 0.498237 0.871163
O O16 0.000000 0.500000 0.000000
O O17 0.696383 0.434547 0.568864
#
# Coordination Sequence:
#
# PCOD9074616 Si02
#       8
#     2   2   2   1   2   2   2   2
#     4  11  25  46  69  98 141 185 230 288 349 413
#     4  11  27  45  70 105 142 187 229 296 356 423
#     4  12  23  43  75 105 139 178 228 301 356 410
#     4  10  24  42  66 102 136 176 230 280 336 420
#     4  11  27  45  69  98 141 189 232 288 345 422
#     4  11  24  44  70 103 139 178 234 289 352 416
#     4  11  26  46  71 105 144 181 234 295 355 419
#     4  12  25  46  73 103 138 183 240 287 355 420
#
# _framework density 21.651910999999998
#
# number of rings (size 3 to 8) (size 9 to 14) (size 15 to 20)
#    0.000    0.800    2.667    3.600    7.467    1.600 
#    2.400    0.000    0.000    0.000    0.000    0.000 
#    0.000    0.000    0.000    0.000    0.000    0.000 
#
# Total GULP energy -83515.946319 kJ/mol
# GULP energy per Si atom -5567.729755 kJ/mol
# Density = 2.160263 g / cm^3
# Si number density = 21.651911 Si / 1000 Ang^3
#
#
#
# Elastic Constant Matrix: (Units=GPa)
#
#
# Indices 1 2 3 4 5 6 
#
# 1 90.5007 12.7465 22.6822 19.7384 13.5425 10.0278
# 2 12.7465 94.7616 1.4759 15.1154 5.5678 10.1660
# 3 22.6822 1.4759 69.9504 14.7847 5.1616 7.0714
# 4 19.7384 15.1154 14.7847 39.0070 6.2439 9.9579
# 5 13.5425 5.5678 5.1616 6.2439 29.0492 2.9957
# 6 10.0278 10.1660 7.0714 9.9579 2.9957 30.1512
#
#
#
# Elastic Compliance Matrix: (Units=1/GPa)
#
#
# Indices 1 2 3 4 5 6 
#
# 1 0.013731 -0.000643 -0.002996 -0.004378 -0.004625 -0.001742
# 2 -0.000643 0.011559 0.001094 -0.003738 -0.001038 -0.002602
# 3 -0.002996 0.001094 0.016430 -0.004625 -0.000569 -0.001642
# 4 -0.004378 -0.003738 -0.004625 0.033274 -0.002861 -0.006904
# 5 -0.004625 -0.001038 -0.000569 -0.002861 0.037574 -0.000767
# 6 -0.001742 -0.002602 -0.001642 -0.006904 -0.000767 0.037364
#
#
# Mechanical properties :
#
#
# Convention : Reuss Voigt Hill
#
# Bulk Modulus (GPa) = 27.30037 36.55798 31.92918
# Shear Modulus (GPa) = 29.89858 34.19535 32.04697
#
# Velocity S-wave (km/s) = 3.72004 3.97838 3.85138
# Velocity P-wave (km/s) = 5.57564 6.16639 5.87844
#
# Compressibility (1/GPa) = 0.03662953
#
# Stress axis : x y z
#
# Youngs Moduli (GPa) = 72.82701 86.51503 60.86504
#
# Poissons Ratio (x) = 0.05566 0.18236
# Poissons Ratio (y) = 0.04685 -0.06661
# Poissons Ratio (z) = 0.21820 -0.09469
#
# Static dielectric constant tensor:
#      x y z
#    x 1.745420 -0.001560 -0.062080 
#    y -0.001560 1.743230 -0.040000 
#    z -0.062080 -0.040000 1.895790 
# 
# From -- ./inp_files/518640.got.cif
#   From: 2010.05.17/outbox.ucp.g08.bks.cvg/sg2_260_cif.got.tgz:518640.got - 2010.06.11 11:32:03.
