data_PCOD9074414
_publ_section_title
;
Structure prediction by ZEFSAII (Michael W. Deem and Ramdas Pophale) SiO2 
 PCOD9074414
Probable space group: P -1
;
_chemical_formula_sum "Si O2"
_cell_formula_units_Z 14
_cell_length_a 27.000000
_cell_length_b 15.000000
_cell_length_c 6.000000
_cell_angle_alpha 50.000000
_cell_angle_beta 50.000000
_cell_angle_gamma 20.000000
_cell_volume 629.659215
_symmetry_space_group_name_H-M "P -1"
_symmetry_group_IT_number 2
_symmetry_cell_setting 'triclinic'
loop_
_space_group_symop_operation_xyz
x,y,z
-x,-y,-z
loop_
_atom_site_type_symbol
_atom_site_label
_atom_site_fract_x
_atom_site_fract_y
_atom_site_fract_z
Si Si1 0.221758 0.914774 0.533395
Si Si2 0.940495 0.226064 0.751460
Si Si3 0.609533 0.976170 0.029515
Si Si4 0.614458 0.553617 0.393930
Si Si5 0.834079 0.794045 0.449510
Si Si6 0.213153 0.538228 0.691999
Si Si7 0.638244 0.106619 0.117206
O O1 0.306151 0.656411 0.679839
O O2 0.199650 0.020485 0.659384
O O3 0.322823 0.844353 0.221383
O O4 0.064164 0.128670 0.544047
O O5 0.871550 0.325555 0.530944
O O6 0.859361 0.382420 0.980188
O O7 0.000000 0.000000 0.000000
O O8 0.736585 0.854447 0.757986
O O9 0.472438 0.211930 0.881041
O O10 0.662573 0.758869 0.234836
O O11 0.592750 0.066512 0.170982
O O12 0.718777 0.447453 0.446292
O O13 0.493817 0.670500 0.683096
O O14 0.000000 0.500000 0.500000
O O15 0.787256 0.852379 0.236561
#
# Coordination Sequence:
#
# PCOD9074414 Si02
#       7
#     2   2   2   2   2   2   2
#     4  11  25  43  73 102 147 188 247 304 369 434
#     4  12  28  49  75 112 145 195 246 306 371 431
#     4  10  25  44  68 108 142 196 244 299 367 436
#     4  11  25  46  70 104 151 191 249 300 366 443
#     4  10  23  42  68 101 146 185 246 302 367 437
#     4  12  28  48  80 105 154 192 251 303 367 438
#     4  10  25  42  70 104 141 194 245 298 371 431
#
# _framework density 22.234248999999998
#
# number of rings (size 3 to 8) (size 9 to 14) (size 15 to 20)
#    0.000    1.143    1.429    2.143   12.000    8.000 
#    0.000    0.000    0.000    0.000    0.000    0.000 
#    0.000    0.000    0.000    0.000    0.000    0.000 
#
# Total GULP energy -78016.342388 kJ/mol
# GULP energy per Si atom -5572.595885 kJ/mol
# Density = 2.218364 g / cm^3
# Si number density = 22.234249 Si / 1000 Ang^3
#
#
#
# Elastic Constant Matrix: (Units=GPa)
#
#
# Indices 1 2 3 4 5 6 
#
# 1 129.4685 17.1799 19.6984 -8.5110 13.6006 -2.7473
# 2 17.1799 66.4679 19.6365 -1.8435 10.2309 10.1369
# 3 19.6984 19.6365 52.9840 -4.0143 11.9677 2.6367
# 4 -8.5110 -1.8435 -4.0143 30.2641 -4.4801 -3.9034
# 5 13.6006 10.2309 11.9677 -4.4801 51.0533 -1.8216
# 6 -2.7473 10.1369 2.6367 -3.9034 -1.8216 42.6582
#
#
#
# Elastic Compliance Matrix: (Units=1/GPa)
#
#
# Indices 1 2 3 4 5 6 
#
# 1 0.008548 -0.001475 -0.002260 0.001982 -0.001236 0.001169
# 2 -0.001475 0.017997 -0.005494 -0.000909 -0.002156 -0.004207
# 3 -0.002260 -0.005494 0.022663 0.001487 -0.003488 -0.000254
# 4 0.001982 -0.000909 0.001487 0.034560 0.002464 0.003519
# 5 -0.001236 -0.002156 -0.003488 0.002464 0.021446 0.001790
# 6 0.001169 -0.004207 -0.000254 0.003519 0.001790 0.024931
#
#
# Mechanical properties :
#
#
# Convention : Reuss Voigt Hill
#
# Bulk Modulus (GPa) = 32.52002 40.21668 36.36835
# Shear Modulus (GPa) = 31.47490 37.62217 34.54854
#
# Velocity S-wave (km/s) = 3.76653 4.11795 3.94616
# Velocity P-wave (km/s) = 5.79427 6.38256 6.09551
#
# Compressibility (1/GPa) = 0.03075029
#
# Stress axis : x y z
#
# Youngs Moduli (GPa) = 116.97982 55.56328 44.12402
#
# Poissons Ratio (x) = 0.08195 0.09974
# Poissons Ratio (y) = 0.17252 0.24243
# Poissons Ratio (z) = 0.26441 0.30529
#
# Static dielectric constant tensor:
#      x y z
#    x 1.805880 0.013420 0.050310 
#    y 0.013420 1.904520 0.037430 
#    z 0.050310 0.037430 1.883680 
# 
# From -- ./inp_files/70523.got.cif
#   From: 2010.05.17/outbox.ucp.g08.bks.cvg/sg2_36_cif.got.tgz:70523.got - 2010.06.11 11:32:03.
