data_PCOD9074428
_publ_section_title
;
Structure prediction by ZEFSAII (Michael W. Deem and Ramdas Pophale) SiO2 
 PCOD9074428
Probable space group: P -1
;
_chemical_formula_sum "Si O2"
_cell_formula_units_Z 16
_cell_length_a 9.000000
_cell_length_b 12.000000
_cell_length_c 18.000000
_cell_angle_alpha 50.000000
_cell_angle_beta 100.000000
_cell_angle_gamma 140.000000
_cell_volume 729.599496
_symmetry_space_group_name_H-M "P -1"
_symmetry_group_IT_number 2
_symmetry_cell_setting 'triclinic'
loop_
_space_group_symop_operation_xyz
x,y,z
-x,-y,-z
loop_
_atom_site_type_symbol
_atom_site_label
_atom_site_fract_x
_atom_site_fract_y
_atom_site_fract_z
Si Si1 0.723372 0.033915 0.112974
Si Si2 0.673887 0.228607 0.685676
Si Si3 0.807075 0.519293 0.434091
Si Si4 0.346823 0.278862 0.385860
Si Si5 0.371643 0.592968 0.156431
Si Si6 0.129662 0.611855 0.837862
Si Si7 0.357385 0.132906 0.302795
Si Si8 0.722171 0.643234 0.892601
O O1 0.962190 0.139221 0.136085
O O2 0.410741 0.767199 0.246464
O O3 0.642182 0.913659 0.075114
O O4 0.880384 0.318073 0.989097
O O5 0.625641 0.283585 0.583401
O O6 0.004837 0.433005 0.623434
O O7 0.395877 0.884783 0.799267
O O8 0.592230 0.448227 0.399393
O O9 0.084997 0.811164 0.383306
O O10 0.399763 0.471899 0.261720
O O11 0.358465 0.157421 0.379839
O O12 0.000000 0.000000 0.500000
O O13 0.401975 0.583940 0.075728
O O14 0.049261 0.408199 0.210665
O O15 0.318157 0.660051 0.781163
O O16 0.275773 0.217025 0.220775
O O17 0.500000 0.500000 0.000000
#
# Coordination Sequence:
#
# PCOD9074428 Si02
#       8
#     2   2   2   2   2   2   2   2
#     4  12  24  41  70  97 132 181 217 275 334 387
#     4  10  23  42  70  98 133 172 225 277 329 389
#     4  10  23  45  66 100 132 173 224 273 328 395
#     4  11  25  44  67  97 136 176 214 276 332 391
#     4  11  26  41  64 103 130 171 229 266 325 403
#     4  11  22  46  65  98 135 172 225 273 329 394
#     4  10  24  43  68  98 133 175 220 272 331 395
#     4  11  23  45  65  96 138 173 216 273 330 393
#
# _framework density 21.929839999999999
#
# number of rings (size 3 to 8) (size 9 to 14) (size 15 to 20)
#    0.000    1.250    2.500    2.250    5.250    1.000 
#    2.250    2.500    0.000    0.000    0.000    0.000 
#    0.000    0.000    0.000    0.000    0.000    0.000 
#
# Total GULP energy -89213.345273 kJ/mol
# GULP energy per Si atom -5575.834080 kJ/mol
# Density = 2.187993 g / cm^3
# Si number density = 21.929840 Si / 1000 Ang^3
#
#
#
# Elastic Constant Matrix: (Units=GPa)
#
#
# Indices 1 2 3 4 5 6 
#
# 1 99.4510 39.2363 30.3940 13.1456 -7.7687 15.9890
# 2 39.2363 101.4724 26.4397 -3.6813 -11.4603 2.3392
# 3 30.3940 26.4397 76.2367 -2.5683 -19.2801 -4.0633
# 4 13.1456 -3.6813 -2.5683 6.5017 -6.6830 -1.3272
# 5 -7.7687 -11.4603 -19.2801 -6.6830 19.7637 9.9039
# 6 15.9890 2.3392 -4.0633 -1.3272 9.9039 37.5710
#
#
#
# Elastic Compliance Matrix: (Units=1/GPa)
#
#
# Indices 1 2 3 4 5 6 
#
# 1 -0.046719 0.032602 0.058851 0.304084 0.165063 -0.008553
# 2 0.032602 -0.009669 -0.039343 -0.182639 -0.093230 0.000597
# 3 0.058851 -0.039343 -0.045208 -0.313377 -0.150280 0.001059
# 4 0.304084 -0.182639 -0.313377 -1.518760 -0.809573 0.007828
# 5 0.165063 -0.093230 -0.150280 -0.809573 -0.350465 -0.016908
# 6 -0.008553 0.000597 0.001059 0.007828 -0.016908 0.035067
#
#
# Mechanical properties :
#
#
# Convention : Reuss Voigt Hill
#
# Bulk Modulus (GPa) = 380.93040 52.14444 216.53742
# Shear Modulus (GPa) = -2.45206 24.83996 11.19395
#
# Velocity S-wave (km/s) = -1.05857 3.36921 2.26175
# Velocity P-wave (km/s) = 13.13724 6.24219 10.28475
#
# Compressibility (1/GPa) = 0.00262515
#
# Stress axis : x y z
#
# Youngs Moduli (GPa) = -21.40473 -103.42336 -22.12021
#
# Poissons Ratio (x) = 3.37176 1.30181
# Poissons Ratio (y) = 0.69783 -0.87027
# Poissons Ratio (z) = 1.25970 -4.06897
#
# Static dielectric constant tensor:
#      x y z
#    x 1.899210 -0.169630 -0.046520 
#    y -0.169630 1.855520 -0.030300 
#    z -0.046520 -0.030300 1.754890 
# 
# From -- ./inp_files/333906.got.cif
#   From: 2010.05.17/outbox.ucp.g08.bks.cvg/sg2_167_cif.got.tgz:333906.got - 2010.06.11 11:32:03.
