data_PCOD9074523
_publ_section_title
;
Structure prediction by ZEFSAII (Michael W. Deem and Ramdas Pophale) SiO2 
 PCOD9074523
Probable space group: P -1
;
_chemical_formula_sum "Si O2"
_cell_formula_units_Z 16
_cell_length_a 9.000000
_cell_length_b 12.000000
_cell_length_c 12.000000
_cell_angle_alpha 90.000000
_cell_angle_beta 60.000000
_cell_angle_gamma 50.000000
_cell_volume 752.153660
_symmetry_space_group_name_H-M "P -1"
_symmetry_group_IT_number 2
_symmetry_cell_setting 'triclinic'
loop_
_space_group_symop_operation_xyz
x,y,z
-x,-y,-z
loop_
_atom_site_type_symbol
_atom_site_label
_atom_site_fract_x
_atom_site_fract_y
_atom_site_fract_z
Si Si1 0.716951 0.990682 0.447950
Si Si2 0.733238 0.210357 0.835729
Si Si3 0.164569 0.448652 0.087155
Si Si4 0.278215 0.017886 0.286135
Si Si5 0.192935 0.804380 0.931453
Si Si6 0.125400 0.262712 0.943598
Si Si7 0.423028 0.298007 0.396634
Si Si8 0.089270 0.348071 0.335327
O O1 0.600799 0.150722 0.420781
O O2 0.500000 0.000000 0.500000
O O3 0.741927 0.993361 0.572709
O O4 0.019189 0.835838 0.296214
O O5 0.781613 0.063953 0.764019
O O6 0.424697 0.371277 0.930717
O O7 0.720805 0.232251 0.973041
O O8 0.187365 0.386134 0.202359
O O9 0.953078 0.645834 0.146374
O O10 0.076314 0.383029 0.051213
O O11 0.122559 0.200570 0.302293
O O12 0.575870 0.906127 0.159551
O O13 0.404588 0.720008 0.757633
O O14 0.039312 0.765470 0.971072
O O15 0.000000 0.000000 0.000000
O O16 0.257213 0.290998 0.383674
O O17 0.205991 0.478946 0.533428
#
# Coordination Sequence:
#
# PCOD9074523 Si02
#       8
#     2   2   2   2   2   2   2   2
#     4  12  23  43  67  95 137 174 220 275 344 401
#     4  11  25  40  70  98 135 174 231 273 333 401
#     4  10  23  45  67 101 138 176 221 285 333 404
#     4  11  24  43  68 100 132 184 221 279 330 404
#     4  12  23  43  68 103 134 172 228 276 335 402
#     4  10  24  43  70  98 138 180 222 274 347 393
#     4  11  24  42  66 100 133 175 220 282 334 403
#     4  11  23  42  67  99 135 174 227 275 337 395
#
# _framework density 21.272248999999999
#
# number of rings (size 3 to 8) (size 9 to 14) (size 15 to 20)
#    0.000    1.000    3.750    2.625    1.750    2.500 
#    0.000    3.750    0.000    0.000    0.000    0.000 
#    0.000    0.000    0.000    0.000    0.000    0.000 
#
# Total GULP energy -89297.206334 kJ/mol
# GULP energy per Si atom -5581.075396 kJ/mol
# Density = 2.122383 g / cm^3
# Si number density = 21.272249 Si / 1000 Ang^3
#
#
#
# Elastic Constant Matrix: (Units=GPa)
#
#
# Indices 1 2 3 4 5 6 
#
# 1 105.0356 19.2979 42.1879 3.1439 -25.3484 5.8209
# 2 19.2979 60.4281 23.8569 0.6174 -8.1922 1.8032
# 3 42.1879 23.8569 130.9220 -2.9349 -28.9888 14.1431
# 4 3.1439 0.6174 -2.9349 29.1150 0.4914 0.3599
# 5 -25.3484 -8.1922 -28.9888 0.4914 24.6371 0.2296
# 6 5.8209 1.8032 14.1431 0.3599 0.2296 20.5012
#
#
#
# Elastic Compliance Matrix: (Units=1/GPa)
#
#
# Indices 1 2 3 4 5 6 
#
# 1 0.013428 -0.002165 -0.000983 -0.001668 0.012001 -0.003049
# 2 -0.002165 0.018345 -0.002540 -0.000435 0.000885 0.000751
# 3 -0.000983 -0.002540 0.012045 0.001264 0.012365 -0.007967
# 4 -0.001668 -0.000435 0.001264 0.034693 -0.001057 -0.000957
# 5 0.012001 0.000885 0.012365 -0.001057 0.067920 -0.012758
# 6 -0.003049 0.000751 -0.007967 -0.000957 -0.012758 0.055233
#
#
# Mechanical properties :
#
#
# Convention : Reuss Voigt Hill
#
# Bulk Modulus (GPa) = 30.82542 51.89679 41.36111
# Shear Modulus (GPa) = 22.33589 28.92019 25.62804
#
# Velocity S-wave (km/s) = 3.24389 3.69118 3.47474
# Velocity P-wave (km/s) = 5.34348 6.52808 5.96526
#
# Compressibility (1/GPa) = 0.03244076
#
# Stress axis : x y z
#
# Youngs Moduli (GPa) = 74.46885 54.51101 83.02382
#
# Poissons Ratio (x) = 0.11803 0.08164
# Poissons Ratio (y) = 0.16124 0.21089
# Poissons Ratio (z) = 0.07323 0.13846
#
# Static dielectric constant tensor:
#      x y z
#    x 1.830660 -0.103540 0.020590 
#    y -0.103540 1.930790 -0.025750 
#    z 0.020590 -0.025750 1.783590 
# 
# From -- ./inp_files/263152.got.cif
#   From: 2010.05.17/outbox.ucp.g08.bks.cvg/sg2_132_cif.got.tgz:263152.got - 2010.06.11 11:32:03.
