data_PCOD9074921
_publ_section_title
;
Structure prediction by ZEFSAII (Michael W. Deem and Ramdas Pophale) SiO2 
 PCOD9074921
Probable space group: P -1
;
_chemical_formula_sum "Si O2"
_cell_formula_units_Z 14
_cell_length_a 12.000000
_cell_length_b 21.000000
_cell_length_c 15.000000
_cell_angle_alpha 150.000000
_cell_angle_beta 160.000000
_cell_angle_gamma 40.000000
_cell_volume 620.704002
_symmetry_space_group_name_H-M "P -1"
_symmetry_group_IT_number 2
_symmetry_cell_setting 'triclinic'
loop_
_space_group_symop_operation_xyz
x,y,z
-x,-y,-z
loop_
_atom_site_type_symbol
_atom_site_label
_atom_site_fract_x
_atom_site_fract_y
_atom_site_fract_z
Si Si1 0.272063 0.215763 0.188185
Si Si2 0.289247 0.455660 0.613669
Si Si3 0.857154 0.699383 0.330548
Si Si4 0.773289 0.714428 0.492967
Si Si5 0.466844 0.898358 0.268244
Si Si6 0.542707 0.092413 0.417744
Si Si7 0.704950 0.411458 0.603797
O O1 0.180714 0.334938 0.317886
O O2 0.429385 0.137860 0.290548
O O3 0.507540 0.297137 0.385577
O O4 0.943297 0.127361 0.782085
O O5 0.454287 0.400083 0.754467
O O6 0.000000 0.500000 0.500000
O O7 0.542459 0.582154 0.913476
O O8 0.831148 0.680990 0.395349
O O9 0.789103 0.840773 0.435572
O O10 0.163663 0.667954 0.472064
O O11 0.597408 0.829275 0.515472
O O12 0.137545 0.775748 0.888251
O O13 0.500000 0.000000 0.500000
O O14 0.402571 0.946587 0.178318
O O15 0.500000 0.500000 0.500000
O O16 0.000000 0.500000 0.000000
#
# Coordination Sequence:
#
# PCOD9074921 Si02
#       7
#     2   2   2   2   2   2   2
#     4  11  25  46  70 101 139 191 238 292 355 418
#     4  11  21  39  65 105 143 172 227 296 371 425
#     4  12  26  42  71 104 144 184 238 291 359 428
#     4  11  24  39  70 103 144 183 228 295 366 427
#     4  12  24  45  68 107 147 190 236 291 357 429
#     4  11  24  44  72 101 144 188 235 293 352 421
#     4  12  28  50  74 103 146 189 240 293 353 430
#
# _framework density 22.555033999999999
#
# number of rings (size 3 to 8) (size 9 to 14) (size 15 to 20)
#    0.000    0.571    4.286    4.286    8.000    0.000 
#    0.000    1.429    0.000    0.000    0.000    0.000 
#    0.000    0.000    0.000    0.000    0.000    0.000 
#
# Total GULP energy -78000.556622 kJ/mol
# GULP energy per Si atom -5571.468330 kJ/mol
# Density = 2.250370 g / cm^3
# Si number density = 22.555034 Si / 1000 Ang^3
#
#
#
# Elastic Constant Matrix: (Units=GPa)
#
#
# Indices 1 2 3 4 5 6 
#
# 1 108.4728 45.5519 2.0654 -8.7245 16.4031 9.6103
# 2 45.5519 134.7839 19.8703 -8.2238 1.4747 10.2681
# 3 2.0654 19.8703 80.9146 -2.9906 3.8591 18.4682
# 4 -8.7245 -8.2238 -2.9906 30.2897 9.4253 -3.6163
# 5 16.4031 1.4747 3.8591 9.4253 34.9853 -4.7024
# 6 9.6103 10.2681 18.4682 -3.6163 -4.7024 37.0594
#
#
#
# Elastic Compliance Matrix: (Units=1/GPa)
#
#
# Indices 1 2 3 4 5 6 
#
# 1 0.012737 -0.003943 0.002051 0.004788 -0.007827 -0.003759
# 2 -0.003943 0.009104 -0.002142 0.000634 0.001506 -0.000179
# 3 0.002051 -0.002142 0.014842 0.001812 -0.004028 -0.007669
# 4 0.004788 0.000634 0.001812 0.038748 -0.012935 -0.000181
# 5 -0.007827 0.001506 -0.004028 -0.012935 0.037068 0.007061
# 6 -0.003759 -0.000179 -0.007669 -0.000181 0.007061 0.032708
#
#
# Mechanical properties :
#
#
# Convention : Reuss Voigt Hill
#
# Bulk Modulus (GPa) = 34.94722 51.01627 42.98175
# Shear Modulus (GPa) = 30.71000 37.57911 34.14456
#
# Velocity S-wave (km/s) = 3.69393 4.08623 3.89502
# Velocity P-wave (km/s) = 5.80701 6.70303 6.27105
#
# Compressibility (1/GPa) = 0.02861458
#
# Stress axis : x y z
#
# Youngs Moduli (GPa) = 78.50911 109.84666 67.37669
#
# Poissons Ratio (x) = 0.43313 -0.13821
# Poissons Ratio (y) = 0.30957 0.14435
# Poissons Ratio (z) = -0.16105 0.23534
#
# Static dielectric constant tensor:
#      x y z
#    x 1.821180 0.058900 0.060570 
#    y 0.058900 2.352980 0.167890 
#    z 0.060570 0.167890 2.012880 
# 
# From -- ./inp_files/82912.got.cif
#   From: 2010.05.17/outbox.ucp.g08.bks.cvg/sg2_42_cif.got.tgz:82912.got - 2010.06.11 11:32:03.
