data_PCOD9074543
_publ_section_title
;
Structure prediction by ZEFSAII (Michael W. Deem and Ramdas Pophale) SiO2 
 PCOD9074543
Probable space group: P -1
;
_chemical_formula_sum "Si O2"
_cell_formula_units_Z 16
_cell_length_a 12.000000
_cell_length_b 15.000000
_cell_length_c 9.000000
_cell_angle_alpha 100.000000
_cell_angle_beta 110.000000
_cell_angle_gamma 30.000000
_cell_volume 734.803614
_symmetry_space_group_name_H-M "P -1"
_symmetry_group_IT_number 2
_symmetry_cell_setting 'triclinic'
loop_
_space_group_symop_operation_xyz
x,y,z
-x,-y,-z
loop_
_atom_site_type_symbol
_atom_site_label
_atom_site_fract_x
_atom_site_fract_y
_atom_site_fract_z
Si Si1 0.941611 0.387080 0.688309
Si Si2 0.186027 0.958641 0.533046
Si Si3 0.546133 0.150722 0.677393
Si Si4 0.750680 0.371006 0.401828
Si Si5 0.501996 0.987346 0.176753
Si Si6 0.819390 0.672678 0.682298
Si Si7 0.568507 0.590197 0.781687
Si Si8 0.300956 0.471618 0.839004
O O1 0.745907 0.470873 0.512610
O O2 0.914469 0.512131 0.725987
O O3 0.848410 0.408464 0.806421
O O4 0.214912 0.192799 0.708596
O O5 0.283137 0.922211 0.400186
O O6 0.413726 0.775602 0.687141
O O7 0.000000 0.000000 0.500000
O O8 0.996066 0.167301 0.526632
O O9 0.604173 0.032411 0.792709
O O10 0.324923 0.251229 0.513943
O O11 0.472797 0.286856 0.777882
O O12 0.551208 0.424391 0.334053
O O13 0.745118 0.405573 0.237993
O O14 0.365503 0.162118 0.237835
O O15 0.500000 0.000000 0.000000
O O16 0.043367 0.591743 0.754483
O O17 0.581480 0.589422 0.964429
#
# Coordination Sequence:
#
# PCOD9074543 Si02
#       8
#     2   2   2   2   2   2   2   2
#     4  12  24  44  73 101 139 192 237 289 356 439
#     4  10  23  45  71 100 138 190 247 293 349 432
#     4  12  23  44  69 102 143 189 237 287 359 437
#     4  11  23  45  69  98 137 190 246 288 358 433
#     4  12  28  43  70 112 149 185 234 298 368 430
#     4  12  24  46  70 104 145 186 237 289 361 436
#     4  11  25  44  69 102 142 188 241 307 350 416
#     4  12  24  42  72 104 144 184 239 301 366 420
#
# _framework density 21.774525000000001
#
# number of rings (size 3 to 8) (size 9 to 14) (size 15 to 20)
#    0.000    0.500    3.750    4.500    1.750    2.000 
#    0.000    2.500    0.000    0.000    0.000    0.000 
#    0.000    0.000    0.000    0.000    0.000    0.000 
#
# Total GULP energy -89181.876943 kJ/mol
# GULP energy per Si atom -5573.867309 kJ/mol
# Density = 2.172497 g / cm^3
# Si number density = 21.774525 Si / 1000 Ang^3
#
#
#
# Elastic Constant Matrix: (Units=GPa)
#
#
# Indices 1 2 3 4 5 6 
#
# 1 154.8566 23.5199 18.7724 -4.7721 -17.1989 -0.6328
# 2 23.5199 47.8422 -15.6186 4.2197 -1.3679 3.7824
# 3 18.7724 -15.6186 72.0766 9.0637 -19.7367 7.0516
# 4 -4.7721 4.2197 9.0637 23.1883 3.8422 -0.5076
# 5 -17.1989 -1.3679 -19.7367 3.8422 29.9357 -4.0308
# 6 -0.6328 3.7824 7.0516 -0.5076 -4.0308 33.9510
#
#
#
# Elastic Compliance Matrix: (Units=1/GPa)
#
#
# Indices 1 2 3 4 5 6 
#
# 1 0.008030 -0.005467 -0.003396 0.003701 0.001885 0.001743
# 2 -0.005467 0.029038 0.011578 -0.012156 0.006689 -0.005129
# 3 -0.003396 0.011578 0.023853 -0.014813 0.015576 -0.004680
# 4 0.003701 -0.012156 -0.014813 0.054402 -0.014697 0.003568
# 5 0.001885 0.006689 0.015576 -0.014697 0.047142 0.001432
# 6 0.001743 -0.005129 -0.004680 0.003568 0.001432 0.031254
#
#
# Mechanical properties :
#
#
# Convention : Reuss Voigt Hill
#
# Bulk Modulus (GPa) = 15.07084 36.45810 25.76447
# Shear Modulus (GPa) = 23.76375 33.95511 28.85943
#
# Velocity S-wave (km/s) = 3.30715 3.95320 3.64452
# Velocity P-wave (km/s) = 4.63889 6.13326 5.43766
#
# Compressibility (1/GPa) = 0.06635331
#
# Stress axis : x y z
#
# Youngs Moduli (GPa) = 124.53325 34.43725 41.92318
#
# Poissons Ratio (x) = 0.18825 0.14236
# Poissons Ratio (y) = 0.68077 -0.48540
# Poissons Ratio (z) = 0.42290 -0.39873
#
# Static dielectric constant tensor:
#      x y z
#    x 1.839250 -0.030530 -0.029810 
#    y -0.030530 1.876900 0.007900 
#    z -0.029810 0.007900 1.831660 
# 
# From -- ./inp_files/273451.got.cif
#   From: 2010.05.17/outbox.ucp.g08.bks.cvg/sg2_137_cif.got.tgz:273451.got - 2010.06.11 11:32:03.
