data_PCOD9074429
_publ_section_title
;
Structure prediction by ZEFSAII (Michael W. Deem and Ramdas Pophale) SiO2 
 PCOD9074429
Probable space group: P -1
;
_chemical_formula_sum "Si O2"
_cell_formula_units_Z 14
_cell_length_a 9.000000
_cell_length_b 21.000000
_cell_length_c 9.000000
_cell_angle_alpha 50.000000
_cell_angle_beta 130.000000
_cell_angle_gamma 150.000000
_cell_volume 634.839654
_symmetry_space_group_name_H-M "P -1"
_symmetry_group_IT_number 2
_symmetry_cell_setting 'triclinic'
loop_
_space_group_symop_operation_xyz
x,y,z
-x,-y,-z
loop_
_atom_site_type_symbol
_atom_site_label
_atom_site_fract_x
_atom_site_fract_y
_atom_site_fract_z
Si Si1 0.255076 0.673858 0.142452
Si Si2 0.221323 0.856597 0.777222
Si Si3 0.965546 0.865392 0.846627
Si Si4 0.855451 0.890743 0.359916
Si Si5 0.566864 0.433660 0.063028
Si Si6 0.899035 0.106725 0.764400
Si Si7 0.426338 0.387490 0.694225
O O1 0.491452 0.769629 0.284622
O O2 0.400904 0.641916 0.198243
O O3 0.917394 0.532907 0.175795
O O4 0.205972 0.750332 0.920036
O O5 0.204951 0.880879 0.901711
O O6 0.977590 0.843638 0.576217
O O7 0.537931 0.987925 0.711063
O O8 0.645627 0.716846 0.815320
O O9 0.029810 0.984514 0.683697
O O10 0.994362 0.871827 0.031758
O O11 0.985658 0.925814 0.223738
O O12 0.500000 0.500000 0.000000
O O13 0.502355 0.424811 0.860071
O O14 0.076268 0.250835 0.628316
O O15 0.500000 0.500000 0.500000
#
# Coordination Sequence:
#
# PCOD9074429 Si02
#       7
#     2   2   2   2   2   2   2
#     4  11  25  44  72  95 143 178 218 285 344 386
#     4  12  24  42  71 100 138 175 224 279 342 393
#     4  11  23  44  69  98 138 175 228 274 338 402
#     4  11  25  43  69 102 132 177 233 276 330 408
#     4  11  24  44  70  99 135 185 221 277 342 400
#     4  10  23  42  70  99 136 175 222 285 335 393
#     4  10  25  45  70 101 134 178 235 270 334 414
#
# _framework density 22.052813
#
# number of rings (size 3 to 8) (size 9 to 14) (size 15 to 20)
#    0.000    1.143    2.857    2.143    8.000    1.143 
#    0.000    2.857    0.000    0.000    0.000    0.000 
#    0.000    0.000    0.000    0.000    0.000    0.000 
#
# Total GULP energy -77976.636046 kJ/mol
# GULP energy per Si atom -5569.759718 kJ/mol
# Density = 2.200262 g / cm^3
# Si number density = 22.052813 Si / 1000 Ang^3
#
#
#
# Elastic Constant Matrix: (Units=GPa)
#
#
# Indices 1 2 3 4 5 6 
#
# 1 126.0118 51.3967 22.9031 -9.2060 2.3454 -31.5208
# 2 51.3967 174.7804 45.3143 -1.2236 0.7197 -9.6085
# 3 22.9031 45.3143 78.1021 -10.6360 11.8193 -22.0216
# 4 -9.2060 -1.2236 -10.6360 17.9091 5.8035 19.9935
# 5 2.3454 0.7197 11.8193 5.8035 27.5479 -9.3080
# 6 -31.5208 -9.6085 -22.0216 19.9935 -9.3080 47.6960
#
#
#
# Elastic Compliance Matrix: (Units=1/GPa)
#
#
# Indices 1 2 3 4 5 6 
#
# 1 0.011214 -0.002595 -0.000594 -0.009399 0.005261 0.011581
# 2 -0.002595 0.007706 -0.004801 -0.005320 0.003372 0.000509
# 3 -0.000594 -0.004801 0.019421 0.017242 -0.012484 -0.002057
# 4 -0.009399 -0.005320 0.017242 0.194550 -0.080049 -0.096497
# 5 0.005261 0.003372 -0.012484 -0.080049 0.073634 0.046317
# 6 0.011581 0.000509 -0.002057 -0.096497 0.046317 0.077261
#
#
# Mechanical properties :
#
#
# Convention : Reuss Voigt Hill
#
# Bulk Modulus (GPa) = 44.71991 68.68028 56.70009
# Shear Modulus (GPa) = 12.27836 35.91597 24.09717
#
# Velocity S-wave (km/s) = 2.36216 4.04001 3.30919
# Velocity P-wave (km/s) = 5.26899 7.27828 6.35357
#
# Compressibility (1/GPa) = 0.02236140
#
# Stress axis : x y z
#
# Youngs Moduli (GPa) = 89.17268 129.76690 51.49069
#
# Poissons Ratio (x) = 0.33668 0.03058
# Poissons Ratio (y) = 0.23136 0.24723
# Poissons Ratio (z) = 0.05297 0.62307
#
# Static dielectric constant tensor:
#      x y z
#    x 1.830710 0.052380 -0.083360 
#    y 0.052380 1.851620 0.001430 
#    z -0.083360 0.001430 1.956040 
# 
# From -- ./inp_files/223295.got.cif
#   From: 2010.05.17/outbox.ucp.g08.bks.cvg/sg2_112_cif.got.tgz:223295.got - 2010.06.11 11:32:03.
