data_PCOD9074845
_publ_section_title
;
Structure prediction by ZEFSAII (Michael W. Deem and Ramdas Pophale) SiO2 
 PCOD9074845
Probable space group: P -1
;
_chemical_formula_sum "Si O2"
_cell_formula_units_Z 14
_cell_length_a 15.000000
_cell_length_b 9.000000
_cell_length_c 15.000000
_cell_angle_alpha 130.000000
_cell_angle_beta 30.000000
_cell_angle_gamma 110.000000
_cell_volume 642.379314
_symmetry_space_group_name_H-M "P -1"
_symmetry_group_IT_number 2
_symmetry_cell_setting 'triclinic'
loop_
_space_group_symop_operation_xyz
x,y,z
-x,-y,-z
loop_
_atom_site_type_symbol
_atom_site_label
_atom_site_fract_x
_atom_site_fract_y
_atom_site_fract_z
Si Si1 0.374118 0.827350 0.073261
Si Si2 0.806843 0.746186 0.467393
Si Si3 0.962935 0.936356 0.245556
Si Si4 0.450797 0.655062 0.748859
Si Si5 0.769242 0.500425 0.897482
Si Si6 0.580277 0.158097 0.531555
Si Si7 0.814067 0.453699 0.637691
O O1 0.221159 0.735347 0.183948
O O2 0.301476 0.042683 0.284243
O O3 0.376971 0.833497 0.966657
O O4 0.619603 0.623048 0.805952
O O5 0.890760 0.820331 0.338101
O O6 0.644277 0.672301 0.550763
O O7 0.013773 0.542097 0.265534
O O8 0.821145 0.998125 0.302039
O O9 0.902140 0.187062 0.434096
O O10 0.221627 0.766938 0.940567
O O11 0.536390 0.386101 0.600458
O O12 0.722120 0.529821 0.845796
O O13 0.570824 0.712800 0.202390
O O14 0.500000 0.000000 0.500000
O O15 0.000000 0.500000 0.500000
#
# Coordination Sequence:
#
# PCOD9074845 Si02
#       7
#     2   2   2   2   2   2   2
#     4  11  19  37  58  97 141 175 212 265 328 409
#     4  12  22  39  67  98 141 171 215 275 338 406
#     4  12  23  44  69  98 136 175 216 278 341 397
#     4  11  24  43  65 101 131 175 226 271 334 401
#     4  11  21  39  64  95 138 174 218 270 334 390
#     4  11  26  49  71  92 131 180 232 283 327 385
#     4  12  22  35  64 104 140 175 216 266 335 413
#
# _framework density 21.793977000000002
#
# number of rings (size 3 to 8) (size 9 to 14) (size 15 to 20)
#    0.000    0.571    7.143    4.714    0.000    0.571 
#    0.000    1.429    0.000    0.000    0.000    0.000 
#    0.000    0.000    0.000    0.000    0.000    0.000 
#
# Total GULP energy -78213.778785 kJ/mol
# GULP energy per Si atom -5586.698485 kJ/mol
# Density = 2.174437 g / cm^3
# Si number density = 21.793977 Si / 1000 Ang^3
#
#
#
# Elastic Constant Matrix: (Units=GPa)
#
#
# Indices 1 2 3 4 5 6 
#
# 1 108.2405 33.9289 30.0243 2.4978 -46.6164 23.0110
# 2 33.9289 80.1985 12.8691 -11.2165 -10.1714 41.4038
# 3 30.0243 12.8691 45.9671 -0.9731 -46.3452 12.9173
# 4 2.4978 -11.2165 -0.9731 24.6981 1.9052 -9.2961
# 5 -46.6164 -10.1714 -46.3452 1.9052 53.6985 0.8709
# 6 23.0110 41.4038 12.9173 -9.2961 0.8709 33.8027
#
#
#
# Elastic Compliance Matrix: (Units=1/GPa)
#
#
# Indices 1 2 3 4 5 6 
#
# 1 0.007477 -0.011813 -0.027509 0.002243 -0.019908 0.021021
# 2 -0.011813 0.021235 -0.028930 0.010971 -0.031540 -0.003084
# 3 -0.027509 -0.028930 -0.051534 0.024557 -0.076048 0.082567
# 4 0.002243 0.010971 0.024557 0.038994 0.024067 -0.014245
# 5 -0.019908 -0.031540 -0.076048 0.024067 -0.072577 0.089734
# 6 0.021021 -0.003084 0.082567 -0.014245 0.089734 -0.018730
#
#
# Mechanical properties :
#
#
# Convention : Reuss Voigt Hill
#
# Bulk Modulus (GPa) = -6.27654 43.11672 18.42009
# Shear Modulus (GPa) = 605.39588 32.94545 319.17066
#
# Velocity S-wave (km/s) = 16.68485 3.89225 12.11474
# Velocity P-wave (km/s) = 19.19096 6.32662 14.28844
#
# Compressibility (1/GPa) = -0.15932352
#
# Stress axis : x y z
#
# Youngs Moduli (GPa) = 133.73811 47.09159 -19.40472
#
# Poissons Ratio (x) = 0.55628 -0.53380
# Poissons Ratio (y) = 1.57980 -0.56138
# Poissons Ratio (z) = 3.67894 1.36236
#
# Static dielectric constant tensor:
#      x y z
#    x 1.636350 0.115310 -0.076680 
#    y 0.115310 1.737620 -0.008420 
#    z -0.076680 -0.008420 1.809630 
# 
# From -- ./inp_files/226069.got.cif
#   From: 2010.05.17/outbox.ucp.g08.bks.cvg/sg2_114_cif.got.tgz:226069.got - 2010.06.11 11:32:03.
