data_PCOD9074786
_publ_section_title
;
Structure prediction by ZEFSAII (Michael W. Deem and Ramdas Pophale) SiO2 
 PCOD9074786
Probable space group: P -1
;
_chemical_formula_sum "Si O2"
_cell_formula_units_Z 16
_cell_length_a 13.279347
_cell_length_b 8.282493
_cell_length_c 12.093974
_cell_angle_alpha 71.798381
_cell_angle_beta 137.017188
_cell_angle_gamma 132.702516
_cell_volume 620.002518
_symmetry_space_group_name_H-M "P -1"
_symmetry_group_IT_number 2
_symmetry_cell_setting 'triclinic'
loop_
_space_group_symop_operation_xyz
x,y,z
-x,-y,-z
loop_
_atom_site_type_symbol
_atom_site_label
_atom_site_fract_x
_atom_site_fract_y
_atom_site_fract_z
Si Si1 0.232577 0.373986 0.539706
Si Si2 0.275792 0.886116 0.185697
Si Si3 0.143718 0.838698 0.847894
Si Si4 0.859117 0.484407 0.226243
Si Si5 0.470946 0.271651 0.867453
Si Si6 0.371832 0.615543 0.271242
Si Si7 0.252847 0.738577 0.588423
Si Si8 0.652924 0.779447 0.659935
O O1 0.311642 0.289648 0.700652
O O2 0.177305 0.490627 0.544510
O O3 0.433476 0.585118 0.587176
O O4 0.043792 0.199681 0.342560
O O5 0.231468 0.648949 0.205839
O O6 0.522652 0.069171 0.323647
O O7 0.238493 0.979202 0.239952
O O8 0.184293 0.887525 0.999537
O O9 0.104948 0.612231 0.827968
O O10 0.347854 0.056770 0.899076
O O11 0.759713 0.286238 0.285074
O O12 0.077468 0.717658 0.399798
O O13 0.688258 0.486614 0.055730
O O14 0.546786 0.265858 0.809672
O O15 0.575605 0.750790 0.480277
O O16 0.261734 0.343817 0.233289
#
# Coordination Sequence:
#
# PCOD9074786 Si02
#       8
#     2   2   2   2   2   2   2   2
#     4   9  21  36  54  80 121 160 188 242 297 336
#     4  11  19  36  63  86 115 158 192 241 297 346
#     4  11  20  34  55  89 120 150 194 238 295 361
#     4  10  18  32  52  79 117 154 189 235 285 352
#     4  11  19  33  58  84 114 159 187 235 302 344
#     4  10  20  37  64  84 112 156 202 238 293 343
#     4   9  19  33  51  80 118 151 193 235 283 356
#     4   9  21  40  60  83 116 153 203 245 282 343
#
# _framework density 25.806346999999999
#
# number of rings (size 3 to 8) (size 9 to 14) (size 15 to 20)
#    0.000    2.000    2.500    1.875    0.000    0.500 
#    2.250    0.625    2.750    3.750    0.000    0.000 
#    0.000    0.000    0.000    0.000    0.000    0.000 
#
# Total GULP energy -89419.334599 kJ/mol
# GULP energy per Si atom -5588.708412 kJ/mol
# Density = 2.574761 g / cm^3
# Si number density = 25.806347 Si / 1000 Ang^3
#
#
#
# Elastic Constant Matrix: (Units=GPa)
#
#
# Indices 1 2 3 4 5 6 
#
# 1 87.3388 38.5929 32.0211 -3.6065 -9.0478 -15.0775
# 2 38.5929 61.4754 32.5962 -5.8608 6.3586 -10.7873
# 3 32.0211 32.5962 175.2649 -10.3663 12.7214 -12.3673
# 4 -3.6065 -5.8608 -10.3663 18.7661 1.9971 2.7105
# 5 -9.0478 6.3586 12.7214 1.9971 45.5386 1.7549
# 6 -15.0775 -10.7873 -12.3673 2.7105 1.7549 43.9167
#
#
#
# Elastic Compliance Matrix: (Units=1/GPa)
#
#
# Indices 1 2 3 4 5 6 
#
# 1 0.017627 -0.010441 -0.001563 -0.001731 0.005359 0.002940
# 2 -0.010441 0.025243 -0.001960 0.005080 -0.005350 0.001964
# 3 -0.001563 -0.001960 0.006734 0.002915 -0.002076 0.000781
# 4 -0.001731 0.005080 0.002915 0.056878 -0.004290 -0.001865
# 5 0.005359 -0.005350 -0.002076 -0.004290 0.024569 -0.000776
# 6 0.002940 0.001964 0.000781 -0.001865 -0.000776 0.024628
#
#
# Mechanical properties :
#
#
# Convention : Reuss Voigt Hill
#
# Bulk Modulus (GPa) = 46.13136 58.94438 52.53787
# Shear Modulus (GPa) = 26.20101 36.36887 31.28494
#
# Velocity S-wave (km/s) = 3.18982 3.75814 3.48558
# Velocity P-wave (km/s) = 5.61083 6.45926 6.04994
#
# Compressibility (1/GPa) = 0.02167723
#
# Stress axis : x y z
#
# Youngs Moduli (GPa) = 56.72958 39.61521 148.50262
#
# Poissons Ratio (x) = 0.41363 0.23206
# Poissons Ratio (y) = 0.59232 0.29102
# Poissons Ratio (z) = 0.08865 0.07763
#
# Static dielectric constant tensor:
#      x y z
#    x 2.010990 -0.058480 0.010780 
#    y -0.058480 2.120180 0.004810 
#    z 0.010780 0.004810 2.090610 
# 
# From -- ./inp_files/206079.got.cif
#   From: 2010.05.17/outbox.cif.g08.bks.cpg/sg2_104_cif.got.tgz:206079.got - 2010.06.03 11:33:40.
