data_PCOD9074203
_publ_section_title
;
Structure prediction by ZEFSAII (Michael W. Deem and Ramdas Pophale) SiO2 
 PCOD9074203
Probable space group: P -1
;
_chemical_formula_sum "Si O2"
_cell_formula_units_Z 16
_cell_length_a 9.000000
_cell_length_b 9.000000
_cell_length_c 12.000000
_cell_angle_alpha 100.000000
_cell_angle_beta 130.000000
_cell_angle_gamma 80.000000
_cell_volume 730.800219
_symmetry_space_group_name_H-M "P -1"
_symmetry_group_IT_number 2
_symmetry_cell_setting 'triclinic'
loop_
_space_group_symop_operation_xyz
x,y,z
-x,-y,-z
loop_
_atom_site_type_symbol
_atom_site_label
_atom_site_fract_x
_atom_site_fract_y
_atom_site_fract_z
Si Si1 0.317850 0.620041 0.186831
Si Si2 0.219589 0.945954 0.070288
Si Si3 0.618837 0.611670 0.999863
Si Si4 0.716373 0.122130 0.161167
Si Si5 0.373632 0.554831 0.554038
Si Si6 0.432379 0.907865 0.680407
Si Si7 0.961886 0.321436 0.727904
Si Si8 0.919883 0.984017 0.584563
O O1 0.286763 0.776623 0.123968
O O2 0.291020 0.479257 0.075009
O O3 0.537757 0.569400 0.330908
O O4 0.160889 0.633293 0.213187
O O5 0.346293 0.060853 0.210589
O O6 0.260872 0.952659 0.958668
O O7 0.000000 0.000000 0.000000
O O8 0.453415 0.744174 0.910806
O O9 0.500000 0.500000 0.000000
O O10 0.809867 0.661572 0.158257
O O11 0.646757 0.039144 0.227857
O O12 0.941160 0.146312 0.306131
O O13 0.500000 0.500000 0.500000
O O14 0.409607 0.728919 0.628523
O O15 0.149804 0.577869 0.409915
O O16 0.310381 0.011887 0.545003
O O17 0.942477 0.143232 0.677099
O O18 0.000000 0.000000 0.500000
#
# Coordination Sequence:
#
# PCOD9074203 Si02
#       8
#     2   2   2   2   2   2   2   2
#     4  11  23  44  65  96 132 169 216 268 320 390
#     4  12  27  41  63 103 135 164 216 270 325 379
#     4  12  25  41  64  99 131 167 216 272 323 384
#     4  11  23  41  65  93 130 170 218 261 324 383
#     4   9  20  43  69  93 124 176 220 259 317 390
#     4  10  22  43  70  94 127 175 217 263 320 383
#     4  10  23  42  69  93 126 174 216 263 327 385
#     4   9  21  39  67  94 122 169 221 264 315 386
#
# _framework density 21.893808
#
# number of rings (size 3 to 8) (size 9 to 14) (size 15 to 20)
#    0.000    1.500    2.500    1.500    7.000    2.000 
#    2.250    9.375    0.000    0.000    0.000    0.000 
#    0.000    0.000    0.000    0.000    0.000    0.000 
#
# Total GULP energy -89183.960021 kJ/mol
# GULP energy per Si atom -5573.997501 kJ/mol
# Density = 2.184398 g / cm^3
# Si number density = 21.893808 Si / 1000 Ang^3
#
#
#
# Elastic Constant Matrix: (Units=GPa)
#
#
# Indices 1 2 3 4 5 6 
#
# 1 76.4763 26.1856 55.6874 10.9293 26.9289 -28.9249
# 2 26.1856 68.9681 59.4326 -22.2976 21.3662 -31.1029
# 3 55.6874 59.4326 159.0089 -26.9368 35.8640 -8.0695
# 4 10.9293 -22.2976 -26.9368 42.1414 -20.6283 -1.0511
# 5 26.9289 21.3662 35.8640 -20.6283 18.3607 2.9769
# 6 -28.9249 -31.1029 -8.0695 -1.0511 2.9769 34.7262
#
#
#
# Elastic Compliance Matrix: (Units=1/GPa)
#
#
# Indices 1 2 3 4 5 6 
#
# 1 -0.002539 -0.014504 -0.001394 0.010021 0.037561 -0.018347
# 2 -0.014504 0.036985 -0.009002 0.032401 0.029397 0.017414
# 3 -0.001394 -0.009002 0.013041 -0.004761 -0.017517 -0.004836
# 4 0.010021 0.032401 -0.004761 0.026719 -0.019364 0.038730
# 5 0.037561 0.029397 -0.017517 -0.019364 -0.031397 0.055651
# 6 -0.018347 0.017414 -0.004836 0.038730 0.055651 0.024390
#
#
# Mechanical properties :
#
#
# Convention : Reuss Voigt Hill
#
# Bulk Modulus (GPa) = -431.94560 65.22936 -183.35812
# Shear Modulus (GPa) = 43.01862 29.92216 36.47039
#
# Velocity S-wave (km/s) = 4.43750 3.70089 4.08583
# Velocity P-wave (km/s) = 13.09444 6.93688 7.85315
#
# Compressibility (1/GPa) = -0.00231511
#
# Stress axis : x y z
#
# Youngs Moduli (GPa) = -393.77959 27.03767 76.68174
#
# Poissons Ratio (x) = 0.39217 0.10693
# Poissons Ratio (y) = -5.71157 0.69030
# Poissons Ratio (z) = -0.54910 0.24340
#
# Static dielectric constant tensor:
#      x y z
#    x 1.756760 0.013700 0.028800 
#    y 0.013700 1.789410 -0.015110 
#    z 0.028800 -0.015110 1.939270 
# 
# From -- ./inp_files/244532.got.cif
#   From: 2010.05.17/outbox.ucp.g08.bks.cvg/sg2_123_cif.got.tgz:244532.got - 2010.06.11 11:32:03.
