data_PCOD9074846
_publ_section_title
;
Structure prediction by ZEFSAII (Michael W. Deem and Ramdas Pophale) SiO2 
 PCOD9074846
Probable space group: P -1
;
_chemical_formula_sum "Si O2"
_cell_formula_units_Z 16
_cell_length_a 9.119602
_cell_length_b 9.504009
_cell_length_c 27.669121
_cell_angle_alpha 54.082048
_cell_angle_beta 141.494602
_cell_angle_gamma 96.169390
_cell_volume 866.682465
_symmetry_space_group_name_H-M "P -1"
_symmetry_group_IT_number 2
_symmetry_cell_setting 'triclinic'
loop_
_space_group_symop_operation_xyz
x,y,z
-x,-y,-z
loop_
_atom_site_type_symbol
_atom_site_label
_atom_site_fract_x
_atom_site_fract_y
_atom_site_fract_z
Si Si1 0.228319 0.760125 0.851185
Si Si2 0.691589 0.604851 0.787071
Si Si3 0.162411 0.104745 0.950701
Si Si4 0.545354 0.396147 0.868947
Si Si5 0.182564 0.375284 0.364357
Si Si6 0.897189 0.881373 0.180085
Si Si7 0.409859 0.104323 0.379359
Si Si8 0.806740 0.499752 0.992577
O O1 0.458068 0.746054 0.874467
O O2 0.947784 0.792644 0.746204
O O3 0.070937 0.967491 0.808543
O O4 0.500000 0.500000 0.000000
O O5 0.530121 0.566154 0.794044
O O6 0.485548 0.825315 0.651940
O O7 0.913825 0.356781 0.863633
O O8 0.931870 0.617438 0.873579
O O9 0.047203 0.133388 0.860071
O O10 0.235167 0.877700 0.037495
O O11 0.514554 0.020517 0.057579
O O12 0.700730 0.377566 0.963566
O O13 0.182899 0.511202 0.760497
O O14 0.376886 0.235439 0.393150
O O15 0.129749 0.605366 0.313603
O O16 0.353772 0.177199 0.490482
O O17 0.000000 0.500000 0.000000
#
# Coordination Sequence:
#
# PCOD9074846 Si02
#       8
#     2   2   2   2   2   2   2   2
#     4  12  20  34  59  85 105 142 176 224 281 321
#     4  11  20  35  54  84 108 142 176 227 273 323
#     4  10  18  32  52  85 110 135 171 226 277 323
#     4  10  21  34  56  79 112 142 177 220 278 324
#     4  10  22  39  53  79 106 151 185 225 262 316
#     4  10  20  32  56  80 113 136 179 227 268 321
#     4  11  22  36  58  76 110 144 192 221 261 323
#     4  10  20  33  51  83 113 135 171 219 275 322
#
# _framework density 18.461200000000002
#
# number of rings (size 3 to 8) (size 9 to 14) (size 15 to 20)
#    0.000    1.500    5.000    1.125    1.750    1.000 
#    0.000    0.000    0.000    0.000    0.000    2.625 
#    0.000    0.000    0.000    0.000    0.000    0.000 
#
# Total GULP energy -89160.730404 kJ/mol
# GULP energy per Si atom -5572.545650 kJ/mol
# Density = 1.841918 g / cm^3
# Si number density = 18.461200 Si / 1000 Ang^3
#
#
#
# Elastic Constant Matrix: (Units=GPa)
#
#
# Indices 1 2 3 4 5 6 
#
# 1 52.9916 9.6150 -2.5334 -5.4269 -16.2918 -5.5265
# 2 9.6150 76.8593 32.0266 -9.8962 -12.6705 -9.3968
# 3 -2.5334 32.0266 57.0581 -21.1949 -21.8452 1.2298
# 4 -5.4269 -9.8962 -21.1949 25.7910 5.2286 -0.4613
# 5 -16.2918 -12.6705 -21.8452 5.2286 28.0887 -1.1399
# 6 -5.5265 -9.3968 1.2298 -0.4613 -1.1399 27.0345
#
#
#
# Elastic Compliance Matrix: (Units=1/GPa)
#
#
# Indices 1 2 3 4 5 6 
#
# 1 0.033041 -0.005647 0.023077 0.017454 0.031533 0.005369
# 2 -0.005647 0.019185 -0.014932 -0.004964 -0.005071 0.005895
# 3 0.023077 -0.014932 0.058148 0.037817 0.044809 -0.000583
# 4 0.017454 -0.004964 0.037817 0.066594 0.024993 0.002312
# 5 0.031533 -0.005071 0.044809 0.024993 0.082066 0.006532
# 6 0.005369 0.005895 -0.000583 0.002312 0.006532 0.040478
#
#
# Mechanical properties :
#
#
# Convention : Reuss Voigt Hill
#
# Bulk Modulus (GPa) = 8.66777 29.45837 19.06307
# Shear Modulus (GPa) = 15.01636 26.03622 20.52629
#
# Velocity S-wave (km/s) = 2.85511 3.75950 3.33808
# Velocity P-wave (km/s) = 3.94642 5.90226 5.02050
#
# Compressibility (1/GPa) = 0.11536997
#
# Stress axis : x y z
#
# Youngs Moduli (GPa) = 30.26548 52.12495 17.19759
#
# Poissons Ratio (x) = 0.29437 -0.39688
# Poissons Ratio (y) = 0.17092 0.25679
# Poissons Ratio (z) = -0.69845 0.77831
#
# Static dielectric constant tensor:
#      x y z
#    x 1.702850 0.008300 -0.033700 
#    y 0.008300 1.649310 -0.008340 
#    z -0.033700 -0.008340 1.621230 
# 
# From -- ./inp_files/190088.got.cif
#   From: 2010.05.17/outbox.cif.g08.bks.cpg/sg2_96_cif.got.tgz:190088.got - 2010.06.03 11:33:40.
