data_PCOD9074562
_publ_section_title
;
Structure prediction by ZEFSAII (Michael W. Deem and Ramdas Pophale) SiO2 
 PCOD9074562
Probable space group: P -1
;
_chemical_formula_sum "Si O2"
_cell_formula_units_Z 16
_cell_length_a 12.000000
_cell_length_b 12.000000
_cell_length_c 12.000000
_cell_angle_alpha 110.000000
_cell_angle_beta 80.000000
_cell_angle_gamma 40.000000
_cell_volume 722.981415
_symmetry_space_group_name_H-M "P -1"
_symmetry_group_IT_number 2
_symmetry_cell_setting 'triclinic'
loop_
_space_group_symop_operation_xyz
x,y,z
-x,-y,-z
loop_
_atom_site_type_symbol
_atom_site_label
_atom_site_fract_x
_atom_site_fract_y
_atom_site_fract_z
Si Si1 0.412875 0.484193 0.730929
Si Si2 0.291251 0.778417 0.185859
Si Si3 0.678657 0.778246 0.987804
Si Si4 0.086856 0.647971 0.345181
Si Si5 0.212273 0.122648 0.298737
Si Si6 0.627991 0.217713 0.186424
Si Si7 0.983706 0.698154 0.844243
Si Si8 0.190520 0.930023 0.647319
O O1 0.620583 0.290123 0.725288
O O2 0.286798 0.730391 0.846056
O O3 0.231576 0.539856 0.780636
O O4 0.553060 0.357694 0.546082
O O5 0.281199 0.921405 0.195888
O O6 0.024751 0.967749 0.274675
O O7 0.500000 0.500000 0.000000
O O8 0.793808 0.556970 0.831575
O O9 0.907924 0.656190 0.918952
O O10 0.479847 0.940067 0.177046
O O11 0.500000 0.000000 0.000000
O O12 0.327027 0.488205 0.308489
O O13 0.919415 0.881131 0.366913
O O14 0.925259 0.746063 0.511508
O O15 0.033954 0.321391 0.291018
O O16 0.733126 0.095499 0.251737
O O17 0.760646 0.998180 0.010858
#
# Coordination Sequence:
#
# PCOD9074562 Si02
#       8
#     2   2   2   2   2   2   2   2
#     4  12  23  42  66 101 145 177 229 285 350 422
#     4  12  22  39  67 100 141 184 224 284 353 417
#     4  10  23  46  71  99 138 186 243 285 347 415
#     4  12  23  46  75 104 140 187 232 291 350 415
#     4  11  22  41  69 100 136 182 237 284 347 409
#     4  12  23  43  72 102 145 181 227 291 346 420
#     4  11  24  45  66 103 135 184 241 284 348 415
#     4  12  25  43  66 110 141 180 232 281 356 423
#
# _framework density 22.130583000000001
#
# number of rings (size 3 to 8) (size 9 to 14) (size 15 to 20)
#    0.000    0.500    5.000    5.625    0.000    2.000 
#    2.250    3.125    0.000    0.000    0.000    0.000 
#    0.000    0.000    0.000    0.000    0.000    0.000 
#
# Total GULP energy -89333.048640 kJ/mol
# GULP energy per Si atom -5583.315540 kJ/mol
# Density = 2.208021 g / cm^3
# Si number density = 22.130583 Si / 1000 Ang^3
#
#
#
# Elastic Constant Matrix: (Units=GPa)
#
#
# Indices 1 2 3 4 5 6 
#
# 1 107.5581 13.2034 27.7798 4.0930 -31.1548 -13.4153
# 2 13.2034 91.9811 8.7084 -22.5931 0.1400 -14.2570
# 3 27.7798 8.7084 37.1568 -3.7842 -16.7309 -9.1371
# 4 4.0930 -22.5931 -3.7842 33.2514 3.5734 8.0290
# 5 -31.1548 0.1400 -16.7309 3.5734 39.4785 -2.5079
# 6 -13.4153 -14.2570 -9.1371 8.0290 -2.5079 26.8946
#
#
#
# Elastic Compliance Matrix: (Units=1/GPa)
#
#
# Indices 1 2 3 4 5 6 
#
# 1 0.015307 -0.002282 -0.004560 -0.007114 0.011311 0.008055
# 2 -0.002282 0.014056 -0.001345 0.009339 -0.003089 0.002780
# 3 -0.004560 -0.001345 0.039899 -0.000210 0.014093 0.011945
# 4 -0.007114 0.009339 -0.000210 0.041253 -0.010229 -0.011939
# 5 0.011311 -0.003089 0.014093 -0.010229 0.042168 0.015778
# 6 0.008055 0.002780 0.011945 -0.011939 0.015778 0.051767
#
#
# Mechanical properties :
#
#
# Convention : Reuss Voigt Hill
#
# Bulk Modulus (GPa) = 18.90721 37.34212 28.12467
# Shear Modulus (GPa) = 20.96853 32.39185 26.68019
#
# Velocity S-wave (km/s) = 3.08147 3.82994 3.47591
# Velocity P-wave (km/s) = 4.60681 6.03888 5.37079
#
# Compressibility (1/GPa) = 0.05288986
#
# Stress axis : x y z
#
# Youngs Moduli (GPa) = 65.33109 71.14309 25.06320
#
# Poissons Ratio (x) = 0.16231 0.11429
# Poissons Ratio (y) = 0.14905 0.03370
# Poissons Ratio (z) = 0.29791 0.09566
#
# Static dielectric constant tensor:
#      x y z
#    x 1.930170 0.050770 0.064740 
#    y 0.050770 1.849430 0.011350 
#    z 0.064740 0.011350 1.911860 
# 
# From -- ./inp_files/333922.got.cif
#   From: 2010.05.17/outbox.ucp.g08.bks.cvg/sg2_167_cif.got.tgz:333922.got - 2010.06.11 11:32:03.
