data_PCOD9074691
_publ_section_title
;
Structure prediction by ZEFSAII (Michael W. Deem and Ramdas Pophale) SiO2 
 PCOD9074691
Probable space group: P -1
;
_chemical_formula_sum "Si O2"
_cell_formula_units_Z 16
_cell_length_a 12.000000
_cell_length_b 12.000000
_cell_length_c 12.000000
_cell_angle_alpha 120.000000
_cell_angle_beta 80.000000
_cell_angle_gamma 50.000000
_cell_volume 763.164900
_symmetry_space_group_name_H-M "P -1"
_symmetry_group_IT_number 2
_symmetry_cell_setting 'triclinic'
loop_
_space_group_symop_operation_xyz
x,y,z
-x,-y,-z
loop_
_atom_site_type_symbol
_atom_site_label
_atom_site_fract_x
_atom_site_fract_y
_atom_site_fract_z
Si Si1 0.098138 0.099189 0.758150
Si Si2 0.793132 0.268846 0.312621
Si Si3 0.884774 0.675865 0.965773
Si Si4 0.339397 0.558876 0.124122
Si Si5 0.824681 0.891924 0.864796
Si Si6 0.301562 0.092513 0.559992
Si Si7 0.500821 0.579480 0.728134
Si Si8 0.448598 0.925886 0.198579
O O1 0.057414 0.262795 0.928513
O O2 0.282509 0.979613 0.581433
O O3 0.901719 0.228952 0.781575
O O4 0.153421 0.926047 0.744661
O O5 0.640112 0.471452 0.539220
O O6 0.670057 0.362037 0.262023
O O7 0.989788 0.179806 0.225752
O O8 0.646266 0.840669 0.114560
O O9 0.889092 0.732684 0.871036
O O10 0.077446 0.382989 0.779394
O O11 0.358458 0.582975 0.264073
O O12 0.500000 0.500000 0.000000
O O13 0.438313 0.321016 0.968457
O O14 0.736600 0.895259 0.776522
O O15 0.630649 0.166584 0.086943
O O16 0.500000 0.000000 0.500000
O O17 0.332399 0.036060 0.394687
#
# Coordination Sequence:
#
# PCOD9074691 Si02
#       8
#     2   2   2   2   2   2   2   2
#     4  12  24  44  71 101 141 180 231 289 339 410
#     4  11  25  44  71 102 135 184 232 284 348 412
#     4  12  25  46  71  99 140 186 229 289 341 408
#     4  11  25  43  71 100 142 181 224 287 351 406
#     4  11  25  44  74  97 140 180 232 285 348 411
#     4  12  26  44  70 101 138 186 233 281 344 417
#     4  10  24  45  65 101 140 174 229 283 346 408
#     4  11  25  46  65 105 139 178 235 280 350 410
#
# _framework density 20.965325
#
# number of rings (size 3 to 8) (size 9 to 14) (size 15 to 20)
#    0.000    0.750    3.750    3.375    5.250    4.000 
#    0.000    0.000    0.000    0.000    0.000    0.000 
#    0.000    0.000    0.000    0.000    0.000    0.000 
#
# Total GULP energy -89288.626240 kJ/mol
# GULP energy per Si atom -5580.539140 kJ/mol
# Density = 2.091761 g / cm^3
# Si number density = 20.965325 Si / 1000 Ang^3
#
#
#
# Elastic Constant Matrix: (Units=GPa)
#
#
# Indices 1 2 3 4 5 6 
#
# 1 162.5106 58.8585 28.5192 -12.5609 -17.8165 -13.3109
# 2 58.8585 113.2589 22.3252 -25.5937 -9.7974 -24.8556
# 3 28.5192 22.3252 78.0510 -18.6818 1.3116 -9.8571
# 4 -12.5609 -25.5937 -18.6818 33.7536 -6.4140 6.8657
# 5 -17.8165 -9.7974 1.3116 -6.4140 30.0846 -19.4930
# 6 -13.3109 -24.8556 -9.8571 6.8657 -19.4930 51.4344
#
#
#
# Elastic Compliance Matrix: (Units=1/GPa)
#
#
# Indices 1 2 3 4 5 6 
#
# 1 0.008412 -0.002748 -0.001908 0.000591 0.006042 0.002694
# 2 -0.002748 0.016343 0.000289 0.011857 0.013092 0.010621
# 3 -0.001908 0.000289 0.015570 0.007957 0.001323 0.002069
# 4 0.000591 0.011857 0.007957 0.045112 0.019061 0.008610
# 5 0.006042 0.013092 0.001323 0.019061 0.064571 0.030071
# 6 0.002694 0.010621 0.002069 0.008610 0.030071 0.035916
#
#
# Mechanical properties :
#
#
# Convention : Reuss Voigt Hill
#
# Bulk Modulus (GPa) = 31.65379 63.69183 47.67281
# Shear Modulus (GPa) = 24.36772 39.32903 31.84837
#
# Velocity S-wave (km/s) = 3.41293 4.33587 3.90179
# Velocity P-wave (km/s) = 5.53730 7.45064 6.56406
#
# Compressibility (1/GPa) = 0.03159179
#
# Stress axis : x y z
#
# Youngs Moduli (GPa) = 118.87367 61.18701 64.22530
#
# Poissons Ratio (x) = 0.16816 0.12251
# Poissons Ratio (y) = 0.32670 -0.01855
# Poissons Ratio (z) = 0.22675 -0.01767
#
# Static dielectric constant tensor:
#      x y z
#    x 1.731780 -0.032260 -0.014980 
#    y -0.032260 1.860160 0.046430 
#    z -0.014980 0.046430 1.774460 
# 
# From -- ./inp_files/428721.got.cif
#   From: 2010.05.17/outbox.ucp.g08.bks.cvg/sg2_215_cif.got.tgz:428721.got - 2010.06.11 11:32:03.
