data_PCOD9074265
_publ_section_title
;
Structure prediction by ZEFSAII (Michael W. Deem and Ramdas Pophale) SiO2 
 PCOD9074265
Probable space group: P -1
;
_chemical_formula_sum "Si O2"
_cell_formula_units_Z 16
_cell_length_a 9.000000
_cell_length_b 27.000000
_cell_length_c 6.000000
_cell_angle_alpha 90.000000
_cell_angle_beta 90.000000
_cell_angle_gamma 150.000000
_cell_volume 729.000000
_symmetry_space_group_name_H-M "P -1"
_symmetry_group_IT_number 2
_symmetry_cell_setting 'triclinic'
loop_
_space_group_symop_operation_xyz
x,y,z
-x,-y,-z
loop_
_atom_site_type_symbol
_atom_site_label
_atom_site_fract_x
_atom_site_fract_y
_atom_site_fract_z
Si Si1 0.239073 0.320776 0.156707
Si Si2 0.592268 0.238173 0.640206
Si Si3 0.843896 0.141560 0.842988
Si Si4 0.408668 0.299303 0.544619
Si Si5 0.377503 0.137536 0.148832
Si Si6 0.832187 0.595071 0.596951
Si Si7 0.229735 0.989931 0.958202
Si Si8 0.797807 0.480540 0.851261
O O1 0.373376 0.313995 0.303600
O O2 0.140825 0.343885 0.274506
O O3 0.511779 0.413359 0.996536
O O4 0.970192 0.216432 0.027247
O O5 0.478513 0.261820 0.595540
O O6 0.509046 0.186360 0.400163
O O7 0.947412 0.341596 0.614801
O O8 0.504579 0.192754 0.894426
O O9 0.084148 0.214772 0.650130
O O10 0.829835 0.080331 0.925268
O O11 0.508194 0.061047 0.795128
O O12 0.661621 0.405725 0.660661
O O13 0.317499 0.061486 0.118272
O O14 0.067066 0.077429 0.158910
O O15 0.500000 0.500000 0.500000
O O16 0.902688 0.564154 0.740689
O O17 0.000000 0.500000 0.000000
#
# Coordination Sequence:
#
# PCOD9074265 Si02
#       8
#     2   2   2   2   2   2   2   2
#     4  11  24  44  71 100 151 186 246 306 373 441
#     4  12  28  47  75 103 155 194 247 308 382 442
#     4  10  22  45  67 108 137 193 237 308 373 440
#     4  11  24  44  69 103 147 194 243 306 376 445
#     4  11  26  49  71 110 144 197 244 310 376 444
#     4  12  27  46  72 110 143 198 251 314 365 448
#     4  10  22  44  75 100 146 183 253 302 367 455
#     4  11  26  45  74 104 144 194 253 306 373 449
#
# _framework density 21.947873999999999
#
# number of rings (size 3 to 8) (size 9 to 14) (size 15 to 20)
#    0.000    1.000    2.500    2.625    7.000    4.000 
#    4.500    1.875    0.000    0.000    0.000    0.000 
#    0.000    0.000    0.000    0.000    0.000    0.000 
#
# Total GULP energy -89238.610947 kJ/mol
# GULP energy per Si atom -5577.413184 kJ/mol
# Density = 2.189792 g / cm^3
# Si number density = 21.947874 Si / 1000 Ang^3
#
#
#
# Elastic Constant Matrix: (Units=GPa)
#
#
# Indices 1 2 3 4 5 6 
#
# 1 104.7505 33.5867 -3.2215 -1.7264 -9.3079 -9.1274
# 2 33.5867 97.6908 33.8659 -13.5494 -5.4636 5.0636
# 3 -3.2215 33.8659 73.4416 -3.3855 -0.2393 -1.4105
# 4 -1.7264 -13.5494 -3.3855 17.8678 -2.8603 0.8275
# 5 -9.3079 -5.4636 -0.2393 -2.8603 30.2108 -0.1238
# 6 -9.1274 5.0636 -1.4105 0.8275 -0.1238 67.9775
#
#
#
# Elastic Compliance Matrix: (Units=1/GPa)
#
#
# Indices 1 2 3 4 5 6 
#
# 1 0.011693 -0.005271 0.002898 -0.002015 0.002490 0.002052
# 2 -0.005271 0.016343 -0.007297 0.010972 0.002304 -0.002206
# 3 0.002898 -0.007297 0.017032 -0.002165 -0.000491 0.001312
# 4 -0.002015 0.010972 -0.002165 0.064970 0.007490 -0.001910
# 5 0.002490 0.002304 -0.000491 0.007490 0.034990 0.000125
# 6 0.002052 -0.002206 0.001312 -0.001910 0.000125 0.015201
#
#
# Mechanical properties :
#
#
# Convention : Reuss Voigt Hill
#
# Bulk Modulus (GPa) = 38.86751 44.92723 41.89737
# Shear Modulus (GPa) = 26.57542 37.32134 31.94838
#
# Velocity S-wave (km/s) = 3.48349 4.12813 3.81943
# Velocity P-wave (km/s) = 5.82469 6.57543 6.21142
#
# Compressibility (1/GPa) = 0.02572843
#
# Stress axis : x y z
#
# Youngs Moduli (GPa) = 85.52426 61.18789 58.71375
#
# Poissons Ratio (x) = 0.32254 -0.17017
# Poissons Ratio (y) = 0.45082 0.42841
# Poissons Ratio (z) = -0.24787 0.44646
#
# Static dielectric constant tensor:
#      x y z
#    x 1.797230 0.016840 -0.008850 
#    y 0.016840 1.862870 0.010820 
#    z -0.008850 0.010820 1.836620 
# 
# From -- ./inp_files/38733.got.cif
#   From: 2010.05.17/outbox.ucp.g08.bks.cvg/sg2_20_cif.got.tgz:38733.got - 2010.06.11 11:32:03.
