data_PCOD9074918
_publ_section_title
;
Structure prediction by ZEFSAII (Michael W. Deem and Ramdas Pophale) SiO2 
 PCOD9074918
Probable space group: P -1
;
_chemical_formula_sum "Si O2"
_cell_formula_units_Z 16
_cell_length_a 15.000000
_cell_length_b 12.000000
_cell_length_c 9.000000
_cell_angle_alpha 110.000000
_cell_angle_beta 30.000000
_cell_angle_gamma 110.000000
_cell_volume 757.522634
_symmetry_space_group_name_H-M "P -1"
_symmetry_group_IT_number 2
_symmetry_cell_setting 'triclinic'
loop_
_space_group_symop_operation_xyz
x,y,z
-x,-y,-z
loop_
_atom_site_type_symbol
_atom_site_label
_atom_site_fract_x
_atom_site_fract_y
_atom_site_fract_z
Si Si1 0.488003 0.362974 0.603666
Si Si2 0.881071 0.789380 0.442121
Si Si3 0.240735 0.795868 0.736200
Si Si4 0.438707 0.373154 0.324372
Si Si5 0.189755 0.049205 0.823435
Si Si6 0.866819 0.727573 0.783325
Si Si7 0.232532 0.726247 0.373307
Si Si8 0.701277 0.994595 0.659075
O O1 0.592068 0.252735 0.449783
O O2 0.465955 0.355589 0.454183
O O3 0.589553 0.486897 0.570246
O O4 0.303938 0.357723 0.958029
O O5 0.730945 0.702982 0.535447
O O6 0.879751 0.758869 0.604732
O O7 0.822243 0.922850 0.560415
O O8 0.066307 0.774974 0.082954
O O9 0.227511 0.733144 0.563484
O O10 0.265658 0.937380 0.739911
O O11 0.605469 0.333747 0.966754
O O12 0.302715 0.076552 0.523986
O O13 0.161098 0.154642 0.023893
O O14 0.000000 0.000000 0.000000
O O15 0.044032 0.672115 0.556318
O O16 0.235485 0.866212 0.387703
O O17 0.500000 0.000000 0.000000
#
# Coordination Sequence:
#
# PCOD9074918 Si02
#       8
#     2   2   2   2   2   2   2   2
#     4  11  27  45  67  96 125 173 226 272 322 382
#     4  12  24  41  68  97 135 174 213 268 324 389
#     4  11  23  43  68  98 133 173 213 270 321 386
#     4  11  25  47  68  92 129 171 224 276 323 379
#     4  11  21  43  65  96 135 171 211 263 319 390
#     4  12  25  41  66 101 132 172 216 262 327 389
#     4  11  22  41  70  96 133 171 214 268 326 384
#     4  11  21  38  66  98 129 175 208 264 329 381
#
# _framework density 21.121480999999999
#
# number of rings (size 3 to 8) (size 9 to 14) (size 15 to 20)
#    0.000    0.750    5.000    3.000    1.750    6.500 
#    0.000    0.000    0.000    0.000    0.000    0.000 
#    0.000    0.000    0.000    0.000    0.000    0.000 
#
# Total GULP energy -89381.306569 kJ/mol
# GULP energy per Si atom -5586.331661 kJ/mol
# Density = 2.107341 g / cm^3
# Si number density = 21.121481 Si / 1000 Ang^3
#
#
#
# Elastic Constant Matrix: (Units=GPa)
#
#
# Indices 1 2 3 4 5 6 
#
# 1 31.1661 -32.6502 -15.7207 -16.5993 23.3553 13.0446
# 2 -32.6502 19.1783 -50.4200 -5.5166 2.6214 16.3661
# 3 -15.7207 -50.4200 96.7315 -26.1980 22.9753 12.8563
# 4 -16.5993 -5.5166 -26.1980 11.1626 6.8472 6.7909
# 5 23.3553 2.6214 22.9753 6.8472 47.2260 4.5764
# 6 13.0446 16.3661 12.8563 6.7909 4.5764 19.8190
#
#
#
# Elastic Compliance Matrix: (Units=1/GPa)
#
#
# Indices 1 2 3 4 5 6 
#
# 1 0.010676 -0.009587 -0.006749 -0.009426 -0.000942 0.008715
# 2 -0.009587 0.013559 -0.003942 -0.024890 0.009118 0.004094
# 3 -0.006749 -0.003942 0.005132 -0.003938 0.001101 0.005463
# 4 -0.009426 -0.024890 -0.003938 0.045722 0.000007 0.013643
# 5 -0.000942 0.009118 0.001101 0.000007 0.021825 -0.012666
# 6 0.008715 0.004094 0.005463 0.013643 -0.012666 0.036046
#
#
# Mechanical properties :
#
#
# Convention : Reuss Voigt Hill
#
# Bulk Modulus (GPa) = -89.37933 -5.61177 -47.49555
# Shear Modulus (GPa) = 29.44849 32.03263 30.74056
#
# Velocity S-wave (km/s) = 3.73801 3.89857 3.81913
# Velocity P-wave (km/s) = 4.87631 4.19553 1.75726
#
# Compressibility (1/GPa) = -0.01118827
#
# Stress axis : x y z
#
# Youngs Moduli (GPa) = 93.66376 73.75346 194.83706
#
# Poissons Ratio (x) = 0.70708 1.31500
# Poissons Ratio (y) = 0.89796 0.76798
# Poissons Ratio (z) = 0.63216 0.29071
#
# Static dielectric constant tensor:
#      x y z
#    x 1.770670 0.047360 -0.007900 
#    y 0.047360 1.913470 -0.087870 
#    z -0.007900 -0.087870 1.688030 
# 
# From -- ./inp_files/221663.got.cif
#   From: 2010.05.17/outbox.ucp.g08.bks.cvg/sg2_111_cif.got.tgz:221663.got - 2010.06.11 11:32:03.
