data_PCOD9074719
_publ_section_title
;
Structure prediction by ZEFSAII (Michael W. Deem and Ramdas Pophale) SiO2 
 PCOD9074719
Probable space group: P -1
;
_chemical_formula_sum "Si O2"
_cell_formula_units_Z 16
_cell_length_a 13.912682
_cell_length_b 13.317678
_cell_length_c 6.975794
_cell_angle_alpha 72.947339
_cell_angle_beta 75.688733
_cell_angle_gamma 31.731499
_cell_volume 649.887932
_symmetry_space_group_name_H-M "P -1"
_symmetry_group_IT_number 2
_symmetry_cell_setting 'triclinic'
loop_
_space_group_symop_operation_xyz
x,y,z
-x,-y,-z
loop_
_atom_site_type_symbol
_atom_site_label
_atom_site_fract_x
_atom_site_fract_y
_atom_site_fract_z
Si Si1 0.140860 0.910538 0.649170
Si Si2 0.271667 0.568197 0.915245
Si Si3 0.027945 0.607564 0.130987
Si Si4 0.590286 0.314657 0.651218
Si Si5 0.189295 0.709275 0.267795
Si Si6 0.264001 0.193518 0.299052
Si Si7 0.679757 0.804596 0.277048
Si Si8 0.913005 0.394395 0.443596
O O1 0.215709 0.736438 0.796073
O O2 0.299040 0.831362 0.499820
O O3 0.000000 0.000000 0.500000
O O4 0.027802 0.076443 0.768449
O O5 0.446890 0.380073 0.812042
O O6 0.106673 0.632585 0.953068
O O7 0.306037 0.549452 0.136456
O O8 0.159384 0.389838 0.162304
O O9 0.053816 0.614691 0.339020
O O10 0.817215 0.762140 0.124528
O O11 0.500000 0.500000 0.500000
O O12 0.728359 0.249287 0.765089
O O13 0.178891 0.638733 0.493316
O O14 0.297774 0.186061 0.513718
O O15 0.111684 0.237615 0.342954
O O16 0.465914 0.996213 0.227877
O O17 0.773807 0.607186 0.324111
#
# Coordination Sequence:
#
# PCOD9074719 Si02
#       8
#     2   2   2   2   2   2   2   2
#     4   9  19  35  51  68 101 140 176 203 256 326
#     4  10  18  32  52  78 104 131 172 226 263 290
#     4   8  15  26  43  70 103 132 164 209 262 307
#     4   9  19  35  51  68 101 140 176 203 256 326
#     4  10  18  32  52  78 104 131 172 226 263 290
#     4   8  13  25  42  65 101 137 161 198 259 321
#     4   8  13  25  42  65 101 137 162 197 259 322
#     4   8  15  26  43  70 103 132 164 209 262 307
#
# _framework density 24.619629
#
# number of rings (size 3 to 8) (size 9 to 14) (size 15 to 20)
#    0.000    3.250    0.000    2.250    0.000    0.000 
#    9.000    0.000    0.000    0.000    0.000   35.000 
#    0.000    0.000    0.000    0.000    0.000    0.000 
#
# Total GULP energy -89287.561160 kJ/mol
# GULP energy per Si atom -5580.472573 kJ/mol
# Density = 2.456359 g / cm^3
# Si number density = 24.619629 Si / 1000 Ang^3
#
#
#
# Elastic Constant Matrix: (Units=GPa)
#
#
# Indices 1 2 3 4 5 6 
#
# 1 86.4160 37.8882 35.2288 20.3801 -17.4121 -14.7241
# 2 37.8882 139.2545 46.7105 33.2543 -27.4611 -32.5680
# 3 35.2288 46.7105 109.5727 36.9737 -33.9283 -18.1444
# 4 20.3801 33.2543 36.9737 35.4589 -8.9245 -12.7541
# 5 -17.4121 -27.4611 -33.9283 -8.9245 48.4800 7.5088
# 6 -14.7241 -32.5680 -18.1444 -12.7541 7.5088 30.0834
#
#
#
# Elastic Compliance Matrix: (Units=1/GPa)
#
#
# Indices 1 2 3 4 5 6 
#
# 1 0.014677 -0.001538 -0.001733 -0.003815 0.002125 0.002325
# 2 -0.001538 0.011782 0.000192 -0.006367 0.003770 0.008477
# 3 -0.001733 0.000192 0.017552 -0.014724 0.008827 0.001500
# 4 -0.003815 -0.006367 -0.014724 0.052274 -0.006615 0.006172
# 5 0.002125 0.003770 0.008827 -0.006615 0.028400 0.000553
# 6 0.002325 0.008477 0.001500 0.006172 0.000553 0.046940
#
#
# Mechanical properties :
#
#
# Convention : Reuss Voigt Hill
#
# Bulk Modulus (GPa) = 26.41842 63.87756 45.14799
# Shear Modulus (GPa) = 26.26047 37.16552 31.71299
#
# Velocity S-wave (km/s) = 3.26950 3.88956 3.59293
# Velocity P-wave (km/s) = 5.00068 6.79512 5.96575
#
# Compressibility (1/GPa) = 0.03785238
#
# Stress axis : x y z
#
# Youngs Moduli (GPa) = 68.13494 84.87597 56.97418
#
# Poissons Ratio (x) = 0.13055 0.09871
# Poissons Ratio (y) = 0.10480 -0.01092
# Poissons Ratio (z) = 0.11805 -0.01627
#
# Static dielectric constant tensor:
#      x y z
#    x 2.074230 -0.018530 0.083700 
#    y -0.018530 1.980480 0.031990 
#    z 0.083700 0.031990 2.029580 
# 
# From -- ./inp_files/314780.got.cif
#   From: 2010.05.17/outbox.cif.g08.bks.cpg/sg2_158_cif.got.tgz:314780.got - 2010.06.03 11:33:40.
