data_PCOD9074003
_publ_section_title
;
Structure prediction by ZEFSAII (Michael W. Deem and Ramdas Pophale) SiO2 
 PCOD9074003
Probable space group: P -1
;
_chemical_formula_sum "Si O2"
_cell_formula_units_Z 16
_cell_length_a 15.000000
_cell_length_b 18.000000
_cell_length_c 27.000000
_cell_angle_alpha 160.000000
_cell_angle_beta 160.000000
_cell_angle_gamma 20.000000
_cell_volume 746.015535
_symmetry_space_group_name_H-M "P -1"
_symmetry_group_IT_number 2
_symmetry_cell_setting 'triclinic'
loop_
_space_group_symop_operation_xyz
x,y,z
-x,-y,-z
loop_
_atom_site_type_symbol
_atom_site_label
_atom_site_fract_x
_atom_site_fract_y
_atom_site_fract_z
Si Si1 0.342747 0.065368 0.533921
Si Si2 0.652289 0.073555 0.043513
Si Si3 0.381729 0.829454 0.023679
Si Si4 0.694901 0.642430 0.692629
Si Si5 0.967052 0.279373 0.814254
Si Si6 0.942214 0.543882 0.872083
Si Si7 0.727759 0.499011 0.160069
Si Si8 0.030905 0.268133 0.400397
O O1 0.368179 0.239250 0.698635
O O2 0.106506 0.251444 0.487071
O O3 0.215315 0.867880 0.356539
O O4 0.666192 0.945260 0.600774
O O5 0.721535 0.262573 0.228319
O O6 0.765132 0.094760 0.060284
O O7 0.326097 0.097507 0.883849
O O8 0.848096 0.817184 0.013541
O O9 0.705174 0.598423 0.039212
O O10 0.442004 0.065088 0.211619
O O11 0.234421 0.722758 0.920139
O O12 0.500000 0.500000 0.500000
O O13 0.801446 0.596463 0.776833
O O14 0.980558 0.538088 0.740564
O O15 0.859028 0.394545 0.774980
O O16 0.000000 0.500000 0.000000
O O17 0.500000 0.500000 0.000000
O O18 0.000000 0.500000 0.500000
#
# Coordination Sequence:
#
# PCOD9074003 Si02
#       8
#     2   2   2   2   2   2   2   2
#     4  11  27  43  68 104 142 175 232 288 343 411
#     4  10  22  40  71  93 133 174 226 277 349 414
#     4  10  22  44  68  96 131 181 230 276 346 411
#     4  11  26  44  69  99 134 178 234 290 345 403
#     4  11  24  43  67 103 138 177 226 288 352 415
#     4  10  22  42  66  92 133 176 222 275 350 398
#     4  12  25  46  70  99 142 187 234 285 342 413
#     4  11  23  45  68  98 137 177 223 286 346 414
#
# _framework density 21.447275000000001
#
# number of rings (size 3 to 8) (size 9 to 14) (size 15 to 20)
#    0.000    1.250    1.250    3.375    7.000    8.500 
#    4.500    0.000    0.000    0.000    0.000    0.000 
#    0.000    0.000    0.000    0.000    0.000    0.000 
#
# Total GULP energy -89074.298644 kJ/mol
# GULP energy per Si atom -5567.143665 kJ/mol
# Density = 2.139846 g / cm^3
# Si number density = 21.447275 Si / 1000 Ang^3
#
#
#
# Elastic Constant Matrix: (Units=GPa)
#
#
# Indices 1 2 3 4 5 6 
#
# 1 95.7445 16.6510 26.3944 2.3365 15.7524 14.7400
# 2 16.6510 72.1417 16.5097 15.2746 3.1575 12.7407
# 3 26.3944 16.5097 125.9255 3.5896 15.8123 5.5412
# 4 2.3365 15.2746 3.5896 29.8428 -0.5390 3.1326
# 5 15.7524 3.1575 15.8123 -0.5390 44.6199 3.2344
# 6 14.7400 12.7407 5.5412 3.1326 3.2344 41.5561
#
#
#
# Elastic Compliance Matrix: (Units=1/GPa)
#
#
# Indices 1 2 3 4 5 6 
#
# 1 0.012303 -0.001789 -0.001791 0.000460 -0.003333 -0.003352
# 2 -0.001789 0.016959 -0.001472 -0.007964 0.000131 -0.003779
# 3 -0.001791 -0.001472 0.008812 -0.000222 -0.002397 0.000115
# 4 0.000460 -0.007964 -0.000222 0.037657 0.000979 -0.000607
# 5 -0.003333 0.000131 -0.002397 0.000979 0.024478 -0.000517
# 6 -0.003352 -0.003779 0.000115 -0.000607 -0.000517 0.026482
#
#
# Mechanical properties :
#
#
# Convention : Reuss Voigt Hill
#
# Bulk Modulus (GPa) = 35.75271 45.88021 40.81646
# Shear Modulus (GPa) = 34.21897 38.82085 36.51991
#
# Velocity S-wave (km/s) = 3.99869 4.25910 4.13095
# Velocity P-wave (km/s) = 6.16649 6.75463 6.46725
#
# Compressibility (1/GPa) = 0.02796990
#
# Stress axis : x y z
#
# Youngs Moduli (GPa) = 81.28376 58.96503 113.48348
#
# Poissons Ratio (x) = 0.10550 0.20326
# Poissons Ratio (y) = 0.14543 0.16700
# Poissons Ratio (z) = 0.14559 0.08677
#
# Static dielectric constant tensor:
#      x y z
#    x 1.832590 -0.082030 -0.062420 
#    y -0.082030 1.981290 0.058380 
#    z -0.062420 0.058380 1.792550 
# 
# From -- ./inp_files/85040.got.cif
#   From: 2010.05.17/outbox.ucp.g08.bks.cvg/sg2_43_cif.got.tgz:85040.got - 2010.06.11 11:32:03.
