data_PCOD9074644
_publ_section_title
;
Structure prediction by ZEFSAII (Michael W. Deem and Ramdas Pophale) SiO2 
 PCOD9074644
Probable space group: P -1
;
_chemical_formula_sum "Si O2"
_cell_formula_units_Z 16
_cell_length_a 12.052903
_cell_length_b 9.605719
_cell_length_c 21.028744
_cell_angle_alpha 50.497602
_cell_angle_beta 24.557809
_cell_angle_gamma 62.209599
_cell_volume 731.286059
_symmetry_space_group_name_H-M "P -1"
_symmetry_group_IT_number 2
_symmetry_cell_setting 'triclinic'
loop_
_space_group_symop_operation_xyz
x,y,z
-x,-y,-z
loop_
_atom_site_type_symbol
_atom_site_label
_atom_site_fract_x
_atom_site_fract_y
_atom_site_fract_z
Si Si1 0.109840 0.503740 0.147756
Si Si2 0.666001 0.685101 0.315527
Si Si3 0.540253 0.026595 0.047021
Si Si4 0.042368 0.691484 0.841309
Si Si5 0.515762 0.540117 0.641807
Si Si6 0.802528 0.909788 0.295789
Si Si7 0.378858 0.610454 0.246879
Si Si8 0.674872 0.457237 0.845993
O O1 0.089058 0.463918 0.245553
O O2 0.978224 0.666637 0.153701
O O3 0.957579 0.328309 0.230021
O O4 0.443104 0.560110 0.941985
O O5 0.500000 0.500000 0.500000
O O6 0.536175 0.641683 0.325578
O O7 0.683923 0.862510 0.299668
O O8 0.506747 0.230849 0.018123
O O9 0.863697 0.061992 0.887741
O O10 0.500000 0.000000 0.000000
O O11 0.357779 0.810408 0.226079
O O12 0.204079 0.548022 0.819372
O O13 0.214905 0.898450 0.720161
O O14 0.714072 0.649673 0.043441
O O15 0.663841 0.729113 0.467324
O O16 0.681258 0.534683 0.621230
O O17 0.229889 0.544626 0.275677
#
# Coordination Sequence:
#
# PCOD9074644 Si02
#       8
#     2   2   2   2   2   2   2   2
#     4   9  16  29  52  77  90 127 176 206 239 288
#     4   9  18  31  51  74 101 131 166 202 245 304
#     4   9  17  31  50  72  98 127 167 212 242 292
#     4   9  18  31  51  76  99 133 168 209 245 300
#     4  10  19  32  51  75 106 133 165 207 252 305
#     4  10  18  32  52  75  97 134 174 201 249 299
#     4   9  18  31  50  77 105 129 164 212 261 285
#     4   9  16  29  52  73  97 129 171 210 240 296
#
# _framework density 21.879263000000002
#
# number of rings (size 3 to 8) (size 9 to 14) (size 15 to 20)
#    0.000    2.750    1.250    1.500    0.000    0.000 
#    0.000    5.000    8.250    0.750    0.000    0.000 
#    0.000    0.000    0.000    0.000    0.000    0.000 
#
# Total GULP energy -89095.269954 kJ/mol
# GULP energy per Si atom -5568.454372 kJ/mol
# Density = 2.182946 g / cm^3
# Si number density = 21.879263 Si / 1000 Ang^3
#
#
#
# Elastic Constant Matrix: (Units=GPa)
#
#
# Indices 1 2 3 4 5 6 
#
# 1 145.6881 46.0364 6.6333 -9.1280 21.2915 39.3694
# 2 46.0364 69.6227 11.0928 6.3245 13.6962 32.6399
# 3 6.6333 11.0928 43.4297 14.0443 1.9791 5.9971
# 4 -9.1280 6.3245 14.0443 12.9748 -0.9434 -3.2371
# 5 21.2915 13.6962 1.9791 -0.9434 18.4343 1.4061
# 6 39.3694 32.6399 5.9971 -3.2371 1.4061 44.7803
#
#
#
# Elastic Compliance Matrix: (Units=1/GPa)
#
#
# Indices 1 2 3 4 5 6 
#
# 1 0.012012 -0.003498 -0.003287 0.011392 -0.009847 -0.006437
# 2 -0.003498 0.035122 0.007749 -0.035975 -0.022786 -0.025448
# 3 -0.003287 0.007749 0.041067 -0.054112 -0.008231 -0.011911
# 4 0.011392 -0.035975 -0.054112 0.171799 0.025498 0.035072
# 5 -0.009847 -0.022786 -0.008231 0.025498 0.082785 0.025612
# 6 -0.006437 -0.025448 -0.011911 0.035072 0.025612 0.049865
#
#
# Mechanical properties :
#
#
# Convention : Reuss Voigt Hill
#
# Bulk Modulus (GPa) = 11.09530 42.91839 27.00685
# Shear Modulus (GPa) = 11.88310 28.23641 20.05976
#
# Velocity S-wave (km/s) = 2.33303 3.59633 3.03122
# Velocity P-wave (km/s) = 3.51276 6.07481 4.96200
#
# Compressibility (1/GPa) = 0.09012821
#
# Stress axis : x y z
#
# Youngs Moduli (GPa) = 83.25336 28.47195 24.35038
#
# Poissons Ratio (x) = 0.09961 0.08005
# Poissons Ratio (y) = 0.29126 -0.18870
# Poissons Ratio (z) = 0.27368 -0.22064
#
# Static dielectric constant tensor:
#      x y z
#    x 1.838130 0.014810 -0.003880 
#    y 0.014810 1.847670 0.028380 
#    z -0.003880 0.028380 1.872610 
# 
# From -- ./inp_files/594427.got.cif
#   From: 2010.05.17/outbox.cif.g08.bks.cpg/sg2_298_cif.got.tgz:594427.got - 2010.06.03 11:33:40.
