data_PCOD9074107
_publ_section_title
;
Structure prediction by ZEFSAII (Michael W. Deem and Ramdas Pophale) SiO2 
 PCOD9074107
Probable space group: P -1
;
_chemical_formula_sum "Si O2"
_cell_formula_units_Z 14
_cell_length_a 15.000000
_cell_length_b 30.000000
_cell_length_c 12.000000
_cell_angle_alpha 160.000000
_cell_angle_beta 30.000000
_cell_angle_gamma 160.000000
_cell_volume 624.976433
_symmetry_space_group_name_H-M "P -1"
_symmetry_group_IT_number 2
_symmetry_cell_setting 'triclinic'
loop_
_space_group_symop_operation_xyz
x,y,z
-x,-y,-z
loop_
_atom_site_type_symbol
_atom_site_label
_atom_site_fract_x
_atom_site_fract_y
_atom_site_fract_z
Si Si1 0.289407 0.647353 0.582739
Si Si2 0.354050 0.575016 0.738552
Si Si3 0.466223 0.041015 0.292788
Si Si4 0.612989 0.753978 0.277163
Si Si5 0.777306 0.580577 0.249968
Si Si6 0.348707 0.012310 0.607761
Si Si7 0.934473 0.660158 0.708453
O O1 0.520713 0.718193 0.419811
O O2 0.236786 0.520133 0.443759
O O3 0.000000 0.500000 0.500000
O O4 0.360032 0.838599 0.957008
O O5 0.537485 0.548152 0.459830
O O6 0.214860 0.497138 0.826839
O O7 0.125814 0.439319 0.577514
O O8 0.563505 0.798367 0.003481
O O9 0.315084 0.071245 0.453797
O O10 0.456552 0.080425 0.524599
O O11 0.748689 0.177068 0.244375
O O12 0.340506 0.566740 0.069146
O O13 0.825772 0.751064 0.034761
O O14 0.045606 0.800735 0.446059
O O15 0.500000 0.000000 0.500000
#
# Coordination Sequence:
#
# PCOD9074107 Si02
#       7
#     2   2   2   2   2   2   2
#     4  12  25  47  72  97 138 175 224 281 335 400
#     4  10  22  42  66  95 131 171 218 272 326 391
#     4  12  26  45  68 101 135 176 224 279 337 393
#     4  11  24  47  70  98 135 180 222 280 339 388
#     4  10  22  43  65  94 132 172 219 272 326 395
#     4  12  24  37  65  99 133 177 218 267 336 397
#     4  11  26  46  69 100 135 176 229 275 332 405
#
# _framework density 22.400845
#
# number of rings (size 3 to 8) (size 9 to 14) (size 15 to 20)
#    0.000    0.857    2.857    3.857    2.000    1.714 
#   10.286    0.000    0.000    0.000    0.000    0.000 
#    0.000    0.000    0.000    0.000    0.000    0.000 
#
# Total GULP energy -78041.451091 kJ/mol
# GULP energy per Si atom -5574.389364 kJ/mol
# Density = 2.234986 g / cm^3
# Si number density = 22.400845 Si / 1000 Ang^3
#
#
#
# Elastic Constant Matrix: (Units=GPa)
#
#
# Indices 1 2 3 4 5 6 
#
# 1 108.6920 14.8076 31.4348 -7.1510 -37.0411 -24.8939
# 2 14.8076 70.7992 14.3330 -3.1932 -18.1758 -14.1089
# 3 31.4348 14.3330 86.4314 2.1960 -22.2961 -2.0192
# 4 -7.1510 -3.1932 2.1960 31.1151 1.4972 -6.7947
# 5 -37.0411 -18.1758 -22.2961 1.4972 23.2054 14.9393
# 6 -24.8939 -14.1089 -2.0192 -6.7947 14.9393 39.0835
#
#
#
# Elastic Compliance Matrix: (Units=1/GPa)
#
#
# Indices 1 2 3 4 5 6 
#
# 1 0.022407 0.005919 0.001122 0.004171 0.039982 0.001909
# 2 0.005919 0.019394 0.000753 0.002627 0.023796 0.002171
# 3 0.001122 0.000753 0.017247 -0.003832 0.024431 -0.008127
# 4 0.004171 0.002627 -0.003832 0.036388 -0.004750 0.011548
# 5 0.039982 0.023796 0.024431 -0.004750 0.168621 -0.029961
# 6 0.001909 0.002171 -0.008127 0.011548 -0.029961 0.040626
#
#
# Mechanical properties :
#
#
# Convention : Reuss Voigt Hill
#
# Bulk Modulus (GPa) = 13.39821 43.00816 28.20318
# Shear Modulus (GPa) = 15.92497 32.37060 24.14779
#
# Velocity S-wave (km/s) = 2.66918 3.80552 3.28683
# Velocity P-wave (km/s) = 3.93617 6.20889 5.19826
#
# Compressibility (1/GPa) = 0.07463686
#
# Stress axis : x y z
#
# Youngs Moduli (GPa) = 44.62962 51.56230 57.98171
#
# Poissons Ratio (x) = -0.30522 -0.06504
# Poissons Ratio (y) = -0.26419 -0.04369
# Poissons Ratio (z) = -0.05006 -0.03885
#
# Static dielectric constant tensor:
#      x y z
#    x 1.877890 -0.015910 0.028840 
#    y -0.015910 1.643090 0.514270 
#    z 0.028840 0.514270 -0.107620 
# 
# From -- ./inp_files/28363.got.cif
#   From: 2010.05.17/outbox.ucp.g08.bks.cvg/sg2_15_cif.got.tgz:28363.got - 2010.06.11 11:32:03.
