data_PCOD9074994
_publ_section_title
;
Structure prediction by ZEFSAII (Michael W. Deem and Ramdas Pophale) SiO2 
 PCOD9074994
Probable space group: P -1
;
_chemical_formula_sum "Si O2"
_cell_formula_units_Z 16
_cell_length_a 24.000000
_cell_length_b 6.000000
_cell_length_c 12.000000
_cell_angle_alpha 110.000000
_cell_angle_beta 30.000000
_cell_angle_gamma 120.000000
_cell_volume 731.538865
_symmetry_space_group_name_H-M "P -1"
_symmetry_group_IT_number 2
_symmetry_cell_setting 'triclinic'
loop_
_space_group_symop_operation_xyz
x,y,z
-x,-y,-z
loop_
_atom_site_type_symbol
_atom_site_label
_atom_site_fract_x
_atom_site_fract_y
_atom_site_fract_z
Si Si1 0.014752 0.879496 0.788283
Si Si2 0.568969 0.312099 0.395091
Si Si3 0.780777 0.464611 0.228970
Si Si4 0.525147 0.289933 0.045717
Si Si5 0.947167 0.550913 0.485878
Si Si6 0.311499 0.500488 0.993706
Si Si7 0.848009 0.022732 0.930652
Si Si8 0.712834 0.625427 0.589076
O O1 0.053354 0.658220 0.638776
O O2 0.147755 0.137563 0.604105
O O3 0.921732 0.920612 0.869777
O O4 0.913296 0.727908 0.035850
O O5 0.500000 0.500000 0.500000
O O6 0.670807 0.466136 0.340648
O O7 0.500000 0.000000 0.500000
O O8 0.650070 0.310823 0.147263
O O9 0.731337 0.431680 0.434730
O O10 0.806762 0.223701 0.098813
O O11 0.392876 0.296923 0.262925
O O12 0.575029 0.383031 0.098787
O O13 0.641386 0.485418 0.801430
O O14 0.500000 0.000000 0.000000
O O15 0.810554 0.517966 0.737363
O O16 0.000000 0.500000 0.500000
O O17 0.048533 0.826581 0.314222
O O18 0.267291 0.209493 0.968924
#
# Coordination Sequence:
#
# PCOD9074994 Si02
#       8
#     2   2   2   2   2   2   2   2
#     4  11  23  44  69 105 142 182 248 301 377 442
#     4  12  27  47  74 110 149 199 249 314 379 450
#     4  11  25  46  71 108 146 189 247 306 373 446
#     4  11  27  48  70 102 142 194 246 295 367 450
#     4  11  22  37  66 106 142 180 230 309 377 449
#     4  12  23  46  74 104 143 189 244 311 376 444
#     4  11  23  42  69 110 143 182 241 308 383 438
#     4  11  26  47  71 100 144 197 243 301 364 452
#
# _framework density 21.871701999999999
#
# number of rings (size 3 to 8) (size 9 to 14) (size 15 to 20)
#    0.000    0.750    2.500    4.500    3.500    2.500 
#    2.250    0.000    0.000    0.000    0.000    0.000 
#    0.000    0.000    0.000    0.000    0.000    0.000 
#
# Total GULP energy -89259.426473 kJ/mol
# GULP energy per Si atom -5578.714155 kJ/mol
# Density = 2.182192 g / cm^3
# Si number density = 21.871702 Si / 1000 Ang^3
#
#
#
# Elastic Constant Matrix: (Units=GPa)
#
#
# Indices 1 2 3 4 5 6 
#
# 1 60.2697 24.1984 6.3840 -11.1885 -5.3298 21.4573
# 2 24.1984 106.1202 40.2435 -13.5767 -8.8580 10.5294
# 3 6.3840 40.2435 101.1285 -6.8676 2.5541 4.4669
# 4 -11.1885 -13.5767 -6.8676 45.9285 0.9977 -7.1368
# 5 -5.3298 -8.8580 2.5541 0.9977 44.8498 -6.8604
# 6 21.4573 10.5294 4.4669 -7.1368 -6.8604 32.5725
#
#
#
# Elastic Compliance Matrix: (Units=1/GPa)
#
#
# Indices 1 2 3 4 5 6 
#
# 1 0.023465 -0.004022 0.000905 0.002527 -0.000221 -0.013774
# 2 -0.004022 0.012537 -0.004662 0.002003 0.002242 0.000147
# 3 0.000905 -0.004662 0.011803 0.000496 -0.001641 -0.000945
# 4 0.002527 0.002003 0.000496 0.023491 0.000587 0.002891
# 5 -0.000221 0.002242 -0.001641 0.000587 0.023517 0.004727
# 6 -0.013774 0.000147 -0.000945 0.002891 0.004727 0.041485
#
#
# Mechanical properties :
#
#
# Convention : Reuss Voigt Hill
#
# Bulk Modulus (GPa) = 31.01137 45.46333 38.23735
# Shear Modulus (GPa) = 30.74905 37.78301 34.26603
#
# Velocity S-wave (km/s) = 3.75358 4.16081 3.96243
# Velocity P-wave (km/s) = 5.74416 6.62681 6.20121
#
# Compressibility (1/GPa) = 0.03224624
#
# Stress axis : x y z
#
# Youngs Moduli (GPa) = 42.61740 79.76190 84.72077
#
# Poissons Ratio (x) = 0.32082 -0.07667
# Poissons Ratio (y) = 0.17142 0.39499
# Poissons Ratio (z) = -0.03857 0.37187
#
# Static dielectric constant tensor:
#      x y z
#    x 1.839780 -0.012540 0.010980 
#    y -0.012540 1.829980 -0.003750 
#    z 0.010980 -0.003750 1.764380 
# 
# From -- ./inp_files/69852.got.cif
#   From: 2010.05.17/outbox.ucp.g08.bks.cvg/sg2_35_cif.got.tgz:69852.got - 2010.06.11 11:32:03.
