data_PCOD9074410
_publ_section_title
;
Structure prediction by ZEFSAII (Michael W. Deem and Ramdas Pophale) SiO2 
 PCOD9074410
Probable space group: P -1
;
_chemical_formula_sum "Si O2"
_cell_formula_units_Z 16
_cell_length_a 9.000000
_cell_length_b 15.000000
_cell_length_c 9.000000
_cell_angle_alpha 80.000000
_cell_angle_beta 110.000000
_cell_angle_gamma 140.000000
_cell_volume 725.993766
_symmetry_space_group_name_H-M "P -1"
_symmetry_group_IT_number 2
_symmetry_cell_setting 'triclinic'
loop_
_space_group_symop_operation_xyz
x,y,z
-x,-y,-z
loop_
_atom_site_type_symbol
_atom_site_label
_atom_site_fract_x
_atom_site_fract_y
_atom_site_fract_z
Si Si1 0.018198 0.844342 0.173584
Si Si2 0.939556 0.674891 0.952026
Si Si3 0.424349 0.177023 0.259389
Si Si4 0.130124 0.710671 0.433766
Si Si5 0.452773 0.636803 0.030120
Si Si6 0.234929 0.162549 0.502215
Si Si7 0.279549 0.683948 0.209825
Si Si8 0.787845 0.637904 0.570748
O O1 0.734261 0.742944 0.147257
O O2 0.127671 0.807559 0.318959
O O3 0.985639 0.791350 0.011268
O O4 0.203465 0.010359 0.192352
O O5 0.706722 0.524616 0.999481
O O6 0.884847 0.660117 0.763332
O O7 0.182437 0.723389 0.062313
O O8 0.638468 0.211914 0.403941
O O9 0.321595 0.195313 0.351110
O O10 0.520448 0.281077 0.123818
O O11 0.121045 0.631001 0.322368
O O12 0.907092 0.622536 0.496568
O O13 0.288167 0.606625 0.116816
O O14 0.450572 0.209768 0.658609
O O15 0.169091 0.237944 0.489578
O O16 0.000000 0.000000 0.500000
O O17 0.500000 0.500000 0.500000
#
# Coordination Sequence:
#
# PCOD9074410 Si02
#       8
#     2   2   2   2   2   2   2   2
#     4  11  23  43  67  96 131 172 217 270 327 387
#     4  11  25  43  64  97 133 171 218 273 330 389
#     4  11  24  42  68  99 130 173 220 268 327 390
#     4  10  23  43  67  96 131 170 218 272 327 390
#     4  12  23  42  65  95 133 172 218 273 324 387
#     4  11  24  44  69  99 134 174 221 272 325 389
#     4  10  23  42  67  96 133 174 216 270 330 383
#     4  12  25  45  70  98 130 174 221 270 330 395
#
# _framework density 22.038757
#
# number of rings (size 3 to 8) (size 9 to 14) (size 15 to 20)
#    0.000    1.000    0.000    6.750    0.000    7.000 
#    0.000   10.000    0.000    0.000    0.000    0.000 
#    0.000    0.000    0.000    0.000    0.000    0.000 
#
# Total GULP energy -89365.129172 kJ/mol
# GULP energy per Si atom -5585.320573 kJ/mol
# Density = 2.198860 g / cm^3
# Si number density = 22.038757 Si / 1000 Ang^3
#
#
#
# Elastic Constant Matrix: (Units=GPa)
#
#
# Indices 1 2 3 4 5 6 
#
# 1 130.3399 -4.7802 33.5946 5.9732 -6.8353 13.5387
# 2 -4.7802 51.4568 12.0262 -4.7242 8.7105 1.8740
# 3 33.5946 12.0262 161.3346 -6.5832 11.5065 7.7367
# 4 5.9732 -4.7242 -6.5832 29.2762 -3.9207 2.4680
# 5 -6.8353 8.7105 11.5065 -3.9207 54.3916 -0.8743
# 6 13.5387 1.8740 7.7367 2.4680 -0.8743 27.5280
#
#
#
# Elastic Compliance Matrix: (Units=1/GPa)
#
#
# Indices 1 2 3 4 5 6 
#
# 1 0.008701 0.001038 -0.001860 -0.001564 0.001149 -0.003650
# 2 0.001038 0.020616 -0.001364 0.002599 -0.002725 -0.001850
# 3 -0.001860 -0.001364 0.006905 0.001622 -0.001377 -0.001122
# 4 -0.001564 0.002599 0.001622 0.035726 0.001571 -0.003017
# 5 0.001149 -0.002725 -0.001377 0.001571 0.019378 0.000482
# 6 -0.003650 -0.001850 -0.001122 -0.003017 0.000482 0.038849
#
#
# Mechanical properties :
#
#
# Convention : Reuss Voigt Hill
#
# Bulk Modulus (GPa) = 31.39638 47.20140 39.29889
# Shear Modulus (GPa) = 34.44377 42.39187 38.41782
#
# Velocity S-wave (km/s) = 3.95761 4.39055 4.17969
# Velocity P-wave (km/s) = 5.92962 6.86779 6.41588
#
# Compressibility (1/GPa) = 0.03185080
#
# Stress axis : x y z
#
# Youngs Moduli (GPa) = 114.93180 48.50553 144.81244
#
# Poissons Ratio (x) = -0.05034 0.26933
# Poissons Ratio (y) = -0.11927 0.19748
# Poissons Ratio (z) = 0.21376 0.06615
#
# Static dielectric constant tensor:
#      x y z
#    x 1.841280 0.000050 -0.040060 
#    y 0.000050 1.756960 0.014040 
#    z -0.040060 0.014040 1.822790 
# 
# From -- ./inp_files/207098.got.cif
#   From: 2010.05.17/outbox.ucp.g08.bks.cvg/sg2_104_cif.got.tgz:207098.got - 2010.06.11 11:32:03.
