data_PCOD9074225
_publ_section_title
;
Structure prediction by ZEFSAII (Michael W. Deem and Ramdas Pophale) SiO2 
 PCOD9074225
Probable space group: P -1
;
_chemical_formula_sum "Si O2"
_cell_formula_units_Z 16
_cell_length_a 18.000000
_cell_length_b 6.000000
_cell_length_c 9.000000
_cell_angle_alpha 70.000000
_cell_angle_beta 120.000000
_cell_angle_gamma 120.000000
_cell_volume 723.492119
_symmetry_space_group_name_H-M "P -1"
_symmetry_group_IT_number 2
_symmetry_cell_setting 'triclinic'
loop_
_space_group_symop_operation_xyz
x,y,z
-x,-y,-z
loop_
_atom_site_type_symbol
_atom_site_label
_atom_site_fract_x
_atom_site_fract_y
_atom_site_fract_z
Si Si1 0.256181 0.538105 0.893541
Si Si2 0.073696 0.381857 0.554381
Si Si3 0.407976 0.496296 0.487840
Si Si4 0.969871 0.853889 0.756011
Si Si5 0.691820 0.010842 0.634574
Si Si6 0.862370 0.972665 0.901357
Si Si7 0.598278 0.305551 0.258466
Si Si8 0.388425 0.938945 0.166091
O O1 0.174198 0.539452 0.699410
O O2 0.339172 0.556538 0.853738
O O3 0.202824 0.285564 0.006125
O O4 0.309574 0.786001 0.999758
O O5 0.075402 0.342229 0.384938
O O6 0.000000 0.500000 0.500000
O O7 0.029635 0.108822 0.659849
O O8 0.500000 0.500000 0.500000
O O9 0.415263 0.511315 0.669194
O O10 0.395796 0.726846 0.335787
O O11 0.320867 0.239386 0.416496
O O12 0.900663 0.894717 0.802973
O O13 0.051265 0.844793 0.949746
O O14 0.650432 0.163601 0.446710
O O15 0.639298 0.908712 0.764896
O O16 0.799571 0.130921 0.761347
O O17 0.491299 0.103715 0.163192
#
# Coordination Sequence:
#
# PCOD9074225 Si02
#       8
#     2   2   2   2   2   2   2   2
#     4  11  25  41  61  95 131 163 210 262 307 377
#     4  10  23  43  66  95 127 160 203 265 322 370
#     4  11  19  41  65  87 119 170 216 256 311 363
#     4   9  22  45  67  91 129 158 207 262 317 379
#     4  11  22  38  67  89 120 172 213 255 312 371
#     4  10  22  44  67  93 125 168 205 262 316 373
#     4  11  24  40  62  94 130 167 212 262 306 369
#     4  11  22  41  61  91 132 164 218 259 299 373
#
# _framework density 22.114961000000001
#
# number of rings (size 3 to 8) (size 9 to 14) (size 15 to 20)
#    0.000    1.500    3.750    1.125    5.250    0.000 
#    2.250    3.125    0.000    0.000    0.000    0.000 
#    0.000    0.000    0.000    0.000    0.000    0.000 
#
# Total GULP energy -89137.624572 kJ/mol
# GULP energy per Si atom -5571.101536 kJ/mol
# Density = 2.206463 g / cm^3
# Si number density = 22.114961 Si / 1000 Ang^3
#
#
#
# Elastic Constant Matrix: (Units=GPa)
#
#
# Indices 1 2 3 4 5 6 
#
# 1 108.9634 20.5084 48.4424 13.8757 -20.9263 21.6129
# 2 20.5084 48.8350 36.3262 25.6040 -6.4304 15.5404
# 3 48.4424 36.3262 122.1857 45.6552 -10.8247 6.6882
# 4 13.8757 25.6040 45.6552 36.9293 1.6644 -7.5783
# 5 -20.9263 -6.4304 -10.8247 1.6644 60.5688 3.7507
# 6 21.6129 15.5404 6.6882 -7.5783 3.7507 31.3939
#
#
#
# Elastic Compliance Matrix: (Units=1/GPa)
#
#
# Indices 1 2 3 4 5 6 
#
# 1 0.015316 0.009814 -0.001723 -0.014778 0.007640 -0.019516
# 2 0.009814 0.082015 0.011887 -0.091502 0.021352 -0.074526
# 3 -0.001723 0.011887 0.021182 -0.038020 0.006685 -0.019187
# 4 -0.014778 -0.091502 -0.038020 0.166664 -0.032866 0.107726
# 5 0.007640 0.021352 0.006685 -0.032866 0.025261 -0.028205
# 6 -0.019516 -0.074526 -0.019187 0.107726 -0.028205 0.115642
#
#
# Mechanical properties :
#
#
# Convention : Reuss Voigt Hill
#
# Bulk Modulus (GPa) = 6.31036 54.50422 30.40729
# Shear Modulus (GPa) = 11.39086 37.42553 24.40820
#
# Velocity S-wave (km/s) = 2.27199 4.11824 3.32580
# Velocity P-wave (km/s) = 3.12125 6.87841 5.34110
#
# Compressibility (1/GPa) = 0.15846948
#
# Stress axis : x y z
#
# Youngs Moduli (GPa) = 65.28910 12.19288 47.20913
#
# Poissons Ratio (x) = -0.11966 0.08135
# Poissons Ratio (y) = -0.64075 -0.56117
# Poissons Ratio (z) = 0.11250 -0.14493
#
# Static dielectric constant tensor:
#      x y z
#    x 1.840590 0.013680 0.082660 
#    y 0.013680 1.847990 -0.003600 
#    z 0.082660 -0.003600 1.822840 
# 
# From -- ./inp_files/323471.got.cif
#   From: 2010.05.17/outbox.ucp.g08.bks.cvg/sg2_162_cif.got.tgz:323471.got - 2010.06.11 11:32:03.
