data_PCOD9074723
_publ_section_title
;
Structure prediction by ZEFSAII (Michael W. Deem and Ramdas Pophale) SiO2 
 PCOD9074723
Probable space group: P -1
;
_chemical_formula_sum "Si O2"
_cell_formula_units_Z 16
_cell_length_a 12.371052
_cell_length_b 14.240811
_cell_length_c 11.160535
_cell_angle_alpha 51.889714
_cell_angle_beta 96.298527
_cell_angle_gamma 55.289273
_cell_volume 891.728167
_symmetry_space_group_name_H-M "P -1"
_symmetry_group_IT_number 2
_symmetry_cell_setting 'triclinic'
loop_
_space_group_symop_operation_xyz
x,y,z
-x,-y,-z
loop_
_atom_site_type_symbol
_atom_site_label
_atom_site_fract_x
_atom_site_fract_y
_atom_site_fract_z
Si Si1 0.920618 0.844689 0.320250
Si Si2 0.839486 0.989345 0.531244
Si Si3 0.595906 0.873502 0.899798
Si Si4 0.562268 0.247309 0.069109
Si Si5 0.193737 0.724697 0.611494
Si Si6 0.928321 0.657492 0.267828
Si Si7 0.786411 0.725276 0.530615
Si Si8 0.811094 0.746106 0.785078
O O1 0.924425 0.785839 0.234928
O O2 0.884861 0.761862 0.471027
O O3 0.108591 0.740732 0.469146
O O4 0.742266 0.090307 0.126195
O O5 0.667424 0.147190 0.289612
O O6 0.812248 0.126999 0.505150
O O7 0.842966 0.859199 0.698023
O O8 0.037431 0.827853 0.611726
O O9 0.541948 0.782780 0.954692
O O10 0.695144 0.815139 0.832637
O O11 0.400199 0.117562 0.693380
O O12 0.731320 0.789756 0.088754
O O13 0.400935 0.490725 0.850161
O O14 0.000000 0.500000 0.500000
O O15 0.074208 0.507532 0.295338
O O16 0.725924 0.792326 0.607752
O O17 0.000000 0.500000 0.000000
#
# Coordination Sequence:
#
# PCOD9074723 Si02
#       8
#     2   2   2   2   2   2   2   2
#     4   9  19  33  52  75 108 127 181 216 249 306
#     4  10  21  33  49  80 107 134 177 211 252 325
#     4  11  21  31  53  76 111 142 166 211 265 313
#     4  10  18  32  52  78 105 137 169 213 266 308
#     4  10  18  34  54  73 105 141 170 218 263 290
#     4  10  20  33  50  77 106 139 178 214 255 309
#     4  10  19  34  49  80 107 136 171 209 263 319
#     4  12  20  35  54  76 115 142 164 212 266 322
#
# _framework density 17.942688
#
# number of rings (size 3 to 8) (size 9 to 14) (size 15 to 20)
#    0.000    1.750    5.000    3.000    0.000    5.500 
#    0.000    0.000    0.000    0.750    0.000    1.750 
#    0.000    0.000    0.000    0.000    0.000    0.000 
#
# Total GULP energy -89164.496319 kJ/mol
# GULP energy per Si atom -5572.781020 kJ/mol
# Density = 1.790185 g / cm^3
# Si number density = 17.942688 Si / 1000 Ang^3
#
#
#
# Elastic Constant Matrix: (Units=GPa)
#
#
# Indices 1 2 3 4 5 6 
#
# 1 36.3187 19.7761 34.4567 -2.9404 8.5852 15.8219
# 2 19.7761 62.6233 27.2927 -1.8385 7.9456 18.1301
# 3 34.4567 27.2927 106.3032 -16.8342 21.0709 15.6051
# 4 -2.9404 -1.8385 -16.8342 35.8844 5.1353 2.6808
# 5 8.5852 7.9456 21.0709 5.1353 22.9896 5.6790
# 6 15.8219 18.1301 15.6051 2.6808 5.6790 21.1312
#
#
#
# Elastic Compliance Matrix: (Units=1/GPa)
#
#
# Indices 1 2 3 4 5 6 
#
# 1 0.053166 -0.003339 -0.011936 0.000823 -0.001039 -0.027954
# 2 -0.003339 0.022473 -0.002041 0.001220 -0.001190 -0.015110
# 3 -0.011936 -0.002041 0.017917 0.009235 -0.013286 -0.000145
# 4 0.000823 0.001220 0.009235 0.035120 -0.014826 -0.008953
# 5 -0.001039 -0.001190 -0.013286 -0.014826 0.060468 -0.002759
# 6 -0.027954 -0.015110 -0.000145 -0.008953 -0.002759 0.083202
#
#
# Mechanical properties :
#
#
# Convention : Reuss Voigt Hill
#
# Bulk Modulus (GPa) = 16.97038 40.92181 28.94609
# Shear Modulus (GPa) = 15.30832 24.24900 19.77866
#
# Velocity S-wave (km/s) = 2.92409 3.68022 3.32373
# Velocity P-wave (km/s) = 4.56936 6.39650 5.55852
#
# Compressibility (1/GPa) = 0.05892620
#
# Stress axis : x y z
#
# Youngs Moduli (GPa) = 18.80894 44.49693 55.81266
#
# Poissons Ratio (x) = 0.14856 0.66618
# Poissons Ratio (y) = 0.06280 0.11389
# Poissons Ratio (z) = 0.22450 0.09080
#
# Static dielectric constant tensor:
#      x y z
#    x 1.605360 0.006250 0.013360 
#    y 0.006250 1.679160 -0.003670 
#    z 0.013360 -0.003670 1.654270 
# 
# From -- ./inp_files/430799.got.cif
#   From: 2010.05.17/outbox.cif.g08.bks.cpg/sg2_216_cif.got.tgz:430799.got - 2010.06.03 11:33:40.
