data_PCOD9074783
_publ_section_title
;
Structure prediction by ZEFSAII (Michael W. Deem and Ramdas Pophale) SiO2 
 PCOD9074783
Probable space group: P -1
;
_chemical_formula_sum "Si O2"
_cell_formula_units_Z 16
_cell_length_a 9.000000
_cell_length_b 12.000000
_cell_length_c 15.000000
_cell_angle_alpha 130.000000
_cell_angle_beta 50.000000
_cell_angle_gamma 140.000000
_cell_volume 759.581896
_symmetry_space_group_name_H-M "P -1"
_symmetry_group_IT_number 2
_symmetry_cell_setting 'triclinic'
loop_
_space_group_symop_operation_xyz
x,y,z
-x,-y,-z
loop_
_atom_site_type_symbol
_atom_site_label
_atom_site_fract_x
_atom_site_fract_y
_atom_site_fract_z
Si Si1 0.816840 0.951333 0.866932
Si Si2 0.652080 0.933644 0.259012
Si Si3 0.447794 0.518658 0.129692
Si Si4 0.249898 0.554529 0.697296
Si Si5 0.273402 0.566358 0.899775
Si Si6 0.088169 0.813072 0.874718
Si Si7 0.779413 0.910820 0.659464
Si Si8 0.157883 0.858928 0.416328
O O1 0.533911 0.776390 0.911553
O O2 0.774585 0.979252 0.794923
O O3 0.064591 0.961193 0.764329
O O4 0.907165 0.098161 0.987490
O O5 0.505922 0.715873 0.212610
O O6 0.434035 0.941991 0.382527
O O7 0.718579 0.018327 0.176738
O O8 0.647025 0.532021 0.120981
O O9 0.173856 0.328006 0.147024
O O10 0.500000 0.500000 0.000000
O O11 0.255472 0.510033 0.775196
O O12 0.164530 0.682915 0.795853
O O13 0.533450 0.700423 0.631857
O O14 0.041372 0.362792 0.631269
O O15 0.000000 0.500000 0.000000
O O16 0.013601 0.912433 0.557981
O O17 0.801750 0.044784 0.645243
#
# Coordination Sequence:
#
# PCOD9074783 Si02
#       8
#     2   2   2   2   2   2   2   2
#     4  11  25  43  65  98 141 174 210 282 326 395
#     4  12  24  41  70  97 132 178 221 271 329 396
#     4  12  23  41  62  95 136 179 213 261 330 403
#     4  11  24  42  70  97 133 173 219 278 328 393
#     4  11  26  40  61  99 139 175 219 263 333 404
#     4  12  23  43  65 103 137 172 215 264 339 403
#     4  10  25  47  64  97 136 171 230 276 324 386
#     4  11  24  44  73  93 125 184 228 273 326 388
#
# _framework density 21.064219999999999
#
# number of rings (size 3 to 8) (size 9 to 14) (size 15 to 20)
#    0.000    0.750    5.000    2.250    3.500    2.500 
#    0.000    0.000    0.000    2.250    0.000    0.000 
#    0.000    0.000    0.000    0.000    0.000    0.000 
#
# Total GULP energy -89081.311140 kJ/mol
# GULP energy per Si atom -5567.581946 kJ/mol
# Density = 2.101628 g / cm^3
# Si number density = 21.064220 Si / 1000 Ang^3
#
#
#
# Elastic Constant Matrix: (Units=GPa)
#
#
# Indices 1 2 3 4 5 6 
#
# 1 105.9843 25.7558 36.3999 -6.9027 -15.7831 6.9672
# 2 25.7558 130.7527 23.5127 -17.7176 -7.4561 16.8164
# 3 36.3999 23.5127 42.2043 -14.8042 -13.4860 -3.5997
# 4 -6.9027 -17.7176 -14.8042 34.6065 10.5308 -9.5923
# 5 -15.7831 -7.4561 -13.4860 10.5308 40.3508 -13.7320
# 6 6.9672 16.8164 -3.5997 -9.5923 -13.7320 49.7801
#
#
#
# Elastic Compliance Matrix: (Units=1/GPa)
#
#
# Indices 1 2 3 4 5 6 
#
# 1 0.014307 -0.000478 -0.013624 -0.004458 0.000953 -0.003422
# 2 -0.000478 0.009258 -0.004889 0.002147 -0.001867 -0.003515
# 3 -0.013624 -0.004889 0.048035 0.015829 0.010067 0.012859
# 4 -0.004458 0.002147 0.015829 0.039095 -0.003687 0.007560
# 5 0.000953 -0.001867 0.010067 -0.003687 0.032349 0.009438
# 6 -0.003422 -0.003515 0.012859 0.007560 0.009438 0.026745
#
#
# Mechanical properties :
#
#
# Convention : Reuss Voigt Hill
#
# Bulk Modulus (GPa) = 29.74663 50.03091 39.88877
# Shear Modulus (GPa) = 22.83343 37.83235 30.33289
#
# Velocity S-wave (km/s) = 3.29597 4.24258 3.79888
# Velocity P-wave (km/s) = 5.35137 6.91393 6.18222
#
# Compressibility (1/GPa) = 0.03361725
#
# Stress axis : x y z
#
# Youngs Moduli (GPa) = 69.89429 108.01626 20.81835
#
# Poissons Ratio (x) = 0.05161 0.28364
# Poissons Ratio (y) = 0.03340 0.10178
# Poissons Ratio (z) = 0.95227 0.52809
#
# Static dielectric constant tensor:
#      x y z
#    x 1.828760 0.010400 -0.027350 
#    y 0.010400 1.816190 -0.000490 
#    z -0.027350 -0.000490 1.769210 
# 
# From -- ./inp_files/500805.got.cif
#   From: 2010.05.17/outbox.ucp.g08.bks.cvg/sg2_251_cif.got.tgz:500805.got - 2010.06.11 11:32:03.
