data_PCOD9074967
_publ_section_title
;
Structure prediction by ZEFSAII (Michael W. Deem and Ramdas Pophale) SiO2 
 PCOD9074967
Probable space group: P -1
;
_chemical_formula_sum "Si O2"
_cell_formula_units_Z 16
_cell_length_a 12.000000
_cell_length_b 9.000000
_cell_length_c 9.000000
_cell_angle_alpha 50.000000
_cell_angle_beta 90.000000
_cell_angle_gamma 90.000000
_cell_volume 744.595199
_symmetry_space_group_name_H-M "P -1"
_symmetry_group_IT_number 2
_symmetry_cell_setting 'triclinic'
loop_
_space_group_symop_operation_xyz
x,y,z
-x,-y,-z
loop_
_atom_site_type_symbol
_atom_site_label
_atom_site_fract_x
_atom_site_fract_y
_atom_site_fract_z
Si Si1 0.444498 0.897928 0.922404
Si Si2 0.957182 0.941472 0.371485
Si Si3 0.807599 0.175967 0.566717
Si Si4 0.939485 0.334052 0.934071
Si Si5 0.280850 0.632163 0.278324
Si Si6 0.167745 0.505813 0.874190
Si Si7 0.666657 0.794561 0.808617
Si Si8 0.701809 0.801888 0.462492
O O1 0.548715 0.840448 0.855212
O O2 0.363508 0.040744 0.736853
O O3 0.367083 0.726187 0.100566
O O4 0.500000 0.000000 0.000000
O O5 0.834201 0.851597 0.438748
O O6 0.061594 0.814320 0.397687
O O7 0.000000 0.000000 0.500000
O O8 0.949870 0.122581 0.143680
O O9 0.725432 0.258553 0.636909
O O10 0.799409 0.296200 0.336411
O O11 0.764550 0.957044 0.702489
O O12 0.843855 0.348079 0.802255
O O13 0.064449 0.406217 0.849437
O O14 0.886893 0.461230 0.985872
O O15 0.307304 0.413063 0.462563
O O16 0.276254 0.379239 0.988015
O O17 0.651359 0.773875 0.645425
#
# Coordination Sequence:
#
# PCOD9074967 Si02
#       8
#     2   2   2   2   2   2   2   2
#     4  12  29  51  71 100 144 188 239 299 348 402
#     4  12  21  42  75 107 144 182 223 285 356 423
#     4  12  26  42  72 107 146 185 227 283 364 422
#     4  11  21  43  70 105 147 178 225 292 353 420
#     4  12  28  47  69 107 143 183 237 294 352 413
#     4  11  23  41  74 106 143 181 229 288 349 425
#     4  12  25  48  73 103 136 189 240 284 348 417
#     4  12  26  47  78 104 139 185 239 290 348 419
#
# _framework density 21.488185999999999
#
# number of rings (size 3 to 8) (size 9 to 14) (size 15 to 20)
#    0.000    0.250    7.500    1.125    1.750    4.500 
#    0.000    0.000    0.000    0.000    0.000    0.000 
#    0.000    0.000    0.000    0.000    0.000    0.000 
#
# Total GULP energy -89393.245219 kJ/mol
# GULP energy per Si atom -5587.077826 kJ/mol
# Density = 2.143928 g / cm^3
# Si number density = 21.488186 Si / 1000 Ang^3
#
#
#
# Elastic Constant Matrix: (Units=GPa)
#
#
# Indices 1 2 3 4 5 6 
#
# 1 122.4132 13.4999 51.0024 -11.5714 5.6354 -15.7914
# 2 13.4999 25.7454 -3.8482 -7.5368 0.1662 -8.9182
# 3 51.0024 -3.8482 53.7144 -28.0586 5.8831 -18.8510
# 4 -11.5714 -7.5368 -28.0586 30.3754 -7.8206 4.3257
# 5 5.6354 0.1662 5.8831 -7.8206 34.9725 3.4387
# 6 -15.7914 -8.9182 -18.8510 4.3257 3.4387 24.5078
#
#
#
# Elastic Compliance Matrix: (Units=1/GPa)
#
#
# Indices 1 2 3 4 5 6 
#
# 1 -0.013094 0.053204 0.067249 0.062859 -0.000475 0.051622
# 2 0.053204 -0.091319 -0.167396 -0.142952 -0.001897 -0.102210
# 3 0.067249 -0.167396 -0.201560 -0.183041 -0.003315 -0.139848
# 4 0.062859 -0.142952 -0.183041 -0.127636 0.005638 -0.130572
# 5 -0.000475 -0.001897 -0.003315 0.005638 0.031377 -0.008944
# 6 0.051622 -0.102210 -0.139848 -0.130572 -0.008944 -0.046395
#
#
# Mechanical properties :
#
#
# Convention : Reuss Voigt Hill
#
# Bulk Modulus (GPa) = -2.50088 35.90902 16.70407
# Shear Modulus (GPa) = -10.24533 27.38574 8.57020
#
# Velocity S-wave (km/s) = -2.18592 3.57382 1.99925
# Velocity P-wave (km/s) = 2.74542 5.81180 3.62213
#
# Compressibility (1/GPa) = -0.39985986
#
# Stress axis : x y z
#
# Youngs Moduli (GPa) = -76.37137 -10.95059 -4.96130
#
# Poissons Ratio (x) = 0.58262 0.33364
# Poissons Ratio (y) = 4.06329 -0.83050
# Poissons Ratio (z) = 5.13587 -1.83309
#
# Static dielectric constant tensor:
#      x y z
#    x 1.767520 -0.019950 0.017650 
#    y -0.019950 1.977200 -0.016660 
#    z 0.017650 -0.016660 1.725020 
# 
# From -- ./inp_files/186389.got.cif
#   From: 2010.05.17/outbox.ucp.g08.bks.cvg/sg2_94_cif.got.tgz:186389.got - 2010.06.11 11:32:03.
