data_PCOD9074242
_publ_section_title
;
Structure prediction by ZEFSAII (Michael W. Deem and Ramdas Pophale) SiO2 
 PCOD9074242
Probable space group: P -1
;
_chemical_formula_sum "Si O2"
_cell_formula_units_Z 16
_cell_length_a 16.419928
_cell_length_b 5.302183
_cell_length_c 13.773277
_cell_angle_alpha 99.209447
_cell_angle_beta 54.838601
_cell_angle_gamma 80.713711
_cell_volume 918.687922
_symmetry_space_group_name_H-M "P -1"
_symmetry_group_IT_number 2
_symmetry_cell_setting 'triclinic'
loop_
_space_group_symop_operation_xyz
x,y,z
-x,-y,-z
loop_
_atom_site_type_symbol
_atom_site_label
_atom_site_fract_x
_atom_site_fract_y
_atom_site_fract_z
Si Si1 0.930516 0.783398 0.609861
Si Si2 0.856158 0.505749 0.925843
Si Si3 0.942737 0.977661 0.938689
Si Si4 0.653200 0.597898 0.708764
Si Si5 0.736976 0.785311 0.859545
Si Si6 0.234199 0.022037 0.437549
Si Si7 0.043752 0.067101 0.686933
Si Si8 0.536430 0.244943 0.031859
O O1 0.852680 0.783398 0.751797
O O2 0.000000 0.500000 0.500000
O O3 0.008477 0.926689 0.610457
O O4 0.845971 0.926958 0.595355
O O5 0.752762 0.620359 0.938453
O O6 0.886162 0.751213 0.967468
O O7 0.860437 0.266932 0.982879
O O8 0.954767 0.351655 0.779368
O O9 0.028019 0.920171 0.788044
O O10 0.000000 0.000000 0.000000
O O11 0.699761 0.640066 0.785969
O O12 0.699453 0.290140 0.627414
O O13 0.529031 0.674937 0.819059
O O14 0.693213 0.790662 0.622434
O O15 0.660210 0.089994 0.942701
O O16 0.157567 0.088389 0.587106
O O17 0.500000 0.500000 0.000000
O O18 0.500000 0.000000 0.000000
#
# Coordination Sequence:
#
# PCOD9074242 Si02
#       8
#     2   2   2   2   2   2   2   2
#     4  11  19  31  46  74 108 138 174 199 240 289
#     4  10  20  33  53  73 100 127 173 203 259 300
#     4  10  22  36  53  71 103 132 166 215 263 306
#     4  10  21  32  46  69 100 133 176 205 241 282
#     4  10  18  32  50  70  98 138 172 208 243 291
#     4  11  21  31  47  67 102 137 168 202 235 292
#     4  10  21  31  52  71 106 134 174 202 256 295
#     4  10  20  33  49  66  96 136 177 213 248 279
#
# _framework density 17.416143000000002
#
# number of rings (size 3 to 8) (size 9 to 14) (size 15 to 20)
#    0.750    1.000    1.250    6.000    1.750    3.000 
#    0.000    0.000    0.000    0.000    0.000    0.000 
#    0.000    6.000    0.000    0.000    0.000    0.000 
#
# Total GULP energy -89101.996840 kJ/mol
# GULP energy per Si atom -5568.874802 kJ/mol
# Density = 1.737650 g / cm^3
# Si number density = 17.416143 Si / 1000 Ang^3
#
#
#
# Elastic Constant Matrix: (Units=GPa)
#
#
# Indices 1 2 3 4 5 6 
#
# 1 25.9334 18.3957 6.1990 6.8840 3.3516 3.8225
# 2 18.3957 115.6154 28.1178 21.3912 -6.5790 11.5308
# 3 6.1990 28.1178 64.0173 10.6150 -20.9737 -0.5572
# 4 6.8840 21.3912 10.6150 29.1533 -0.5144 -4.8177
# 5 3.3516 -6.5790 -20.9737 -0.5144 22.9323 0.3769
# 6 3.8225 11.5308 -0.5572 -4.8177 0.3769 24.1790
#
#
#
# Elastic Compliance Matrix: (Units=1/GPa)
#
#
# Indices 1 2 3 4 5 6 
#
# 1 0.048162 -0.005123 -0.005926 -0.006766 -0.013974 -0.006438
# 2 -0.005123 0.012473 -0.003352 -0.007823 0.001198 -0.006793
# 3 -0.005926 -0.003352 0.026323 -0.005012 0.023838 0.001772
# 4 -0.006766 -0.007823 -0.005012 0.045666 -0.005043 0.013863
# 5 -0.013974 0.001198 0.023838 -0.005043 0.067679 0.000127
# 6 -0.006438 -0.006793 0.001772 0.013863 0.000127 0.048416
#
#
# Mechanical properties :
#
#
# Convention : Reuss Voigt Hill
#
# Bulk Modulus (GPa) = 17.19513 34.55458 25.87485
# Shear Modulus (GPa) = 16.84030 25.44318 21.14174
#
# Velocity S-wave (km/s) = 3.11293 3.82631 3.48791
# Velocity P-wave (km/s) = 4.77651 6.27730 5.57761
#
# Compressibility (1/GPa) = 0.05815600
#
# Stress axis : x y z
#
# Youngs Moduli (GPa) = 20.76329 80.17472 37.98936
#
# Poissons Ratio (x) = 0.41075 0.22513
# Poissons Ratio (y) = 0.10637 0.12733
# Poissons Ratio (z) = 0.12304 0.26872
#
# Static dielectric constant tensor:
#      x y z
#    x 1.660450 0.055040 -0.111340 
#    y 0.055040 1.693100 -0.076060 
#    z -0.111340 -0.076060 1.671500 
# 
# From -- ./inp_files/525380.got.cif
#   From: 2010.05.17/outbox.cif.g08.bks.cpg/sg2_263_cif.got.tgz:525380.got - 2010.06.03 11:33:40.
