data_PCOD9074596
_publ_section_title
;
Structure prediction by ZEFSAII (Michael W. Deem and Ramdas Pophale) SiO2 
 PCOD9074596
Probable space group: P -1
;
_chemical_formula_sum "Si O2"
_cell_formula_units_Z 16
_cell_length_a 12.000000
_cell_length_b 27.000000
_cell_length_c 27.000000
_cell_angle_alpha 10.000000
_cell_angle_beta 30.000000
_cell_angle_gamma 30.000000
_cell_volume 750.765935
_symmetry_space_group_name_H-M "P -1"
_symmetry_group_IT_number 2
_symmetry_cell_setting 'triclinic'
loop_
_space_group_symop_operation_xyz
x,y,z
-x,-y,-z
loop_
_atom_site_type_symbol
_atom_site_label
_atom_site_fract_x
_atom_site_fract_y
_atom_site_fract_z
Si Si1 0.226664 0.642201 0.844776
Si Si2 0.304420 0.207120 0.492929
Si Si3 0.977564 0.763622 0.040940
Si Si4 0.047409 0.721340 0.221948
Si Si5 0.510511 0.399542 0.314618
Si Si6 0.348652 0.094000 0.885720
Si Si7 0.322162 0.482346 0.683874
Si Si8 0.899211 0.229529 0.413385
O O1 0.464038 0.737176 0.678360
O O2 0.315391 0.530237 0.865556
O O3 0.021324 0.906047 0.671819
O O4 0.112276 0.395015 0.157792
O O5 0.386388 0.172603 0.553167
O O6 0.117653 0.489872 0.284278
O O7 0.172120 0.963580 0.761933
O O8 0.779498 0.923423 0.995401
O O9 0.861612 0.644769 0.154449
O O10 0.852506 0.768146 0.209106
O O11 0.000000 0.500000 0.500000
O O12 0.298273 0.622465 0.198777
O O13 0.000000 0.000000 0.000000
O O14 0.682465 0.294377 0.396254
O O15 0.539769 0.300707 0.612187
O O16 0.483570 0.792960 0.109115
O O17 0.202936 0.658849 0.603317
#
# Coordination Sequence:
#
# PCOD9074596 Si02
#       8
#     2   2   2   2   2   2   2   2
#     4  10  24  41  69  95 128 173 222 265 331 389
#     4  10  24  40  71  95 125 169 226 271 317 384
#     4  12  23  46  67  98 130 175 227 266 322 393
#     4  12  26  40  65 100 139 172 205 268 334 390
#     4  10  24  42  69  95 133 169 223 260 331 394
#     4  12  23  45  65  96 132 179 221 260 328 399
#     4  12  27  42  68  97 135 174 221 277 323 388
#     4  12  23  44  63 100 131 170 216 279 331 379
#
# _framework density 21.311568999999999
#
# number of rings (size 3 to 8) (size 9 to 14) (size 15 to 20)
#    0.750    0.000    1.250    6.750    1.750    3.000 
#    0.000    3.750    0.000    0.000    0.000    0.000 
#    0.000    0.000    0.000    0.000    0.000    0.000 
#
# Total GULP energy -89201.637877 kJ/mol
# GULP energy per Si atom -5575.102367 kJ/mol
# Density = 2.126306 g / cm^3
# Si number density = 21.311569 Si / 1000 Ang^3
#
#
#
# Elastic Constant Matrix: (Units=GPa)
#
#
# Indices 1 2 3 4 5 6 
#
# 1 93.5643 27.6597 -9.1956 1.8192 -9.3838 -11.1820
# 2 27.6597 142.7774 1.1993 -18.6579 7.8439 0.1518
# 3 -9.1956 1.1993 74.1437 -8.2328 -2.1312 -7.8839
# 4 1.8192 -18.6579 -8.2328 36.9448 -3.7334 -6.5215
# 5 -9.3838 7.8439 -2.1312 -3.7334 25.9170 4.9474
# 6 -11.1820 0.1518 -7.8839 -6.5215 4.9474 37.4904
#
#
#
# Elastic Compliance Matrix: (Units=1/GPa)
#
#
# Indices 1 2 3 4 5 6 
#
# 1 0.012631 -0.002796 0.002071 -0.000465 0.004856 0.003493
# 2 -0.002796 0.008233 -0.000099 0.004009 -0.002973 0.000202
# 3 0.002071 -0.000099 0.014689 0.004038 0.001772 0.004176
# 4 -0.000465 0.004009 0.004038 0.031280 0.002344 0.005826
# 5 0.004856 -0.002973 0.001772 0.002344 0.042366 -0.003350
# 6 0.003493 0.000202 0.004176 0.005826 -0.003350 0.030048
#
#
# Mechanical properties :
#
#
# Convention : Reuss Voigt Hill
#
# Bulk Modulus (GPa) = 29.49243 38.86803 34.18023
# Shear Modulus (GPa) = 32.85230 39.45858 36.15544
#
# Velocity S-wave (km/s) = 3.93048 4.30759 4.12335
# Velocity P-wave (km/s) = 5.87086 6.55881 6.22435
#
# Compressibility (1/GPa) = 0.03390700
#
# Stress axis : x y z
#
# Youngs Moduli (GPa) = 79.16818 121.45752 68.07788
#
# Poissons Ratio (x) = 0.33956 -0.14100
# Poissons Ratio (y) = 0.22133 0.00673
# Poissons Ratio (z) = -0.16397 0.01200
#
# Static dielectric constant tensor:
#      x y z
#    x 1.776990 0.005570 0.027520 
#    y 0.005570 1.729400 -0.016910 
#    z 0.027520 -0.016910 1.828370 
# 
# From -- ./inp_files/366084.got.cif
#   From: 2010.05.17/outbox.ucp.g08.bks.cvg/sg2_184_cif.got.tgz:366084.got - 2010.06.11 11:32:03.
