data_PCOD9074413
_publ_section_title
;
Structure prediction by ZEFSAII (Michael W. Deem and Ramdas Pophale) SiO2 
 PCOD9074413
Probable space group: P -1
;
_chemical_formula_sum "Si O2"
_cell_formula_units_Z 16
_cell_length_a 7.979457
_cell_length_b 8.708367
_cell_length_c 10.545161
_cell_angle_alpha 89.027942
_cell_angle_beta 96.108027
_cell_angle_gamma 123.117114
_cell_volume 609.499153
_symmetry_space_group_name_H-M "P -1"
_symmetry_group_IT_number 2
_symmetry_cell_setting 'triclinic'
loop_
_space_group_symop_operation_xyz
x,y,z
-x,-y,-z
loop_
_atom_site_type_symbol
_atom_site_label
_atom_site_fract_x
_atom_site_fract_y
_atom_site_fract_z
Si Si1 0.837900 0.572137 0.100560
Si Si2 0.244410 0.914849 0.240351
Si Si3 0.498375 0.777507 0.599305
Si Si4 0.836345 0.531096 0.546616
Si Si5 0.613873 0.575851 0.315811
Si Si6 0.779958 0.825423 0.945679
Si Si7 0.583643 0.865076 0.164172
Si Si8 0.152037 0.725433 0.772294
O O1 0.659500 0.522919 0.183890
O O2 0.801854 0.653098 0.970060
O O3 0.858444 0.399763 0.110518
O O4 0.027373 0.737917 0.193288
O O5 0.331335 0.006468 0.384997
O O6 0.393292 0.877082 0.175922
O O7 0.259783 0.094261 0.181758
O O8 0.365038 0.674272 0.465185
O O9 0.552052 0.623946 0.637216
O O10 0.326365 0.752217 0.686714
O O11 0.788691 0.635256 0.434124
O O12 0.000000 0.500000 0.500000
O O13 0.939895 0.626526 0.684405
O O14 0.594201 0.739795 0.272160
O O15 0.609088 0.796959 0.031670
O O16 0.000000 0.000000 0.000000
O O17 0.775248 0.072576 0.184250
#
# Coordination Sequence:
#
# PCOD9074413 Si02
#       8
#     2   2   2   2   2   2   2   2
#     4   9  17  32  51  74  97 131 170 199 236 297
#     4  10  18  32  51  73 103 130 155 211 255 279
#     4   7  15  29  48  71  96 131 165 197 232 289
#     4   8  13  28  54  73  97 129 172 197 231 288
#     4   8  16  31  51  72  99 129 172 196 230 292
#     4   9  19  35  52  71  96 130 170 202 240 299
#     4  10  19  32  50  76 102 126 162 206 248 290
#     4   9  16  30  52  72 102 131 164 201 244 284
#
# _framework density 26.251062000000001
#
# number of rings (size 3 to 8) (size 9 to 14) (size 15 to 20)
#    0.750    2.500    1.250    0.375    0.000    0.500 
#    0.000   18.125    0.000    0.750    0.000    0.000 
#    0.000    0.000    0.000    0.000    0.000    0.000 
#
# Total GULP energy -89217.588979 kJ/mol
# GULP energy per Si atom -5576.099311 kJ/mol
# Density = 2.619131 g / cm^3
# Si number density = 26.251062 Si / 1000 Ang^3
#
#
#
# Elastic Constant Matrix: (Units=GPa)
#
#
# Indices 1 2 3 4 5 6 
#
# 1 54.4233 31.6207 32.0153 -12.0302 7.4020 -10.7608
# 2 31.6207 141.8429 43.3448 3.5128 16.3593 -23.5380
# 3 32.0153 43.3448 67.0227 -3.5621 13.6512 -11.3301
# 4 -12.0302 3.5128 -3.5621 34.3467 1.8036 10.0433
# 5 7.4020 16.3593 13.6512 1.8036 35.8351 -5.2955
# 6 -10.7608 -23.5380 -11.3301 10.0433 -5.2955 24.9643
#
#
#
# Elastic Compliance Matrix: (Units=1/GPa)
#
#
# Indices 1 2 3 4 5 6 
#
# 1 0.028943 -0.003096 -0.011076 0.009136 -0.000701 0.000706
# 2 -0.003096 0.010660 -0.003975 -0.005070 -0.001171 0.008704
# 3 -0.011076 -0.003975 0.023988 -0.001291 -0.004692 0.001890
# 4 0.009136 -0.005070 -0.001291 0.037997 -0.003575 -0.017473
# 5 -0.000701 -0.001171 -0.004692 -0.003575 0.031221 0.004525
# 6 0.000706 0.008704 0.001890 -0.017473 0.004525 0.057415
#
#
# Mechanical properties :
#
#
# Convention : Reuss Voigt Hill
#
# Bulk Modulus (GPa) = 36.63205 53.02782 44.82993
# Shear Modulus (GPa) = 21.22108 29.44975 25.33542
#
# Velocity S-wave (km/s) = 2.84630 3.35304 3.11001
# Velocity P-wave (km/s) = 4.97863 5.93587 5.47820
#
# Compressibility (1/GPa) = 0.02729850
#
# Stress axis : x y z
#
# Youngs Moduli (GPa) = 34.55065 93.81048 41.68810
#
# Poissons Ratio (x) = 0.29043 0.46172
# Poissons Ratio (y) = 0.10697 0.16569
# Poissons Ratio (z) = 0.38267 0.37285
#
# Static dielectric constant tensor:
#      x y z
#    x 2.221890 -0.026250 0.001130 
#    y -0.026250 2.070420 0.035210 
#    z 0.001130 0.035210 2.185220 
# 
# From -- ./inp_files/197020.got.cif
#   From: 2010.05.17/outbox.cif.g08.bks.cpg/sg2_99_cif.got.tgz:197020.got - 2010.06.03 11:33:40.
