data_PCOD9074164
_publ_section_title
;
Structure prediction by ZEFSAII (Michael W. Deem and Ramdas Pophale) SiO2 
 PCOD9074164
Probable space group: P -1
;
_chemical_formula_sum "Si O2"
_cell_formula_units_Z 16
_cell_length_a 9.000000
_cell_length_b 27.000000
_cell_length_c 6.000000
_cell_angle_alpha 80.000000
_cell_angle_beta 60.000000
_cell_angle_gamma 40.000000
_cell_volume 752.029055
_symmetry_space_group_name_H-M "P -1"
_symmetry_group_IT_number 2
_symmetry_cell_setting 'triclinic'
loop_
_space_group_symop_operation_xyz
x,y,z
-x,-y,-z
loop_
_atom_site_type_symbol
_atom_site_label
_atom_site_fract_x
_atom_site_fract_y
_atom_site_fract_z
Si Si1 0.379760 0.916060 0.870086
Si Si2 0.421964 0.661563 0.703816
Si Si3 0.999634 0.202149 0.441655
Si Si4 0.802700 0.649627 0.730715
Si Si5 0.176352 0.656139 0.268087
Si Si6 0.347546 0.481056 0.668759
Si Si7 0.850211 0.070223 0.374354
Si Si8 0.313315 0.821512 0.215744
O O1 0.382749 0.906360 0.609194
O O2 0.665829 0.871413 0.792148
O O3 0.322717 0.872444 0.036133
O O4 0.117152 0.013695 0.051385
O O5 0.215462 0.744654 0.646492
O O6 0.625835 0.650686 0.709033
O O7 0.586366 0.582802 0.487162
O O8 0.215262 0.671646 0.986367
O O9 0.934135 0.270247 0.564392
O O10 0.923798 0.166922 0.646441
O O11 0.980874 0.651930 0.458544
O O12 0.022362 0.569041 0.789673
O O13 0.592442 0.728076 0.993114
O O14 0.500580 0.568830 0.173768
O O15 0.500000 0.500000 0.500000
O O16 0.723233 0.148663 0.527760
O O17 0.000000 0.000000 0.500000
#
# Coordination Sequence:
#
# PCOD9074164 Si02
#       8
#     2   2   2   2   2   2   2   2
#     4  10  22  46  68  93 131 167 211 259 317 381
#     4  11  24  42  63  94 129 172 219 265 318 377
#     4  11  24  40  63  99 129 165 217 263 311 381
#     4  11  22  42  64  94 130 170 214 271 321 378
#     4  10  22  43  62  90 129 171 218 270 317 375
#     4   9  22  43  61  92 128 169 226 266 319 378
#     4   9  22  44  70  96 126 168 208 258 320 382
#     4  11  23  41  65  99 131 165 212 261 321 384
#
# _framework density 21.275773999999998
#
# number of rings (size 3 to 8) (size 9 to 14) (size 15 to 20)
#    0.000    1.750    2.500    0.375    1.750    6.000 
#    2.250    5.625    0.000    0.000    0.000    0.000 
#    0.000    0.000    0.000    0.000    0.000    0.000 
#
# Total GULP energy -89121.821791 kJ/mol
# GULP energy per Si atom -5570.113862 kJ/mol
# Density = 2.122735 g / cm^3
# Si number density = 21.275774 Si / 1000 Ang^3
#
#
#
# Elastic Constant Matrix: (Units=GPa)
#
#
# Indices 1 2 3 4 5 6 
#
# 1 128.6319 44.5660 34.8551 16.8046 -10.8189 3.6464
# 2 44.5660 69.9005 46.5577 26.1048 0.1859 -5.7950
# 3 34.8551 46.5577 55.9845 6.1945 -12.7209 5.5066
# 4 16.8046 26.1048 6.1945 31.9686 8.7366 -7.8151
# 5 -10.8189 0.1859 -12.7209 8.7366 38.2914 2.0534
# 6 3.6464 -5.7950 5.5066 -7.8151 2.0534 35.6426
#
#
#
# Elastic Compliance Matrix: (Units=1/GPa)
#
#
# Indices 1 2 3 4 5 6 
#
# 1 0.010589 -0.005834 -0.000405 -0.002357 0.003568 -0.002692
# 2 -0.005834 0.066868 -0.052020 -0.035151 -0.011904 0.012484
# 3 -0.000405 -0.052020 0.064297 0.021961 0.017267 -0.014529
# 4 -0.002357 -0.035151 0.021961 0.060078 -0.007160 0.004719
# 5 0.003568 -0.011904 0.017267 -0.007160 0.035010 -0.008555
# 6 -0.002692 0.012484 -0.014529 0.004719 -0.008555 0.034134
#
#
# Mechanical properties :
#
#
# Convention : Reuss Voigt Hill
#
# Bulk Modulus (GPa) = 39.62400 56.27495 47.94948
# Shear Modulus (GPa) = 12.62927 29.74973 21.18950
#
# Velocity S-wave (km/s) = 2.43903 3.74343 3.15928
# Velocity P-wave (km/s) = 5.15716 6.72250 5.99117
#
# Compressibility (1/GPa) = 0.02523723
#
# Stress axis : x y z
#
# Youngs Moduli (GPa) = 94.43351 14.95484 15.55282
#
# Poissons Ratio (x) = 0.08725 0.00629
# Poissons Ratio (y) = 0.55097 0.80905
# Poissons Ratio (z) = 0.03820 0.77795
#
# Static dielectric constant tensor:
#      x y z
#    x 1.750140 -0.031600 0.030350 
#    y -0.031600 1.798050 -0.006420 
#    z 0.030350 -0.006420 1.894850 
# 
# From -- ./inp_files/56390.got.cif
#   From: 2010.05.17/outbox.ucp.g08.bks.cvg/sg2_29_cif.got.tgz:56390.got - 2010.06.11 11:32:03.
