data_PCOD9074800
_publ_section_title
;
Structure prediction by ZEFSAII (Michael W. Deem and Ramdas Pophale) SiO2 
 PCOD9074800
Probable space group: P -1
;
_chemical_formula_sum "Si O2"
_cell_formula_units_Z 13
_cell_length_a 6.000000
_cell_length_b 9.000000
_cell_length_c 12.000000
_cell_angle_alpha 110.000000
_cell_angle_beta 100.000000
_cell_angle_gamma 100.000000
_cell_volume 580.344873
_symmetry_space_group_name_H-M "P -1"
_symmetry_group_IT_number 2
_symmetry_cell_setting 'triclinic'
loop_
_space_group_symop_operation_xyz
x,y,z
-x,-y,-z
loop_
_atom_site_type_symbol
_atom_site_label
_atom_site_fract_x
_atom_site_fract_y
_atom_site_fract_z
Si Si1 0.073884 0.937966 0.660366
Si Si2 0.634580 0.859275 0.454834
Si Si3 0.500000 0.500000 0.000000
Si Si4 0.424849 0.787582 0.765089
Si Si5 0.100727 0.941464 0.105214
Si Si6 0.631500 0.487408 0.744153
Si Si7 0.873562 0.358325 0.094442
O O1 0.232633 0.813284 0.667425
O O2 0.817392 0.855591 0.568770
O O3 0.204047 0.075644 0.621257
O O4 0.048472 0.026242 0.796040
O O5 0.462223 0.685179 0.368524
O O6 0.500000 0.000000 0.500000
O O7 0.428622 0.527914 0.133575
O O8 0.750652 0.484343 0.062409
O O9 0.909622 0.560555 0.788449
O O10 0.312264 0.763278 0.872421
O O11 0.637637 0.949293 0.824692
O O12 0.077993 0.754411 0.029673
O O13 0.000000 0.000000 0.000000
O O14 0.519622 0.626612 0.717336
#
# Coordination Sequence:
#
# PCOD9074800 Si02
#       7
#     2   2   1   2   2   2   2
#     4  11  26  46  72 104 137 191 240 289 347 421
#     4  11  28  50  71 100 141 194 244 285 347 421
#     4  10  26  40  64 106 142 180 224 292 354 414
#     4  11  23  44  69 107 138 181 233 288 355 416
#     4  12  23  42  75 106 145 181 232 291 357 423
#     4  11  25  45  70 103 144 183 234 296 355 414
#     4  11  24  42  68 108 144 182 225 289 360 421
#
# _framework density 22.400473999999999
#
# number of rings (size 3 to 8) (size 9 to 14) (size 15 to 20)
#    0.000    0.923    3.077    1.846    6.462    5.538 
#    0.000    5.385    0.000    0.000    0.000    0.000 
#    0.000    0.000    0.000    0.000    0.000    0.000 
#
# Total GULP energy -72457.337476 kJ/mol
# GULP energy per Si atom -5573.641344 kJ/mol
# Density = 2.234949 g / cm^3
# Si number density = 22.400474 Si / 1000 Ang^3
#
#
#
# Elastic Constant Matrix: (Units=GPa)
#
#
# Indices 1 2 3 4 5 6 
#
# 1 109.5959 41.3703 41.7714 5.6924 30.1874 -28.2999
# 2 41.3703 61.7160 26.9979 10.9992 20.0509 -6.4123
# 3 41.7714 26.9979 83.9060 -1.2158 11.9925 -2.1563
# 4 5.6924 10.9992 -1.2158 40.6389 6.3412 7.5291
# 5 30.1874 20.0509 11.9925 6.3412 35.4682 -18.6019
# 6 -28.2999 -6.4123 -2.1563 7.5291 -18.6019 31.9531
#
#
#
# Elastic Compliance Matrix: (Units=1/GPa)
#
#
# Indices 1 2 3 4 5 6 
#
# 1 0.018569 -0.007062 -0.006449 -0.003369 -0.001380 0.014584
# 2 -0.007062 0.025676 -0.003514 -0.003293 -0.010110 -0.006449
# 3 -0.006449 -0.003514 0.016570 0.004369 -0.003206 -0.008194
# 4 -0.003369 -0.003293 0.004369 0.031080 -0.011376 -0.017296
# 5 -0.001380 -0.010110 -0.003206 -0.011376 0.054399 0.030881
# 6 0.014584 -0.006449 -0.008194 -0.017296 0.030881 0.064419
#
#
# Mechanical properties :
#
#
# Convention : Reuss Voigt Hill
#
# Bulk Modulus (GPa) = 37.36238 52.83301 45.09769
# Shear Modulus (GPa) = 19.70943 31.28392 25.49668
#
# Velocity S-wave (km/s) = 2.96947 3.74113 3.37741
# Velocity P-wave (km/s) = 5.33596 6.50371 5.94856
#
# Compressibility (1/GPa) = 0.02676489
#
# Stress axis : x y z
#
# Youngs Moduli (GPa) = 53.85216 38.94671 60.34920
#
# Poissons Ratio (x) = 0.27506 0.38918
# Poissons Ratio (y) = 0.38033 0.21208
# Poissons Ratio (z) = 0.34728 0.13687
#
# Static dielectric constant tensor:
#      x y z
#    x 1.905970 -0.054600 -0.045710 
#    y -0.054600 1.987450 0.005400 
#    z -0.045710 0.005400 1.774910 
# 
# From -- ./inp_files/360455.got.cif
#   From: 2010.05.17/outbox.ucp.g08.bks.cvg/sg2_181_cif.got.tgz:360455.got - 2010.06.11 11:32:03.
