data_PCOD9074559
_publ_section_title
;
Structure prediction by ZEFSAII (Michael W. Deem and Ramdas Pophale) SiO2 
 PCOD9074559
Probable space group: P -1
;
_chemical_formula_sum "Si O2"
_cell_formula_units_Z 14
_cell_length_a 15.000000
_cell_length_b 15.000000
_cell_length_c 9.000000
_cell_angle_alpha 40.000000
_cell_angle_beta 30.000000
_cell_angle_gamma 40.000000
_cell_volume 616.747849
_symmetry_space_group_name_H-M "P -1"
_symmetry_group_IT_number 2
_symmetry_cell_setting 'triclinic'
loop_
_space_group_symop_operation_xyz
x,y,z
-x,-y,-z
loop_
_atom_site_type_symbol
_atom_site_label
_atom_site_fract_x
_atom_site_fract_y
_atom_site_fract_z
Si Si1 0.505459 0.121594 0.538097
Si Si2 0.178908 0.596086 0.467480
Si Si3 0.143406 0.285350 0.998427
Si Si4 0.469049 0.624704 0.257311
Si Si5 0.299724 0.201101 0.415640
Si Si6 0.883424 0.148669 0.389233
Si Si7 0.861355 0.220159 0.985847
O O1 0.358243 0.179310 0.812881
O O2 0.381257 0.189741 0.482432
O O3 0.565128 0.948137 0.660333
O O4 0.704362 0.156070 0.215521
O O5 0.156671 0.441680 0.735907
O O6 0.361393 0.595452 0.302553
O O7 0.193697 0.631882 0.227056
O O8 0.984571 0.708761 0.676414
O O9 0.015620 0.246813 0.106513
O O10 0.500000 0.500000 0.500000
O O11 0.317036 0.772500 0.348512
O O12 0.658298 0.660070 0.896908
O O13 0.089167 0.194390 0.699482
O O14 0.843370 0.163901 0.251919
O O15 0.000000 0.000000 0.500000
#
# Coordination Sequence:
#
# PCOD9074559 Si02
#       7
#     2   2   2   2   2   2   2
#     4  11  24  45  72 106 142 188 245 300 362 433
#     4  10  25  45  73 104 144 187 251 292 360 441
#     4  10  23  46  70 101 146 186 234 306 358 427
#     4  11  26  47  71 104 151 196 238 304 370 435
#     4  11  25  45  73 105 146 187 242 304 364 424
#     4  11  26  47  73 107 148 191 247 302 371 439
#     4  12  26  45  75 108 141 196 242 301 360 436
#
# _framework density 22.699714
#
# number of rings (size 3 to 8) (size 9 to 14) (size 15 to 20)
#    0.000    1.143    2.857    1.286   10.000    4.571 
#    0.000    2.143    0.000    0.000    0.000    0.000 
#    0.000    0.000    0.000    0.000    0.000    0.000 
#
# Total GULP energy -77951.294439 kJ/mol
# GULP energy per Si atom -5567.949603 kJ/mol
# Density = 2.264805 g / cm^3
# Si number density = 22.699714 Si / 1000 Ang^3
#
#
#
# Elastic Constant Matrix: (Units=GPa)
#
#
# Indices 1 2 3 4 5 6 
#
# 1 110.6044 22.8768 22.8828 1.0873 -7.9100 -18.2296
# 2 22.8768 33.9329 9.5166 21.2585 -6.4551 2.8840
# 3 22.8828 9.5166 101.4421 2.7632 -40.9295 10.6072
# 4 1.0873 21.2585 2.7632 17.2619 -12.6088 -5.6069
# 5 -7.9100 -6.4551 -40.9295 -12.6088 48.5596 -2.5092
# 6 -18.2296 2.8840 10.6072 -5.6069 -2.5092 19.8319
#
#
#
# Elastic Compliance Matrix: (Units=1/GPa)
#
#
# Indices 1 2 3 4 5 6 
#
# 1 0.003094 0.023601 -0.005623 -0.040753 -0.012230 -0.010650
# 2 0.023601 -0.059525 0.003235 0.116094 0.032188 0.065516
# 3 -0.005623 0.003235 0.017715 -0.001096 0.013452 -0.013722
# 4 -0.040753 0.116094 -0.001096 -0.137815 -0.032921 -0.096886
# 5 -0.012230 0.032188 0.013452 -0.032921 0.024152 -0.029369
# 6 -0.010650 0.065516 -0.013722 -0.096886 -0.029369 0.007338
#
#
# Mechanical properties :
#
#
# Convention : Reuss Voigt Hill
#
# Bulk Modulus (GPa) = 269.55420 39.61463 154.58442
# Shear Modulus (GPa) = -26.84838 29.84423 1.49792
#
# Velocity S-wave (km/s) = -3.44286 3.62987 0.81321
# Velocity P-wave (km/s) = 10.15880 5.92093 8.31440
#
# Compressibility (1/GPa) = 0.00370983
#
# Stress axis : x y z
#
# Youngs Moduli (GPa) = 323.25703 -16.79966 56.44961
#
# Poissons Ratio (x) = 0.39650 0.31741
# Poissons Ratio (y) = -7.62934 -0.18259
# Poissons Ratio (z) = 1.81762 0.05434
#
# Static dielectric constant tensor:
#      x y z
#    x 1.856420 0.089700 0.046180 
#    y 0.089700 1.929660 0.042130 
#    z 0.046180 0.042130 1.898830 
# 
# From -- ./inp_files/314429.got.cif
#   From: 2010.05.17/outbox.ucp.g08.bks.cvg/sg2_158_cif.got.tgz:314429.got - 2010.06.11 11:32:03.
