data_PCOD9074805
_publ_section_title
;
Structure prediction by ZEFSAII (Michael W. Deem and Ramdas Pophale) SiO2 
 PCOD9074805
Probable space group: P -1
;
_chemical_formula_sum "Si O2"
_cell_formula_units_Z 14
_cell_length_a 11.067768
_cell_length_b 11.199812
_cell_length_c 11.118174
_cell_angle_alpha 122.201674
_cell_angle_beta 62.777440
_cell_angle_gamma 71.941274
_cell_volume 702.094169
_symmetry_space_group_name_H-M "P -1"
_symmetry_group_IT_number 2
_symmetry_cell_setting 'triclinic'
loop_
_space_group_symop_operation_xyz
x,y,z
-x,-y,-z
loop_
_atom_site_type_symbol
_atom_site_label
_atom_site_fract_x
_atom_site_fract_y
_atom_site_fract_z
Si Si1 0.003327 0.390592 0.582627
Si Si2 0.713859 0.833390 0.877650
Si Si3 0.738012 0.548517 0.397355
Si Si4 0.690636 0.756199 0.292041
Si Si5 0.938340 0.343166 0.842957
Si Si6 0.037378 0.870447 0.066654
Si Si7 0.300024 0.886053 0.821905
O O1 0.789822 0.620451 0.766871
O O2 0.988913 0.300739 0.656255
O O3 0.120295 0.241155 0.334758
O O4 0.133507 0.431183 0.581455
O O5 0.500000 0.000000 0.000000
O O6 0.701785 0.946606 0.057088
O O7 0.665881 0.683390 0.383310
O O8 0.529693 0.660660 0.611681
O O9 0.873609 0.317383 0.165192
O O10 0.880351 0.713217 0.203043
O O11 0.500000 0.000000 0.500000
O O12 0.750741 0.594810 0.077887
O O13 0.923124 0.214811 0.862057
O O14 0.161044 0.913609 0.997280
O O15 0.806941 0.061259 0.229575
#
# Coordination Sequence:
#
# PCOD9074805 Si02
#       7
#     2   2   2   2   2   2   2
#     4  10  21  35  56  80 107 138 180 230 269 307
#     4  11  22  37  56  80 104 141 186 226 263 311
#     4  10  18  32  52  80 109 134 174 221 265 312
#     4   9  17  26  49  77 105 138 167 212 268 318
#     4   9  19  33  50  76 112 138 170 220 272 313
#     4  10  21  36  52  82 115 142 171 217 271 328
#     4  11  21  34  57  79 110 146 181 213 263 325
#
# _framework density 19.940344
#
# number of rings (size 3 to 8) (size 9 to 14) (size 15 to 20)
#    0.000    2.000    2.857    2.143    2.000    0.000 
#    0.000    0.714    0.000    0.857    0.000    0.000 
#    0.000    0.000    0.000    0.000    0.000    0.000 
#
# Total GULP energy -78051.405030 kJ/mol
# GULP energy per Si atom -5575.100359 kJ/mol
# Density = 1.989496 g / cm^3
# Si number density = 19.940344 Si / 1000 Ang^3
#
#
#
# Elastic Constant Matrix: (Units=GPa)
#
#
# Indices 1 2 3 4 5 6 
#
# 1 25.5156 -3.2857 7.2825 6.2357 -12.9939 -0.7583
# 2 -3.2857 91.1727 14.1707 -3.1875 -8.4894 -3.6562
# 3 7.2825 14.1707 56.7963 9.1636 -14.0240 -12.6831
# 4 6.2357 -3.1875 9.1636 34.1917 -11.4418 -1.7748
# 5 -12.9939 -8.4894 -14.0240 -11.4418 27.7221 1.2842
# 6 -0.7583 -3.6562 -12.6831 -1.7748 1.2842 20.3546
#
#
#
# Elastic Compliance Matrix: (Units=1/GPa)
#
#
# Indices 1 2 3 4 5 6 
#
# 1 0.053247 0.004524 -0.001593 -0.000360 0.025381 0.000171
# 2 0.004524 0.012191 -0.002523 0.002952 0.005764 0.000680
# 3 -0.001593 -0.002523 0.024154 -0.002712 0.008944 0.013737
# 4 -0.000360 0.002952 -0.002712 0.034968 0.013749 0.001009
# 5 0.025381 0.005764 0.008944 0.013749 0.059702 0.004986
# 6 0.000171 0.000680 0.013737 0.001009 0.004986 0.057591
#
#
# Mechanical properties :
#
#
# Convention : Reuss Voigt Hill
#
# Bulk Modulus (GPa) = 11.06086 23.31331 17.18708
# Shear Modulus (GPa) = 18.43847 26.80815 22.62331
#
# Velocity S-wave (km/s) = 3.04416 3.67061 3.37196
# Velocity P-wave (km/s) = 4.23260 5.44806 4.87833
#
# Compressibility (1/GPa) = 0.09040885
#
# Stress axis : x y z
#
# Youngs Moduli (GPa) = 18.78029 82.03100 41.40081
#
# Poissons Ratio (x) = -0.37111 0.06595
# Poissons Ratio (y) = -0.08496 0.10444
# Poissons Ratio (z) = 0.02992 0.20694
#
# Static dielectric constant tensor:
#      x y z
#    x 1.709960 -0.014160 -0.038810 
#    y -0.014160 1.731700 -0.004840 
#    z -0.038810 -0.004840 1.803080 
# 
# From -- ./inp_files/65871.got.cif
#   From: 2010.05.17/outbox.cif.g08.bks.cpg/sg2_33_cif.got.tgz:65871.got - 2010.06.03 11:33:40.
