data_PCOD9074291
_publ_section_title
;
Structure prediction by ZEFSAII (Michael W. Deem and Ramdas Pophale) SiO2 
 PCOD9074291
Probable space group: P -1
;
_chemical_formula_sum "Si O2"
_cell_formula_units_Z 16
_cell_length_a 9.000000
_cell_length_b 15.000000
_cell_length_c 12.000000
_cell_angle_alpha 120.000000
_cell_angle_beta 120.000000
_cell_angle_gamma 110.000000
_cell_volume 745.925389
_symmetry_space_group_name_H-M "P -1"
_symmetry_group_IT_number 2
_symmetry_cell_setting 'triclinic'
loop_
_space_group_symop_operation_xyz
x,y,z
-x,-y,-z
loop_
_atom_site_type_symbol
_atom_site_label
_atom_site_fract_x
_atom_site_fract_y
_atom_site_fract_z
Si Si1 0.887224 0.703874 0.772890
Si Si2 0.595917 0.934772 0.867357
Si Si3 0.801634 0.419337 0.602369
Si Si4 0.783309 0.819919 0.362733
Si Si5 0.691989 0.396771 0.792276
Si Si6 0.593945 0.357800 0.075424
Si Si7 0.519654 0.495095 0.306059
Si Si8 0.275282 0.998245 0.800226
O O1 0.883988 0.576518 0.700980
O O2 0.763661 0.661766 0.576459
O O3 0.685410 0.638983 0.756542
O O4 0.161500 0.902425 0.016876
O O5 0.402206 0.745677 0.651577
O O6 0.406386 0.947151 0.815882
O O7 0.746692 0.979999 0.067199
O O8 0.649079 0.345006 0.616819
O O9 0.100275 0.506152 0.775624
O O10 0.540104 0.755615 0.305749
O O11 0.618233 0.688937 0.119235
O O12 0.000000 0.000000 0.500000
O O13 0.981103 0.849389 0.535176
O O14 0.636476 0.494192 0.823302
O O15 0.000000 0.500000 0.000000
O O16 0.614464 0.439967 0.240986
O O17 0.469590 0.183086 0.938869
#
# Coordination Sequence:
#
# PCOD9074291 Si02
#       8
#     2   2   2   2   2   2   2   2
#     4  10  22  46  61  97 142 171 212 279 334 397
#     4  11  23  38  67  97 132 175 214 275 332 402
#     4  11  24  40  70  97 131 178 221 265 338 395
#     4  10  23  41  65  91 131 173 218 277 327 383
#     4  11  23  44  64  95 135 176 219 278 331 397
#     4  11  22  42  66  95 130 176 224 272 321 402
#     4  10  24  38  69  95 130 176 221 271 336 392
#     4  10  23  40  62  99 135 165 220 279 331 385
#
# _framework density 21.449867000000001
#
# number of rings (size 3 to 8) (size 9 to 14) (size 15 to 20)
#    0.000    1.500    2.500    1.500    5.250    4.500 
#    0.000    6.875    0.000    6.750    0.000    0.000 
#    0.000    0.000    0.000    0.000    0.000    0.000 
#
# Total GULP energy -89120.264052 kJ/mol
# GULP energy per Si atom -5570.016503 kJ/mol
# Density = 2.140105 g / cm^3
# Si number density = 21.449867 Si / 1000 Ang^3
#
#
#
# Elastic Constant Matrix: (Units=GPa)
#
#
# Indices 1 2 3 4 5 6 
#
# 1 76.6617 20.5715 20.7785 6.7140 0.4830 12.0437
# 2 20.5715 73.0356 30.8665 3.8730 3.5030 11.3174
# 3 20.7785 30.8665 76.4856 8.2272 18.8879 21.2813
# 4 6.7140 3.8730 8.2272 35.2413 2.1878 6.5969
# 5 0.4830 3.5030 18.8879 2.1878 22.4341 1.0485
# 6 12.0437 11.3174 21.2813 6.5969 1.0485 27.9796
#
#
#
# Elastic Compliance Matrix: (Units=1/GPa)
#
#
# Indices 1 2 3 4 5 6 
#
# 1 0.015090 -0.002703 -0.002604 -0.001540 0.002587 -0.003155
# 2 -0.002703 0.017298 -0.006806 0.000162 0.003109 -0.000811
# 3 -0.002604 -0.006806 0.025522 -0.000759 -0.019611 -0.014624
# 4 -0.001540 0.000162 -0.000759 0.030045 -0.002010 -0.005834
# 5 0.002587 0.003109 -0.019611 -0.002010 0.060238 0.010762
# 6 -0.003155 -0.000811 -0.014624 -0.005834 0.010762 0.049522
#
#
# Mechanical properties :
#
#
# Convention : Reuss Voigt Hill
#
# Bulk Modulus (GPa) = 29.68791 41.17956 35.43373
# Shear Modulus (GPa) = 21.44371 27.39542 24.41957
#
# Velocity S-wave (km/s) = 3.16525 3.57765 3.37775
# Velocity P-wave (km/s) = 5.21815 6.02543 5.63626
#
# Compressibility (1/GPa) = 0.03368375
#
# Stress axis : x y z
#
# Youngs Moduli (GPa) = 66.27036 57.81132 39.18203
#
# Poissons Ratio (x) = 0.15628 0.10202
# Poissons Ratio (y) = 0.17915 0.26666
# Poissons Ratio (z) = 0.17255 0.39345
#
# Static dielectric constant tensor:
#      x y z
#    x 1.812580 0.026710 0.043210 
#    y 0.026710 1.845010 -0.024840 
#    z 0.043210 -0.024840 1.815170 
# 
# From -- ./inp_files/399478.got.cif
#   From: 2010.05.17/outbox.ucp.g08.bks.cvg/sg2_200_cif.got.tgz:399478.got - 2010.06.11 11:32:03.
