data_PCOD9074869
_publ_section_title
;
Structure prediction by ZEFSAII (Michael W. Deem and Ramdas Pophale) SiO2 
 PCOD9074869
Probable space group: P -1
;
_chemical_formula_sum "Si O2"
_cell_formula_units_Z 16
_cell_length_a 12.000000
_cell_length_b 9.000000
_cell_length_c 12.000000
_cell_angle_alpha 130.000000
_cell_angle_beta 130.000000
_cell_angle_gamma 70.000000
_cell_volume 754.912344
_symmetry_space_group_name_H-M "P -1"
_symmetry_group_IT_number 2
_symmetry_cell_setting 'triclinic'
loop_
_space_group_symop_operation_xyz
x,y,z
-x,-y,-z
loop_
_atom_site_type_symbol
_atom_site_label
_atom_site_fract_x
_atom_site_fract_y
_atom_site_fract_z
Si Si1 0.190645 0.824745 0.326055
Si Si2 0.832402 0.462229 0.016710
Si Si3 0.528328 0.312359 0.860504
Si Si4 0.671185 0.811866 0.538694
Si Si5 0.074271 0.227070 0.143905
Si Si6 0.464563 0.717809 0.564957
Si Si7 0.596049 0.017199 0.960047
Si Si8 0.129260 0.141783 0.883325
O O1 0.298551 0.771891 0.468322
O O2 0.039148 0.916308 0.291844
O O3 0.272299 0.970764 0.358640
O O4 0.145219 0.627037 0.133936
O O5 0.820164 0.689104 0.092804
O O6 0.958630 0.387148 0.139979
O O7 0.679649 0.362528 0.917280
O O8 0.399977 0.272400 0.664839
O O9 0.555218 0.159950 0.903331
O O10 0.500000 0.500000 0.000000
O O11 0.804676 0.736801 0.661620
O O12 0.542728 0.798337 0.540177
O O13 0.132347 0.224680 0.052646
O O14 0.000000 0.000000 0.000000
O O15 0.500000 0.500000 0.500000
O O16 0.546569 0.815307 0.770131
O O17 0.763864 0.025264 0.113886
O O18 0.500000 0.000000 0.000000
#
# Coordination Sequence:
#
# PCOD9074869 Si02
#       8
#     2   2   2   2   2   2   2   2
#     4  11  21  39  65 100 135 170 219 282 339 397
#     4  11  22  39  65  98 139 171 219 279 345 399
#     4  12  27  46  68  94 138 183 232 282 342 409
#     4  12  23  40  69  99 134 172 231 273 340 389
#     4  11  20  36  65 101 135 169 219 280 340 401
#     4  12  25  39  68 104 137 174 231 282 332 406
#     4  12  26  46  69  96 135 183 227 277 350 412
#     4  11  23  39  64 101 138 175 218 275 345 410
#
# _framework density 21.194514000000002
#
# number of rings (size 3 to 8) (size 9 to 14) (size 15 to 20)
#    0.000    0.500    6.250    4.875    3.500    0.000 
#    0.000    1.250    0.000    0.000    0.000    0.000 
#    0.000    0.000    0.000    0.000    0.000    0.000 
#
# Total GULP energy -89119.507290 kJ/mol
# GULP energy per Si atom -5569.969206 kJ/mol
# Density = 2.114627 g / cm^3
# Si number density = 21.194514 Si / 1000 Ang^3
#
#
#
# Elastic Constant Matrix: (Units=GPa)
#
#
# Indices 1 2 3 4 5 6 
#
# 1 68.8489 34.9089 40.9844 -2.3366 10.9045 7.8894
# 2 34.9089 127.7369 48.0951 -30.5463 15.4057 5.6025
# 3 40.9844 48.0951 85.0710 -25.2510 15.7300 -7.7937
# 4 -2.3366 -30.5463 -25.2510 49.8071 -14.1913 12.4794
# 5 10.9045 15.4057 15.7300 -14.1913 24.2469 -10.2272
# 6 7.8894 5.6025 -7.7937 12.4794 -10.2272 44.1681
#
#
#
# Elastic Compliance Matrix: (Units=1/GPa)
#
#
# Indices 1 2 3 4 5 6 
#
# 1 0.024519 -0.002897 -0.011294 -0.007330 -0.008654 -0.005938
# 2 -0.002897 0.011685 -0.003499 0.005563 -0.002135 -0.003648
# 3 -0.011294 -0.003499 0.021836 0.007089 -0.000993 0.004082
# 4 -0.007330 0.005563 0.007089 0.031102 0.011573 -0.004253
# 5 -0.008654 -0.002135 -0.000993 0.011573 0.058982 0.012029
# 6 -0.005938 -0.003648 0.004082 -0.004253 0.012029 0.028871
#
#
# Mechanical properties :
#
#
# Convention : Reuss Voigt Hill
#
# Bulk Modulus (GPa) = 44.13134 58.84817 51.48976
# Shear Modulus (GPa) = 22.73449 34.15562 28.44506
#
# Velocity S-wave (km/s) = 3.27870 4.01874 3.66744
# Velocity P-wave (km/s) = 5.93300 7.02565 6.50232
#
# Compressibility (1/GPa) = 0.02265963
#
# Stress axis : x y z
#
# Youngs Moduli (GPa) = 40.78465 85.57634 45.79592
#
# Poissons Ratio (x) = 0.24792 0.51723
# Poissons Ratio (y) = 0.11816 0.16024
# Poissons Ratio (z) = 0.46063 0.29944
#
# Static dielectric constant tensor:
#      x y z
#    x 1.793110 -0.083600 0.054270 
#    y -0.083600 1.787930 0.023340 
#    z 0.054270 0.023340 1.795760 
# 
# From -- ./inp_files/420143.got.cif
#   From: 2010.05.17/outbox.ucp.g08.bks.cvg/sg2_211_cif.got.tgz:420143.got - 2010.06.11 11:32:03.
