data_PCOD9074654
_publ_section_title
;
Structure prediction by ZEFSAII (Michael W. Deem and Ramdas Pophale) SiO2 
 PCOD9074654
Probable space group: P -1
;
_chemical_formula_sum "Si O2"
_cell_formula_units_Z 14
_cell_length_a 12.048900
_cell_length_b 17.056442
_cell_length_c 9.136368
_cell_angle_alpha 101.379700
_cell_angle_beta 129.798201
_cell_angle_gamma 38.678700
_cell_volume 700.314504
_symmetry_space_group_name_H-M "P -1"
_symmetry_group_IT_number 2
_symmetry_cell_setting 'triclinic'
loop_
_space_group_symop_operation_xyz
x,y,z
-x,-y,-z
loop_
_atom_site_type_symbol
_atom_site_label
_atom_site_fract_x
_atom_site_fract_y
_atom_site_fract_z
Si Si1 0.538363 0.837566 0.674319
Si Si2 0.319947 0.317582 0.873608
Si Si3 0.995903 0.278770 0.836518
Si Si4 0.649893 0.237699 0.359068
Si Si5 0.462867 0.614453 0.404886
Si Si6 0.351747 0.316965 0.554329
Si Si7 0.722460 0.989919 0.215117
O O1 0.453543 0.793286 0.658625
O O2 0.551059 0.807087 0.504040
O O3 0.319240 0.000602 0.641072
O O4 0.844978 0.727406 0.943524
O O5 0.358849 0.299372 0.726129
O O6 0.984174 0.497011 0.697536
O O7 0.512977 0.293793 0.104804
O O8 0.447975 0.172130 0.987885
O O9 0.764669 0.422421 0.574829
O O10 0.817025 0.307690 0.807963
O O11 0.213985 0.117365 0.869549
O O12 0.525350 0.365446 0.406401
O O13 0.993618 0.089359 0.592881
O O14 0.458599 0.696569 0.336313
#
# Coordination Sequence:
#
# PCOD9074654 Si02
#       7
#     2   2   2   2   2   2   2
#     4  10  18  32  52  76 101 132 174 209 248 300
#     4  10  19  34  55  77 104 131 171 217 255 300
#     4  10  19  31  53  78 106 135 168 213 253 299
#     4   9  18  34  56  79 100 131 175 218 250 290
#     4   9  18  34  54  78 102 132 176 211 250 302
#     4  10  21  34  54  78 101 136 173 211 255 300
#     4  10  20  34  53  80 105 133 169 212 258 301
#
# _framework density 19.991019000000001
#
# number of rings (size 3 to 8) (size 9 to 14) (size 15 to 20)
#    0.000    2.286    0.000    4.714    0.000    4.000 
#    0.000   12.143    0.000   30.000    0.000    0.000 
#    0.000    0.000    0.000    0.000    0.000    0.000 
#
# Total GULP energy -77938.290144 kJ/mol
# GULP energy per Si atom -5567.020725 kJ/mol
# Density = 1.994552 g / cm^3
# Si number density = 19.991019 Si / 1000 Ang^3
#
#
#
# Elastic Constant Matrix: (Units=GPa)
#
#
# Indices 1 2 3 4 5 6 
#
# 1 59.7752 11.6353 22.4996 14.2051 20.3022 -9.5354
# 2 11.6353 74.0114 8.7809 9.7140 -6.9317 -10.1097
# 3 22.4996 8.7809 52.4539 12.2740 14.0713 -7.3629
# 4 14.2051 9.7140 12.2740 29.4332 0.9118 1.8706
# 5 20.3022 -6.9317 14.0713 0.9118 33.8867 3.0731
# 6 -9.5354 -10.1097 -7.3629 1.8706 3.0731 24.6091
#
#
#
# Elastic Compliance Matrix: (Units=1/GPa)
#
#
# Indices 1 2 3 4 5 6 
#
# 1 0.029219 -0.002589 -0.002673 -0.012385 -0.017736 0.012614
# 2 -0.002589 0.015687 -0.001284 -0.003847 0.004968 0.004729
# 3 -0.002673 -0.001284 0.026586 -0.009590 -0.010204 0.008394
# 4 -0.012385 -0.003847 -0.009590 0.045784 0.010658 -0.014059
# 5 -0.017736 0.004968 -0.010204 0.010658 0.046416 -0.014491
# 6 0.012614 0.004729 0.008394 -0.014059 -0.014491 0.052855
#
#
# Mechanical properties :
#
#
# Convention : Reuss Voigt Hill
#
# Bulk Modulus (GPa) = 17.12384 30.23024 23.67704
# Shear Modulus (GPa) = 20.07176 27.14077 23.60627
#
# Velocity S-wave (km/s) = 3.17210 3.68863 3.44007
# Velocity P-wave (km/s) = 4.69048 5.77027 5.25817
#
# Compressibility (1/GPa) = 0.05839812
#
# Stress axis : x y z
#
# Youngs Moduli (GPa) = 34.22475 63.74742 37.61442
#
# Poissons Ratio (x) = 0.16503 0.10056
# Poissons Ratio (y) = 0.08860 0.04831
# Poissons Ratio (z) = 0.09149 0.08187
#
# Static dielectric constant tensor:
#      x y z
#    x 1.745350 -0.008940 0.038710 
#    y -0.008940 1.802380 -0.010210 
#    z 0.038710 -0.010210 1.729040 
# 
# From -- ./inp_files/209341.got.cif
#   From: 2010.05.17/outbox.cif.g08.bks.cpg/sg2_105_cif.got.tgz:209341.got - 2010.06.03 11:33:40.
