data_PCOD9074678
_publ_section_title
;
Structure prediction by ZEFSAII (Michael W. Deem and Ramdas Pophale) SiO2 
 PCOD9074678
Probable space group: P -1
;
_chemical_formula_sum "Si O2"
_cell_formula_units_Z 16
_cell_length_a 9.000000
_cell_length_b 9.000000
_cell_length_c 15.000000
_cell_angle_alpha 80.000000
_cell_angle_beta 70.000000
_cell_angle_gamma 130.000000
_cell_volume 732.374747
_symmetry_space_group_name_H-M "P -1"
_symmetry_group_IT_number 2
_symmetry_cell_setting 'triclinic'
loop_
_space_group_symop_operation_xyz
x,y,z
-x,-y,-z
loop_
_atom_site_type_symbol
_atom_site_label
_atom_site_fract_x
_atom_site_fract_y
_atom_site_fract_z
Si Si1 0.737767 0.316212 0.028983
Si Si2 0.936664 0.892224 0.150667
Si Si3 0.989390 0.039993 0.318984
Si Si4 0.157944 0.490956 0.211753
Si Si5 0.318501 0.072403 0.919124
Si Si6 0.590219 0.850128 0.537913
Si Si7 0.466568 0.638614 0.773167
Si Si8 0.141959 0.636184 0.549866
O O1 0.593140 0.319522 0.126142
O O2 0.635280 0.072151 0.076906
O O3 0.787967 0.402973 0.908062
O O4 0.000000 0.500000 0.000000
O O5 0.866772 0.003679 0.110521
O O6 0.738996 0.635175 0.176066
O O7 0.940797 0.906156 0.254705
O O8 0.193942 0.027734 0.042853
O O9 0.003255 0.225366 0.264687
O O10 0.253259 0.204462 0.289294
O O11 0.783593 0.873725 0.453790
O O12 0.429479 0.659634 0.173797
O O13 0.031936 0.500431 0.313136
O O14 0.465607 0.729468 0.670861
O O15 0.382694 0.716457 0.518424
O O16 0.749687 0.115784 0.496085
O O17 0.000000 0.500000 0.500000
#
# Coordination Sequence:
#
# PCOD9074678 Si02
#       8
#     2   2   2   2   2   2   2   2
#     4  12  24  41  68 100 141 179 223 292 344 401
#     4  11  25  43  69  99 137 187 230 274 347 415
#     4  11  25  44  70  96 140 185 229 288 340 401
#     4  11  24  42  68 101 137 176 235 277 349 413
#     4  11  24  43  65 100 138 176 229 280 341 416
#     4  10  25  45  67 103 137 177 235 283 339 408
#     4  12  25  45  70 102 141 183 231 282 342 411
#     4  10  24  44  71  99 138 181 226 286 348 407
#
# _framework density 21.846738999999999
#
# number of rings (size 3 to 8) (size 9 to 14) (size 15 to 20)
#    0.000    1.000    2.500    3.000    5.250    3.500 
#    0.000    0.000    0.000    0.000    0.000    0.000 
#    0.000    0.000    0.000    0.000    0.000    0.000 
#
# Total GULP energy -89351.687636 kJ/mol
# GULP energy per Si atom -5584.480477 kJ/mol
# Density = 2.179701 g / cm^3
# Si number density = 21.846739 Si / 1000 Ang^3
#
#
#
# Elastic Constant Matrix: (Units=GPa)
#
#
# Indices 1 2 3 4 5 6 
#
# 1 50.1292 28.8535 24.9625 7.6036 -10.2764 15.7585
# 2 28.8535 101.5533 34.4759 21.0197 -3.5540 15.8324
# 3 24.9625 34.4759 123.1926 14.3975 -11.4661 7.4826
# 4 7.6036 21.0197 14.3975 35.9104 3.6389 6.0937
# 5 -10.2764 -3.5540 -11.4661 3.6389 44.9169 -5.7972
# 6 15.7585 15.8324 7.4826 6.0937 -5.7972 30.0914
#
#
#
# Elastic Compliance Matrix: (Units=1/GPa)
#
#
# Indices 1 2 3 4 5 6 
#
# 1 0.028820 -0.005183 -0.003332 -0.000319 0.003977 -0.010706
# 2 -0.005183 0.013566 -0.001977 -0.005499 -0.000549 -0.002924
# 3 -0.003332 -0.001977 0.009736 -0.002444 0.001923 0.001229
# 4 -0.000319 -0.005499 -0.002444 0.033212 -0.004325 -0.003891
# 5 0.003977 -0.000549 0.001923 -0.004325 0.024398 0.003304
# 6 -0.010706 -0.002924 0.001229 -0.003891 0.003304 0.041496
#
#
# Mechanical properties :
#
#
# Convention : Reuss Voigt Hill
#
# Bulk Modulus (GPa) = 32.11499 50.16209 41.13854
# Shear Modulus (GPa) = 27.38394 34.62265 31.00329
#
# Velocity S-wave (km/s) = 3.54426 3.98527 3.77122
# Velocity P-wave (km/s) = 5.61080 6.64735 6.15095
#
# Compressibility (1/GPa) = 0.03113811
#
# Stress axis : x y z
#
# Youngs Moduli (GPa) = 34.69808 73.71625 102.71462
#
# Poissons Ratio (x) = 0.38207 0.34220
# Poissons Ratio (y) = 0.17984 0.20307
# Poissons Ratio (z) = 0.11560 0.14574
#
# Static dielectric constant tensor:
#      x y z
#    x 1.902360 -0.068310 0.010600 
#    y -0.068310 1.869570 0.017260 
#    z 0.010600 0.017260 1.814540 
# 
# From -- ./inp_files/242180.got.cif
#   From: 2010.05.17/outbox.ucp.g08.bks.cvg/sg2_122_cif.got.tgz:242180.got - 2010.06.11 11:32:03.
