data_PCOD9074781
_publ_section_title
;
Structure prediction by ZEFSAII (Michael W. Deem and Ramdas Pophale) SiO2 
 PCOD9074781
Probable space group: P -1
;
_chemical_formula_sum "Si O2"
_cell_formula_units_Z 16
_cell_length_a 12.000000
_cell_length_b 18.000000
_cell_length_c 9.000000
_cell_angle_alpha 130.000000
_cell_angle_beta 100.000000
_cell_angle_gamma 40.000000
_cell_volume 729.599496
_symmetry_space_group_name_H-M "P -1"
_symmetry_group_IT_number 2
_symmetry_cell_setting 'triclinic'
loop_
_space_group_symop_operation_xyz
x,y,z
-x,-y,-z
loop_
_atom_site_type_symbol
_atom_site_label
_atom_site_fract_x
_atom_site_fract_y
_atom_site_fract_z
Si Si1 0.381839 0.096590 0.938174
Si Si2 0.573172 0.640415 0.427540
Si Si3 0.961626 0.815346 0.092363
Si Si4 0.848969 0.497909 0.843515
Si Si5 0.895466 0.885410 0.514787
Si Si6 0.295429 0.273948 0.619725
Si Si7 0.495114 0.227591 0.097173
Si Si8 0.884905 0.081408 0.417635
O O1 0.180871 0.168067 0.985485
O O2 0.538711 0.940133 0.638686
O O3 0.355017 0.231180 0.090139
O O4 0.500000 0.000000 0.000000
O O5 0.634337 0.699301 0.449892
O O6 0.480870 0.734626 0.692748
O O7 0.382236 0.732463 0.402358
O O8 0.787202 0.412321 0.160594
O O9 0.857549 0.913406 0.360982
O O10 0.959365 0.923893 0.158462
O O11 0.672461 0.584602 0.800034
O O12 0.984131 0.307627 0.696119
O O13 0.043285 0.422289 0.725298
O O14 0.715776 0.661887 0.144232
O O15 0.051098 0.862416 0.560424
O O16 0.701191 0.042905 0.798488
O O17 0.000000 0.000000 0.500000
#
# Coordination Sequence:
#
# PCOD9074781 Si02
#       8
#     2   2   2   2   2   2   2   2
#     4  12  23  40  69  98 140 178 217 272 338 402
#     4  12  25  45  69 104 134 174 231 278 329 405
#     4  11  24  43  73  98 132 179 228 276 333 401
#     4  11  25  41  66 103 139 176 218 278 336 401
#     4  11  25  45  67  95 136 178 226 281 333 396
#     4  11  22  42  67  96 141 175 221 269 327 407
#     4  12  27  40  69 103 140 176 216 276 349 395
#     4  10  25  46  72  98 128 179 233 281 330 395
#
# _framework density 21.929839999999999
#
# number of rings (size 3 to 8) (size 9 to 14) (size 15 to 20)
#    0.000    0.750    5.000    1.500    5.250    6.500 
#    0.000    1.250    0.000    0.000    0.000    0.000 
#    0.000    0.000    0.000    0.000    0.000    0.000 
#
# Total GULP energy -89106.649896 kJ/mol
# GULP energy per Si atom -5569.165618 kJ/mol
# Density = 2.187993 g / cm^3
# Si number density = 21.929840 Si / 1000 Ang^3
#
#
#
# Elastic Constant Matrix: (Units=GPa)
#
#
# Indices 1 2 3 4 5 6 
#
# 1 99.3275 31.0764 39.5777 3.5492 6.6299 -13.5469
# 2 31.0764 79.5492 35.5885 6.6877 -12.8918 -30.3824
# 3 39.5777 35.5885 18.7015 -4.6656 -39.9156 -52.2550
# 4 3.5492 6.6877 -4.6656 18.8755 -2.0000 -1.9245
# 5 6.6299 -12.8918 -39.9156 -2.0000 -14.9289 -20.6770
# 6 -13.5469 -30.3824 -52.2550 -1.9245 -20.6770 6.0381
#
#
#
# Elastic Compliance Matrix: (Units=1/GPa)
#
#
# Indices 1 2 3 4 5 6 
#
# 1 0.012164 -0.000646 -0.001941 -0.001689 0.000365 0.007950
# 2 -0.000646 0.023821 -0.013369 -0.010329 0.002972 0.009602
# 3 -0.001941 -0.013369 0.015931 0.005916 -0.022126 -0.007638
# 4 -0.001689 -0.010329 0.005916 0.057100 -0.005953 -0.006748
# 5 0.000365 0.002972 -0.022126 -0.005953 0.041191 -0.036551
# 6 0.007950 0.009602 -0.007638 -0.006748 -0.036551 0.038350
#
#
# Mechanical properties :
#
#
# Convention : Reuss Voigt Hill
#
# Bulk Modulus (GPa) = 49.99042 45.56263 47.77653
# Shear Modulus (GPa) = 22.01321 8.08597 15.04959
#
# Velocity S-wave (km/s) = 3.17172 1.92229 2.62250
# Velocity P-wave (km/s) = 6.02148 5.07431 5.56807
#
# Compressibility (1/GPa) = 0.02000383
#
# Stress axis : x y z
#
# Youngs Moduli (GPa) = 82.21257 41.97896 62.77111
#
# Poissons Ratio (x) = 0.02710 0.12186
# Poissons Ratio (y) = 0.05308 0.83919
# Poissons Ratio (z) = 0.15960 0.56122
#
# Static dielectric constant tensor:
#      x y z
#    x 1.826250 0.056640 -0.025170 
#    y 0.056640 1.991370 0.039690 
#    z -0.025170 0.039690 1.838780 
# 
# From -- ./inp_files/279910.got.cif
#   From: 2010.05.17/outbox.ucp.g08.bks.cvg/sg2_140_cif.got.tgz:279910.got - 2010.06.11 11:32:03.
