data_PCOD9074618
_publ_section_title
;
Structure prediction by ZEFSAII (Michael W. Deem and Ramdas Pophale) SiO2 
 PCOD9074618
Probable space group: P -1
;
_chemical_formula_sum "Si O2"
_cell_formula_units_Z 14
_cell_length_a 12.000000
_cell_length_b 9.000000
_cell_length_c 18.000000
_cell_angle_alpha 70.000000
_cell_angle_beta 30.000000
_cell_angle_gamma 90.000000
_cell_volume 709.019793
_symmetry_space_group_name_H-M "P -1"
_symmetry_group_IT_number 2
_symmetry_cell_setting 'triclinic'
loop_
_space_group_symop_operation_xyz
x,y,z
-x,-y,-z
loop_
_atom_site_type_symbol
_atom_site_label
_atom_site_fract_x
_atom_site_fract_y
_atom_site_fract_z
Si Si1 0.335488 0.135275 0.264643
Si Si2 0.401490 0.427748 0.983202
Si Si3 0.823823 0.729208 0.354766
Si Si4 0.260998 0.960467 0.586303
Si Si5 0.381307 0.791524 0.067632
Si Si6 0.751778 0.720598 0.224064
Si Si7 0.628795 0.027815 0.220277
O O1 0.483569 0.368011 0.161782
O O2 0.487898 0.054248 0.228191
O O3 0.411244 0.147864 0.132494
O O4 0.000000 0.000000 0.500000
O O5 0.568173 0.337829 0.886437
O O6 0.500000 0.500000 0.000000
O O7 0.056567 0.262027 0.199671
O O8 0.854170 0.780712 0.240612
O O9 0.509654 0.516649 0.585373
O O10 0.060484 0.701143 0.243924
O O11 0.822384 0.895295 0.370798
O O12 0.500000 0.000000 0.500000
O O13 0.434826 0.007377 0.402340
O O14 0.500000 0.000000 0.000000
O O15 0.633505 0.839052 0.247282
O O16 0.028174 0.786471 0.006878
#
# Coordination Sequence:
#
# PCOD9074618 Si02
#       7
#     2   2   2   2   2   2   2
#     4  11  25  42  66  95 129 174 222 270 333 394
#     4  10  24  43  69  93 128 183 219 260 333 406
#     4  11  23  42  68  96 127 174 218 265 335 394
#     4  12  25  42  69  99 135 170 224 277 329 393
#     4  11  22  43  67  92 128 168 221 269 314 396
#     4  10  24  42  67  95 129 176 213 266 338 400
#     4  11  23  42  64  96 135 170 216 276 326 392
#
# _framework density 19.745570000000001
#
# number of rings (size 3 to 8) (size 9 to 14) (size 15 to 20)
#    0.000    1.143    4.286    1.714    8.000    0.571 
#    0.000    0.714    0.000    0.000    0.000    0.000 
#    0.000    0.000    0.000    0.000    0.000    0.000 
#
# Total GULP energy -78044.827807 kJ/mol
# GULP energy per Si atom -5574.630558 kJ/mol
# Density = 1.970063 g / cm^3
# Si number density = 19.745570 Si / 1000 Ang^3
#
#
#
# Elastic Constant Matrix: (Units=GPa)
#
#
# Indices 1 2 3 4 5 6 
#
# 1 69.4933 23.8741 27.3436 -9.4193 -17.6630 -24.9028
# 2 23.8741 103.8277 62.0510 5.2216 -7.4795 -15.3221
# 3 27.3436 62.0510 164.1769 5.4761 -20.2966 -3.3834
# 4 -9.4193 5.2216 5.4761 31.5478 -5.4212 -7.5260
# 5 -17.6630 -7.4795 -20.2966 -5.4212 31.5708 4.6482
# 6 -24.9028 -15.3221 -3.3834 -7.5260 4.6482 33.9985
#
#
#
# Elastic Compliance Matrix: (Units=1/GPa)
#
#
# Indices 1 2 3 4 5 6 
#
# 1 0.030568 -0.001821 -0.002720 0.017959 0.014578 0.023281
# 2 -0.001821 0.013545 -0.004910 -0.001228 -0.001804 0.004257
# 3 -0.002720 -0.004910 0.008779 -0.001971 0.003241 -0.004211
# 4 0.017959 -0.001228 -0.001971 0.044760 0.013155 0.020515
# 5 0.014578 -0.001804 0.003241 0.013155 0.042676 0.007265
# 6 0.023281 0.004257 -0.004211 0.020515 0.007265 0.051513
#
#
# Mechanical properties :
#
#
# Convention : Reuss Voigt Hill
#
# Bulk Modulus (GPa) = 29.42036 62.67058 46.04547
# Shear Modulus (GPa) = 22.51514 34.37202 28.44358
#
# Velocity S-wave (km/s) = 3.38044 4.17675 3.79952
# Velocity P-wave (km/s) = 5.49259 7.42080 6.52828
#
# Compressibility (1/GPa) = 0.03399007
#
# Stress axis : x y z
#
# Youngs Moduli (GPa) = 32.71413 73.83066 113.90210
#
# Poissons Ratio (x) = 0.13441 0.30981
# Poissons Ratio (y) = 0.05956 0.55930
# Poissons Ratio (z) = 0.08898 0.36253
#
# Static dielectric constant tensor:
#      x y z
#    x 1.788270 -0.059250 0.000080 
#    y -0.059250 1.419200 -0.198250 
#    z 0.000080 -0.198250 1.603490 
# 
# From -- ./inp_files/181036.got.cif
#   From: 2010.05.17/outbox.ucp.g08.bks.cvg/sg2_91_cif.got.tgz:181036.got - 2010.06.11 11:32:03.
