data_PCOD9074973
_publ_section_title
;
Structure prediction by ZEFSAII (Michael W. Deem and Ramdas Pophale) SiO2 
 PCOD9074973
Probable space group: P -1
;
_chemical_formula_sum "Si O2"
_cell_formula_units_Z 16
_cell_length_a 6.000000
_cell_length_b 12.000000
_cell_length_c 12.000000
_cell_angle_alpha 90.000000
_cell_angle_beta 60.000000
_cell_angle_gamma 90.000000
_cell_volume 748.245949
_symmetry_space_group_name_H-M "P -1"
_symmetry_group_IT_number 2
_symmetry_cell_setting 'triclinic'
loop_
_space_group_symop_operation_xyz
x,y,z
-x,-y,-z
loop_
_atom_site_type_symbol
_atom_site_label
_atom_site_fract_x
_atom_site_fract_y
_atom_site_fract_z
Si Si1 0.411235 0.111493 0.089804
Si Si2 0.684696 0.873595 0.312474
Si Si3 0.705684 0.648943 0.405622
Si Si4 0.558510 0.548100 0.672146
Si Si5 0.241683 0.239209 0.925479
Si Si6 0.730022 0.333095 0.060492
Si Si7 0.149286 0.981022 0.348116
Si Si8 0.731216 0.383983 0.811834
O O1 0.624148 0.206336 0.067536
O O2 0.257464 0.076796 0.238557
O O3 0.239883 0.173245 0.040536
O O4 0.500000 0.000000 0.000000
O O5 0.580647 0.767975 0.410092
O O6 0.822527 0.836281 0.163555
O O7 0.424426 0.931051 0.327000
O O8 0.916889 0.926796 0.329000
O O9 0.697721 0.617295 0.538647
O O10 0.580016 0.550080 0.363661
O O11 0.989485 0.663282 0.284419
O O12 0.375117 0.622235 0.796158
O O13 0.719192 0.488211 0.730460
O O14 0.517800 0.293220 0.832429
O O15 0.036376 0.335746 0.988508
O O16 0.676960 0.398492 0.957461
O O17 0.000000 0.000000 0.500000
#
# Coordination Sequence:
#
# PCOD9074973 Si02
#       8
#     2   2   2   2   2   2   2   2
#     4  11  25  44  69 102 136 187 239 298 357 429
#     4  12  24  48  75 103 145 192 240 299 360 439
#     4  11  25  42  70  99 140 187 237 289 366 440
#     4  11  25  43  65 102 139 183 237 295 367 431
#     4  11  23  42  73 102 137 187 242 293 362 429
#     4  11  25  41  68 101 140 180 238 306 355 423
#     4  12  29  47  76 108 145 192 243 301 368 430
#     4  11  21  44  66  99 137 186 237 290 358 433
#
# _framework density 21.383343
#
# number of rings (size 3 to 8) (size 9 to 14) (size 15 to 20)
#    0.000    0.750    3.750    2.625    3.500    6.000 
#    0.000    0.000    0.000    0.000    0.000    0.000 
#    0.000    0.000    0.000    0.000    0.000    0.000 
#
# Total GULP energy -89130.398438 kJ/mol
# GULP energy per Si atom -5570.649902 kJ/mol
# Density = 2.133467 g / cm^3
# Si number density = 21.383343 Si / 1000 Ang^3
#
#
#
# Elastic Constant Matrix: (Units=GPa)
#
#
# Indices 1 2 3 4 5 6 
#
# 1 103.2448 30.4398 26.0429 -17.0407 4.3120 -5.8380
# 2 30.4398 16.5717 20.3997 -48.7080 12.3919 -30.9518
# 3 26.0429 20.3997 157.6223 -41.2595 13.5632 -17.0983
# 4 -17.0407 -48.7080 -41.2595 26.4916 -9.1284 -2.8976
# 5 4.3120 12.3919 13.5632 -9.1284 33.0915 -0.4686
# 6 -5.8380 -30.9518 -17.0983 -2.8976 -0.4686 19.4021
#
#
#
# Elastic Compliance Matrix: (Units=1/GPa)
#
#
# Indices 1 2 3 4 5 6 
#
# 1 0.011014 -0.001149 -0.000120 0.005196 0.000508 0.002163
# 2 -0.001149 -0.003440 -0.005018 -0.016727 -0.001300 -0.012786
# 3 -0.000120 -0.005018 0.007446 0.001940 -0.000639 -0.001206
# 4 0.005196 -0.016727 0.001940 0.013917 0.008331 -0.021131
# 5 0.000508 -0.001300 -0.000639 0.008331 0.033194 -0.000438
# 6 0.002163 -0.012786 -0.001206 -0.021131 -0.000438 0.027565
#
#
# Mechanical properties :
#
#
# Convention : Reuss Voigt Hill
#
# Bulk Modulus (GPa) = 409.21150 47.91152 228.56151
# Shear Modulus (GPa) = 48.50400 29.16748 38.83574
#
# Velocity S-wave (km/s) = 4.76784 3.69728 4.26628
# Velocity P-wave (km/s) = 14.90283 6.37818 11.46245
#
# Compressibility (1/GPa) = 0.00244372
#
# Stress axis : x y z
#
# Youngs Moduli (GPa) = 90.79708 -290.68771 134.30927
#
# Poissons Ratio (x) = -0.33410 0.01609
# Poissons Ratio (y) = 0.10436 0.67402
# Poissons Ratio (z) = 0.01088 -1.45879
#
# Static dielectric constant tensor:
#      x y z
#    x 1.846250 -0.066510 -0.038300 
#    y -0.066510 1.876910 0.058610 
#    z -0.038300 0.058610 1.790290 
# 
# From -- ./inp_files/364444.got.cif
#   From: 2010.05.17/outbox.ucp.g08.bks.cvg/sg2_183_cif.got.tgz:364444.got - 2010.06.11 11:32:03.
