data_PCOD9074029
_publ_section_title
;
Structure prediction by ZEFSAII (Michael W. Deem and Ramdas Pophale) SiO2 
 PCOD9074029
Probable space group: P -1
;
_chemical_formula_sum "Si O2"
_cell_formula_units_Z 16
_cell_length_a 15.000000
_cell_length_b 9.000000
_cell_length_c 21.000000
_cell_angle_alpha 70.000000
_cell_angle_beta 160.000000
_cell_angle_gamma 120.000000
_cell_volume 757.501203
_symmetry_space_group_name_H-M "P -1"
_symmetry_group_IT_number 2
_symmetry_cell_setting 'triclinic'
loop_
_space_group_symop_operation_xyz
x,y,z
-x,-y,-z
loop_
_atom_site_type_symbol
_atom_site_label
_atom_site_fract_x
_atom_site_fract_y
_atom_site_fract_z
Si Si1 0.270804 0.311588 0.035063
Si Si2 0.391943 0.851768 0.355075
Si Si3 0.216183 0.550577 0.540406
Si Si4 0.877270 0.114084 0.366712
Si Si5 0.170584 0.964900 0.939401
Si Si6 0.455623 0.230742 0.393358
Si Si7 0.341849 0.392151 0.844159
Si Si8 0.988741 0.943652 0.677433
O O1 0.516881 0.322102 0.247825
O O2 0.416339 0.506180 0.065900
O O3 0.976408 0.265346 0.886088
O O4 0.186317 0.155002 0.945823
O O5 0.429908 0.761455 0.458711
O O6 0.623551 0.870960 0.452517
O O7 0.469618 0.059721 0.396071
O O8 0.343427 0.601446 0.545906
O O9 0.078297 0.331553 0.491783
O O10 0.939609 0.581242 0.359613
O O11 0.923142 0.115273 0.320205
O O12 0.000000 0.000000 0.500000
O O13 0.522264 0.020686 0.166111
O O14 0.894663 0.817361 0.823897
O O15 0.062858 0.898485 0.803890
O O16 0.500000 0.500000 0.000000
O O17 0.200936 0.171957 0.785746
#
# Coordination Sequence:
#
# PCOD9074029 Si02
#       8
#     2   2   2   2   2   2   2   2
#     4  11  22  36  62  96 130 153 209 260 316 362
#     4   9  19  38  64  97 122 160 203 262 314 367
#     4  12  24  40  61  97 128 164 208 258 315 367
#     4  12  27  43  60  87 133 175 204 251 315 380
#     4  10  22  41  64  93 121 164 208 260 314 365
#     4   9  19  38  66  92 124 153 214 262 309 363
#     4  12  21  38  66  97 119 157 214 267 302 361
#     4  11  22  42  67  92 125 163 208 255 317 375
#
# _framework density 21.122078999999999
#
# number of rings (size 3 to 8) (size 9 to 14) (size 15 to 20)
#    0.000    1.250    3.750    3.000    1.750    3.000 
#    0.000    7.500    0.000    0.000    0.000    0.000 
#    0.000    0.000    0.000    0.000    0.000    0.000 
#
# Total GULP energy -89314.804748 kJ/mol
# GULP energy per Si atom -5582.175297 kJ/mol
# Density = 2.107400 g / cm^3
# Si number density = 21.122079 Si / 1000 Ang^3
#
#
#
# Elastic Constant Matrix: (Units=GPa)
#
#
# Indices 1 2 3 4 5 6 
#
# 1 22.4389 -14.6007 7.1152 -7.0206 -0.9180 -30.2884
# 2 -14.6007 16.2939 -1.2411 1.8007 7.1413 9.5396
# 3 7.1152 -1.2411 92.0340 0.6722 24.8003 1.9878
# 4 -7.0206 1.8007 0.6722 10.7751 -9.2637 -7.7256
# 5 -0.9180 7.1413 24.8003 -9.2637 31.9987 -13.4714
# 6 -30.2884 9.5396 1.9878 -7.7256 -13.4714 7.3526
#
#
#
# Elastic Compliance Matrix: (Units=1/GPa)
#
#
# Indices 1 2 3 4 5 6 
#
# 1 0.051865 0.085134 0.010323 -0.037289 -0.046061 -0.023167
# 2 0.085134 0.171491 0.011361 -0.028654 -0.056540 -0.008573
# 3 0.010323 0.011361 0.012781 -0.000504 -0.009937 0.005592
# 4 -0.037289 -0.028654 -0.000504 0.062756 0.011745 -0.028833
# 5 -0.046061 -0.056540 -0.009937 0.011745 0.048017 -0.013381
# 6 -0.023167 -0.008573 0.005592 -0.028833 -0.013381 -0.004628
#
#
# Mechanical properties :
#
#
# Convention : Reuss Voigt Hill
#
# Bulk Modulus (GPa) = 2.22334 12.59039 7.40687
# Shear Modulus (GPa) = 17.94871 19.32483 18.63677
#
# Velocity S-wave (km/s) = 2.91823 3.02803 2.97364
# Velocity P-wave (km/s) = 3.52273 4.26603 3.91207
#
# Compressibility (1/GPa) = 0.44977319
#
# Stress axis : x y z
#
# Youngs Moduli (GPa) = 19.28080 5.83121 78.23858
#
# Poissons Ratio (x) = -0.49643 -0.80766
# Poissons Ratio (y) = -1.64144 -0.88888
# Poissons Ratio (z) = -0.19904 -0.06625
#
# Static dielectric constant tensor:
#      x y z
#    x 1.752550 0.011170 -0.010010 
#    y 0.011170 1.754810 0.014520 
#    z -0.010010 0.014520 1.836710 
# 
# From -- ./inp_files/182544.got.cif
#   From: 2010.05.17/outbox.ucp.g08.bks.cvg/sg2_92_cif.got.tgz:182544.got - 2010.06.11 11:32:03.
