data_PCOD9074906
_publ_section_title
;
Structure prediction by ZEFSAII (Michael W. Deem and Ramdas Pophale) SiO2 
 PCOD9074906
Probable space group: P -1
;
_chemical_formula_sum "Si O2"
_cell_formula_units_Z 16
_cell_length_a 18.626135
_cell_length_b 8.641504
_cell_length_c 5.668527
_cell_angle_alpha 124.866231
_cell_angle_beta 129.313017
_cell_angle_gamma 67.488747
_cell_volume 578.888451
_symmetry_space_group_name_H-M "P -1"
_symmetry_group_IT_number 2
_symmetry_cell_setting 'triclinic'
loop_
_space_group_symop_operation_xyz
x,y,z
-x,-y,-z
loop_
_atom_site_type_symbol
_atom_site_label
_atom_site_fract_x
_atom_site_fract_y
_atom_site_fract_z
Si Si1 0.537028 0.760680 0.144625
Si Si2 0.032568 0.710380 0.293722
Si Si3 0.160987 0.261810 0.579506
Si Si4 0.954992 0.207194 0.104270
Si Si5 0.255156 0.909206 0.667854
Si Si6 0.819033 0.778722 0.920756
Si Si7 0.354342 0.603572 0.868229
Si Si8 0.406343 0.852233 0.567994
O O1 0.452383 0.694095 0.070887
O O2 0.565818 0.976873 0.393665
O O3 0.621400 0.617156 0.258961
O O4 0.495905 0.746904 0.780193
O O5 0.084262 0.745103 0.677815
O O6 0.088281 0.756384 0.211844
O O7 0.930994 0.822092 0.190541
O O8 0.000000 0.500000 0.000000
O O9 0.052545 0.318296 0.403756
O O10 0.197009 0.313753 0.444412
O O11 0.183499 0.033229 0.455491
O O12 0.196992 0.333168 0.966743
O O13 0.000000 0.000000 0.000000
O O14 0.349190 0.947159 0.748922
O O15 0.278678 0.696553 0.617560
O O16 0.237942 0.028916 0.976666
O O17 0.342578 0.697904 0.182435
#
# Coordination Sequence:
#
# PCOD9074906 Si02
#       8
#     2   2   2   2   2   2   2   2
#     4   9  20  32  48  82 110 131 186 230 276 327
#     4  10  19  33  55  83 111 143 184 234 286 339
#     4   8  16  30  50  77 102 140 185 224 265 336
#     4  10  19  33  55  83 111 143 184 234 286 339
#     4   9  18  30  52  74  98 143 198 214 274 333
#     4   8  16  30  50  77 102 140 185 224 265 336
#     4  10  18  32  53  76 105 146 179 228 278 329
#     4  10  18  32  53  76 105 146 179 228 278 329
#
# _framework density 27.639173
#
# number of rings (size 3 to 8) (size 9 to 14) (size 15 to 20)
#    0.750    2.000    0.000    2.250    0.000    0.000 
#    0.000    0.000    0.000    9.000    0.000    0.000 
#    0.000    0.000    0.000    0.000    0.000    0.000 
#
# Total GULP energy -89219.685120 kJ/mol
# GULP energy per Si atom -5576.230320 kJ/mol
# Density = 2.757627 g / cm^3
# Si number density = 27.639173 Si / 1000 Ang^3
#
#
#
# Elastic Constant Matrix: (Units=GPa)
#
#
# Indices 1 2 3 4 5 6 
#
# 1 89.8959 40.9562 37.9962 -16.5104 -23.1807 -15.4352
# 2 40.9562 146.3524 54.4171 -7.3012 -15.3062 -17.7562
# 3 37.9962 54.4171 132.5684 -20.4073 -43.0405 23.8945
# 4 -16.5104 -7.3012 -20.4073 50.8368 7.4694 -2.4675
# 5 -23.1807 -15.3062 -43.0405 7.4694 46.9806 -21.9972
# 6 -15.4352 -17.7562 23.8945 -2.4675 -21.9972 46.1416
#
#
#
# Elastic Compliance Matrix: (Units=1/GPa)
#
#
# Indices 1 2 3 4 5 6 
#
# 1 0.018906 -0.001182 -0.002881 0.003706 0.011913 0.013239
# 2 -0.001182 0.009689 -0.004342 -0.000673 0.001672 0.006343
# 3 -0.002881 -0.004342 0.013805 0.002739 0.006260 -0.006653
# 4 0.003706 -0.000673 0.002739 0.021753 0.001287 0.001339
# 5 0.011913 0.001672 0.006260 0.001287 0.043667 0.022273
# 6 0.013239 0.006343 -0.006653 0.001339 0.022273 0.042677
#
#
# Mechanical properties :
#
#
# Convention : Reuss Voigt Hill
#
# Bulk Modulus (GPa) = 39.08100 70.61731 54.84916
# Shear Modulus (GPa) = 28.43487 44.48828 36.46158
#
# Velocity S-wave (km/s) = 3.21095 4.01635 3.63602
# Velocity P-wave (km/s) = 5.28369 6.86391 6.12497
#
# Compressibility (1/GPa) = 0.02558788
#
# Stress axis : x y z
#
# Youngs Moduli (GPa) = 52.89210 103.20844 72.43792
#
# Poissons Ratio (x) = 0.12203 0.20873
# Poissons Ratio (y) = 0.06254 0.31456
# Poissons Ratio (z) = 0.15241 0.44817
#
# Static dielectric constant tensor:
#      x y z
#    x 2.230840 0.011990 0.082670 
#    y 0.011990 2.164180 -0.056890 
#    z 0.082670 -0.056890 2.280310 
# 
# From -- ./inp_files/126211.got.cif
#   From: 2010.05.17/outbox.cif.g08.bks.cpg/sg2_64_cif.got.tgz:126211.got - 2010.06.03 11:33:40.
