data_PCOD9074175
_publ_section_title
;
Structure prediction by ZEFSAII (Michael W. Deem and Ramdas Pophale) SiO2 
 PCOD9074175
Probable space group: P -1
;
_chemical_formula_sum "Si O2"
_cell_formula_units_Z 14
_cell_length_a 7.978555
_cell_length_b 13.006213
_cell_length_c 14.090437
_cell_angle_alpha 134.217354
_cell_angle_beta 27.260859
_cell_angle_gamma 132.565836
_cell_volume 472.835230
_symmetry_space_group_name_H-M "P -1"
_symmetry_group_IT_number 2
_symmetry_cell_setting 'triclinic'
loop_
_space_group_symop_operation_xyz
x,y,z
-x,-y,-z
loop_
_atom_site_type_symbol
_atom_site_label
_atom_site_fract_x
_atom_site_fract_y
_atom_site_fract_z
Si Si1 0.430156 0.619758 0.474896
Si Si2 0.723059 0.278978 0.813078
Si Si3 0.874562 0.867369 0.210990
Si Si4 0.684110 0.999914 0.742276
Si Si5 0.902271 0.152555 0.294111
Si Si6 0.211093 0.287895 0.409699
Si Si7 0.293827 0.452728 0.896023
O O1 0.854591 0.687644 0.333070
O O2 0.188917 0.748883 0.684025
O O3 0.339643 0.460875 0.465611
O O4 0.397482 0.578029 0.352515
O O5 0.807717 0.263530 0.649964
O O6 0.497608 0.131037 0.875264
O O7 0.581086 0.423754 0.010941
O O8 0.488241 0.867202 0.461613
O O9 0.893089 0.702045 0.068617
O O10 0.156201 0.927559 0.192521
O O11 0.951315 0.983731 0.162480
O O12 0.588108 0.831017 0.714118
O O13 0.000000 0.000000 0.500000
O O14 0.190234 0.241652 0.280963
O O15 0.000000 0.500000 0.000000
#
# Coordination Sequence:
#
# PCOD9074175 Si02
#       7
#     2   2   2   2   2   2   2
#     4  10  18  32  49  74  96 125 160 198 242 278
#     4  10  18  33  51  71  97 129 159 195 237 287
#     4   9  15  29  48  73  89 129 164 192 227 286
#     4   9  16  28  47  71  97 117 156 197 233 274
#     4   9  17  29  50  69  98 125 162 195 233 281
#     4  10  20  29  48  78  99 118 159 207 242 266
#     4   9  16  29  53  69  95 129 162 189 232 293
#
# _framework density 29.608620999999999
#
# number of rings (size 3 to 8) (size 9 to 14) (size 15 to 20)
#    0.000    2.571    4.286    0.857    0.000    0.000 
#    0.000    3.571    0.000    0.857    0.000    0.000 
#    0.000    0.000    0.000    0.000    0.000    0.000 
#
# Total GULP energy -78270.261186 kJ/mol
# GULP energy per Si atom -5590.732942 kJ/mol
# Density = 2.954123 g / cm^3
# Si number density = 29.608621 Si / 1000 Ang^3
#
#
#
# Elastic Constant Matrix: (Units=GPa)
#
#
# Indices 1 2 3 4 5 6 
#
# 1 129.7635 39.2331 30.2916 15.8217 8.9238 -12.1187
# 2 39.2331 301.0823 28.1672 40.2664 -21.5718 -36.4765
# 3 30.2916 28.1672 63.4234 33.1867 -1.9033 -14.9768
# 4 15.8217 40.2664 33.1867 63.9671 -7.5382 -18.6776
# 5 8.9238 -21.5718 -1.9033 -7.5382 40.7795 -1.6454
# 6 -12.1187 -36.4765 -14.9768 -18.6776 -1.6454 18.6840
#
#
#
# Elastic Compliance Matrix: (Units=1/GPa)
#
#
# Indices 1 2 3 4 5 6 
#
# 1 0.009145 -0.000920 -0.003986 0.000414 -0.002552 0.001130
# 2 -0.000920 0.004753 0.000645 0.000054 0.003140 0.009530
# 3 -0.003986 0.000645 0.024432 -0.009353 0.000988 0.008996
# 4 0.000414 0.000054 -0.009353 0.026871 0.005284 0.020203
# 5 -0.002552 0.003140 0.000988 0.005284 0.028291 0.013041
# 6 0.001130 0.009530 0.008996 0.020203 0.013041 0.101417
#
#
# Mechanical properties :
#
#
# Convention : Reuss Voigt Hill
#
# Bulk Modulus (GPa) = 33.54673 76.62811 55.08742
# Shear Modulus (GPa) = 23.43377 51.12460 37.27918
#
# Velocity S-wave (km/s) = 2.81633 4.15984 3.55218
# Velocity P-wave (km/s) = 4.68297 7.00064 5.95563
#
# Compressibility (1/GPa) = 0.02980917
#
# Stress axis : x y z
#
# Youngs Moduli (GPa) = 109.34361 210.37792 40.92990
#
# Poissons Ratio (x) = 0.19359 0.16314
# Poissons Ratio (y) = 0.10062 -0.02641
# Poissons Ratio (z) = 0.43583 -0.13574
#
# Static dielectric constant tensor:
#      x y z
#    x 2.269140 0.003450 -0.020830 
#    y 0.003450 2.351610 -0.004660 
#    z -0.020830 -0.004660 2.719250 
# 
# From -- ./inp_files/176359.got.cif
#   From: 2010.05.17/outbox.cif.g08.bks.cpg/sg2_89_cif.got.tgz:176359.got - 2010.06.03 11:33:40.
