data_PCOD9074152
_publ_section_title
;
Structure prediction by ZEFSAII (Michael W. Deem and Ramdas Pophale) SiO2 
 PCOD9074152
Probable space group: P -1
;
_chemical_formula_sum "Si O2"
_cell_formula_units_Z 14
_cell_length_a 12.000000
_cell_length_b 9.000000
_cell_length_c 9.000000
_cell_angle_alpha 70.000000
_cell_angle_beta 70.000000
_cell_angle_gamma 120.000000
_cell_volume 614.029152
_symmetry_space_group_name_H-M "P -1"
_symmetry_group_IT_number 2
_symmetry_cell_setting 'triclinic'
loop_
_space_group_symop_operation_xyz
x,y,z
-x,-y,-z
loop_
_atom_site_type_symbol
_atom_site_label
_atom_site_fract_x
_atom_site_fract_y
_atom_site_fract_z
Si Si1 0.649053 0.438033 0.422071
Si Si2 0.222783 0.376948 0.997289
Si Si3 0.918234 0.259142 0.067120
Si Si4 0.312539 0.848372 0.333311
Si Si5 0.820849 0.920587 0.648772
Si Si6 0.313706 0.214138 0.555652
Si Si7 0.296049 0.737890 0.042750
O O1 0.636873 0.455146 0.243746
O O2 0.705320 0.313379 0.484060
O O3 0.453759 0.288871 0.587068
O O4 0.739855 0.666522 0.387790
O O5 0.225055 0.209703 0.130910
O O6 0.226890 0.511405 0.079944
O O7 0.068692 0.274254 0.992315
O O8 0.798481 0.049670 0.301278
O O9 0.809530 0.214876 0.993236
O O10 0.000000 0.500000 0.000000
O O11 0.278439 0.735241 0.228032
O O12 0.204560 0.910578 0.379158
O O13 0.509924 0.073654 0.158442
O O14 0.695498 0.758410 0.626809
O O15 0.000000 0.000000 0.500000
#
# Coordination Sequence:
#
# PCOD9074152 Si02
#       7
#     2   2   2   2   2   2   2
#     4  11  26  43  74 110 135 190 235 294 359 415
#     4  11  25  44  70 101 141 186 235 290 357 419
#     4  10  22  42  72  99 136 186 230 292 347 417
#     4  11  25  43  72 105 143 184 235 292 354 419
#     4  12  27  45  68 101 145 193 235 291 352 422
#     4  11  24  46  72  98 153 179 239 292 350 428
#     4  10  23  44  72 103 140 180 238 293 354 417
#
# _framework density 22.800219999999999
#
# number of rings (size 3 to 8) (size 9 to 14) (size 15 to 20)
#    0.000    1.143    2.857    1.714    6.000    6.286 
#    0.000    2.143    0.000    0.000    0.000    0.000 
#    0.000    0.000    0.000    0.000    0.000    0.000 
#
# Total GULP energy -77954.917000 kJ/mol
# GULP energy per Si atom -5568.208357 kJ/mol
# Density = 2.274833 g / cm^3
# Si number density = 22.800220 Si / 1000 Ang^3
#
#
#
# Elastic Constant Matrix: (Units=GPa)
#
#
# Indices 1 2 3 4 5 6 
#
# 1 157.6195 32.0934 22.5091 -2.7322 33.9616 -19.0285
# 2 32.0934 89.2554 33.8522 12.9873 11.1991 -29.2550
# 3 22.5091 33.8522 53.3610 1.5766 39.5150 -10.5536
# 4 -2.7322 12.9873 1.5766 31.8617 -4.3761 5.8994
# 5 33.9616 11.1991 39.5150 -4.3761 31.5586 -9.8530
# 6 -19.0285 -29.2550 -10.5536 5.8994 -9.8530 48.3522
#
#
#
# Elastic Compliance Matrix: (Units=1/GPa)
#
#
# Indices 1 2 3 4 5 6 
#
# 1 0.002837 0.007105 -0.027788 0.001996 0.031202 0.005465
# 2 0.007105 0.002657 0.043499 -0.011840 -0.063976 0.002306
# 3 -0.027788 0.043499 -0.133835 0.008251 0.190689 0.024022
# 4 0.001996 -0.011840 0.008251 0.037022 -0.006390 -0.010396
# 5 0.031202 -0.063976 0.190689 -0.006390 -0.228381 -0.030566
# 6 0.005465 0.002306 0.024022 -0.010396 -0.030566 0.024510
#
#
# Mechanical properties :
#
#
# Convention : Reuss Voigt Hill
#
# Bulk Modulus (GPa) = -12.09042 53.01614 20.46286
# Shear Modulus (GPa) = -13.57258 36.47325 11.45033
#
# Velocity S-wave (km/s) = -2.44249 4.00395 2.24342
# Velocity P-wave (km/s) = 3.64261 6.68419 3.96294
#
# Compressibility (1/GPa) = -0.08271014
#
# Stress axis : x y z
#
# Youngs Moduli (GPa) = 352.42965 376.36109 -7.47188
#
# Poissons Ratio (x) = -2.67398 -0.20763
# Poissons Ratio (y) = -2.50395 0.32502
# Poissons Ratio (z) = 9.79337 -16.37119
#
# Static dielectric constant tensor:
#      x y z
#    x 1.904400 0.046660 -0.136750 
#    y 0.046660 1.848500 -0.042640 
#    z -0.136750 -0.042640 2.120970 
# 
# From -- ./inp_files/159790.got.cif
#   From: 2010.05.17/outbox.ucp.g08.bks.cvg/sg2_80_cif.got.tgz:159790.got - 2010.06.11 11:32:03.
