data_PCOD9074856
_publ_section_title
;
Structure prediction by ZEFSAII (Michael W. Deem and Ramdas Pophale) SiO2 
 PCOD9074856
Probable space group: P -1
;
_chemical_formula_sum "Si O2"
_cell_formula_units_Z 16
_cell_length_a 12.000000
_cell_length_b 12.000000
_cell_length_c 12.000000
_cell_angle_alpha 120.000000
_cell_angle_beta 100.000000
_cell_angle_gamma 130.000000
_cell_volume 763.164900
_symmetry_space_group_name_H-M "P -1"
_symmetry_group_IT_number 2
_symmetry_cell_setting 'triclinic'
loop_
_space_group_symop_operation_xyz
x,y,z
-x,-y,-z
loop_
_atom_site_type_symbol
_atom_site_label
_atom_site_fract_x
_atom_site_fract_y
_atom_site_fract_z
Si Si1 0.388742 0.239224 0.783528
Si Si2 0.756163 0.520707 0.454872
Si Si3 0.901296 0.552516 0.714174
Si Si4 0.791287 0.860229 0.653249
Si Si5 0.951889 0.296308 0.593591
Si Si6 0.278579 0.106681 0.095882
Si Si7 0.346715 0.456442 0.227649
Si Si8 0.195785 0.325408 0.805634
O O1 0.575387 0.456672 0.839331
O O2 0.219789 0.193917 0.717664
O O3 0.280556 0.001302 0.608661
O O4 0.543782 0.386384 0.992286
O O5 0.750002 0.427863 0.517385
O O6 0.812940 0.724942 0.599644
O O7 0.533137 0.316436 0.244742
O O8 0.936400 0.624000 0.465292
O O9 0.931729 0.429737 0.682826
O O10 0.786410 0.543034 0.772405
O O11 0.133780 0.852672 0.891010
O O12 0.765929 0.909073 0.789237
O O13 0.564483 0.660291 0.445301
O O14 0.001508 0.123632 0.761769
O O15 0.095454 0.342640 0.721644
O O16 0.235476 0.207902 0.091291
#
# Coordination Sequence:
#
# PCOD9074856 Si02
#       8
#     2   2   2   2   2   2   2   2
#     4  11  24  41  70  95 124 167 218 268 305 381
#     4  11  23  42  66  94 125 167 214 266 320 365
#     4  12  26  41  65  95 133 174 206 255 325 386
#     4  11  19  41  72  94 127 158 214 280 310 358
#     4  12  26  44  62  94 139 171 203 258 322 390
#     4  11  23  40  68  97 125 162 220 275 304 370
#     4  11  21  41  67  97 125 168 217 265 317 360
#     4  11  23  42  67  99 122 168 217 261 320 366
#
# _framework density 20.965325
#
# number of rings (size 3 to 8) (size 9 to 14) (size 15 to 20)
#    0.000    0.750    5.000    4.125    1.750    3.000 
#    0.000    1.250    0.000    0.000    0.000    0.000 
#    0.000    0.000    0.000    0.000    0.000    0.000 
#
# Total GULP energy -89136.872632 kJ/mol
# GULP energy per Si atom -5571.054539 kJ/mol
# Density = 2.091761 g / cm^3
# Si number density = 20.965325 Si / 1000 Ang^3
#
#
#
# Elastic Constant Matrix: (Units=GPa)
#
#
# Indices 1 2 3 4 5 6 
#
# 1 117.5689 25.2283 46.2029 6.7672 1.3715 -47.3079
# 2 25.2283 35.4433 7.6814 10.0736 5.1661 -17.5427
# 3 46.2029 7.6814 94.1579 30.2358 -4.0850 -20.6159
# 4 6.7672 10.0736 30.2358 18.8333 -5.3145 -8.1728
# 5 1.3715 5.1661 -4.0850 -5.3145 27.6494 14.5033
# 6 -47.3079 -17.5427 -20.6159 -8.1728 14.5033 21.4023
#
#
#
# Elastic Compliance Matrix: (Units=1/GPa)
#
#
# Indices 1 2 3 4 5 6 
#
# 1 0.007666 -0.032919 -0.020142 0.040854 0.027780 -0.032663
# 2 -0.032919 0.043764 0.025973 -0.070127 0.006344 -0.042952
# 3 -0.020142 0.025973 0.042178 -0.079959 -0.009464 -0.006724
# 4 0.040854 -0.070127 -0.079959 0.221430 0.032044 0.018646
# 5 0.027780 0.006344 -0.009464 0.032044 0.002778 0.067843
# 6 -0.032663 -0.042952 -0.006724 0.018646 0.067843 -0.106011
#
#
# Mechanical properties :
#
#
# Convention : Reuss Voigt Hill
#
# Bulk Modulus (GPa) = 25.35907 45.04394 35.20151
# Shear Modulus (GPa) = 17.91312 24.78083 21.34697
#
# Velocity S-wave (km/s) = 2.92621 3.44174 3.19439
# Velocity P-wave (km/s) = 4.85169 6.10948 5.51655
#
# Compressibility (1/GPa) = 0.03943362
#
# Stress axis : x y z
#
# Youngs Moduli (GPa) = 130.44293 22.84978 23.70882
#
# Poissons Ratio (x) = 0.75219 0.47753
# Poissons Ratio (y) = 4.29402 -0.61578
# Poissons Ratio (z) = 2.62733 -0.59347
#
# Static dielectric constant tensor:
#      x y z
#    x 1.744400 0.027310 0.116410 
#    y 0.027310 1.843510 -0.067120 
#    z 0.116410 -0.067120 2.059740 
# 
# From -- ./inp_files/426612.got.cif
#   From: 2010.05.17/outbox.ucp.g08.bks.cvg/sg2_214_cif.got.tgz:426612.got - 2010.06.11 11:32:03.
