data_PCOD9074645
_publ_section_title
;
Structure prediction by ZEFSAII (Michael W. Deem and Ramdas Pophale) SiO2 
 PCOD9074645
Probable space group: P -1
;
_chemical_formula_sum "Si O2"
_cell_formula_units_Z 16
_cell_length_a 21.000000
_cell_length_b 9.000000
_cell_length_c 6.000000
_cell_angle_alpha 90.000000
_cell_angle_beta 90.000000
_cell_angle_gamma 140.000000
_cell_volume 728.921149
_symmetry_space_group_name_H-M "P -1"
_symmetry_group_IT_number 2
_symmetry_cell_setting 'triclinic'
loop_
_space_group_symop_operation_xyz
x,y,z
-x,-y,-z
loop_
_atom_site_type_symbol
_atom_site_label
_atom_site_fract_x
_atom_site_fract_y
_atom_site_fract_z
Si Si1 0.739977 0.237402 0.907890
Si Si2 0.714145 0.650740 0.740562
Si Si3 0.617091 0.730877 0.019099
Si Si4 0.895765 0.404429 0.554545
Si Si5 0.440173 0.883571 0.251816
Si Si6 0.103643 0.028736 0.951150
Si Si7 0.098780 0.332047 0.788464
Si Si8 0.768727 0.926427 0.344074
O O1 0.837201 0.339545 0.784553
O O2 0.656807 0.179154 0.762777
O O3 0.667718 0.982079 0.006647
O O4 0.796809 0.436124 0.095243
O O5 0.672949 0.732980 0.833962
O O6 0.618175 0.376118 0.743404
O O7 0.762282 0.775696 0.506519
O O8 0.807345 0.760953 0.884984
O O9 0.500000 0.500000 0.000000
O O10 0.658420 0.741998 0.250442
O O11 0.908538 0.585430 0.434288
O O12 0.000000 0.500000 0.500000
O O13 0.810601 0.150089 0.447097
O O14 0.500000 0.000000 0.500000
O O15 0.500000 0.000000 0.000000
O O16 0.090457 0.139500 0.778151
O O17 0.150545 0.968089 0.842291
O O18 0.999800 0.807245 0.066505
#
# Coordination Sequence:
#
# PCOD9074645 Si02
#       8
#     2   2   2   2   2   2   2   2
#     4  12  26  46  73 110 146 196 251 319 377 466
#     4  11  24  45  69 101 143 183 248 306 377 451
#     4  11  25  44  68  98 139 189 245 303 378 437
#     4  12  26  43  70 106 146 194 245 305 387 458
#     4  12  31  51  81 113 152 204 261 325 391 452
#     4  10  24  43  70 100 137 193 240 306 380 451
#     4  11  24  44  70 101 145 186 248 306 381 458
#     4  11  24  42  68  98 140 185 241 308 370 456
#
# _framework density 21.950247999999998
#
# number of rings (size 3 to 8) (size 9 to 14) (size 15 to 20)
#    0.000    0.750    3.750    2.250   10.500    2.500 
#    0.000    3.125    0.000    0.000    0.000    0.000 
#    0.000    0.000    0.000    0.000    0.000    0.000 
#
# Total GULP energy -89084.216088 kJ/mol
# GULP energy per Si atom -5567.763505 kJ/mol
# Density = 2.190029 g / cm^3
# Si number density = 21.950248 Si / 1000 Ang^3
#
#
#
# Elastic Constant Matrix: (Units=GPa)
#
#
# Indices 1 2 3 4 5 6 
#
# 1 67.5104 -2.9093 8.4321 -4.0637 6.1594 28.9074
# 2 -2.9093 117.2903 13.7486 -9.6806 -5.0480 15.8042
# 3 8.4321 13.7486 48.6227 -6.9576 5.5282 2.6330
# 4 -4.0637 -9.6806 -6.9576 40.2883 1.3902 5.5710
# 5 6.1594 -5.0480 5.5282 1.3902 25.1770 -4.6594
# 6 28.9074 15.8042 2.6330 5.5710 -4.6594 43.6679
#
#
#
# Elastic Compliance Matrix: (Units=1/GPa)
#
#
# Indices 1 2 3 4 5 6 
#
# 1 0.024582 0.003578 -0.002423 0.005858 -0.008621 -0.019089
# 2 0.003578 0.010047 -0.002723 0.003147 0.000416 -0.006198
# 3 -0.002423 -0.002723 0.022773 0.003172 -0.005079 0.000269
# 4 0.005858 0.003147 0.003172 0.028169 -0.004777 -0.009312
# 5 -0.008621 0.000416 -0.005079 -0.004777 0.045384 0.011315
# 6 -0.019089 -0.006198 0.000269 -0.009312 0.011315 0.040159
#
#
# Mechanical properties :
#
#
# Convention : Reuss Voigt Hill
#
# Bulk Modulus (GPa) = 18.42695 30.21847 24.32271
# Shear Modulus (GPa) = 25.99601 36.10344 31.04972
#
# Velocity S-wave (km/s) = 3.44512 4.05999 3.76513
# Velocity P-wave (km/s) = 4.92324 5.98120 5.47782
#
# Compressibility (1/GPa) = 0.05426833
#
# Stress axis : x y z
#
# Youngs Moduli (GPa) = 40.67960 99.53667 43.91104
#
# Poissons Ratio (x) = -0.35618 0.10638
# Poissons Ratio (y) = -0.14557 0.11955
# Poissons Ratio (z) = 0.09855 0.27100
#
# Static dielectric constant tensor:
#      x y z
#    x 1.880600 -0.046610 0.027950 
#    y -0.046610 1.792870 -0.027660 
#    z 0.027950 -0.027660 1.960930 
# 
# From -- ./inp_files/53123.got.cif
#   From: 2010.05.17/outbox.ucp.g08.bks.cvg/sg2_27_cif.got.tgz:53123.got - 2010.06.11 11:32:03.
