data_PCOD9074861
_publ_section_title
;
Structure prediction by ZEFSAII (Michael W. Deem and Ramdas Pophale) SiO2 
 PCOD9074861
Probable space group: P -1
;
_chemical_formula_sum "Si O2"
_cell_formula_units_Z 16
_cell_length_a 12.000000
_cell_length_b 15.000000
_cell_length_c 12.000000
_cell_angle_alpha 30.000000
_cell_angle_beta 50.000000
_cell_angle_gamma 60.000000
_cell_volume 818.222392
_symmetry_space_group_name_H-M "P -1"
_symmetry_group_IT_number 2
_symmetry_cell_setting 'triclinic'
loop_
_space_group_symop_operation_xyz
x,y,z
-x,-y,-z
loop_
_atom_site_type_symbol
_atom_site_label
_atom_site_fract_x
_atom_site_fract_y
_atom_site_fract_z
Si Si1 0.573781 0.109627 0.441590
Si Si2 0.305357 0.121777 0.739174
Si Si3 0.898007 0.806407 0.407720
Si Si4 0.165615 0.608922 0.133438
Si Si5 0.961707 0.689577 0.876158
Si Si6 0.219283 0.727604 0.225666
Si Si7 0.827394 0.639262 0.253051
Si Si8 0.164111 0.022844 0.505351
O O1 0.454946 0.197918 0.494548
O O2 0.500000 0.000000 0.500000
O O3 0.661905 0.979137 0.598573
O O4 0.707340 0.258284 0.153214
O O5 0.175661 0.121763 0.731531
O O6 0.253692 0.221378 0.773802
O O7 0.326070 0.913757 0.966480
O O8 0.825288 0.595477 0.690748
O O9 0.881049 0.938633 0.378812
O O10 0.066566 0.785673 0.303183
O O11 0.195612 0.647403 0.203168
O O12 0.996888 0.642297 0.184821
O O13 0.890403 0.809154 0.703007
O O14 0.849493 0.657279 0.087213
O O15 0.091991 0.836971 0.689684
O O16 0.000000 0.500000 0.000000
O O17 0.255257 0.560614 0.453912
#
# Coordination Sequence:
#
# PCOD9074861 Si02
#       8
#     2   2   2   2   2   2   2   2
#     4  12  24  40  61 101 142 174 209 259 330 407
#     4  12  23  37  62  96 138 170 205 261 337 398
#     4  11  20  37  64  97 129 170 212 272 331 381
#     4  11  20  37  60  95 133 171 214 261 321 389
#     4  11  24  45  72  95 125 169 232 282 314 371
#     4  11  20  33  59  93 132 166 211 264 320 387
#     4  11  22  41  63  95 125 168 222 271 325 375
#     4  11  24  43  66  99 130 172 219 272 327 379
#
# _framework density 19.554586
#
# number of rings (size 3 to 8) (size 9 to 14) (size 15 to 20)
#    0.000    0.750    6.250    3.375    0.000    1.500 
#    2.250    0.625    0.000    1.500    0.000    0.000 
#    0.000    0.000    0.000    0.000    0.000    0.000 
#
# Total GULP energy -89221.727400 kJ/mol
# GULP energy per Si atom -5576.357962 kJ/mol
# Density = 1.951008 g / cm^3
# Si number density = 19.554586 Si / 1000 Ang^3
#
#
#
# Elastic Constant Matrix: (Units=GPa)
#
#
# Indices 1 2 3 4 5 6 
#
# 1 53.4369 33.3265 13.3038 -8.8418 4.5312 3.2611
# 2 33.3265 156.2985 35.3707 -7.2401 -2.5375 19.8183
# 3 13.3038 35.3707 93.0261 -18.0127 -4.9752 5.3818
# 4 -8.8418 -7.2401 -18.0127 39.9926 1.2630 -0.7310
# 5 4.5312 -2.5375 -4.9752 1.2630 24.5301 6.5103
# 6 3.2611 19.8183 5.3818 -0.7310 6.5103 25.7694
#
#
#
# Elastic Compliance Matrix: (Units=1/GPa)
#
#
# Indices 1 2 3 4 5 6 
#
# 1 0.023049 -0.004914 -0.001140 0.003929 -0.005918 0.002707
# 2 -0.004914 0.008791 -0.002237 -0.000720 0.003120 -0.006481
# 3 -0.001140 -0.002237 0.012971 0.005074 0.002717 -0.001386
# 4 0.003929 -0.000720 0.005074 0.028070 -0.001245 0.000107
# 5 -0.005918 0.003120 0.002717 -0.001245 0.046514 -0.014005
# 6 0.002707 -0.006481 -0.001386 0.000107 -0.014005 0.047278
#
#
# Mechanical properties :
#
#
# Convention : Reuss Voigt Hill
#
# Bulk Modulus (GPa) = 35.42516 51.86261 43.64389
# Shear Modulus (GPa) = 25.95176 32.77579 29.36377
#
# Velocity S-wave (km/s) = 3.64695 4.09848 3.87929
# Velocity P-wave (km/s) = 5.99075 6.99831 6.51404
#
# Compressibility (1/GPa) = 0.02822853
#
# Stress axis : x y z
#
# Youngs Moduli (GPa) = 43.38616 113.75111 77.09236
#
# Poissons Ratio (x) = 0.55895 0.08790
# Poissons Ratio (y) = 0.21319 0.17249
# Poissons Ratio (z) = 0.04947 0.25451
#
# Static dielectric constant tensor:
#      x y z
#    x 1.698070 0.000060 0.039630 
#    y 0.000060 1.659150 -0.003050 
#    z 0.039630 -0.003050 1.831040 
# 
# From -- ./inp_files/432240.got.cif
#   From: 2010.05.17/outbox.ucp.g08.bks.cvg/sg2_217_cif.got.tgz:432240.got - 2010.06.11 11:32:03.
