data_PCOD9074434
_publ_section_title
;
Structure prediction by ZEFSAII (Michael W. Deem and Ramdas Pophale) SiO2 
 PCOD9074434
Probable space group: P -1
;
_chemical_formula_sum "Si O2"
_cell_formula_units_Z 14
_cell_length_a 15.000000
_cell_length_b 24.000000
_cell_length_c 15.000000
_cell_angle_alpha 160.000000
_cell_angle_beta 30.000000
_cell_angle_gamma 160.000000
_cell_volume 624.976433
_symmetry_space_group_name_H-M "P -1"
_symmetry_group_IT_number 2
_symmetry_cell_setting 'triclinic'
loop_
_space_group_symop_operation_xyz
x,y,z
-x,-y,-z
loop_
_atom_site_type_symbol
_atom_site_label
_atom_site_fract_x
_atom_site_fract_y
_atom_site_fract_z
Si Si1 0.242322 0.545828 0.328276
Si Si2 0.110072 0.184331 0.601614
Si Si3 0.500685 0.585774 0.996931
Si Si4 0.365259 0.225551 0.282358
Si Si5 0.702322 0.077221 0.516185
Si Si6 0.165735 0.213827 0.254910
Si Si7 0.324462 0.881862 0.197297
O O1 0.316698 0.437957 0.160806
O O2 0.000000 0.500000 0.500000
O O3 0.483824 0.834761 0.555737
O O4 0.267339 0.484129 0.114731
O O5 0.375207 0.434800 0.789260
O O6 0.149965 0.090339 0.342912
O O7 0.941711 0.226508 0.777672
O O8 0.000000 0.000000 0.500000
O O9 0.644357 0.850613 0.250622
O O10 0.216300 0.138112 0.185150
O O11 0.545808 0.504073 0.570606
O O12 0.541381 0.182448 0.061796
O O13 0.500000 0.000000 0.500000
O O14 0.700262 0.167523 0.748708
O O15 0.986392 0.251100 0.487847
O O16 0.000000 0.000000 0.000000
#
# Coordination Sequence:
#
# PCOD9074434 Si02
#       7
#     2   2   2   2   2   2   2
#     4  10  23  42  71  99 136 185 240 294 350 430
#     4  12  25  46  68 100 147 186 232 295 364 424
#     4  10  24  43  67 100 137 187 235 289 359 422
#     4  11  27  45  72 107 144 186 239 305 354 431
#     4  11  24  45  71 102 140 186 240 299 360 429
#     4  11  24  48  74 103 142 190 244 295 363 427
#     4  11  25  44  70 103 139 182 236 295 364 428
#
# _framework density 22.400845
#
# number of rings (size 3 to 8) (size 9 to 14) (size 15 to 20)
#    0.000    1.143    2.857    1.714    6.000    3.429 
#    2.571    0.000    0.000    0.000    0.000    0.000 
#    0.000    0.000    0.000    0.000    0.000    0.000 
#
# Total GULP energy -78079.269007 kJ/mol
# GULP energy per Si atom -5577.090643 kJ/mol
# Density = 2.234986 g / cm^3
# Si number density = 22.400845 Si / 1000 Ang^3
#
#
#
# Elastic Constant Matrix: (Units=GPa)
#
#
# Indices 1 2 3 4 5 6 
#
# 1 165.0003 48.9280 46.2574 -29.2555 4.4453 6.8672
# 2 48.9280 61.8898 17.3014 -23.5837 -3.4273 3.6573
# 3 46.2574 17.3014 108.0427 -21.1072 0.4616 -8.4022
# 4 -29.2555 -23.5837 -21.1072 59.4305 14.4272 -2.7873
# 5 4.4453 -3.4273 0.4616 14.4272 34.4173 -5.6496
# 6 6.8672 3.6573 -8.4022 -2.7873 -5.6496 27.9650
#
#
#
# Elastic Compliance Matrix: (Units=1/GPa)
#
#
# Indices 1 2 3 4 5 6 
#
# 1 0.009040 -0.005685 -0.002815 0.001767 -0.002884 -0.002729
# 2 -0.005685 0.023134 -0.000133 0.006223 0.000268 -0.000995
# 3 -0.002815 -0.000133 0.011385 0.002881 -0.000295 0.004357
# 4 0.001767 0.006223 0.002881 0.023494 -0.009488 0.000043
# 5 -0.002884 0.000268 -0.000295 -0.009488 0.034521 0.006613
# 6 -0.002729 -0.000995 0.004357 0.000043 0.006613 0.039208
#
#
# Mechanical properties :
#
#
# Convention : Reuss Voigt Hill
#
# Bulk Modulus (GPa) = 38.03350 62.21183 50.12267
# Shear Modulus (GPa) = 29.97348 39.19230 34.58289
#
# Velocity S-wave (km/s) = 3.66191 4.18735 3.93341
# Velocity P-wave (km/s) = 5.90719 7.15618 6.56147
#
# Compressibility (1/GPa) = 0.02629261
#
# Stress axis : x y z
#
# Youngs Moduli (GPa) = 110.61865 43.22560 87.83522
#
# Poissons Ratio (x) = 0.24575 0.24724
# Poissons Ratio (y) = 0.62889 0.01172
# Poissons Ratio (z) = 0.31137 0.00577
#
# Static dielectric constant tensor:
#      x y z
#    x 1.666680 0.145890 0.229080 
#    y 0.145890 1.753410 -0.205530 
#    z 0.229080 -0.205530 1.576660 
# 
# From -- ./inp_files/535435.got.cif
#   From: 2010.05.17/outbox.ucp.g08.bks.cvg/sg2_268_cif.got.tgz:535435.got - 2010.06.11 11:32:03.
