data_PCOD9074765
_publ_section_title
;
Structure prediction by ZEFSAII (Michael W. Deem and Ramdas Pophale) SiO2 
 PCOD9074765
Probable space group: P -1
;
_chemical_formula_sum "Si O2"
_cell_formula_units_Z 16
_cell_length_a 21.000000
_cell_length_b 12.000000
_cell_length_c 12.000000
_cell_angle_alpha 150.000000
_cell_angle_beta 140.000000
_cell_angle_gamma 30.000000
_cell_volume 754.441492
_symmetry_space_group_name_H-M "P -1"
_symmetry_group_IT_number 2
_symmetry_cell_setting 'triclinic'
loop_
_space_group_symop_operation_xyz
x,y,z
-x,-y,-z
loop_
_atom_site_type_symbol
_atom_site_label
_atom_site_fract_x
_atom_site_fract_y
_atom_site_fract_z
Si Si1 0.490962 0.699284 0.959273
Si Si2 0.133826 0.925526 0.862562
Si Si3 0.685744 0.139160 0.587081
Si Si4 0.299900 0.299858 0.641624
Si Si5 0.374700 0.023853 0.861972
Si Si6 0.293464 0.112864 0.235251
Si Si7 0.171328 0.689723 0.207847
Si Si8 0.846266 0.262289 0.516820
O O1 0.582555 0.381026 0.748856
O O2 0.395887 0.879049 0.884470
O O3 0.590179 0.751020 0.176337
O O4 0.400827 0.828595 0.061040
O O5 0.197236 0.636242 0.767239
O O6 0.181095 0.834205 0.717448
O O7 0.980967 0.130034 0.842897
O O8 0.189776 0.081125 0.110080
O O9 0.779485 0.197849 0.717743
O O10 0.750392 0.840690 0.478688
O O11 0.627502 0.126854 0.381616
O O12 0.346289 0.153911 0.454323
O O13 0.249655 0.355535 0.992612
O O14 0.500000 0.000000 0.000000
O O15 0.216367 0.407272 0.312968
O O16 0.200144 0.718123 0.401335
O O17 0.000000 0.000000 0.500000
#
# Coordination Sequence:
#
# PCOD9074765 Si02
#       8
#     2   2   2   2   2   2   2   2
#     4  12  25  44  69 105 136 177 231 283 340 405
#     4  10  25  45  68 101 137 182 233 274 336 407
#     4  12  26  42  71 101 139 184 220 282 346 395
#     4  11  25  47  66 100 141 178 234 278 334 410
#     4  12  24  43  68 104 139 174 227 282 340 407
#     4  11  24  43  74  99 137 184 220 286 343 397
#     4  11  24  43  69 103 138 177 226 282 339 411
#     4   9  21  40  64  99 136 173 220 276 333 403
#
# _framework density 21.207740999999999
#
# number of rings (size 3 to 8) (size 9 to 14) (size 15 to 20)
#    0.000    1.000    3.750    1.500    1.750    9.500 
#    0.000    4.375    0.000    0.000    0.000    0.000 
#    0.000    0.000    0.000    0.000    0.000    0.000 
#
# Total GULP energy -89266.495481 kJ/mol
# GULP energy per Si atom -5579.155968 kJ/mol
# Density = 2.115947 g / cm^3
# Si number density = 21.207741 Si / 1000 Ang^3
#
#
#
# Elastic Constant Matrix: (Units=GPa)
#
#
# Indices 1 2 3 4 5 6 
#
# 1 80.3830 48.7897 22.7284 9.0440 -8.3895 0.9046
# 2 48.7897 89.5948 41.2960 5.5943 3.9605 4.6911
# 3 22.7284 41.2960 101.7161 -8.7528 -19.1614 -10.6600
# 4 9.0440 5.5943 -8.7528 29.8781 2.5275 -7.6247
# 5 -8.3895 3.9605 -19.1614 2.5275 39.3217 1.2201
# 6 0.9046 4.6911 -10.6600 -7.6247 1.2201 43.7792
#
#
#
# Elastic Compliance Matrix: (Units=1/GPa)
#
#
# Indices 1 2 3 4 5 6 
#
# 1 0.020268 -0.011505 0.000969 -0.004185 0.006220 0.000148
# 2 -0.011505 0.022464 -0.009026 -0.003854 -0.008719 -0.004795
# 3 0.000969 -0.009026 0.016047 0.006880 0.008313 0.005821
# 4 -0.004185 -0.003854 0.006880 0.039796 0.000007 0.009106
# 5 0.006220 -0.008719 0.008313 0.000007 0.031626 0.001950
# 6 0.000148 -0.004795 0.005821 0.009106 0.001950 0.026302
#
#
# Mechanical properties :
#
#
# Convention : Reuss Voigt Hill
#
# Bulk Modulus (GPa) = 50.87727 55.25800 53.06764
# Shear Modulus (GPa) = 24.73040 33.18777 28.95909
#
# Velocity S-wave (km/s) = 3.41853 3.96016 3.69927
# Velocity P-wave (km/s) = 6.29475 6.85731 6.58204
#
# Compressibility (1/GPa) = 0.01965514
#
# Stress axis : x y z
#
# Youngs Moduli (GPa) = 49.33865 44.51540 62.31546
#
# Poissons Ratio (x) = 0.51216 -0.06039
# Poissons Ratio (y) = 0.56765 0.56247
# Poissons Ratio (z) = -0.04782 0.40180
#
# Static dielectric constant tensor:
#      x y z
#    x 1.777500 0.025270 0.018590 
#    y 0.025270 1.753110 -0.002740 
#    z 0.018590 -0.002740 1.790230 
# 
# From -- ./inp_files/427292.got.cif
#   From: 2010.05.17/outbox.ucp.g08.bks.cvg/sg2_214_cif.got.tgz:427292.got - 2010.06.11 11:32:03.
