data_PCOD9074246
_publ_section_title
;
Structure prediction by ZEFSAII (Michael W. Deem and Ramdas Pophale) SiO2 
 PCOD9074246
Probable space group: P -1
;
_chemical_formula_sum "Si O2"
_cell_formula_units_Z 16
_cell_length_a 21.000000
_cell_length_b 18.000000
_cell_length_c 6.000000
_cell_angle_alpha 80.000000
_cell_angle_beta 80.000000
_cell_angle_gamma 20.000000
_cell_volume 763.547719
_symmetry_space_group_name_H-M "P -1"
_symmetry_group_IT_number 2
_symmetry_cell_setting 'triclinic'
loop_
_space_group_symop_operation_xyz
x,y,z
-x,-y,-z
loop_
_atom_site_type_symbol
_atom_site_label
_atom_site_fract_x
_atom_site_fract_y
_atom_site_fract_z
Si Si1 0.193377 0.459411 0.736291
Si Si2 0.045742 0.009615 0.274345
Si Si3 0.804233 0.709478 0.381648
Si Si4 0.843864 0.806421 0.982688
Si Si5 0.239010 0.665336 0.111988
Si Si6 0.374717 0.839672 0.772922
Si Si7 0.026384 0.158774 0.539525
Si Si8 0.411059 0.942093 0.387951
O O1 0.212673 0.358183 0.650586
O O2 0.403961 0.252255 0.769853
O O3 0.060944 0.589449 0.959644
O O4 0.087987 0.641106 0.567920
O O5 0.092446 0.037940 0.346802
O O6 0.202037 0.792014 0.154109
O O7 0.000000 0.000000 0.500000
O O8 0.861801 0.224279 0.124552
O O9 0.000000 0.500000 0.500000
O O10 0.639918 0.925439 0.518986
O O11 0.814923 0.759029 0.149698
O O12 0.770651 0.875867 0.741678
O O13 0.726204 0.004076 0.049825
O O14 0.451525 0.403350 0.136323
O O15 0.113564 0.743646 0.291949
O O16 0.444732 0.833151 0.581306
O O17 0.208563 0.979342 0.668048
#
# Coordination Sequence:
#
# PCOD9074246 Si02
#       8
#     2   2   2   2   2   2   2   2
#     4  12  23  42  68  93 130 174 219 275 323 384
#     4   9  22  44  67  99 132 169 215 266 324 394
#     4  11  23  46  64  89 137 172 221 277 325 384
#     4  11  25  42  62  97 133 173 221 273 326 384
#     4  10  22  44  70  95 134 173 211 268 329 391
#     4  11  24  41  67 100 135 171 219 272 325 390
#     4  11  23  41  68  98 130 172 220 269 329 385
#     4  11  24  43  64  96 129 176 220 268 332 386
#
# _framework density 20.954813000000001
#
# number of rings (size 3 to 8) (size 9 to 14) (size 15 to 20)
#    0.000    1.250    3.750    1.500    3.500    1.000 
#    4.500    5.625    0.000    0.000    0.000    0.000 
#    0.000    0.000    0.000    0.000    0.000    0.000 
#
# Total GULP energy -89347.822276 kJ/mol
# GULP energy per Si atom -5584.238892 kJ/mol
# Density = 2.090712 g / cm^3
# Si number density = 20.954813 Si / 1000 Ang^3
#
#
#
# Elastic Constant Matrix: (Units=GPa)
#
#
# Indices 1 2 3 4 5 6 
#
# 1 93.7319 49.7703 21.4244 4.4851 3.7423 19.5588
# 2 49.7703 151.7942 21.6800 -4.2267 -0.7142 22.2337
# 3 21.4244 21.6800 49.2836 -6.5626 4.1444 20.3446
# 4 4.4851 -4.2267 -6.5626 36.2107 3.6048 -12.3762
# 5 3.7423 -0.7142 4.1444 3.6048 21.8992 0.1033
# 6 19.5588 22.2337 20.3446 -12.3762 0.1033 35.1128
#
#
#
# Elastic Compliance Matrix: (Units=1/GPa)
#
#
# Indices 1 2 3 4 5 6 
#
# 1 0.014801 -0.003718 -0.002893 -0.004662 -0.001308 -0.005853
# 2 -0.003718 0.008338 -0.001077 0.000281 0.001077 -0.002489
# 3 -0.002893 -0.001077 0.028228 0.001190 -0.005014 -0.013628
# 4 -0.004662 0.000281 0.001190 0.033583 -0.005011 0.013581
# 5 -0.001308 0.001077 -0.005014 -0.005011 0.047691 0.001046
# 6 -0.005853 -0.002489 -0.013628 0.013581 0.001046 0.045995
#
#
# Mechanical properties :
#
#
# Convention : Reuss Voigt Hill
#
# Bulk Modulus (GPa) = 27.78590 53.39546 40.59068
# Shear Modulus (GPa) = 24.27051 32.10689 28.18870
#
# Velocity S-wave (km/s) = 3.40697 3.91857 3.67169
# Velocity P-wave (km/s) = 5.36333 6.78308 6.11455
#
# Compressibility (1/GPa) = 0.03598948
#
# Stress axis : x y z
#
# Youngs Moduli (GPa) = 67.56256 119.92792 35.42579
#
# Poissons Ratio (x) = 0.44594 0.10249
# Poissons Ratio (y) = 0.25123 0.03817
# Poissons Ratio (z) = 0.19547 0.12922
#
# Static dielectric constant tensor:
#      x y z
#    x 1.751040 -0.002170 -0.002770 
#    y -0.002170 1.708890 0.058280 
#    z -0.002770 0.058280 1.806670 
# 
# From -- ./inp_files/49166.got.cif
#   From: 2010.05.17/outbox.ucp.g08.bks.cvg/sg2_25_cif.got.tgz:49166.got - 2010.06.11 11:32:03.
