data_PCOD9074696
_publ_section_title
;
Structure prediction by ZEFSAII (Michael W. Deem and Ramdas Pophale) SiO2 
 PCOD9074696
Probable space group: P -1
;
_chemical_formula_sum "Si O2"
_cell_formula_units_Z 14
_cell_length_a 15.000000
_cell_length_b 12.000000
_cell_length_c 21.000000
_cell_angle_alpha 150.000000
_cell_angle_beta 20.000000
_cell_angle_gamma 140.000000
_cell_volume 620.704002
_symmetry_space_group_name_H-M "P -1"
_symmetry_group_IT_number 2
_symmetry_cell_setting 'triclinic'
loop_
_space_group_symop_operation_xyz
x,y,z
-x,-y,-z
loop_
_atom_site_type_symbol
_atom_site_label
_atom_site_fract_x
_atom_site_fract_y
_atom_site_fract_z
Si Si1 0.737719 0.296207 0.767189
Si Si2 0.108989 0.759211 0.844028
Si Si3 0.886421 0.293343 0.938875
Si Si4 0.289938 0.507942 0.975270
Si Si5 0.690644 0.650968 0.594339
Si Si6 0.378338 0.001763 0.880948
Si Si7 0.926905 0.258599 0.404975
O O1 0.609219 0.089313 0.734081
O O2 0.025242 0.311029 0.554303
O O3 0.500000 0.500000 0.000000
O O4 0.731732 0.342072 0.870490
O O5 0.240003 0.560178 0.606819
O O6 0.297651 0.810062 0.798057
O O7 0.860901 0.686364 0.004830
O O8 0.000000 0.000000 0.000000
O O9 0.888835 0.331515 0.880307
O O10 0.558310 0.372158 0.207837
O O11 0.000000 0.500000 0.000000
O O12 0.002647 0.013012 0.743760
O O13 0.599845 0.365776 0.678802
O O14 0.542937 0.886976 0.774767
O O15 0.104108 0.186870 0.184474
O O16 0.000000 0.500000 0.500000
#
# Coordination Sequence:
#
# PCOD9074696 Si02
#       7
#     2   2   2   2   2   2   2
#     4  11  24  46  68 104 139 191 244 303 371 441
#     4  11  25  44  69 105 140 195 248 306 374 439
#     4  11  27  48  78 112 150 198 251 310 378 443
#     4  11  25  47  74 106 149 193 251 305 377 445
#     4  10  24  45  68 101 141 186 243 308 366 442
#     4  11  22  44  69  99 141 189 246 302 370 437
#     4  11  25  47  74 110 149 196 251 309 373 449
#
# _framework density 22.555033999999999
#
# number of rings (size 3 to 8) (size 9 to 14) (size 15 to 20)
#    0.000    1.143    1.429    4.286    6.000    2.857 
#    7.714    0.000    0.000    0.000    0.000    0.000 
#    0.000    0.000    0.000    0.000    0.000    0.000 
#
# Total GULP energy -77973.225694 kJ/mol
# GULP energy per Si atom -5569.516121 kJ/mol
# Density = 2.250370 g / cm^3
# Si number density = 22.555034 Si / 1000 Ang^3
#
#
#
# Elastic Constant Matrix: (Units=GPa)
#
#
# Indices 1 2 3 4 5 6 
#
# 1 50.8337 31.1911 -7.5408 -3.3501 -13.3538 -0.4226
# 2 31.1911 173.6131 39.6535 -12.8714 -11.1982 18.7063
# 3 -7.5408 39.6535 95.3488 -10.1068 -5.8884 3.3922
# 4 -3.3501 -12.8714 -10.1068 38.1038 9.2979 -4.9727
# 5 -13.3538 -11.1982 -5.8884 9.2979 31.2727 6.8562
# 6 -0.4226 18.7063 3.3922 -4.9727 6.8562 45.2568
#
#
#
# Elastic Compliance Matrix: (Units=1/GPa)
#
#
# Indices 1 2 3 4 5 6 
#
# 1 0.026288 -0.005248 0.004817 -0.000658 0.010358 0.000412
# 2 -0.005248 0.007908 -0.003489 0.000803 0.000358 -0.003022
# 3 0.004817 -0.003489 0.012678 0.002047 0.002502 0.000383
# 4 -0.000658 0.000803 0.002047 0.029845 -0.009405 0.004213
# 5 0.010358 0.000358 0.002502 -0.009405 0.041451 -0.007552
# 6 0.000412 -0.003022 0.000383 0.004213 -0.007552 0.024927
#
#
# Mechanical properties :
#
#
# Convention : Reuss Voigt Hill
#
# Bulk Modulus (GPa) = 25.61947 49.60038 37.60992
# Shear Modulus (GPa) = 30.49741 40.02612 35.26177
#
# Velocity S-wave (km/s) = 3.68113 4.21717 3.95823
# Velocity P-wave (km/s) = 5.42687 6.76397 6.13197
#
# Compressibility (1/GPa) = 0.03903282
#
# Stress axis : x y z
#
# Youngs Moduli (GPa) = 38.04040 126.45552 78.87886
#
# Poissons Ratio (x) = 0.66365 -0.37995
# Poissons Ratio (y) = 0.19964 0.27522
# Poissons Ratio (z) = -0.18324 0.44122
#
# Static dielectric constant tensor:
#      x y z
#    x 1.913780 -0.068350 0.004270 
#    y -0.068350 2.198350 -0.061710 
#    z 0.004270 -0.061710 1.842180 
# 
# From -- ./inp_files/598012.got.cif
#   From: 2010.05.17/outbox.ucp.g08.bks.cvg/sg2_300_cif.got.tgz:598012.got - 2010.06.11 11:32:03.
