data_PCOD9074996
_publ_section_title
;
Structure prediction by ZEFSAII (Michael W. Deem and Ramdas Pophale) SiO2 
 PCOD9074996
Probable space group: P -1
;
_chemical_formula_sum "Si O2"
_cell_formula_units_Z 16
_cell_length_a 15.000000
_cell_length_b 9.000000
_cell_length_c 21.000000
_cell_angle_alpha 40.000000
_cell_angle_beta 30.000000
_cell_angle_gamma 40.000000
_cell_volume 863.446988
_symmetry_space_group_name_H-M "P -1"
_symmetry_group_IT_number 2
_symmetry_cell_setting 'triclinic'
loop_
_space_group_symop_operation_xyz
x,y,z
-x,-y,-z
loop_
_atom_site_type_symbol
_atom_site_label
_atom_site_fract_x
_atom_site_fract_y
_atom_site_fract_z
Si Si1 0.242074 0.168115 0.385908
Si Si2 0.012513 0.936256 0.309690
Si Si3 0.353136 0.081414 0.621943
Si Si4 0.092389 0.455888 0.581501
Si Si5 0.649831 0.441511 0.724141
Si Si6 0.251757 0.600344 0.855740
Si Si7 0.546097 0.740819 0.372191
Si Si8 0.114725 0.506052 0.837547
O O1 0.114402 0.096876 0.541963
O O2 0.331985 0.360302 0.299768
O O3 0.094889 0.312226 0.376216
O O4 0.401721 0.916723 0.354320
O O5 0.969278 0.764319 0.338569
O O6 0.227821 0.817273 0.237544
O O7 0.957063 0.212394 0.231667
O O8 0.206634 0.345355 0.609856
O O9 0.464113 0.102013 0.609625
O O10 0.500000 0.000000 0.500000
O O11 0.253273 0.877087 0.758155
O O12 0.235720 0.510987 0.423958
O O13 0.440908 0.469512 0.821341
O O14 0.241684 0.496271 0.825300
O O15 0.063308 0.580331 0.010231
O O16 0.500000 0.500000 0.500000
O O17 0.753315 0.657530 0.243410
#
# Coordination Sequence:
#
# PCOD9074996 Si02
#       8
#     2   2   2   2   2   2   2   2
#     4   9  17  33  54  85 110 141 181 232 282 324
#     4   9  16  33  55  83 115 137 184 230 281 323
#     4  12  20  36  62  85 108 148 193 225 270 344
#     4   9  17  30  59  84 107 140 188 231 269 332
#     4   9  17  31  58  84 104 147 188 228 267 338
#     4  11  22  38  57  82 111 153 196 220 275 335
#     4  12  23  36  58  86 116 143 182 238 288 320
#     4  11  24  37  54  84 119 148 181 241 279 320
#
# _framework density 18.530379
#
# number of rings (size 3 to 8) (size 9 to 14) (size 15 to 20)
#    0.000    1.750    5.000    3.000    0.000    1.000 
#    0.000    1.875    0.000    0.750    0.000    0.000 
#    0.000    0.000    0.000    0.000    0.000    0.000 
#
# Total GULP energy -89235.858107 kJ/mol
# GULP energy per Si atom -5577.241132 kJ/mol
# Density = 1.848820 g / cm^3
# Si number density = 18.530379 Si / 1000 Ang^3
#
#
#
# Elastic Constant Matrix: (Units=GPa)
#
#
# Indices 1 2 3 4 5 6 
#
# 1 49.6918 14.8508 18.4831 13.6884 -13.6795 -23.4377
# 2 14.8508 90.0809 28.1668 6.2574 -0.8147 -27.2857
# 3 18.4831 28.1668 61.5026 -2.5539 -12.7070 3.7283
# 4 13.6884 6.2574 -2.5539 14.2456 0.3663 -3.5981
# 5 -13.6795 -0.8147 -12.7070 0.3663 23.7199 1.6642
# 6 -23.4377 -27.2857 3.7283 -3.5981 1.6642 37.0195
#
#
#
# Elastic Compliance Matrix: (Units=1/GPa)
#
#
# Indices 1 2 3 4 5 6 
#
# 1 0.103481 0.029493 -0.047244 -0.101263 0.031280 0.080763
# 2 0.029493 0.028227 -0.025107 -0.035591 0.002381 0.038440
# 3 -0.047244 -0.025107 0.046975 0.052731 -0.000390 -0.048004
# 4 -0.101263 -0.035591 0.052731 0.173753 -0.028621 -0.077481
# 5 0.031280 0.002381 -0.000390 -0.028621 0.059380 0.016147
# 6 0.080763 0.038440 -0.048004 -0.077481 0.016147 0.103056
#
#
# Mechanical properties :
#
#
# Convention : Reuss Voigt Hill
#
# Bulk Modulus (GPa) = 10.75647 36.03074 23.39360
# Shear Modulus (GPa) = 7.91670 24.31530 16.11600
#
# Velocity S-wave (km/s) = 2.06919 3.62634 2.95228
# Velocity P-wave (km/s) = 3.39501 6.08442 4.92678
#
# Compressibility (1/GPa) = 0.09296733
#
# Stress axis : x y z
#
# Youngs Moduli (GPa) = 9.66361 35.42747 21.28794
#
# Poissons Ratio (x) = -1.04486 1.00573
# Poissons Ratio (y) = -0.28501 0.53447
# Poissons Ratio (z) = 0.45655 0.88947
#
# Static dielectric constant tensor:
#      x y z
#    x 1.650620 -0.031940 0.006440 
#    y -0.031940 1.689830 0.017250 
#    z 0.006440 0.017250 1.603330 
# 
# From -- ./inp_files/303916.got.cif
#   From: 2010.05.17/outbox.ucp.g08.bks.cvg/sg2_152_cif.got.tgz:303916.got - 2010.06.11 11:32:03.
