data_PCOD9074561
_publ_section_title
;
Structure prediction by ZEFSAII (Michael W. Deem and Ramdas Pophale) SiO2 
 PCOD9074561
Probable space group: P -1
;
_chemical_formula_sum "Si O2"
_cell_formula_units_Z 16
_cell_length_a 17.421331
_cell_length_b 10.159176
_cell_length_c 10.845399
_cell_angle_alpha 103.862562
_cell_angle_beta 149.932428
_cell_angle_gamma 93.547012
_cell_volume 777.647279
_symmetry_space_group_name_H-M "P -1"
_symmetry_group_IT_number 2
_symmetry_cell_setting 'triclinic'
loop_
_space_group_symop_operation_xyz
x,y,z
-x,-y,-z
loop_
_atom_site_type_symbol
_atom_site_label
_atom_site_fract_x
_atom_site_fract_y
_atom_site_fract_z
Si Si1 0.366819 0.321633 0.514191
Si Si2 0.695151 0.006657 0.685360
Si Si3 0.053443 0.884980 0.162685
Si Si4 0.370413 0.844550 0.876817
Si Si5 0.632149 0.970894 0.857086
Si Si6 0.169046 0.648143 0.342234
Si Si7 0.451485 0.324286 0.178224
Si Si8 0.674851 0.772053 0.295330
O O1 0.417231 0.190381 0.526420
O O2 0.502764 0.498694 0.686786
O O3 0.341617 0.333011 0.630878
O O4 0.162580 0.239558 0.157149
O O5 0.743104 0.049581 0.903994
O O6 0.873599 0.065011 0.864361
O O7 0.570191 0.068848 0.474286
O O8 0.156675 0.799141 0.324880
O O9 0.139109 0.050254 0.394365
O O10 0.199625 0.683129 0.539284
O O11 0.511010 0.797630 0.101828
O O12 0.500000 0.000000 0.000000
O O13 0.312551 0.912106 0.922816
O O14 0.639426 0.818982 0.879410
O O15 0.352391 0.656405 0.563451
O O16 0.000000 0.500000 0.000000
O O17 0.353256 0.281877 0.897927
#
# Coordination Sequence:
#
# PCOD9074561 Si02
#       8
#     2   2   2   2   2   2   2   2
#     4  11  22  33  54  84 114 139 169 228 276 316
#     4  10  21  34  53  82 109 143 184 219 261 320
#     4  11  18  35  56  79 110 141 180 222 261 323
#     4  11  16  32  59  79 102 134 189 232 247 312
#     4  11  19  35  58  79 106 144 185 225 253 316
#     4  11  19  31  53  89 106 134 179 224 279 311
#     4  11  20  33  56  83 109 138 174 233 268 311
#     4  10  18  32  51  82 108 133 184 216 268 313
#
# _framework density 20.57488
#
# number of rings (size 3 to 8) (size 9 to 14) (size 15 to 20)
#    0.000    1.250    8.750    1.875    0.000    0.500 
#    0.000    0.000    0.000    7.500    6.500    0.000 
#    0.000    0.000    0.000    0.000    0.000    0.000 
#
# Total GULP energy -89106.011336 kJ/mol
# GULP energy per Si atom -5569.125708 kJ/mol
# Density = 2.052805 g / cm^3
# Si number density = 20.574880 Si / 1000 Ang^3
#
#
#
# Elastic Constant Matrix: (Units=GPa)
#
#
# Indices 1 2 3 4 5 6 
#
# 1 43.0281 -11.5132 15.1851 2.1349 -17.6028 1.9809
# 2 -11.5132 74.0561 9.6016 -1.2657 -8.5865 -5.3239
# 3 15.1851 9.6016 109.3034 -0.0055 -23.0176 5.1295
# 4 2.1349 -1.2657 -0.0055 21.5289 -0.3875 -2.5362
# 5 -17.6028 -8.5865 -23.0176 -0.3875 21.1254 -6.1812
# 6 1.9809 -5.3239 5.1295 -2.5362 -6.1812 12.9877
#
#
#
# Elastic Compliance Matrix: (Units=1/GPa)
#
#
# Indices 1 2 3 4 5 6 
#
# 1 0.048806 0.015710 0.002751 0.000095 0.057445 0.025268
# 2 0.015710 0.020549 0.001071 0.002470 0.028389 0.019598
# 3 0.002751 0.001071 0.012067 0.000495 0.016874 0.003381
# 4 0.000095 0.002470 0.000495 0.048263 0.006390 0.013268
# 5 0.057445 0.028389 0.016874 0.006390 0.144643 0.066299
# 6 0.025268 0.019598 0.003381 0.013268 0.066299 0.113985
#
#
# Mechanical properties :
#
#
# Convention : Reuss Voigt Hill
#
# Bulk Modulus (GPa) = 8.29971 28.10384 18.20177
# Shear Modulus (GPa) = 12.83986 25.33601 19.08794
#
# Velocity S-wave (km/s) = 2.50082 3.51295 3.04917
# Velocity P-wave (km/s) = 3.51873 5.49029 4.61112
#
# Compressibility (1/GPa) = 0.12048610
#
# Stress axis : x y z
#
# Youngs Moduli (GPa) = 20.48924 48.66310 82.86806
#
# Poissons Ratio (x) = -0.76448 -0.22796
# Poissons Ratio (y) = -0.32188 -0.08876
# Poissons Ratio (z) = -0.05636 -0.05212
#
# Static dielectric constant tensor:
#      x y z
#    x 1.767080 0.034690 -0.069680 
#    y 0.034690 1.818830 -0.011960 
#    z -0.069680 -0.011960 1.781550 
# 
# From -- ./inp_files/470445.got.cif
#   From: 2010.05.17/outbox.cif.g08.bks.cpg/sg2_236_cif.got.tgz:470445.got - 2010.06.03 11:33:40.
