data_PCOD9074630
_publ_section_title
;
Structure prediction by ZEFSAII (Michael W. Deem and Ramdas Pophale) SiO2 
 PCOD9074630
Probable space group: P -1
;
_chemical_formula_sum "Si O2"
_cell_formula_units_Z 13
_cell_length_a 9.000000
_cell_length_b 9.000000
_cell_length_c 15.000000
_cell_angle_alpha 70.000000
_cell_angle_beta 120.000000
_cell_angle_gamma 150.000000
_cell_volume 514.363264
_symmetry_space_group_name_H-M "P -1"
_symmetry_group_IT_number 2
_symmetry_cell_setting 'triclinic'
loop_
_space_group_symop_operation_xyz
x,y,z
-x,-y,-z
loop_
_atom_site_type_symbol
_atom_site_label
_atom_site_fract_x
_atom_site_fract_y
_atom_site_fract_z
Si Si1 0.000000 0.000000 0.000000
Si Si2 0.334166 0.598502 0.967666
Si Si3 0.471987 0.595399 0.673474
Si Si4 0.749733 0.244713 0.399373
Si Si5 0.450748 0.674308 0.184754
Si Si6 0.076858 0.688066 0.762593
Si Si7 0.818258 0.957340 0.532681
O O1 0.697954 0.820485 0.010645
O O2 0.912835 0.741957 0.052613
O O3 0.312989 0.625286 0.060172
O O4 0.274067 0.704300 0.867806
O O5 0.493241 0.793910 0.671375
O O6 0.591936 0.550892 0.784261
O O7 0.597184 0.683397 0.590545
O O8 0.097369 0.245489 0.622520
O O9 0.909368 0.339028 0.331711
O O10 0.000000 0.500000 0.500000
O O11 0.636734 0.977821 0.445698
O O12 0.273106 0.591829 0.237671
O O13 0.794261 0.035159 0.228992
O O14 0.000000 0.000000 0.500000
#
# Coordination Sequence:
#
# PCOD9074630 Si02
#       7
#     1   2   2   2   2   2   2
#     4  10  24  42  72 108 146 176 236 286 356 418
#     4  11  24  46  72 108 146 185 233 291 357 423
#     4  11  24  40  64  98 131 179 228 289 349 412
#     4  10  25  45  67 102 139 187 240 298 351 417
#     4  12  25  45  71 106 144 185 239 290 355 429
#     4  12  26  46  72 103 143 193 238 290 359 422
#     4  11  22  42  66  92 133 177 233 289 351 407
#
# _framework density 25.273966999999999
#
# number of rings (size 3 to 8) (size 9 to 14) (size 15 to 20)
#    0.000    0.923    0.000    6.462    4.308    6.154 
#    2.769    0.000    0.000    0.000    0.000    0.000 
#    0.000    0.000    0.000    0.000    0.000    0.000 
#
# Total GULP energy -72402.038973 kJ/mol
# GULP energy per Si atom -5569.387613 kJ/mol
# Density = 2.521644 g / cm^3
# Si number density = 25.273967 Si / 1000 Ang^3
#
#
#
# Elastic Constant Matrix: (Units=GPa)
#
#
# Indices 1 2 3 4 5 6 
#
# 1 72.5081 41.4803 8.2741 -20.7303 34.3851 -30.3901
# 2 41.4803 90.8903 42.6509 -14.2072 -4.6264 9.6295
# 3 8.2741 42.6509 103.6461 -34.4254 13.4156 -11.7299
# 4 -20.7303 -14.2072 -34.4254 27.3710 11.1709 -2.2534
# 5 34.3851 -4.6264 13.4156 11.1709 1.6772 -4.0382
# 6 -30.3901 9.6295 -11.7299 -2.2534 -4.0382 36.1894
#
#
#
# Elastic Compliance Matrix: (Units=1/GPa)
#
#
# Indices 1 2 3 4 5 6 
#
# 1 0.005014 -0.000901 -0.005421 -0.010552 0.018126 0.004059
# 2 -0.000901 0.013397 -0.001166 0.009676 -0.013056 -0.005554
# 3 -0.005421 -0.001166 0.009879 0.002648 0.012518 0.000522
# 4 -0.010552 0.009676 0.002648 0.027808 0.020955 -0.006507
# 5 0.018126 -0.013056 0.012518 0.020955 0.009330 0.025099
# 6 0.004059 -0.005554 0.000522 -0.006507 0.025099 0.035084
#
#
# Mechanical properties :
#
#
# Convention : Reuss Voigt Hill
#
# Bulk Modulus (GPa) = 75.10960 50.20615 62.65788
# Shear Modulus (GPa) = 41.69184 24.69013 33.19098
#
# Velocity S-wave (km/s) = 4.06593 3.12893 3.62781
# Velocity P-wave (km/s) = 7.19896 5.74121 6.51101
#
# Compressibility (1/GPa) = 0.01331388
#
# Stress axis : x y z
#
# Youngs Moduli (GPa) = 199.42557 74.64257 101.22399
#
# Poissons Ratio (x) = 0.06729 0.54873
# Poissons Ratio (y) = 0.17978 0.11803
# Poissons Ratio (z) = 1.08107 0.08703
#
# Static dielectric constant tensor:
#      x y z
#    x 1.991520 0.006850 0.088300 
#    y 0.006850 1.975610 0.047420 
#    z 0.088300 0.047420 2.061260 
# 
# From -- ./inp_files/201683.got.cif
#   From: 2010.05.17/outbox.ucp.g08.bks.cvg/sg2_101_cif.got.tgz:201683.got - 2010.06.11 11:32:03.
