data_PCOD9074560
_publ_section_title
;
Structure prediction by ZEFSAII (Michael W. Deem and Ramdas Pophale) SiO2 
 PCOD9074560
Probable space group: P -1
;
_chemical_formula_sum "Si O2"
_cell_formula_units_Z 16
_cell_length_a 9.000000
_cell_length_b 12.000000
_cell_length_c 15.000000
_cell_angle_alpha 150.000000
_cell_angle_beta 110.000000
_cell_angle_gamma 80.000000
_cell_volume 734.803614
_symmetry_space_group_name_H-M "P -1"
_symmetry_group_IT_number 2
_symmetry_cell_setting 'triclinic'
loop_
_space_group_symop_operation_xyz
x,y,z
-x,-y,-z
loop_
_atom_site_type_symbol
_atom_site_label
_atom_site_fract_x
_atom_site_fract_y
_atom_site_fract_z
Si Si1 0.812068 0.370243 0.847065
Si Si2 0.551965 0.611507 0.886536
Si Si3 0.731606 0.976643 0.706923
Si Si4 0.474476 0.226729 0.200788
Si Si5 0.602561 0.119250 0.323958
Si Si6 0.157477 0.921877 0.006557
Si Si7 0.195481 0.429173 0.667540
Si Si8 0.909175 0.174919 0.554197
O O1 0.692985 0.533929 0.914971
O O2 0.821803 0.258881 0.676434
O O3 0.744748 0.171307 0.768630
O O4 0.000000 0.500000 0.000000
O O5 0.548679 0.615500 0.779153
O O6 0.372819 0.457135 0.767691
O O7 0.555421 0.866665 0.095388
O O8 0.544966 0.879756 0.636846
O O9 0.808821 0.773088 0.545281
O O10 0.831089 0.093125 0.894835
O O11 0.601384 0.287236 0.353406
O O12 0.304337 0.133535 0.151710
O O13 0.500000 0.000000 0.000000
O O14 0.770065 0.126011 0.414797
O O15 0.181143 0.679924 0.804228
O O16 0.000000 0.000000 0.000000
O O17 0.056892 0.354478 0.660718
O O18 0.000000 0.000000 0.500000
#
# Coordination Sequence:
#
# PCOD9074560 Si02
#       8
#     2   2   2   2   2   2   2   2
#     4  12  27  44  72 106 141 193 239 297 364 427
#     4  11  24  45  78 100 142 198 235 290 364 430
#     4  11  25  47  70 104 143 185 248 289 362 429
#     4   9  19  44  71  97 136 187 238 281 355 430
#     4  10  23  46  70 102 142 189 234 301 350 431
#     4  11  25  46  72 103 146 186 235 300 357 429
#     4  12  25  47  71 108 140 188 240 294 361 419
#     4  12  26  45  66 103 147 181 241 301 355 422
#
# _framework density 21.774525000000001
#
# number of rings (size 3 to 8) (size 9 to 14) (size 15 to 20)
#    0.000    1.000    5.000    2.250    5.250    3.000 
#    2.250    1.875    0.000    0.000    0.000    0.000 
#    0.000    0.000    0.000    0.000    0.000    0.000 
#
# Total GULP energy -89248.005116 kJ/mol
# GULP energy per Si atom -5578.000320 kJ/mol
# Density = 2.172497 g / cm^3
# Si number density = 21.774525 Si / 1000 Ang^3
#
#
#
# Elastic Constant Matrix: (Units=GPa)
#
#
# Indices 1 2 3 4 5 6 
#
# 1 86.6828 60.7129 21.9971 -2.6482 4.6556 -14.9444
# 2 60.7129 136.2150 53.1249 -17.5575 6.8496 -4.3511
# 3 21.9971 53.1249 78.4521 -0.2350 -7.9381 -2.0638
# 4 -2.6482 -17.5575 -0.2350 34.0946 -11.7114 -3.8323
# 5 4.6556 6.8496 -7.9381 -11.7114 39.2294 0.9148
# 6 -14.9444 -4.3511 -2.0638 -3.8323 0.9148 46.8803
#
#
#
# Elastic Compliance Matrix: (Units=1/GPa)
#
#
# Indices 1 2 3 4 5 6 
#
# 1 0.018135 -0.008469 0.000612 -0.002936 -0.001538 0.004812
# 2 -0.008469 0.015099 -0.007989 0.006499 -0.001282 -0.001094
# 3 0.000612 -0.007989 0.018413 -0.002460 0.004314 -0.000021
# 4 -0.002936 0.006499 -0.002460 0.035915 0.009384 0.002312
# 5 -0.001538 -0.001282 0.004314 0.009384 0.029577 -0.000230
# 6 0.004812 -0.001094 -0.000021 0.002312 -0.000230 0.022956
#
#
# Mechanical properties :
#
#
# Convention : Reuss Voigt Hill
#
# Bulk Modulus (GPa) = 50.11015 63.66885 56.88950
# Shear Modulus (GPa) = 28.02045 35.07520 31.54783
#
# Velocity S-wave (km/s) = 3.59115 4.01788 3.81049
# Velocity P-wave (km/s) = 6.34495 7.12937 6.74857
#
# Compressibility (1/GPa) = 0.01995604
#
# Stress axis : x y z
#
# Youngs Moduli (GPa) = 55.14050 66.22804 54.30822
#
# Poissons Ratio (x) = 0.56092 -0.03326
# Poissons Ratio (y) = 0.46701 0.43387
# Poissons Ratio (z) = -0.03377 0.52910
#
# Static dielectric constant tensor:
#      x y z
#    x 2.359320 -0.771050 -0.407230 
#    y -0.771050 2.884980 0.579050 
#    z -0.407230 0.579050 2.177540 
# 
# From -- ./inp_files/501273.got.cif
#   From: 2010.05.17/outbox.ucp.g08.bks.cvg/sg2_251_cif.got.tgz:501273.got - 2010.06.11 11:32:03.
