data_PCOD9074867
_publ_section_title
;
Structure prediction by ZEFSAII (Michael W. Deem and Ramdas Pophale) SiO2 
 PCOD9074867
Probable space group: P -1
;
_chemical_formula_sum "Si O2"
_cell_formula_units_Z 12
_cell_length_a 6.661152
_cell_length_b 11.305350
_cell_length_c 7.130894
_cell_angle_alpha 108.043507
_cell_angle_beta 65.602070
_cell_angle_gamma 75.145400
_cell_volume 416.691451
_symmetry_space_group_name_H-M "P -1"
_symmetry_group_IT_number 2
_symmetry_cell_setting 'triclinic'
loop_
_space_group_symop_operation_xyz
x,y,z
-x,-y,-z
loop_
_atom_site_type_symbol
_atom_site_label
_atom_site_fract_x
_atom_site_fract_y
_atom_site_fract_z
Si Si1 0.207915 0.583499 0.001318
Si Si2 0.444336 0.766335 0.874137
Si Si3 0.209820 0.931003 0.677410
Si Si4 0.296112 0.534879 0.375257
Si Si5 0.724697 0.803286 0.292997
Si Si6 0.148886 0.179716 0.307917
O O1 0.236629 0.533028 0.176853
O O2 0.927683 0.652704 0.077449
O O3 0.286184 0.712391 0.035737
O O4 0.426918 0.477553 0.734924
O O5 0.278222 0.854013 0.811838
O O6 0.658565 0.615521 0.644901
O O7 0.612460 0.838647 0.911384
O O8 0.439203 0.840652 0.407927
O O9 0.956473 0.933058 0.711789
O O10 0.222547 0.075752 0.756619
O O11 0.084883 0.677789 0.597774
O O12 0.779188 0.811818 0.499201
#
# Coordination Sequence:
#
# PCOD9074867 Si02
#       6
#     2   2   2   2   2   2
#     4   8  16  33  54  68  95 136 157 191 248 284
#     4   9  18  32  50  76  98 126 156 201 246 276
#     4  10  20  32  51  75  95 127 166 198 237 284
#     4   8  16  32  53  71  95 133 159 190 245 287
#     4   9  19  36  51  67  99 132 161 198 237 284
#     4  10  18  32  53  73  97 127 162 198 237 289
#
# _framework density 28.798283999999999
#
# number of rings (size 3 to 8) (size 9 to 14) (size 15 to 20)
#    1.000    2.000    0.000    1.000    0.000    1.333 
#    0.000    5.000    0.000    0.000    0.000    0.000 
#    0.000    0.000    0.000    0.000    0.000    0.000 
#
# Total GULP energy -67185.749670 kJ/mol
# GULP energy per Si atom -5598.812473 kJ/mol
# Density = 2.873274 g / cm^3
# Si number density = 28.798284 Si / 1000 Ang^3
#
#
#
# Elastic Constant Matrix: (Units=GPa)
#
#
# Indices 1 2 3 4 5 6 
#
# 1 118.5375 23.5011 54.7033 -11.8552 -16.0627 15.6606
# 2 23.5011 133.4752 12.3588 -17.2595 19.6844 -19.7755
# 3 54.7033 12.3588 108.0624 -5.9431 -29.9730 2.9951
# 4 -11.8552 -17.2595 -5.9431 45.0795 -7.0861 -7.7636
# 5 -16.0627 19.6844 -29.9730 -7.0861 44.7932 -0.0256
# 6 15.6606 -19.7755 2.9951 -7.7636 -0.0256 35.6004
#
#
#
# Elastic Compliance Matrix: (Units=1/GPa)
#
#
# Indices 1 2 3 4 5 6 
#
# 1 0.012722 -0.003032 -0.005157 0.000757 0.002560 -0.006680
# 2 -0.003032 0.010752 -0.001450 0.003564 -0.006214 0.008201
# 3 -0.005157 -0.001450 0.014519 0.001474 0.008737 0.000569
# 4 0.000757 0.003564 0.001474 0.025764 0.003772 0.007144
# 5 0.002560 -0.006214 0.008737 0.003772 0.032414 -0.004467
# 6 -0.006680 0.008201 0.000569 0.007144 -0.004467 0.037090
#
#
# Mechanical properties :
#
#
# Convention : Reuss Voigt Hill
#
# Bulk Modulus (GPa) = 53.42850 60.13351 56.78101
# Shear Modulus (GPa) = 31.49077 43.06209 37.27643
#
# Velocity S-wave (km/s) = 3.31039 3.87111 3.60168
# Velocity P-wave (km/s) = 5.76234 6.39585 6.08734
#
# Compressibility (1/GPa) = 0.01871660
#
# Stress axis : x y z
#
# Youngs Moduli (GPa) = 78.60392 93.00217 68.87698
#
# Poissons Ratio (x) = 0.28196 0.35517
# Poissons Ratio (y) = 0.23831 0.09986
# Poissons Ratio (z) = 0.40533 0.13484
#
# Static dielectric constant tensor:
#      x y z
#    x 2.240520 0.057060 -0.025950 
#    y 0.057060 2.239960 0.056440 
#    z -0.025950 0.056440 2.321930 
# 
# From -- ./inp_files/19114.got.cif
#   From: 2010.05.17/outbox.cif.g08.bks.cpg/sg2_10_cif.got.tgz:19114.got - 2010.06.03 11:33:40.
