data_PCOD9074290
_publ_section_title
;
Structure prediction by ZEFSAII (Michael W. Deem and Ramdas Pophale) SiO2 
 PCOD9074290
Probable space group: P -1
;
_chemical_formula_sum "Si O2"
_cell_formula_units_Z 14
_cell_length_a 9.000000
_cell_length_b 15.000000
_cell_length_c 15.000000
_cell_angle_alpha 150.000000
_cell_angle_beta 140.000000
_cell_angle_gamma 40.000000
_cell_volume 616.747849
_symmetry_space_group_name_H-M "P -1"
_symmetry_group_IT_number 2
_symmetry_cell_setting 'triclinic'
loop_
_space_group_symop_operation_xyz
x,y,z
-x,-y,-z
loop_
_atom_site_type_symbol
_atom_site_label
_atom_site_fract_x
_atom_site_fract_y
_atom_site_fract_z
Si Si1 0.725133 0.342216 0.925777
Si Si2 0.479991 0.120848 0.502698
Si Si3 0.950323 0.277412 0.312889
Si Si4 0.086247 0.137214 0.064939
Si Si5 0.379501 0.940515 0.689760
Si Si6 0.128216 0.350890 0.003892
Si Si7 0.484475 0.524460 0.406782
O O1 0.631588 0.254356 0.721210
O O2 0.935148 0.415276 0.049981
O O3 0.500000 0.500000 0.000000
O O4 0.878713 0.201939 0.949963
O O5 0.576204 0.027248 0.368241
O O6 0.200886 0.233008 0.445628
O O7 0.500000 0.000000 0.500000
O O8 0.748226 0.450460 0.415584
O O9 0.985059 0.281934 0.225992
O O10 0.887504 0.082790 0.112049
O O11 0.373145 0.117356 0.185603
O O12 0.328465 0.740955 0.498911
O O13 0.197810 0.133699 0.814374
O O14 0.363310 0.385241 0.182759
O O15 0.000000 0.500000 0.000000
O O16 0.500000 0.500000 0.500000
#
# Coordination Sequence:
#
# PCOD9074290 Si02
#       7
#     2   2   2   2   2   2   2
#     4  12  29  44  74 109 149 195 249 305 377 442
#     4  11  25  44  74 107 147 194 248 306 367 447
#     4  10  23  43  72 107 142 194 242 301 368 435
#     4  10  22  45  75 102 149 192 244 302 364 444
#     4  11  27  49  75 111 146 202 252 302 378 445
#     4  12  30  51  75 107 156 195 244 316 376 442
#     4  12  28  46  77 108 149 194 252 308 372 446
#
# _framework density 22.699714
#
# number of rings (size 3 to 8) (size 9 to 14) (size 15 to 20)
#    0.000    0.857    2.857    1.714   12.000    4.571 
#    0.000    0.000    0.000    0.000    0.000    0.000 
#    0.000    0.000    0.000    0.000    0.000    0.000 
#
# Total GULP energy -78001.608735 kJ/mol
# GULP energy per Si atom -5571.543481 kJ/mol
# Density = 2.264805 g / cm^3
# Si number density = 22.699714 Si / 1000 Ang^3
#
#
#
# Elastic Constant Matrix: (Units=GPa)
#
#
# Indices 1 2 3 4 5 6 
#
# 1 63.9610 38.6107 21.0012 25.1811 -15.4242 -17.1198
# 2 38.6107 72.8540 34.3760 9.8351 -15.6883 -15.4032
# 3 21.0012 34.3760 96.6352 -8.9145 -10.8560 2.0136
# 4 25.1811 9.8351 -8.9145 53.4621 -4.9801 2.0033
# 5 -15.4242 -15.6883 -10.8560 -4.9801 34.4005 1.6834
# 6 -17.1198 -15.4032 2.0136 2.0033 1.6834 31.1918
#
#
#
# Elastic Compliance Matrix: (Units=1/GPa)
#
#
# Indices 1 2 3 4 5 6 
#
# 1 0.034794 -0.009065 -0.005338 -0.015565 0.006765 0.015599
# 2 -0.009065 0.024165 -0.006380 -0.001097 0.004432 0.007201
# 3 -0.005338 -0.006380 0.014597 0.006458 0.000604 -0.007470
# 4 -0.015565 -0.001097 0.006458 0.027653 -0.000888 -0.011229
# 5 0.006765 0.004432 0.000604 -0.000888 0.033986 0.004085
# 6 0.015599 0.007201 -0.007470 -0.011229 0.004085 0.045161
#
#
# Mechanical properties :
#
#
# Convention : Reuss Voigt Hill
#
# Bulk Modulus (GPa) = 31.25846 46.82512 39.04179
# Shear Modulus (GPa) = 21.49756 33.10836 27.30296
#
# Velocity S-wave (km/s) = 3.08074 3.82322 3.47189
# Velocity P-wave (km/s) = 5.14344 6.33737 5.77136
#
# Compressibility (1/GPa) = 0.03199134
#
# Stress axis : x y z
#
# Youngs Moduli (GPa) = 28.74051 41.38144 68.50763
#
# Poissons Ratio (x) = 0.37513 0.36568
# Poissons Ratio (y) = 0.26054 0.43705
# Poissons Ratio (z) = 0.15341 0.26400
#
# Static dielectric constant tensor:
#      x y z
#    x 2.166590 0.291880 0.079460 
#    y 0.291880 2.059360 0.002590 
#    z 0.079460 0.002590 1.861610 
# 
# From -- ./inp_files/447983.got.cif
#   From: 2010.05.17/outbox.ucp.g08.bks.cvg/sg2_224_cif.got.tgz:447983.got - 2010.06.11 11:32:03.
