data_PCOD9074389
_publ_section_title
;
Structure prediction by ZEFSAII (Michael W. Deem and Ramdas Pophale) SiO2 
 PCOD9074389
Probable space group: P -1
;
_chemical_formula_sum "Si O2"
_cell_formula_units_Z 14
_cell_length_a 15.000000
_cell_length_b 15.000000
_cell_length_c 27.000000
_cell_angle_alpha 160.000000
_cell_angle_beta 160.000000
_cell_angle_gamma 30.000000
_cell_volume 703.098487
_symmetry_space_group_name_H-M "P -1"
_symmetry_group_IT_number 2
_symmetry_cell_setting 'triclinic'
loop_
_space_group_symop_operation_xyz
x,y,z
-x,-y,-z
loop_
_atom_site_type_symbol
_atom_site_label
_atom_site_fract_x
_atom_site_fract_y
_atom_site_fract_z
Si Si1 0.095705 0.793542 0.884971
Si Si2 0.064242 0.228609 0.530926
Si Si3 0.071361 0.452920 0.792954
Si Si4 0.665751 0.088158 0.768231
Si Si5 0.715245 0.834049 0.553438
Si Si6 0.329211 0.947234 0.673350
Si Si7 0.758539 0.208417 0.256017
O O1 0.126508 0.545744 0.736050
O O2 0.094450 0.663904 0.870888
O O3 0.819445 0.898804 0.784416
O O4 0.357863 0.012887 0.131976
O O5 0.897196 0.180971 0.367895
O O6 0.349597 0.115276 0.622361
O O7 0.862031 0.122767 0.414932
O O8 0.265579 0.233535 0.772091
O O9 0.784258 0.274661 0.542341
O O10 0.170791 0.621774 0.981714
O O11 0.716004 0.968132 0.677976
O O12 0.671053 0.506722 0.362005
O O13 0.006284 0.858495 0.692896
O O14 0.500000 0.000000 0.500000
O O15 0.500000 0.000000 0.000000
#
# Coordination Sequence:
#
# PCOD9074389 Si02
#       7
#     2   2   2   2   2   2   2
#     4  11  23  45  67  94 139 183 223 271 334 400
#     4  11  24  44  66 101 135 174 222 278 342 399
#     4  10  23  42  65 100 137 180 225 274 331 394
#     4  12  24  43  69  98 136 178 220 282 332 398
#     4  11  25  48  72 101 136 177 229 281 352 409
#     4  10  23  41  69  96 137 181 224 271 333 399
#     4  11  26  47  74  99 137 178 226 290 346 413
#
# _framework density 19.911861999999999
#
# number of rings (size 3 to 8) (size 9 to 14) (size 15 to 20)
#    0.000    1.143    4.286    0.857    6.000    2.286 
#    7.714    0.000    0.000    0.000    0.000    0.000 
#    0.000    0.000    0.000    0.000    0.000    0.000 
#
# Total GULP energy -78053.520192 kJ/mol
# GULP energy per Si atom -5575.251442 kJ/mol
# Density = 1.986654 g / cm^3
# Si number density = 19.911862 Si / 1000 Ang^3
#
#
#
# Elastic Constant Matrix: (Units=GPa)
#
#
# Indices 1 2 3 4 5 6 
#
# 1 93.8706 36.3141 65.0052 1.4646 -17.0086 -7.3146
# 2 36.3141 162.3984 62.4574 -12.7693 1.1589 -7.9892
# 3 65.0052 62.4574 177.8964 -11.2724 -14.1314 -5.0269
# 4 1.4646 -12.7693 -11.2724 41.6499 -6.5704 -4.6576
# 5 -17.0086 1.1589 -14.1314 -6.5704 36.4358 0.6382
# 6 -7.3146 -7.9892 -5.0269 -4.6576 0.6382 34.6890
#
#
#
# Elastic Compliance Matrix: (Units=1/GPa)
#
#
# Indices 1 2 3 4 5 6 
#
# 1 0.015748 -0.001739 -0.004752 -0.001319 0.005292 0.001957
# 2 -0.001739 0.007521 -0.001978 0.001740 -0.001528 0.001341
# 3 -0.004752 -0.001978 0.008294 0.002029 0.001428 -0.000010
# 4 -0.001319 0.001740 0.002029 0.026327 0.004796 0.003863
# 5 0.005292 -0.001528 0.001428 0.004796 0.031365 0.001038
# 6 0.001957 0.001341 -0.000010 0.003863 0.001038 0.030047
#
#
# Mechanical properties :
#
#
# Convention : Reuss Voigt Hill
#
# Bulk Modulus (GPa) = 68.37792 84.63541 76.50666
# Shear Modulus (GPa) = 35.43170 40.58086 38.00628
#
# Velocity S-wave (km/s) = 4.22290 4.51935 4.37364
# Velocity P-wave (km/s) = 7.62837 8.35643 8.00069
#
# Compressibility (1/GPa) = 0.01462460
#
# Stress axis : x y z
#
# Youngs Moduli (GPa) = 63.49859 132.95868 120.56981
#
# Poissons Ratio (x) = 0.23124 0.57295
# Poissons Ratio (y) = 0.11043 0.23852
# Poissons Ratio (z) = 0.30174 0.26303
#
# Static dielectric constant tensor:
#      x y z
#    x 1.754580 0.022950 -0.009560 
#    y 0.022950 1.728560 0.009570 
#    z -0.009560 0.009570 1.728750 
# 
# From -- ./inp_files/619613.got.cif
#   From: 2010.05.17/outbox.ucp.g08.bks.cvg/sg2_310_cif.got.tgz:619613.got - 2010.06.11 11:32:03.
