data_PCOD9074184
_publ_section_title
;
Structure prediction by ZEFSAII (Michael W. Deem and Ramdas Pophale) SiO2 
 PCOD9074184
Probable space group: P -1
;
_chemical_formula_sum "Si O2"
_cell_formula_units_Z 16
_cell_length_a 18.000000
_cell_length_b 24.000000
_cell_length_c 30.000000
_cell_angle_alpha 10.000000
_cell_angle_beta 20.000000
_cell_angle_gamma 20.000000
_cell_volume 747.142172
_symmetry_space_group_name_H-M "P -1"
_symmetry_group_IT_number 2
_symmetry_cell_setting 'triclinic'
loop_
_space_group_symop_operation_xyz
x,y,z
-x,-y,-z
loop_
_atom_site_type_symbol
_atom_site_label
_atom_site_fract_x
_atom_site_fract_y
_atom_site_fract_z
Si Si1 0.445540 0.760187 0.523685
Si Si2 0.247716 0.837400 0.002935
Si Si3 0.383599 0.382099 0.616286
Si Si4 0.148166 0.305217 0.323357
Si Si5 0.580702 0.348046 0.853538
Si Si6 0.402986 0.701330 0.811655
Si Si7 0.651248 0.643875 0.182862
Si Si8 0.152600 0.731444 0.839039
O O1 0.593662 0.610469 0.601143
O O2 0.368274 0.484813 0.755053
O O3 0.242934 0.042441 0.436685
O O4 0.599896 0.900906 0.291536
O O5 0.271309 0.674686 0.167040
O O6 0.372395 0.585290 0.093924
O O7 0.000000 0.000000 0.000000
O O8 0.500000 0.500000 0.500000
O O9 0.543480 0.428844 0.447871
O O10 0.120272 0.569811 0.619723
O O11 0.376937 0.001837 0.918244
O O12 0.195352 0.072895 0.524472
O O13 0.274911 0.602912 0.005916
O O14 0.327229 0.454935 0.930632
O O15 0.224296 0.687266 0.884670
O O16 0.500000 0.000000 0.500000
O O17 0.904898 0.678012 0.017735
O O18 0.500000 0.000000 0.000000
#
# Coordination Sequence:
#
# PCOD9074184 Si02
#       8
#     2   2   2   2   2   2   2   2
#     4  10  23  43  66  92 135 177 221 264 338 396
#     4  10  22  43  67  95 128 171 222 275 335 393
#     4  12  24  38  62 100 136 169 229 269 322 387
#     4  10  23  43  63  94 132 172 213 273 333 390
#     4  10  23  41  62  96 130 170 221 276 326 392
#     4  10  23  43  67  97 126 170 223 276 334 394
#     4  12  23  39  66  98 134 180 221 267 325 397
#     4  10  23  42  65  93 136 175 221 265 336 393
#
# _framework density 21.414933999999999
#
# number of rings (size 3 to 8) (size 9 to 14) (size 15 to 20)
#    0.000    1.500    2.500    1.500    1.750    5.500 
#    0.000    2.500    0.000    0.000    0.000    0.000 
#    0.000    0.000    0.000    0.000    0.000    0.000 
#
# Total GULP energy -89086.048466 kJ/mol
# GULP energy per Si atom -5567.878029 kJ/mol
# Density = 2.136619 g / cm^3
# Si number density = 21.414934 Si / 1000 Ang^3
#
#
#
# Elastic Constant Matrix: (Units=GPa)
#
#
# Indices 1 2 3 4 5 6 
#
# 1 71.5810 35.8413 10.5982 4.4028 23.0243 3.1102
# 2 35.8413 105.6877 26.6151 4.9772 1.1015 -27.9113
# 3 10.5982 26.6151 78.6024 6.2090 20.5623 -2.8401
# 4 4.4028 4.9772 6.2090 32.0978 7.9992 5.8733
# 5 23.0243 1.1015 20.5623 7.9992 37.3459 2.4260
# 6 3.1102 -27.9113 -2.8401 5.8733 2.4260 23.1015
#
#
#
# Elastic Compliance Matrix: (Units=1/GPa)
#
#
# Indices 1 2 3 4 5 6 
#
# 1 0.029737 -0.018452 0.006288 0.007462 -0.021213 -0.025194
# 2 -0.018452 0.027782 -0.008793 -0.010482 0.015302 0.036028
# 3 0.006288 -0.008793 0.017887 0.001891 -0.013328 -0.008352
# 4 0.007462 -0.010482 0.001891 0.038429 -0.012139 -0.021932
# 5 -0.021213 0.015302 -0.013328 -0.012139 0.048190 0.017731
# 6 -0.025194 0.036028 -0.008352 -0.021932 0.017731 0.092896
#
#
# Mechanical properties :
#
#
# Convention : Reuss Voigt Hill
#
# Bulk Modulus (GPa) = 29.85656 44.66447 37.26051
# Shear Modulus (GPa) = 16.23384 30.69681 23.46532
#
# Velocity S-wave (km/s) = 2.75628 3.79017 3.31380
# Velocity P-wave (km/s) = 4.90934 6.32897 5.66381
#
# Compressibility (1/GPa) = 0.03349348
#
# Stress axis : x y z
#
# Youngs Moduli (GPa) = 33.62815 35.99412 55.90604
#
# Poissons Ratio (x) = 0.66415 -0.35153
# Poissons Ratio (y) = 0.62050 0.49156
# Poissons Ratio (z) = -0.21145 0.31648
#
# Static dielectric constant tensor:
#      x y z
#    x 1.810880 -0.016370 0.003100 
#    y -0.016370 1.838050 0.033910 
#    z 0.003100 0.033910 2.030310 
# 
# From -- ./inp_files/297391.got.cif
#   From: 2010.05.17/outbox.ucp.g08.bks.cvg/sg2_149_cif.got.tgz:297391.got - 2010.06.11 11:32:03.
