data_PCOD9074099
_publ_section_title
;
Structure prediction by ZEFSAII (Michael W. Deem and Ramdas Pophale) SiO2 
 PCOD9074099
Probable space group: P -1
;
_chemical_formula_sum "Si O2"
_cell_formula_units_Z 15
_cell_length_a 12.000000
_cell_length_b 15.000000
_cell_length_c 12.000000
_cell_angle_alpha 140.000000
_cell_angle_beta 110.000000
_cell_angle_gamma 40.000000
_cell_volume 718.943798
_symmetry_space_group_name_H-M "P -1"
_symmetry_group_IT_number 2
_symmetry_cell_setting 'triclinic'
loop_
_space_group_symop_operation_xyz
x,y,z
-x,-y,-z
loop_
_atom_site_type_symbol
_atom_site_label
_atom_site_fract_x
_atom_site_fract_y
_atom_site_fract_z
Si Si1 0.679764 0.406066 0.039116
Si Si2 0.571609 0.244155 0.496392
Si Si3 0.978476 0.103966 0.206667
Si Si4 0.967684 0.643073 0.492977
Si Si5 0.500000 0.500000 0.500000
Si Si6 0.174493 0.411158 0.119694
Si Si7 0.033538 0.679962 0.103496
Si Si8 0.628798 0.856433 0.728243
O O1 0.563013 0.589291 0.280435
O O2 0.500000 0.500000 0.000000
O O3 0.813305 0.386895 0.992856
O O4 0.841711 0.132498 0.878024
O O5 0.556395 0.375546 0.523014
O O6 0.469679 0.200466 0.372161
O O7 0.823204 0.972651 0.345565
O O8 0.014833 0.229976 0.314026
O O9 0.751175 0.298658 0.372321
O O10 0.000000 0.000000 0.000000
O O11 0.029924 0.619234 0.365579
O O12 0.164453 0.351334 0.319096
O O13 0.738844 0.799598 0.595636
O O14 0.156863 0.511433 0.094965
O O15 0.066338 0.364704 0.024105
O O16 0.429410 0.145019 0.976698
#
# Coordination Sequence:
#
# PCOD9074099 Si02
#       8
#     2   2   2   2   1   2   2   2
#     4  12  27  42  66 100 135 176 218 273 327 394
#     4  11  23  45  67  94 131 174 220 267 334 387
#     4  12  26  45  67  98 133 176 221 269 332 391
#     4  11  23  40  65  98 127 162 218 274 322 383
#     4  12  22  44  70  94 126 180 220 270 318 396
#     4  10  23  41  67  92 126 172 213 266 324 393
#     4  10  24  44  63  94 131 171 216 262 333 392
#     4  10  22  42  65  96 126 164 216 274 326 379
#
# _framework density 20.863939999999999
#
# number of rings (size 3 to 8) (size 9 to 14) (size 15 to 20)
#    0.000    1.067    4.000    1.200    3.733    3.733 
#    0.000    4.000    0.000    0.000    0.000    0.000 
#    0.000    0.000    0.000    0.000    0.000    0.000 
#
# Total GULP energy -83542.138329 kJ/mol
# GULP energy per Si atom -5569.475889 kJ/mol
# Density = 2.081645 g / cm^3
# Si number density = 20.863940 Si / 1000 Ang^3
#
#
#
# Elastic Constant Matrix: (Units=GPa)
#
#
# Indices 1 2 3 4 5 6 
#
# 1 109.5980 23.8261 8.3437 9.4244 -32.8410 29.6487
# 2 23.8261 61.7014 -10.1564 23.1680 9.5246 9.4808
# 3 8.3437 -10.1564 11.7034 8.0647 5.8025 22.5154
# 4 9.4244 23.1680 8.0647 25.7593 0.1796 -5.5150
# 5 -32.8410 9.5246 5.8025 0.1796 22.0385 -4.2420
# 6 29.6487 9.4808 22.5154 -5.5150 -4.2420 17.6607
#
#
#
# Elastic Compliance Matrix: (Units=1/GPa)
#
#
# Indices 1 2 3 4 5 6 
#
# 1 0.054560 -0.026355 -0.007877 -0.004740 0.085500 -0.048349
# 2 -0.026355 0.024649 -0.012702 -0.000206 -0.039324 0.037695
# 3 -0.007877 -0.012702 -0.006060 0.023831 0.002024 0.035696
# 4 -0.004740 -0.000206 0.023831 0.029745 -0.016774 -0.017055
# 5 0.085500 -0.039324 0.002024 -0.016774 0.172278 -0.088864
# 6 -0.048349 0.037695 0.035696 -0.017055 -0.088864 0.045376
#
#
# Mechanical properties :
#
#
# Convention : Reuss Voigt Hill
#
# Bulk Modulus (GPa) = -48.26997 25.22551 -11.52223
# Shear Modulus (GPa) = 12.26972 23.82433 18.04702
#
# Velocity S-wave (km/s) = 2.42767 3.38285 2.94426
# Velocity P-wave (km/s) = 3.91506 5.23211 2.45431
#
# Compressibility (1/GPa) = -0.02071682
#
# Stress axis : x y z
#
# Youngs Moduli (GPa) = 18.32833 40.57026 -165.01347
#
# Poissons Ratio (x) = 1.06921 -1.29978
# Poissons Ratio (y) = 0.48303 -2.09592
# Poissons Ratio (z) = 0.14437 0.51530
#
# Static dielectric constant tensor:
#      x y z
#    x 1.661440 0.097630 0.076560 
#    y 0.097630 1.566970 -0.144530 
#    z 0.076560 -0.144530 1.690880 
# 
# From -- ./inp_files/261014.got.cif
#   From: 2010.05.17/outbox.ucp.g08.bks.cvg/sg2_131_cif.got.tgz:261014.got - 2010.06.11 11:32:03.
