data_PCOD9074550
_publ_section_title
;
Structure prediction by ZEFSAII (Michael W. Deem and Ramdas Pophale) SiO2 
 PCOD9074550
Probable space group: P -1
;
_chemical_formula_sum "Si O2"
_cell_formula_units_Z 16
_cell_length_a 12.000000
_cell_length_b 12.000000
_cell_length_c 12.000000
_cell_angle_alpha 70.000000
_cell_angle_beta 30.000000
_cell_angle_gamma 60.000000
_cell_volume 731.538865
_symmetry_space_group_name_H-M "P -1"
_symmetry_group_IT_number 2
_symmetry_cell_setting 'triclinic'
loop_
_space_group_symop_operation_xyz
x,y,z
-x,-y,-z
loop_
_atom_site_type_symbol
_atom_site_label
_atom_site_fract_x
_atom_site_fract_y
_atom_site_fract_z
Si Si1 0.363425 0.852757 0.944384
Si Si2 0.017722 0.438039 0.803920
Si Si3 0.326935 0.691815 0.833313
Si Si4 0.898498 0.316050 0.358218
Si Si5 0.621402 0.876698 0.110859
Si Si6 0.213032 0.864472 0.317545
Si Si7 0.504958 0.304366 0.554903
Si Si8 0.798685 0.615939 0.566661
O O1 0.246931 0.812093 0.950890
O O2 0.229994 0.847505 0.176125
O O3 0.645903 0.740090 0.733452
O O4 0.384723 0.989174 0.882926
O O5 0.981782 0.583632 0.754631
O O6 0.226862 0.398898 0.729413
O O7 0.089870 0.356575 0.652625
O O8 0.815583 0.395716 0.037225
O O9 0.370230 0.739908 0.659126
O O10 0.580025 0.588486 0.709310
O O11 0.837695 0.249504 0.540462
O O12 0.646418 0.366903 0.486958
O O13 0.098459 0.208141 0.141584
O O14 0.458484 0.875916 0.144870
O O15 0.517334 0.811008 0.316302
O O16 0.000000 0.000000 0.500000
O O17 0.000000 0.500000 0.500000
#
# Coordination Sequence:
#
# PCOD9074550 Si02
#       8
#     2   2   2   2   2   2   2   2
#     4  10  23  46  69 101 142 176 225 281 341 409
#     4  11  23  44  68  97 142 178 229 282 343 400
#     4   9  23  43  67 100 137 184 222 282 337 404
#     4  11  25  41  71 103 133 183 227 287 340 405
#     4  11  24  42  72 101 131 185 228 283 346 397
#     4  11  24  44  70 103 141 174 226 280 343 410
#     4  10  23  46  64 103 134 178 237 280 346 397
#     4   9  23  43  66  99 138 182 222 270 341 407
#
# _framework density 21.871701999999999
#
# number of rings (size 3 to 8) (size 9 to 14) (size 15 to 20)
#    0.750    1.000    1.250    1.500    1.750    9.000 
#    0.000    1.250    0.000    0.000    0.000    0.000 
#    0.000    0.000    0.000    0.000    0.000    0.000 
#
# Total GULP energy -89171.894183 kJ/mol
# GULP energy per Si atom -5573.243386 kJ/mol
# Density = 2.182192 g / cm^3
# Si number density = 21.871702 Si / 1000 Ang^3
#
#
#
# Elastic Constant Matrix: (Units=GPa)
#
#
# Indices 1 2 3 4 5 6 
#
# 1 63.7310 7.0150 31.0876 -23.5277 19.0613 3.6942
# 2 7.0150 83.8025 44.8462 -24.2555 14.3883 25.0112
# 3 31.0876 44.8462 84.8475 -13.7663 14.9093 3.8774
# 4 -23.5277 -24.2555 -13.7663 42.8400 1.5791 -3.4670
# 5 19.0613 14.3883 14.9093 1.5791 35.2912 3.0384
# 6 3.6942 25.0112 3.8774 -3.4670 3.0384 26.0927
#
#
#
# Elastic Compliance Matrix: (Units=1/GPa)
#
#
# Indices 1 2 3 4 5 6 
#
# 1 0.042374 0.026373 -0.018985 0.031302 -0.025180 -0.021367
# 2 0.026373 0.046303 -0.023672 0.030798 -0.021225 -0.038036
# 3 -0.018985 -0.023672 0.026795 -0.013990 0.007605 0.018652
# 4 0.031302 0.030798 -0.013990 0.052572 -0.024003 -0.022093
# 5 -0.025180 -0.021225 0.007605 -0.024003 0.047237 0.014090
# 6 -0.021367 -0.038036 0.018652 -0.022093 0.014090 0.070462
#
#
# Mechanical properties :
#
#
# Convention : Reuss Voigt Hill
#
# Bulk Modulus (GPa) = 12.06212 44.25316 28.15764
# Shear Modulus (GPa) = 14.45310 30.80692 22.63001
#
# Velocity S-wave (km/s) = 2.57342 3.75711 3.22012
# Velocity P-wave (km/s) = 3.78905 6.25285 5.16987
#
# Compressibility (1/GPa) = 0.08290419
#
# Stress axis : x y z
#
# Youngs Moduli (GPa) = 23.59914 21.59683 37.32041
#
# Poissons Ratio (x) = -0.56957 0.70854
# Poissons Ratio (y) = -0.62238 0.88343
# Poissons Ratio (z) = 0.44804 0.51123
#
# Static dielectric constant tensor:
#      x y z
#    x 1.806030 -0.048670 -0.025140 
#    y -0.048670 1.825170 0.030470 
#    z -0.025140 0.030470 1.922910 
# 
# From -- ./inp_files/427944.got.cif
#   From: 2010.05.17/outbox.ucp.g08.bks.cvg/sg2_214_cif.got.tgz:427944.got - 2010.06.11 11:32:03.
