data_PCOD9074402
_publ_section_title
;
Structure prediction by ZEFSAII (Michael W. Deem and Ramdas Pophale) SiO2 
 PCOD9074402
Probable space group: P -1
;
_chemical_formula_sum "Si O2"
_cell_formula_units_Z 16
_cell_length_a 15.000000
_cell_length_b 15.000000
_cell_length_c 12.000000
_cell_angle_alpha 60.000000
_cell_angle_beta 150.000000
_cell_angle_gamma 140.000000
_cell_volume 747.221570
_symmetry_space_group_name_H-M "P -1"
_symmetry_group_IT_number 2
_symmetry_cell_setting 'triclinic'
loop_
_space_group_symop_operation_xyz
x,y,z
-x,-y,-z
loop_
_atom_site_type_symbol
_atom_site_label
_atom_site_fract_x
_atom_site_fract_y
_atom_site_fract_z
Si Si1 0.967172 0.663539 0.076182
Si Si2 0.672190 0.376019 0.550450
Si Si3 0.734080 0.910486 0.569889
Si Si4 0.674259 0.613395 0.434153
Si Si5 0.887348 0.807087 0.069694
Si Si6 0.626128 0.066727 0.219131
Si Si7 0.756090 0.664932 0.241463
Si Si8 0.890157 0.107550 0.094798
O O1 0.954396 0.726115 0.137444
O O2 0.118534 0.619396 0.271753
O O3 0.640197 0.514571 0.780521
O O4 0.113628 0.803578 0.057206
O O5 0.548187 0.277427 0.592720
O O6 0.771021 0.536858 0.577019
O O7 0.394584 0.276195 0.237867
O O8 0.969488 0.930729 0.782511
O O9 0.657118 0.963960 0.364210
O O10 0.827247 0.002457 0.732674
O O11 0.662345 0.652802 0.270853
O O12 0.896777 0.767689 0.654550
O O13 0.831990 0.781451 0.158068
O O14 0.940160 0.252210 0.456711
O O15 0.500000 0.000000 0.000000
O O16 0.411621 0.032650 0.087104
O O17 0.500000 0.500000 0.000000
#
# Coordination Sequence:
#
# PCOD9074402 Si02
#       8
#     2   2   2   2   2   2   2   2
#     4  11  23  39  67 102 131 179 227 286 343 398
#     4  11  22  39  66 100 133 177 225 281 347 394
#     4  11  24  42  68  98 138 179 222 287 341 402
#     4  11  24  44  66  97 144 176 227 285 337 407
#     4  10  23  42  65  96 138 176 224 285 338 401
#     4  11  25  46  70  99 136 182 228 283 333 412
#     4  11  21  47  71  92 142 183 216 284 343 395
#     4  12  24  44  69 101 137 180 229 277 346 409
#
# _framework density 21.412658
#
# number of rings (size 3 to 8) (size 9 to 14) (size 15 to 20)
#    0.000    1.000    7.500    0.750    0.000    4.500 
#    0.000    2.500    0.000    0.000    0.000    0.000 
#    0.000    0.000    0.000    0.000    0.000    0.000 
#
# Total GULP energy -89150.155849 kJ/mol
# GULP energy per Si atom -5571.884741 kJ/mol
# Density = 2.136392 g / cm^3
# Si number density = 21.412658 Si / 1000 Ang^3
#
#
#
# Elastic Constant Matrix: (Units=GPa)
#
#
# Indices 1 2 3 4 5 6 
#
# 1 76.3563 16.9536 35.4159 -3.4880 22.0854 -6.6368
# 2 16.9536 -13.8935 22.0657 7.3638 11.6365 5.7238
# 3 35.4159 22.0657 105.1059 -0.4308 9.6356 -12.7832
# 4 -3.4880 7.3638 -0.4308 41.7898 -5.2708 1.8185
# 5 22.0854 11.6365 9.6356 -5.2708 55.5743 -5.4132
# 6 -6.6368 5.7238 -12.7832 1.8185 -5.4132 28.8964
#
#
#
# Elastic Compliance Matrix: (Units=1/GPa)
#
#
# Indices 1 2 3 4 5 6 
#
# 1 0.016748 0.004578 -0.006115 -0.000271 -0.006677 -0.000999
# 2 0.004578 -0.039012 0.007614 0.007656 0.007020 0.012981
# 3 -0.006115 0.007614 0.010247 -0.001937 -0.000973 0.001560
# 4 -0.000271 0.007656 -0.001937 0.022781 0.000636 -0.003750
# 5 -0.006677 0.007020 -0.000973 0.000636 0.019431 0.000246
# 6 -0.000999 0.012981 0.001560 -0.003750 0.000246 0.032778
#
#
# Mechanical properties :
#
#
# Convention : Reuss Voigt Hill
#
# Bulk Modulus (GPa) = 7270.77180 35.15990 3652.96585
# Shear Modulus (GPa) = 98.30062 31.46101 64.88081
#
# Velocity S-wave (km/s) = 6.78287 3.83727 5.51053
# Velocity P-wave (km/s) = 58.85799 6.00738 41.83510
#
# Compressibility (1/GPa) = 0.00013754
#
# Stress axis : x y z
#
# Youngs Moduli (GPa) = 59.70704 -25.63293 97.58795
#
# Poissons Ratio (x) = 0.11735 0.59675
# Poissons Ratio (y) = -0.27334 -0.74305
# Poissons Ratio (z) = 0.36511 0.19517
#
# Static dielectric constant tensor:
#      x y z
#    x 1.784020 0.069540 0.006080 
#    y 0.069540 1.991170 0.148040 
#    z 0.006080 0.148040 1.854410 
# 
# From -- ./inp_files/455672.got.cif
#   From: 2010.05.17/outbox.ucp.g08.bks.cvg/sg2_228_cif.got.tgz:455672.got - 2010.06.11 11:32:03.
