data_PCOD9074305
_publ_section_title
;
Structure prediction by ZEFSAII (Michael W. Deem and Ramdas Pophale) SiO2 
 PCOD9074305
Probable space group: P -1
;
_chemical_formula_sum "Si O2"
_cell_formula_units_Z 15
_cell_length_a 21.000000
_cell_length_b 18.000000
_cell_length_c 9.000000
_cell_angle_alpha 40.000000
_cell_angle_beta 50.000000
_cell_angle_gamma 20.000000
_cell_volume 700.468056
_symmetry_space_group_name_H-M "P -1"
_symmetry_group_IT_number 2
_symmetry_cell_setting 'triclinic'
loop_
_space_group_symop_operation_xyz
x,y,z
-x,-y,-z
loop_
_atom_site_type_symbol
_atom_site_label
_atom_site_fract_x
_atom_site_fract_y
_atom_site_fract_z
Si Si1 0.210795 0.754030 0.285990
Si Si2 0.404500 0.790442 0.628176
Si Si3 0.241007 0.303115 0.748314
Si Si4 0.896018 0.861068 0.220949
Si Si5 0.322449 0.159043 0.178114
Si Si6 0.149150 0.964427 0.521226
Si Si7 0.936043 0.710543 0.065525
Si Si8 0.500000 0.500000 0.500000
O O1 0.366147 0.521516 0.278675
O O2 0.363450 0.602937 0.418283
O O3 0.047206 0.863439 0.410843
O O4 0.088625 0.021737 0.010042
O O5 0.252505 0.896016 0.611024
O O6 0.324215 0.882126 0.775250
O O7 0.357670 0.980859 0.360622
O O8 0.204297 0.216794 0.888476
O O9 0.071212 0.591261 0.478036
O O10 0.467785 0.053509 0.760860
O O11 0.232137 0.326863 0.904526
O O12 0.907261 0.781206 0.170059
O O13 0.157482 0.385062 0.203357
O O14 0.334473 0.668225 0.616239
O O15 0.100943 0.128432 0.224312
#
# Coordination Sequence:
#
# PCOD9074305 Si02
#       8
#     2   2   2   2   2   2   2   1
#     4  11  26  46  72 107 140 188 235 287 350 420
#     4  11  25  46  71 103 142 188 238 287 344 422
#     4  11  25  46  71 105 138 186 235 289 355 415
#     4  12  26  48  68 103 152 181 225 302 360 407
#     4  11  25  45  74 103 134 189 246 280 344 426
#     4  11  24  45  76 103 139 190 239 282 346 418
#     4  12  24  45  71 105 143 179 234 299 346 417
#     4  10  22  46  70 106 136 182 238 286 338 414
#
# _framework density 21.414252999999999
#
# number of rings (size 3 to 8) (size 9 to 14) (size 15 to 20)
#    0.000    0.800    4.000    2.400    5.600    1.067 
#    4.800    0.000    0.000    0.000    0.000    0.000 
#    0.000    0.000    0.000    0.000    0.000    0.000 
#
# Total GULP energy -83599.300895 kJ/mol
# GULP energy per Si atom -5573.286726 kJ/mol
# Density = 2.136551 g / cm^3
# Si number density = 21.414253 Si / 1000 Ang^3
#
#
#
# Elastic Constant Matrix: (Units=GPa)
#
#
# Indices 1 2 3 4 5 6 
#
# 1 95.7538 104.2625 47.5257 12.7917 -3.1507 -14.1032
# 2 104.2625 160.1008 28.6701 12.1805 14.4775 -6.8758
# 3 47.5257 28.6701 95.6897 1.9334 -8.1925 -6.6972
# 4 12.7917 12.1805 1.9334 12.0778 -8.2850 -6.4164
# 5 -3.1507 14.4775 -8.1925 -8.2850 11.7252 7.7708
# 6 -14.1032 -6.8758 -6.6972 -6.4164 7.7708 52.3854
#
#
#
# Elastic Compliance Matrix: (Units=1/GPa)
#
#
# Indices 1 2 3 4 5 6 
#
# 1 -0.184414 0.251522 -0.041460 -0.614196 -0.841399 0.027647
# 2 0.251522 -0.305706 0.034289 0.690863 0.975838 -0.028161
# 3 -0.041460 0.034289 0.015373 -0.043419 -0.074062 0.000972
# 4 -0.614196 0.690863 -0.043419 -1.302609 -2.007260 0.057978
# 5 -0.841399 0.975838 -0.074062 -2.007260 -2.862771 0.070894
# 6 0.027647 -0.028161 0.000972 0.057978 0.070894 0.019546
#
#
# Mechanical properties :
#
#
# Convention : Reuss Voigt Hill
#
# Bulk Modulus (GPa) = 71.65766 79.16231 75.40999
# Shear Modulus (GPa) = -0.97950 26.64341 12.83196
#
# Velocity S-wave (km/s) = -0.67705 3.53114 2.45056
# Velocity P-wave (km/s) = 5.73795 7.32616 6.58015
#
# Compressibility (1/GPa) = 0.01395524
#
# Stress axis : x y z
#
# Youngs Moduli (GPa) = -5.42258 -3.27112 65.04927
#
# Poissons Ratio (x) = 0.82276 2.69692
# Poissons Ratio (y) = 1.36390 -2.23048
# Poissons Ratio (z) = -0.22482 0.11216
#
# Static dielectric constant tensor:
#      x y z
#    x 1.759920 0.045880 -0.016150 
#    y 0.045880 1.794040 -0.001610 
#    z -0.016150 -0.001610 1.836860 
# 
# From -- ./inp_files/348243.got.cif
#   From: 2010.05.17/outbox.ucp.g08.bks.cvg/sg2_175_cif.got.tgz:348243.got - 2010.06.11 11:32:03.
