data_PCOD9074243
_publ_section_title
;
Structure prediction by ZEFSAII (Michael W. Deem and Ramdas Pophale) SiO2 
 PCOD9074243
Probable space group: P -1
;
_chemical_formula_sum "Si O2"
_cell_formula_units_Z 12
_cell_length_a 8.118598
_cell_length_b 12.680492
_cell_length_c 8.695176
_cell_angle_alpha 127.411543
_cell_angle_beta 52.228348
_cell_angle_gamma 89.428020
_cell_volume 445.955957
_symmetry_space_group_name_H-M "P -1"
_symmetry_group_IT_number 2
_symmetry_cell_setting 'triclinic'
loop_
_space_group_symop_operation_xyz
x,y,z
-x,-y,-z
loop_
_atom_site_type_symbol
_atom_site_label
_atom_site_fract_x
_atom_site_fract_y
_atom_site_fract_z
Si Si1 0.539307 0.306236 0.647342
Si Si2 0.968694 0.171975 0.496050
Si Si3 0.635982 0.532520 0.636811
Si Si4 0.659893 0.865534 0.520813
Si Si5 0.805231 0.753031 0.861736
Si Si6 0.687266 0.174234 0.136351
O O1 0.670206 0.266065 0.700765
O O2 0.486501 0.474395 0.765925
O O3 0.330708 0.268054 0.712934
O O4 0.750027 0.175677 0.280661
O O5 0.069316 0.182062 0.612091
O O6 0.072224 0.227510 0.346966
O O7 0.095233 0.978714 0.223534
O O8 0.699384 0.648521 0.786853
O O9 0.454272 0.648408 0.703168
O O10 0.934367 0.364792 0.286216
O O11 0.535658 0.850856 0.734615
O O12 0.436245 0.060288 0.776350
#
# Coordination Sequence:
#
# PCOD9074243 Si02
#       6
#     2   2   2   2   2   2
#     4   9  19  20  29  36  38  45  54  56  63  70
#     4  10  14  24  30  31  40  48  52  55  62  72
#     4  10  15  20  27  36  42  42  49  64  64  62
#     4   9  16  25  29  31  39  50  52  53  62  75
#     4   9  15  21  28  34  40  47  51  55  66  70
#     4   9  15  22  26  35  38  45  52  57  61  70
#
# _framework density 26.908484999999999
#
# number of rings (size 3 to 8) (size 9 to 14) (size 15 to 20)
#    1.000    1.667    3.333    2.000    2.333    0.000 
#    0.000    0.000    0.000    0.000    0.000    0.000 
#    0.000    0.000    0.000    0.000    0.000    0.000 
#
# Total GULP energy -66919.537484 kJ/mol
# GULP energy per Si atom -5576.628124 kJ/mol
# Density = 2.684724 g / cm^3
# Si number density = 26.908485 Si / 1000 Ang^3
#
#
#
# Elastic Constant Matrix: (Units=GPa)
#
#
# Indices 1 2 3 4 5 6 
#
# 1 179.1981 42.0348 55.6768 10.2260 9.2341 -7.9058
# 2 42.0348 124.2662 60.2251 17.7255 -14.1117 18.3946
# 3 55.6768 60.2251 95.5564 33.2563 -0.5266 -16.2004
# 4 10.2260 17.7255 33.2563 43.3470 -3.0981 0.3414
# 5 9.2341 -14.1117 -0.5266 -3.0981 24.0392 34.4342
# 6 -7.9058 18.3946 -16.2004 0.3414 34.4342 10.5394
#
#
#
# Elastic Compliance Matrix: (Units=1/GPa)
#
#
# Indices 1 2 3 4 5 6 
#
# 1 0.006995 -0.000027 -0.005108 0.002268 -0.000339 -0.001524
# 2 -0.000027 0.007492 -0.002789 -0.001547 -0.007874 0.008392
# 3 -0.005108 -0.002789 0.017407 -0.010151 0.011109 -0.008176
# 4 0.002268 -0.001547 -0.010151 0.030539 -0.005271 0.005030
# 5 -0.000339 -0.007874 0.011109 -0.005271 0.001998 0.024206
# 6 -0.001524 0.008392 -0.008176 0.005030 0.024206 -0.012723
#
#
# Mechanical properties :
#
#
# Convention : Reuss Voigt Hill
#
# Bulk Modulus (GPa) = 62.31845 79.43268 70.87557
# Shear Modulus (GPa) = 68.58429 31.65739 50.12084
#
# Velocity S-wave (km/s) = 5.05404 3.43371 4.32051
# Velocity P-wave (km/s) = 7.56752 6.73084 7.16141
#
# Compressibility (1/GPa) = 0.01604661
#
# Stress axis : x y z
#
# Youngs Moduli (GPa) = 142.96767 133.47663 57.44919
#
# Poissons Ratio (x) = 0.00357 0.29345
# Poissons Ratio (y) = 0.00383 0.16020
# Poissons Ratio (z) = 0.73028 0.37220
#
# Static dielectric constant tensor:
#      x y z
#    x 2.163440 0.039320 0.004750 
#    y 0.039320 2.075630 0.020690 
#    z 0.004750 0.020690 2.076140 
# 
# From -- ./inp_files/506320.got.cif
#   From: 2010.05.17/outbox.cif.g08.bks.cpg/sg2_254_cif.got.tgz:506320.got - 2010.06.03 11:33:40.
