data_PCOD9074653
_publ_section_title
;
Structure prediction by ZEFSAII (Michael W. Deem and Ramdas Pophale) SiO2 
 PCOD9074653
Probable space group: P -1
;
_chemical_formula_sum "Si O2"
_cell_formula_units_Z 16
_cell_length_a 12.000000
_cell_length_b 15.000000
_cell_length_c 9.000000
_cell_angle_alpha 80.000000
_cell_angle_beta 90.000000
_cell_angle_gamma 150.000000
_cell_volume 759.581896
_symmetry_space_group_name_H-M "P -1"
_symmetry_group_IT_number 2
_symmetry_cell_setting 'triclinic'
loop_
_space_group_symop_operation_xyz
x,y,z
-x,-y,-z
loop_
_atom_site_type_symbol
_atom_site_label
_atom_site_fract_x
_atom_site_fract_y
_atom_site_fract_z
Si Si1 0.230467 0.196824 0.273238
Si Si2 0.275300 0.107702 0.041978
Si Si3 0.115827 0.837698 0.320029
Si Si4 0.727145 0.575579 0.650047
Si Si5 0.996878 0.581017 0.196660
Si Si6 0.528701 0.808176 0.585753
Si Si7 0.283316 0.148873 0.692570
Si Si8 0.189139 0.530407 0.097768
O O1 0.276027 0.205398 0.096708
O O2 0.282939 0.333576 0.297666
O O3 0.376250 0.220905 0.343948
O O4 0.951180 0.985680 0.347532
O O5 0.114502 0.921464 0.182061
O O6 0.216480 0.071194 0.880571
O O7 0.541213 0.262616 0.008332
O O8 0.899600 0.692624 0.475321
O O9 0.114809 0.743964 0.251280
O O10 0.339183 0.018467 0.374124
O O11 0.474744 0.363376 0.652832
O O12 0.811512 0.559780 0.773999
O O13 0.745237 0.384490 0.329770
O O14 0.114817 0.566651 0.179603
O O15 0.954088 0.581708 0.024254
O O16 0.603613 0.852518 0.401153
#
# Coordination Sequence:
#
# PCOD9074653 Si02
#       8
#     2   2   2   2   2   2   2   2
#     4  11  23  41  64  96 141 169 208 271 319 388
#     4  10  24  44  63 100 136 166 219 267 319 392
#     4  11  23  41  69  95 129 173 215 262 329 383
#     4  11  25  42  67 100 129 173 219 260 327 392
#     4  11  23  46  72  91 131 174 211 277 328 366
#     4  11  23  44  63 101 134 165 221 268 315 393
#     4  11  23  41  63  95 135 174 210 265 319 382
#     4  10  24  47  68  96 131 166 223 272 315 388
#
# _framework density 21.064219999999999
#
# number of rings (size 3 to 8) (size 9 to 14) (size 15 to 20)
#    0.000    1.250    5.000    0.750    3.500    5.500 
#    0.000    0.625    0.000    0.000    0.000    0.000 
#    0.000    0.000    0.000    0.000    0.000    0.000 
#
# Total GULP energy -89396.538926 kJ/mol
# GULP energy per Si atom -5587.283683 kJ/mol
# Density = 2.101628 g / cm^3
# Si number density = 21.064220 Si / 1000 Ang^3
#
#
#
# Elastic Constant Matrix: (Units=GPa)
#
#
# Indices 1 2 3 4 5 6 
#
# 1 116.8515 57.0447 26.3834 5.8311 -41.3064 -14.8760
# 2 57.0447 127.0398 28.0982 11.7044 -19.7917 -23.2102
# 3 26.3834 28.0982 124.1182 4.9817 -23.9992 -5.4715
# 4 5.8311 11.7044 4.9817 42.3816 -8.2230 -14.5449
# 5 -41.3064 -19.7917 -23.9992 -8.2230 40.8483 11.5834
# 6 -14.8760 -23.2102 -5.4715 -14.5449 11.5834 31.7839
#
#
#
# Elastic Compliance Matrix: (Units=1/GPa)
#
#
# Indices 1 2 3 4 5 6 
#
# 1 0.015961 -0.005337 0.000499 0.001743 0.014425 -0.000800
# 2 -0.005337 0.011413 -0.001681 -0.000601 -0.002756 0.006276
# 3 0.000499 -0.001681 0.009350 -0.000128 0.005576 -0.001475
# 4 0.001743 -0.000601 -0.000128 0.028369 0.003709 0.011986
# 5 0.014425 -0.002756 0.005576 0.003709 0.044229 -0.008722
# 6 -0.000800 0.006276 -0.001475 0.011986 -0.008722 0.044081
#
#
# Mechanical properties :
#
#
# Convention : Reuss Voigt Hill
#
# Bulk Modulus (GPa) = 42.21965 65.67359 53.94662
# Shear Modulus (GPa) = 28.68049 40.10164 34.39107
#
# Velocity S-wave (km/s) = 3.69395 4.36797 4.04502
# Velocity P-wave (km/s) = 6.18713 7.52890 6.89075
#
# Compressibility (1/GPa) = 0.02368566
#
# Stress axis : x y z
#
# Youngs Moduli (GPa) = 62.65317 87.62320 106.95710
#
# Poissons Ratio (x) = 0.46764 -0.05342
# Poissons Ratio (y) = 0.33437 0.17981
# Poissons Ratio (z) = -0.03129 0.14731
#
# Static dielectric constant tensor:
#      x y z
#    x 1.741040 0.025590 0.008310 
#    y 0.025590 1.766760 0.023350 
#    z 0.008310 0.023350 1.839630 
# 
# From -- ./inp_files/272927.got.cif
#   From: 2010.05.17/outbox.ucp.g08.bks.cvg/sg2_137_cif.got.tgz:272927.got - 2010.06.11 11:32:03.
