data_PCOD9074547
_publ_section_title
;
Structure prediction by ZEFSAII (Michael W. Deem and Ramdas Pophale) SiO2 
 PCOD9074547
Probable space group: P -1
;
_chemical_formula_sum "Si O2"
_cell_formula_units_Z 16
_cell_length_a 14.518439
_cell_length_b 11.454177
_cell_length_c 22.556265
_cell_angle_alpha 45.864466
_cell_angle_beta 154.952356
_cell_angle_gamma 150.303345
_cell_volume 709.544515
_symmetry_space_group_name_H-M "P -1"
_symmetry_group_IT_number 2
_symmetry_cell_setting 'triclinic'
loop_
_space_group_symop_operation_xyz
x,y,z
-x,-y,-z
loop_
_atom_site_type_symbol
_atom_site_label
_atom_site_fract_x
_atom_site_fract_y
_atom_site_fract_z
Si Si1 0.148280 0.845610 0.789930
Si Si2 0.626244 0.268092 0.210464
Si Si3 0.786914 0.129084 0.986662
Si Si4 0.849877 0.128610 0.689433
Si Si5 0.716839 0.451934 0.784402
Si Si6 0.890259 0.994927 0.640062
Si Si7 0.796568 0.633230 0.534834
Si Si8 0.648662 0.200444 0.381619
O O1 0.960257 0.630287 0.806622
O O2 0.179948 0.048542 0.760553
O O3 0.904556 0.718920 0.635112
O O4 0.496470 0.964133 0.927658
O O5 0.537054 0.188839 0.255084
O O6 0.857559 0.566259 0.232926
O O7 0.892062 0.277175 0.347114
O O8 0.316317 0.064724 0.053779
O O9 0.745723 0.282366 0.878395
O O10 0.153167 0.356866 0.153436
O O11 0.500000 0.000000 0.500000
O O12 0.996615 0.104814 0.730157
O O13 0.673025 0.954006 0.706818
O O14 0.332853 0.281062 0.602933
O O15 0.542211 0.681875 0.552752
O O16 0.769665 0.082717 0.501730
O O17 0.000000 0.500000 0.500000
#
# Coordination Sequence:
#
# PCOD9074547 Si02
#       8
#     2   2   2   2   2   2   2   2
#     4  10  22  36  58  86 110 147 184 233 281 328
#     4  11  21  33  55  88 110 143 186 230 274 330
#     4  10  24  37  56  82 115 151 189 221 274 345
#     4  10  18  35  49  82 120 137 178 230 283 330
#     4  10  21  40  54  78 118 154 182 225 278 332
#     4  10  18  32  51  81 116 138 177 225 283 328
#     4  10  20  35  57  85 116 141 183 236 279 324
#     4  11  19  30  53  81 113 149 174 226 292 318
#
# _framework density 22.549676000000002
#
# number of rings (size 3 to 8) (size 9 to 14) (size 15 to 20)
#    0.000    1.750    5.000    1.875    5.250    1.000 
#    0.000    0.000    0.000    3.000    0.000    7.875 
#    0.000    0.000    0.000    0.000    0.000    0.000 
#
# Total GULP energy -89413.666578 kJ/mol
# GULP energy per Si atom -5588.354161 kJ/mol
# Density = 2.249835 g / cm^3
# Si number density = 22.549676 Si / 1000 Ang^3
#
#
#
# Elastic Constant Matrix: (Units=GPa)
#
#
# Indices 1 2 3 4 5 6 
#
# 1 120.9994 38.3903 24.2780 15.2211 -37.1237 0.0685
# 2 38.3903 96.1717 38.0595 16.7888 -17.8737 -0.1703
# 3 24.2780 38.0595 83.1693 21.0358 -28.1099 -3.7177
# 4 15.2211 16.7888 21.0358 26.8433 -16.8660 -6.6180
# 5 -37.1237 -17.8737 -28.1099 -16.8660 31.8046 2.6055
# 6 0.0685 -0.1703 -3.7177 -6.6180 2.6055 31.8080
#
#
#
# Elastic Compliance Matrix: (Units=1/GPa)
#
#
# Indices 1 2 3 4 5 6 
#
# 1 0.014407 -0.004105 0.003240 0.004034 0.019549 -0.000436
# 2 -0.004105 0.014356 -0.005548 -0.005375 -0.004369 -0.001323
# 3 0.003240 -0.005548 0.020137 -0.003767 0.016450 0.000186
# 4 0.004034 -0.005375 -0.003767 0.063329 0.031111 0.010150
# 5 0.019549 -0.004369 0.016450 0.031111 0.082714 0.001555
# 6 -0.000436 -0.001323 0.000186 0.010150 0.001555 0.033439
#
#
# Mechanical properties :
#
#
# Convention : Reuss Voigt Hill
#
# Bulk Modulus (GPa) = 27.71950 55.75510 41.73730
# Shear Modulus (GPa) = 19.74463 31.39869 25.57166
#
# Velocity S-wave (km/s) = 2.96227 3.73557 3.37117
# Velocity P-wave (km/s) = 4.90096 6.58673 5.80536
#
# Compressibility (1/GPa) = 0.03607569
#
# Stress axis : x y z
#
# Youngs Moduli (GPa) = 69.40891 69.65588 49.65921
#
# Poissons Ratio (x) = 0.28596 -0.16091
# Poissons Ratio (y) = 0.28495 0.27549
# Poissons Ratio (z) = -0.22491 0.38642
#
# Static dielectric constant tensor:
#      x y z
#    x 1.882530 -0.017220 0.014860 
#    y -0.017220 1.871730 -0.020040 
#    z 0.014860 -0.020040 1.894410 
# 
# From -- ./inp_files/454531.got.cif
#   From: 2010.05.17/outbox.cif.g08.bks.cpg/sg2_228_cif.got.tgz:454531.got - 2010.06.03 11:33:40.
