data_PCOD9074635
_publ_section_title
;
Structure prediction by ZEFSAII (Michael W. Deem and Ramdas Pophale) SiO2 
 PCOD9074635
Probable space group: P -1
;
_chemical_formula_sum "Si O2"
_cell_formula_units_Z 10
_cell_length_a 12.000000
_cell_length_b 6.000000
_cell_length_c 15.000000
_cell_angle_alpha 70.000000
_cell_angle_beta 150.000000
_cell_angle_gamma 120.000000
_cell_volume 457.211790
_symmetry_space_group_name_H-M "P -1"
_symmetry_group_IT_number 2
_symmetry_cell_setting 'triclinic'
loop_
_space_group_symop_operation_xyz
x,y,z
-x,-y,-z
loop_
_atom_site_type_symbol
_atom_site_label
_atom_site_fract_x
_atom_site_fract_y
_atom_site_fract_z
Si Si1 0.465867 0.141626 0.369297
Si Si2 0.215326 0.537553 0.211105
Si Si3 0.130606 0.865371 0.834127
Si Si4 0.306786 0.815280 0.763033
Si Si5 0.927687 0.240019 0.571699
O O1 0.351478 0.352015 0.292327
O O2 0.719011 0.302221 0.467718
O O3 0.500000 0.000000 0.500000
O O4 0.342717 0.860179 0.265487
O O5 0.067794 0.397102 0.219156
O O6 0.000000 0.500000 0.000000
O O7 0.206369 0.833706 0.789446
O O8 0.990895 0.050391 0.704448
O O9 0.395226 0.018008 0.048116
O O10 0.186728 0.894690 0.584200
O O11 0.187142 0.499996 0.704250
#
# Coordination Sequence:
#
# PCOD9074635 Si02
#       5
#     2   2   2   2   2
#     4  12  25  46  74 104 140 187 234 292 360 415
#     4  12  27  47  73 106 142 186 236 294 355 422
#     4  11  23  44  69  97 142 178 237 287 350 417
#     4  10  24  43  65 104 130 189 229 289 350 414
#     4  11  23  43  71  97 141 177 238 287 350 419
#
# _framework density 21.871701999999999
#
# number of rings (size 3 to 8) (size 9 to 14) (size 15 to 20)
#    0.000    0.800    2.000    4.800    2.800    0.000 
#   14.400    0.000    0.000    0.000    0.000    0.000 
#    0.000    0.000    0.000    0.000    0.000    0.000 
#
# Total GULP energy -55699.788751 kJ/mol
# GULP energy per Si atom -5569.978875 kJ/mol
# Density = 2.182192 g / cm^3
# Si number density = 21.871702 Si / 1000 Ang^3
#
#
#
# Elastic Constant Matrix: (Units=GPa)
#
#
# Indices 1 2 3 4 5 6 
#
# 1 113.5160 3.0996 21.6577 -0.5055 15.7413 -10.5222
# 2 3.0996 70.6426 18.6339 14.6634 10.6145 -9.5861
# 3 21.6577 18.6339 100.8365 14.2716 -4.2960 -22.6256
# 4 -0.5055 14.6634 14.2716 44.7984 -6.0763 3.8187
# 5 15.7413 10.6145 -4.2960 -6.0763 35.3266 5.7313
# 6 -10.5222 -9.5861 -22.6256 3.8187 5.7313 45.8494
#
#
#
# Elastic Compliance Matrix: (Units=1/GPa)
#
#
# Indices 1 2 3 4 5 6 
#
# 1 0.010174 0.001418 -0.002061 -0.000671 -0.005712 0.002385
# 2 0.001418 0.017860 -0.001954 -0.006711 -0.008149 0.004673
# 3 -0.002061 -0.001954 0.012511 -0.003623 0.001527 0.005403
# 4 -0.000671 -0.006711 -0.003623 0.027260 0.007630 -0.006569
# 5 -0.005712 -0.008149 0.001527 0.007630 0.035999 -0.007397
# 6 0.002385 0.004673 0.005403 -0.006569 -0.007397 0.027473
#
#
# Mechanical properties :
#
#
# Convention : Reuss Voigt Hill
#
# Bulk Modulus (GPa) = 28.28618 41.30863 34.79741
# Shear Modulus (GPa) = 33.72582 41.30179 37.51380
#
# Velocity S-wave (km/s) = 3.93107 4.35025 4.14596
# Velocity P-wave (km/s) = 5.79355 6.64535 6.23402
#
# Compressibility (1/GPa) = 0.03535295
#
# Stress axis : x y z
#
# Youngs Moduli (GPa) = 98.29035 55.98952 79.93048
#
# Poissons Ratio (x) = -0.07941 0.16471
# Poissons Ratio (y) = -0.13941 0.15618
# Poissons Ratio (z) = 0.20254 0.10940
#
# Static dielectric constant tensor:
#      x y z
#    x 1.927200 0.011810 -0.078380 
#    y 0.011810 1.915460 0.030250 
#    z -0.078380 0.030250 1.860400 
# 
# From -- ./inp_files/18052.got.cif
#   From: 2010.05.17/outbox.ucp.g08.bks.cvg/sg2_10_cif.got.tgz:18052.got - 2010.06.11 11:32:03.
