data_PCOD9074499
_publ_section_title
;
Structure prediction by ZEFSAII (Michael W. Deem and Ramdas Pophale) SiO2 
 PCOD9074499
Probable space group: P -1
;
_chemical_formula_sum "Si O2"
_cell_formula_units_Z 14
_cell_length_a 9.000000
_cell_length_b 15.000000
_cell_length_c 15.000000
_cell_angle_alpha 150.000000
_cell_angle_beta 40.000000
_cell_angle_gamma 140.000000
_cell_volume 616.747849
_symmetry_space_group_name_H-M "P -1"
_symmetry_group_IT_number 2
_symmetry_cell_setting 'triclinic'
loop_
_space_group_symop_operation_xyz
x,y,z
-x,-y,-z
loop_
_atom_site_type_symbol
_atom_site_label
_atom_site_fract_x
_atom_site_fract_y
_atom_site_fract_z
Si Si1 0.488439 0.069715 0.166584
Si Si2 0.345155 0.744617 0.438937
Si Si3 0.257550 0.355620 0.735628
Si Si4 0.993120 0.612568 0.788678
Si Si5 0.298637 0.757468 0.126318
Si Si6 0.649543 0.857301 0.215601
Si Si7 0.265827 0.379639 0.555895
O O1 0.272598 0.166327 0.358090
O O2 0.743765 0.231602 0.214994
O O3 0.444009 0.890726 0.095845
O O4 0.500000 0.000000 0.000000
O O5 0.553854 0.752593 0.421993
O O6 0.155695 0.532579 0.344328
O O7 0.507399 0.782326 0.307007
O O8 0.229599 0.914384 0.641630
O O9 0.322576 0.441620 0.683763
O O10 0.974846 0.234437 0.751723
O O11 0.278364 0.536796 0.943093
O O12 0.046687 0.455248 0.692497
O O13 0.826072 0.733990 0.006435
O O14 0.442534 0.829566 0.212347
O O15 0.500000 0.500000 0.500000
#
# Coordination Sequence:
#
# PCOD9074499 Si02
#       7
#     2   2   2   2   2   2   2
#     4  11  26  44  72 101 138 185 236 285 342 417
#     4  11  25  43  70 105 140 181 231 285 354 403
#     4  11  24  43  73 100 139 183 230 296 334 410
#     4  11  24  45  69  98 143 180 224 287 346 409
#     4  11  24  44  70 103 138 183 239 278 347 409
#     4  11  25  43  69 104 140 184 227 287 350 412
#     4  10  23  44  68  99 136 179 228 278 344 408
#
# _framework density 22.699714
#
# number of rings (size 3 to 8) (size 9 to 14) (size 15 to 20)
#    0.000    1.143    1.429    3.857    8.000    4.000 
#    0.000    3.571    0.000    0.000    0.000    0.000 
#    0.000    0.000    0.000    0.000    0.000    0.000 
#
# Total GULP energy -78167.816877 kJ/mol
# GULP energy per Si atom -5583.415491 kJ/mol
# Density = 2.264805 g / cm^3
# Si number density = 22.699714 Si / 1000 Ang^3
#
#
#
# Elastic Constant Matrix: (Units=GPa)
#
#
# Indices 1 2 3 4 5 6 
#
# 1 80.9441 14.3651 -1.6646 3.3667 -18.5074 15.1786
# 2 14.3651 83.5883 1.2315 6.1394 1.6372 14.7271
# 3 -1.6646 1.2315 101.1913 33.2417 -30.1769 30.8503
# 4 3.3667 6.1394 33.2417 16.0320 -12.3809 -2.6158
# 5 -18.5074 1.6372 -30.1769 -12.3809 39.7875 -1.2502
# 6 15.1786 14.7271 30.8503 -2.6158 -1.2502 20.7630
#
#
#
# Elastic Compliance Matrix: (Units=1/GPa)
#
#
# Indices 1 2 3 4 5 6 
#
# 1 0.012329 -0.005263 -0.007227 0.021576 0.007455 0.008625
# 2 -0.005263 0.010903 -0.007558 0.009855 -0.005303 0.008266
# 3 -0.007227 -0.007558 -0.013452 0.037775 -0.000387 0.035367
# 4 0.021576 0.009855 0.037775 -0.012386 0.031960 -0.078526
# 5 0.007455 -0.005303 -0.000387 0.031960 0.038635 0.005239
# 6 0.008625 0.008266 0.035367 -0.078526 0.005239 -0.026132
#
#
# Mechanical properties :
#
#
# Convention : Reuss Voigt Hill
#
# Bulk Modulus (GPa) = -32.98745 32.62088 -0.18328
# Shear Modulus (GPa) = 125.35017 32.10260 78.72639
#
# Velocity S-wave (km/s) = 7.43915 3.76470 5.89550
# Velocity P-wave (km/s) = 7.69573 5.77054 6.80159
#
# Compressibility (1/GPa) = -0.03031456
#
# Stress axis : x y z
#
# Youngs Moduli (GPa) = 81.10681 91.71881 -74.34030
#
# Poissons Ratio (x) = 0.48269 -0.53726
# Poissons Ratio (y) = 0.42684 -0.56186
# Poissons Ratio (z) = 0.58616 0.69320
#
# Static dielectric constant tensor:
#      x y z
#    x 1.890570 0.003290 0.052840 
#    y 0.003290 1.785420 0.084990 
#    z 0.052840 0.084990 1.841130 
# 
# From -- ./inp_files/185287.got.cif
#   From: 2010.05.17/outbox.ucp.g08.bks.cvg/sg2_93_cif.got.tgz:185287.got - 2010.06.11 11:32:03.
