data_PCOD9074255
_publ_section_title
;
Structure prediction by ZEFSAII (Michael W. Deem and Ramdas Pophale) SiO2 
 PCOD9074255
Probable space group: P -1
;
_chemical_formula_sum "Si O2"
_cell_formula_units_Z 16
_cell_length_a 12.000000
_cell_length_b 27.000000
_cell_length_c 6.000000
_cell_angle_alpha 130.000000
_cell_angle_beta 120.000000
_cell_angle_gamma 30.000000
_cell_volume 736.400153
_symmetry_space_group_name_H-M "P -1"
_symmetry_group_IT_number 2
_symmetry_cell_setting 'triclinic'
loop_
_space_group_symop_operation_xyz
x,y,z
-x,-y,-z
loop_
_atom_site_type_symbol
_atom_site_label
_atom_site_fract_x
_atom_site_fract_y
_atom_site_fract_z
Si Si1 0.156709 0.900185 0.190523
Si Si2 0.124531 0.238664 0.379720
Si Si3 0.522156 0.272334 0.631393
Si Si4 0.729860 0.072005 0.004077
Si Si5 0.039914 0.418105 0.655370
Si Si6 0.645245 0.876765 0.223930
Si Si7 0.655478 0.535375 0.262370
Si Si8 0.670982 0.405939 0.588579
O O1 0.346208 0.779553 0.151620
O O2 0.272491 0.911862 0.212036
O O3 0.000000 0.000000 0.500000
O O4 0.970508 0.947325 0.973137
O O5 0.050714 0.344574 0.579601
O O6 0.245415 0.184336 0.593325
O O7 0.897220 0.292724 0.360581
O O8 0.220743 0.176551 0.044276
O O9 0.681266 0.162928 0.319898
O O10 0.292727 0.326146 0.562606
O O11 0.449829 0.370092 0.740862
O O12 0.534355 0.104298 0.957870
O O13 0.858951 0.482354 0.459813
O O14 0.000000 0.500000 0.000000
O O15 0.500000 0.000000 0.500000
O O16 0.458600 0.594919 0.405231
O O17 0.722421 0.443356 0.923824
O O18 0.500000 0.500000 0.500000
#
# Coordination Sequence:
#
# PCOD9074255 Si02
#       8
#     2   2   2   2   2   2   2   2
#     4   9  21  43  66 101 131 183 234 297 382 440
#     4  12  26  51  79 108 151 207 254 318 393 446
#     4  11  23  41  71 103 143 182 241 306 380 445
#     4  10  22  44  71  97 144 184 238 314 374 449
#     4  12  25  43  75 113 150 197 247 308 381 469
#     4  12  28  51  75 112 146 200 263 322 381 458
#     4  11  26  45  69 110 152 199 253 308 381 462
#     4  11  25  49  72 100 155 200 254 312 369 468
#
# _framework density 21.727318
#
# number of rings (size 3 to 8) (size 9 to 14) (size 15 to 20)
#    0.000    1.000    2.500    3.000    7.000    0.000 
#    9.000    0.000    0.000    0.000    0.000    0.000 
#    0.000    0.000    0.000    0.000    0.000    0.000 
#
# Total GULP energy -89144.131486 kJ/mol
# GULP energy per Si atom -5571.508218 kJ/mol
# Density = 2.167787 g / cm^3
# Si number density = 21.727318 Si / 1000 Ang^3
#
#
#
# Elastic Constant Matrix: (Units=GPa)
#
#
# Indices 1 2 3 4 5 6 
#
# 1 86.6575 57.5104 11.5459 1.8510 -48.3416 -4.1210
# 2 57.5104 177.5950 31.0311 -26.8922 -7.6044 13.1357
# 3 11.5459 31.0311 112.5618 -2.0545 -16.7996 -5.3894
# 4 1.8510 -26.8922 -2.0545 35.7921 1.1259 -4.4600
# 5 -48.3416 -7.6044 -16.7996 1.1259 33.8632 8.3793
# 6 -4.1210 13.1357 -5.3894 -4.4600 8.3793 44.6506
#
#
#
# Elastic Compliance Matrix: (Units=1/GPa)
#
#
# Indices 1 2 3 4 5 6 
#
# 1 -0.352646 0.120708 -0.071439 0.125598 -0.524414 0.034278
# 2 0.120708 -0.034474 0.022709 -0.038222 0.180494 -0.013666
# 3 -0.071439 0.022709 -0.004423 0.024673 -0.101819 0.007764
# 4 0.125598 -0.038222 0.024673 -0.013001 0.185957 -0.010381
# 5 -0.524414 0.180494 -0.101819 0.185957 -0.746362 0.044849
# 6 0.034278 -0.013666 0.007764 -0.010381 0.044849 0.021064
#
#
# Mechanical properties :
#
#
# Convention : Reuss Voigt Hill
#
# Bulk Modulus (GPa) = -4.03900 64.10991 30.03546
# Shear Modulus (GPa) = -3.68643 41.30964 18.81161
#
# Velocity S-wave (km/s) = -1.30398 4.36509 2.94565
# Velocity P-wave (km/s) = 2.03227 7.41458 5.04212
#
# Compressibility (1/GPa) = -0.24758633
#
# Stress axis : x y z
#
# Youngs Moduli (GPa) = -2.83571 -29.00713 -226.10364
#
# Poissons Ratio (x) = 3.50139 -16.15251
# Poissons Ratio (y) = 0.34229 5.13454
# Poissons Ratio (z) = -0.20258 0.65872
#
# Static dielectric constant tensor:
#      x y z
#    x 2.304970 0.291260 0.224520 
#    y 0.291260 2.035040 0.180700 
#    z 0.224520 0.180700 2.076470 
# 
# From -- ./inp_files/85156.got.cif
#   From: 2010.05.17/outbox.ucp.g08.bks.cvg/sg2_43_cif.got.tgz:85156.got - 2010.06.11 11:32:03.
