data_PCOD9074769
_publ_section_title
;
Structure prediction by ZEFSAII (Michael W. Deem and Ramdas Pophale) SiO2 
 PCOD9074769
Probable space group: P -1
;
_chemical_formula_sum "Si O2"
_cell_formula_units_Z 14
_cell_length_a 6.000000
_cell_length_b 12.000000
_cell_length_c 9.000000
_cell_angle_alpha 100.000000
_cell_angle_beta 80.000000
_cell_angle_gamma 100.000000
_cell_volume 621.543548
_symmetry_space_group_name_H-M "P -1"
_symmetry_group_IT_number 2
_symmetry_cell_setting 'triclinic'
loop_
_space_group_symop_operation_xyz
x,y,z
-x,-y,-z
loop_
_atom_site_type_symbol
_atom_site_label
_atom_site_fract_x
_atom_site_fract_y
_atom_site_fract_z
Si Si1 0.617514 0.753202 0.924889
Si Si2 0.743390 0.438375 0.958236
Si Si3 0.765338 0.618042 0.611031
Si Si4 0.398266 0.021992 0.213005
Si Si5 0.865247 0.899075 0.180587
Si Si6 0.618214 0.816509 0.476638
Si Si7 0.242426 0.632055 0.395238
O O1 0.746777 0.672474 0.787359
O O2 0.566879 0.866885 0.871695
O O3 0.372859 0.678597 0.974791
O O4 0.793955 0.797246 0.047019
O O5 0.802788 0.399523 0.777937
O O6 0.500000 0.500000 0.000000
O O7 0.000000 0.500000 0.000000
O O8 0.654452 0.705984 0.542575
O O9 0.659438 0.484599 0.594657
O O10 0.022793 0.629065 0.524011
O O11 0.375074 0.075240 0.391920
O O12 0.644611 0.970814 0.186518
O O13 0.139568 0.955932 0.172516
O O14 0.807321 0.847903 0.337723
O O15 0.381881 0.760285 0.413761
#
# Coordination Sequence:
#
# PCOD9074769 Si02
#       7
#     2   2   2   2   2   2   2
#     4  11  25  50  77 108 155 198 249 307 382 437
#     4  12  28  48  77 115 153 194 245 304 371 453
#     4  10  25  45  73 112 148 198 246 302 370 463
#     4  11  28  46  75 108 150 192 260 310 371 434
#     4  12  26  49  74 110 145 199 253 320 363 437
#     4  11  25  43  76 102 151 192 254 299 389 425
#     4  11  24  46  75 109 153 197 245 302 375 459
#
# _framework density 22.524567999999999
#
# number of rings (size 3 to 8) (size 9 to 14) (size 15 to 20)
#    0.000    0.857    2.857    2.143    8.000    6.857 
#    2.571    0.000    0.000    0.000    0.000    0.000 
#    0.000    0.000    0.000    0.000    0.000    0.000 
#
# Total GULP energy -77950.199997 kJ/mol
# GULP energy per Si atom -5567.871428 kJ/mol
# Density = 2.247330 g / cm^3
# Si number density = 22.524568 Si / 1000 Ang^3
#
#
#
# Elastic Constant Matrix: (Units=GPa)
#
#
# Indices 1 2 3 4 5 6 
#
# 1 129.1541 46.4368 48.3516 24.4123 10.3408 39.4957
# 2 46.4368 68.1416 51.0265 15.5325 -13.8407 52.9184
# 3 48.3516 51.0265 157.0864 11.4215 -0.5769 10.6961
# 4 24.4123 15.5325 11.4215 35.9030 8.7674 -15.0853
# 5 10.3408 -13.8407 -0.5769 8.7674 30.5260 6.3040
# 6 39.4957 52.9184 10.6961 -15.0853 6.3040 42.9656
#
#
#
# Elastic Compliance Matrix: (Units=1/GPa)
#
#
# Indices 1 2 3 4 5 6 
#
# 1 0.012213 -0.008837 -0.000753 -0.002359 -0.007505 0.000118
# 2 -0.008837 -0.006026 0.001483 0.020862 -0.010673 0.024067
# 3 -0.000753 0.001483 0.006889 -0.005463 0.003724 -0.005314
# 4 -0.002359 0.020862 -0.005463 0.011109 0.011072 -0.019890
# 5 -0.007505 -0.010673 0.003724 0.011072 0.023308 0.019584
# 6 0.000118 0.024067 -0.005314 -0.019890 0.019584 -0.015009
#
#
# Mechanical properties :
#
#
# Convention : Reuss Voigt Hill
#
# Bulk Modulus (GPa) = -318.63974 71.77910 -123.43032
# Shear Modulus (GPa) = 104.93069 35.78342 70.35705
#
# Velocity S-wave (km/s) = 6.83272 3.99010 5.59495
# Velocity P-wave (km/s) = 8.91752 7.29137 3.63030
#
# Compressibility (1/GPa) = -0.00313834
#
# Stress axis : x y z
#
# Youngs Moduli (GPa) = 81.88306 -165.94925 145.16621
#
# Poissons Ratio (x) = -1.46647 0.10925
# Poissons Ratio (y) = 0.72359 -0.21523
# Poissons Ratio (z) = 0.06162 0.24605
#
# Static dielectric constant tensor:
#      x y z
#    x 1.921730 -0.063810 0.061720 
#    y -0.063810 1.896210 -0.014890 
#    z 0.061720 -0.014890 1.899940 
# 
# From -- ./inp_files/60328.got.cif
#   From: 2010.05.17/outbox.ucp.g08.bks.cvg/sg2_31_cif.got.tgz:60328.got - 2010.06.11 11:32:03.
