data_PCOD9074122
_publ_section_title
;
Structure prediction by ZEFSAII (Michael W. Deem and Ramdas Pophale) SiO2 
 PCOD9074122
Probable space group: P -1
;
_chemical_formula_sum "Si O2"
_cell_formula_units_Z 16
_cell_length_a 9.000000
_cell_length_b 21.000000
_cell_length_c 12.000000
_cell_angle_alpha 20.000000
_cell_angle_beta 70.000000
_cell_angle_gamma 70.000000
_cell_volume 727.418465
_symmetry_space_group_name_H-M "P -1"
_symmetry_group_IT_number 2
_symmetry_cell_setting 'triclinic'
loop_
_space_group_symop_operation_xyz
x,y,z
-x,-y,-z
loop_
_atom_site_type_symbol
_atom_site_label
_atom_site_fract_x
_atom_site_fract_y
_atom_site_fract_z
Si Si1 0.051766 0.401783 0.472889
Si Si2 0.743392 0.280555 0.875539
Si Si3 0.987109 0.686073 0.626876
Si Si4 0.332009 0.833534 0.272420
Si Si5 0.311178 0.065816 0.679881
Si Si6 0.364026 0.909870 0.394626
Si Si7 0.107427 0.810970 0.781232
Si Si8 0.635438 0.671106 0.339179
O O1 0.066185 0.344587 0.435617
O O2 0.215481 0.355040 0.571935
O O3 0.910891 0.308011 0.726528
O O4 0.014079 0.624691 0.118259
O O5 0.649674 0.481496 0.576552
O O6 0.779238 0.204276 0.115327
O O7 0.664778 0.122528 0.087046
O O8 0.853449 0.826571 0.484870
O O9 0.161819 0.754000 0.460332
O O10 0.000000 0.500000 0.000000
O O11 0.377964 0.891127 0.289323
O O12 0.470764 0.698886 0.403532
O O13 0.304284 0.000766 0.916843
O O14 0.472520 0.170404 0.459158
O O15 0.216245 0.811493 0.643133
O O16 0.344029 0.133658 0.050876
O O17 0.000000 0.000000 0.500000
#
# Coordination Sequence:
#
# PCOD9074122 Si02
#       8
#     2   2   2   2   2   2   2   2
#     4  11  22  43  66  94 129 173 221 264 318 390
#     4  11  24  42  67  95 133 177 215 262 326 392
#     4  12  26  41  65 100 129 170 218 276 328 373
#     4  11  23  43  70  96 129 173 218 272 322 386
#     4  11  25  44  67  97 133 172 217 267 325 394
#     4  11  23  42  69  99 130 170 219 273 325 378
#     4  11  24  40  66  97 134 174 212 268 322 387
#     4  10  22  42  67  98 127 171 224 258 326 394
#
# _framework density 21.995591999999998
#
# number of rings (size 3 to 8) (size 9 to 14) (size 15 to 20)
#    0.000    1.000    1.250    7.125    5.250    4.500 
#    2.250    4.375    0.000    0.000    0.000    0.000 
#    0.000    0.000    0.000    0.000    0.000    0.000 
#
# Total GULP energy -89453.057941 kJ/mol
# GULP energy per Si atom -5590.816121 kJ/mol
# Density = 2.194553 g / cm^3
# Si number density = 21.995592 Si / 1000 Ang^3
#
#
#
# Elastic Constant Matrix: (Units=GPa)
#
#
# Indices 1 2 3 4 5 6 
#
# 1 74.0625 0.3977 14.8587 -22.2145 9.0348 -6.4326
# 2 0.3977 64.5751 -1.6351 -3.6363 14.6311 8.0306
# 3 14.8587 -1.6351 37.6783 -0.7302 17.7455 2.5870
# 4 -22.2145 -3.6363 -0.7302 22.9829 -1.7211 -0.4909
# 5 9.0348 14.6311 17.7455 -1.7211 21.0144 -7.2897
# 6 -6.4326 8.0306 2.5870 -0.4909 -7.2897 34.6501
#
#
#
# Elastic Compliance Matrix: (Units=1/GPa)
#
#
# Indices 1 2 3 4 5 6 
#
# 1 0.022090 -0.000916 -0.010698 0.021307 0.004097 0.006276
# 2 -0.000916 0.029614 0.025934 0.000564 -0.048744 -0.019216
# 3 -0.010698 0.025934 0.076489 -0.011278 -0.090377 -0.032880
# 4 0.021307 0.000564 -0.011278 0.064572 0.007762 0.007215
# 5 0.004097 -0.048744 -0.090377 0.007762 0.176132 0.055970
# 6 0.006276 -0.019216 -0.032880 0.007215 0.055970 0.048810
#
#
# Mechanical properties :
#
#
# Convention : Reuss Voigt Hill
#
# Bulk Modulus (GPa) = 6.37627 22.61764 14.49696
# Shear Modulus (GPa) = 11.32902 26.57579 18.95241
#
# Velocity S-wave (km/s) = 2.27195 3.47973 2.93856
# Velocity P-wave (km/s) = 3.12850 5.14294 4.25661
#
# Compressibility (1/GPa) = 0.15683145
#
# Stress axis : x y z
#
# Youngs Moduli (GPa) = 45.27022 33.76807 13.07379
#
# Poissons Ratio (x) = 0.03092 0.13987
# Poissons Ratio (y) = 0.04146 -0.33905
# Poissons Ratio (z) = 0.48432 -0.87573
#
# Static dielectric constant tensor:
#      x y z
#    x 1.783780 0.117590 -0.001800 
#    y 0.117590 1.661910 -0.065770 
#    z -0.001800 -0.065770 1.764020 
# 
# From -- ./inp_files/216451.got.cif
#   From: 2010.05.17/outbox.ucp.g08.bks.cvg/sg2_109_cif.got.tgz:216451.got - 2010.06.11 11:32:03.
