data_PCOD9074383
_publ_section_title
;
Structure prediction by ZEFSAII (Michael W. Deem and Ramdas Pophale) SiO2 
 PCOD9074383
Probable space group: P -1
;
_chemical_formula_sum "Si O2"
_cell_formula_units_Z 15
_cell_length_a 15.000000
_cell_length_b 9.000000
_cell_length_c 21.000000
_cell_angle_alpha 50.000000
_cell_angle_beta 30.000000
_cell_angle_gamma 30.000000
_cell_volume 640.267684
_symmetry_space_group_name_H-M "P -1"
_symmetry_group_IT_number 2
_symmetry_cell_setting 'triclinic'
loop_
_space_group_symop_operation_xyz
x,y,z
-x,-y,-z
loop_
_atom_site_type_symbol
_atom_site_label
_atom_site_fract_x
_atom_site_fract_y
_atom_site_fract_z
Si Si1 0.199902 0.324424 0.512267
Si Si2 0.944648 0.898019 0.755027
Si Si3 0.339415 0.211083 0.898416
Si Si4 0.677243 0.196972 0.019567
Si Si5 0.716152 0.588300 0.431232
Si Si6 0.500000 0.000000 0.000000
Si Si7 0.669569 0.418893 0.271927
Si Si8 0.299919 0.483525 0.292843
O O1 0.157189 0.399727 0.592439
O O2 0.332155 0.387623 0.372012
O O3 0.887827 0.526814 0.619969
O O4 0.454284 0.934230 0.461305
O O5 0.032669 0.684226 0.700555
O O6 0.177050 0.659768 0.733725
O O7 0.919135 0.138769 0.682007
O O8 0.620875 0.105442 0.918684
O O9 0.481172 0.269473 0.757590
O O10 0.445468 0.905796 0.897669
O O11 0.357572 0.219063 0.960473
O O12 0.000000 0.500000 0.000000
O O13 0.587191 0.279902 0.127123
O O14 0.500000 0.500000 0.000000
O O15 0.036058 0.903835 0.863084
O O16 0.564539 0.538191 0.573484
#
# Coordination Sequence:
#
# PCOD9074383 Si02
#       8
#     2   2   2   2   2   1   2   2
#     4  10  25  45  65  98 137 172 236 279 342 411
#     4  12  25  43  71  97 139 178 229 281 344 415
#     4  10  23  41  68  97 140 179 229 282 340 411
#     4  11  20  41  70  94 136 178 223 284 347 411
#     4  11  25  45  68  96 135 183 226 287 337 409
#     4  12  24  44  66 106 134 174 236 282 338 406
#     4  11  23  44  66 102 137 184 230 277 351 413
#     4  11  24  43  68 101 130 183 222 283 353 404
#
# _framework density 23.427700999999999
#
# number of rings (size 3 to 8) (size 9 to 14) (size 15 to 20)
#    0.000    1.067    5.333    0.400    5.600    1.600 
#    4.800    0.667    0.000    0.000    0.000    0.000 
#    0.000    0.000    0.000    0.000    0.000    0.000 
#
# Total GULP energy -83500.804034 kJ/mol
# GULP energy per Si atom -5566.720269 kJ/mol
# Density = 2.337438 g / cm^3
# Si number density = 23.427701 Si / 1000 Ang^3
#
#
#
# Elastic Constant Matrix: (Units=GPa)
#
#
# Indices 1 2 3 4 5 6 
#
# 1 38.8361 7.0435 -23.9524 6.8693 6.2408 -9.6907
# 2 7.0435 107.2656 10.8852 -37.1429 18.3522 -16.4825
# 3 -23.9524 10.8852 -4.9503 -6.9238 5.4510 -5.6471
# 4 6.8693 -37.1429 -6.9238 40.2043 0.7333 16.6127
# 5 6.2408 18.3522 5.4510 0.7333 43.8577 -1.4768
# 6 -9.6907 -16.4825 -5.6471 16.6127 -1.4768 26.8076
#
#
#
# Elastic Compliance Matrix: (Units=1/GPa)
#
#
# Indices 1 2 3 4 5 6 
#
# 1 0.008550 -0.000451 -0.030041 -0.007684 0.002882 0.001406
# 2 -0.000451 0.015349 0.005896 0.015091 -0.007318 0.000761
# 3 -0.030041 0.005896 -0.032465 0.014256 0.004842 -0.022641
# 4 -0.007684 0.015091 0.014256 0.052439 -0.008660 -0.023469
# 5 0.002882 -0.007318 0.004842 -0.008660 0.025141 0.004314
# 6 0.001406 0.000761 -0.022641 -0.023469 0.004314 0.048291
#
#
# Mechanical properties :
#
#
# Convention : Reuss Voigt Hill
#
# Bulk Modulus (GPa) = -17.31347 14.34487 -1.48430
# Shear Modulus (GPa) = 33.95735 31.98560 32.97147
#
# Velocity S-wave (km/s) = 3.81130 3.69899 3.75556
# Velocity P-wave (km/s) = 3.45858 4.93758 4.26272
#
# Compressibility (1/GPa) = -0.05775850
#
# Stress axis : x y z
#
# Youngs Moduli (GPa) = 116.96471 65.15292 -30.80268
#
# Poissons Ratio (x) = 0.02936 -0.92536
# Poissons Ratio (y) = 0.05271 0.18162
# Poissons Ratio (z) = 3.51380 -0.38415
#
# Static dielectric constant tensor:
#      x y z
#    x 1.855070 0.073090 0.008380 
#    y 0.073090 1.919620 0.036140 
#    z 0.008380 0.036140 1.994380 
# 
# From -- ./inp_files/597322.got.cif
#   From: 2010.05.17/outbox.ucp.g08.bks.cvg/sg2_299_cif.got.tgz:597322.got - 2010.06.11 11:32:03.
