data_PCOD9074253
_publ_section_title
;
Structure prediction by ZEFSAII (Michael W. Deem and Ramdas Pophale) SiO2 
 PCOD9074253
Probable space group: P -1
;
_chemical_formula_sum "Si O2"
_cell_formula_units_Z 14
_cell_length_a 15.000000
_cell_length_b 15.000000
_cell_length_c 24.000000
_cell_angle_alpha 160.000000
_cell_angle_beta 20.000000
_cell_angle_gamma 150.000000
_cell_volume 624.976433
_symmetry_space_group_name_H-M "P -1"
_symmetry_group_IT_number 2
_symmetry_cell_setting 'triclinic'
loop_
_space_group_symop_operation_xyz
x,y,z
-x,-y,-z
loop_
_atom_site_type_symbol
_atom_site_label
_atom_site_fract_x
_atom_site_fract_y
_atom_site_fract_z
Si Si1 0.598643 0.803609 0.922277
Si Si2 0.449146 0.908866 0.558872
Si Si3 0.792513 0.609993 0.091085
Si Si4 0.732271 0.825995 0.457060
Si Si5 0.346898 0.270578 0.429151
Si Si6 0.173584 0.609191 0.265429
Si Si7 0.941875 0.509855 0.461612
O O1 0.351899 0.647280 0.968043
O O2 0.771398 0.775842 0.745850
O O3 0.794210 0.597704 0.723444
O O4 0.500024 0.075015 0.175729
O O5 0.710646 0.797785 0.303366
O O6 0.505419 0.861507 0.563821
O O7 0.241769 0.714279 0.552362
O O8 0.325559 0.199603 0.779340
O O9 0.092685 0.463506 0.821513
O O10 0.673228 0.883697 0.591322
O O11 0.860783 0.082729 0.517621
O O12 0.500000 0.500000 0.500000
O O13 0.050588 0.393091 0.653249
O O14 0.043350 0.497819 0.331214
O O15 0.500000 0.500000 0.000000
#
# Coordination Sequence:
#
# PCOD9074253 Si02
#       7
#     2   2   2   2   2   2   2
#     4  10  22  46  69 103 141 186 245 296 366 430
#     4  10  23  43  71 109 145 189 236 307 361 431
#     4  10  22  44  71 104 148 186 244 294 366 438
#     4  12  25  43  71 102 145 192 240 292 370 442
#     4  12  28  47  70 105 147 192 246 310 358 436
#     4  12  27  47  74 105 148 198 244 299 374 442
#     4  10  23  44  75 105 139 189 242 303 362 435
#
# _framework density 22.400845
#
# number of rings (size 3 to 8) (size 9 to 14) (size 15 to 20)
#    0.000    1.143    1.429    3.429    6.000    1.714 
#    2.571    2.857    0.000    0.857    0.000    0.000 
#    0.000    0.000    0.000    0.000    0.000    0.000 
#
# Total GULP energy -77962.229237 kJ/mol
# GULP energy per Si atom -5568.730660 kJ/mol
# Density = 2.234986 g / cm^3
# Si number density = 22.400845 Si / 1000 Ang^3
#
#
#
# Elastic Constant Matrix: (Units=GPa)
#
#
# Indices 1 2 3 4 5 6 
#
# 1 117.7743 0.6248 27.2467 -11.3839 -4.3557 -1.8087
# 2 0.6248 64.3139 20.6362 1.1773 2.3317 4.9208
# 3 27.2467 20.6362 165.7035 1.9514 5.9202 -7.3235
# 4 -11.3839 1.1773 1.9514 32.6933 -1.8195 7.0590
# 5 -4.3557 2.3317 5.9202 -1.8195 42.1383 -3.4779
# 6 -1.8087 4.9208 -7.3235 7.0590 -3.4779 39.9923
#
#
#
# Elastic Compliance Matrix: (Units=1/GPa)
#
#
# Indices 1 2 3 4 5 6 
#
# 1 0.009253 0.000370 -0.001674 0.003474 0.001285 -0.000435
# 2 0.000370 0.016467 -0.002197 0.000166 -0.000764 -0.002507
# 3 -0.001674 -0.002197 0.006701 -0.001294 -0.000919 0.001570
# 4 0.003474 0.000166 -0.001294 0.033210 0.001484 -0.005833
# 5 0.001285 -0.000764 -0.000919 0.001484 0.024251 0.001831
# 6 -0.000435 -0.002507 0.001570 -0.005833 0.001831 0.026770
#
#
# Mechanical properties :
#
#
# Convention : Reuss Voigt Hill
#
# Bulk Modulus (GPa) = 39.33975 49.42302 44.38139
# Shear Modulus (GPa) = 37.84284 42.91707 40.37996
#
# Velocity S-wave (km/s) = 4.11463 4.38181 4.25032
# Velocity P-wave (km/s) = 6.33825 6.90734 6.62890
#
# Compressibility (1/GPa) = 0.02541958
#
# Stress axis : x y z
#
# Youngs Moduli (GPa) = 108.07720 60.72887 149.22811
#
# Poissons Ratio (x) = -0.02248 0.24974
# Poissons Ratio (y) = -0.04001 0.32786
# Poissons Ratio (z) = 0.18087 0.13342
#
# Static dielectric constant tensor:
#      x y z
#    x 2.063790 -0.081730 -0.017910 
#    y -0.081730 1.972860 -0.027770 
#    z -0.017910 -0.027770 1.854260 
# 
# From -- ./inp_files/612140.got.cif
#   From: 2010.05.17/outbox.ucp.g08.bks.cvg/sg2_307_cif.got.tgz:612140.got - 2010.06.11 11:32:03.
