data_PCOD9074381
_publ_section_title
;
Structure prediction by ZEFSAII (Michael W. Deem and Ramdas Pophale) SiO2 
 PCOD9074381
Probable space group: P -1
;
_chemical_formula_sum "Si O2"
_cell_formula_units_Z 15
_cell_length_a 16.853980
_cell_length_b 5.167280
_cell_length_c 28.148818
_cell_angle_alpha 112.766408
_cell_angle_beta 18.376891
_cell_angle_gamma 111.125013
_cell_volume 712.451756
_symmetry_space_group_name_H-M "P -1"
_symmetry_group_IT_number 2
_symmetry_cell_setting 'triclinic'
loop_
_space_group_symop_operation_xyz
x,y,z
-x,-y,-z
loop_
_atom_site_type_symbol
_atom_site_label
_atom_site_fract_x
_atom_site_fract_y
_atom_site_fract_z
Si Si1 0.995982 0.825288 0.037966
Si Si2 0.500000 0.000000 0.000000
Si Si3 0.338250 0.671859 0.164689
Si Si4 0.804630 0.418157 0.431296
Si Si5 0.503912 0.069174 0.387368
Si Si6 0.836712 0.321221 0.294213
Si Si7 0.786066 0.268840 0.914314
Si Si8 0.312542 0.961651 0.955059
O O1 0.745048 0.916146 0.215712
O O2 0.000000 0.500000 0.000000
O O3 0.229056 0.892768 0.945194
O O4 0.000000 0.000000 0.000000
O O5 0.639665 0.129024 0.879402
O O6 0.232053 0.020552 0.123950
O O7 0.544017 0.403992 0.030196
O O8 0.067422 0.538715 0.309016
O O9 0.438602 0.863331 0.164437
O O10 0.602766 0.679431 0.566655
O O11 0.802488 0.346044 0.371140
O O12 0.705080 0.156035 0.498373
O O13 0.605266 0.204529 0.388493
O O14 0.938095 0.619449 0.239710
O O15 0.082471 0.139961 0.123551
O O16 0.692027 0.296297 0.023515
#
# Coordination Sequence:
#
# PCOD9074381 Si02
#       8
#     2   1   2   2   2   2   2   2
#     4  11  25  48  79  94 115 154 215 292 346 371
#     4  10  18  32  50  86 122 178 232 248 278 354
#     4  10  22  34  57  89 133 178 219 257 307 359
#     4  12  25  39  61  92 142 186 201 241 310 399
#     4  11  27  42  62  96 130 163 222 259 319 396
#     4  10  22  36  59  88 136 180 214 255 300 365
#     4  10  20  32  58  86 133 166 230 259 296 352
#     4   9  23  37  64  98 127 158 228 275 307 372
#
# _framework density 21.054055000000002
#
# number of rings (size 3 to 8) (size 9 to 14) (size 15 to 20)
#    0.000    1.600    1.333    2.000   18.667    0.000 
#    0.000    0.000    0.000    4.800    0.000    0.000 
#    0.000    0.000    0.000    0.000    0.000    0.000 
#
# Total GULP energy -83510.840964 kJ/mol
# GULP energy per Si atom -5567.389398 kJ/mol
# Density = 2.100614 g / cm^3
# Si number density = 21.054055 Si / 1000 Ang^3
#
#
#
# Elastic Constant Matrix: (Units=GPa)
#
#
# Indices 1 2 3 4 5 6 
#
# 1 161.8652 41.8301 32.6276 -16.3535 -6.5052 20.4477
# 2 41.8301 72.6378 29.3939 -15.8459 -6.3808 10.7992
# 3 32.6276 29.3939 68.4169 -14.6347 -17.2880 15.9854
# 4 -16.3535 -15.8459 -14.6347 45.3160 0.3366 -3.8778
# 5 -6.5052 -6.3808 -17.2880 0.3366 33.0483 -5.2860
# 6 20.4477 10.7992 15.9854 -3.8778 -5.2860 34.3887
#
#
#
# Elastic Compliance Matrix: (Units=1/GPa)
#
#
# Indices 1 2 3 4 5 6 
#
# 1 0.007767 -0.003260 -0.001536 0.000927 -0.000366 -0.002832
# 2 -0.003260 0.018803 -0.005568 0.003515 -0.000120 -0.001000
# 3 -0.001536 -0.005568 0.022349 0.004149 0.009340 -0.005824
# 4 0.000927 0.003515 0.004149 0.024920 0.002721 -0.000355
# 5 -0.000366 -0.000120 0.009340 0.002721 0.035285 0.001644
# 6 -0.002832 -0.001000 -0.005824 -0.000355 0.001644 0.033997
#
#
# Mechanical properties :
#
#
# Convention : Reuss Voigt Hill
#
# Bulk Modulus (GPa) = 35.47307 56.73591 46.10449
# Shear Modulus (GPa) = 28.86083 35.82183 32.34133
#
# Velocity S-wave (km/s) = 3.70644 4.12930 3.92357
# Velocity P-wave (km/s) = 5.93314 7.05274 6.51702
#
# Compressibility (1/GPa) = 0.02819040
#
# Stress axis : x y z
#
# Youngs Moduli (GPa) = 128.75361 53.18433 44.74455
#
# Poissons Ratio (x) = 0.17338 0.06872
# Poissons Ratio (y) = 0.41974 0.24914
# Poissons Ratio (z) = 0.19775 0.29614
#
# Static dielectric constant tensor:
#      x y z
#    x 1.595620 -0.535880 -0.045880 
#    y -0.535880 1.499150 -0.128040 
#    z -0.045880 -0.128040 1.774600 
# 
# From -- ./inp_files/611298.got.cif
#   From: 2010.05.17/outbox.cif.g08.bks.cpg/sg2_306_cif.got.tgz:611298.got - 2010.06.03 11:33:40.
