data_PCOD9074899
_publ_section_title
;
Structure prediction by ZEFSAII (Michael W. Deem and Ramdas Pophale) SiO2 
 PCOD9074899
Probable space group: P -1
;
_chemical_formula_sum "Si O2"
_cell_formula_units_Z 16
_cell_length_a 15.000000
_cell_length_b 12.000000
_cell_length_c 12.000000
_cell_angle_alpha 100.000000
_cell_angle_beta 120.000000
_cell_angle_gamma 30.000000
_cell_volume 748.962810
_symmetry_space_group_name_H-M "P -1"
_symmetry_group_IT_number 2
_symmetry_cell_setting 'triclinic'
loop_
_space_group_symop_operation_xyz
x,y,z
-x,-y,-z
loop_
_atom_site_type_symbol
_atom_site_label
_atom_site_fract_x
_atom_site_fract_y
_atom_site_fract_z
Si Si1 0.976636 0.903424 0.185853
Si Si2 0.318548 0.298201 0.682500
Si Si3 0.102645 0.802896 0.940030
Si Si4 0.518573 0.301779 0.393427
Si Si5 0.231115 0.134507 0.679818
Si Si6 0.390630 0.839099 0.315329
Si Si7 0.517606 0.223669 0.009969
Si Si8 0.223353 0.727458 0.521271
O O1 0.225802 0.609775 0.227437
O O2 0.077596 0.793803 0.355459
O O3 0.918627 0.093163 0.162306
O O4 0.732509 0.073577 0.048432
O O5 0.333874 0.151967 0.702958
O O6 0.535017 0.127207 0.704503
O O7 0.064549 0.568422 0.493963
O O8 0.342444 0.340960 0.824662
O O9 0.365806 0.471432 0.030253
O O10 0.895057 0.913297 0.833270
O O11 0.000000 0.000000 0.000000
O O12 0.556313 0.215478 0.527383
O O13 0.635851 0.309767 0.457454
O O14 0.654208 0.082408 0.357051
O O15 0.331256 0.009730 0.847737
O O16 0.570207 0.555286 0.336038
O O17 0.000000 0.000000 0.500000
#
# Coordination Sequence:
#
# PCOD9074899 Si02
#       8
#     2   2   2   2   2   2   2   2
#     4  11  22  39  61 100 138 181 216 271 349 419
#     4  11  26  47  72 101 132 185 239 290 342 410
#     4  12  24  38  60  96 144 180 215 279 348 422
#     4  11  20  42  67 100 142 180 228 287 342 412
#     4  11  25  48  73  96 135 185 238 289 348 400
#     4  11  22  40  63 100 141 178 227 282 345 413
#     4  12  26  45  69 102 140 181 235 289 346 413
#     4  11  21  34  67  97 138 181 220 276 346 416
#
# _framework density 21.362876
#
# number of rings (size 3 to 8) (size 9 to 14) (size 15 to 20)
#    0.000    0.750    2.500    6.750    3.500    0.500 
#    0.000    3.750    0.000    0.000    0.000    0.000 
#    0.000    0.000    0.000    0.000    0.000    0.000 
#
# Total GULP energy -89250.551244 kJ/mol
# GULP energy per Si atom -5578.159453 kJ/mol
# Density = 2.131425 g / cm^3
# Si number density = 21.362876 Si / 1000 Ang^3
#
#
#
# Elastic Constant Matrix: (Units=GPa)
#
#
# Indices 1 2 3 4 5 6 
#
# 1 127.7841 -7.7348 32.6556 -13.5744 6.7564 -2.4164
# 2 -7.7348 -5.3979 -7.3929 -10.4946 6.9284 -2.0457
# 3 32.6556 -7.3929 88.2303 -7.6112 -5.4253 0.5340
# 4 -13.5744 -10.4946 -7.6112 36.2238 1.3191 -2.0831
# 5 6.7564 6.9284 -5.4253 1.3191 35.3877 0.3618
# 6 -2.4164 -2.0457 0.5340 -2.0831 0.3618 25.9608
#
#
#
# Elastic Compliance Matrix: (Units=1/GPa)
#
#
# Indices 1 2 3 4 5 6 
#
# 1 0.008365 -0.007888 -0.003790 0.000091 -0.000640 0.000251
# 2 -0.007888 -0.082768 -0.005371 -0.029283 0.018079 -0.009748
# 3 -0.003790 -0.005371 0.012474 -0.000556 0.003720 -0.001129
# 4 0.000091 -0.029283 -0.000556 0.018811 0.004938 -0.000847
# 5 -0.000640 0.018079 0.003720 0.004938 0.025214 0.001333
# 6 0.000251 -0.009748 -0.001129 -0.000847 0.001333 0.037711
#
#
# Mechanical properties :
#
#
# Convention : Reuss Voigt Hill
#
# Bulk Modulus (GPa) = -10.41371 27.29693 8.44161
# Shear Modulus (GPa) = 228.33979 32.38704 130.36342
#
# Velocity S-wave (km/s) = 10.34980 3.89786 7.82022
# Velocity P-wave (km/s) = 11.74475 5.75007 9.24669
#
# Compressibility (1/GPa) = -0.09602729
#
# Stress axis : x y z
#
# Youngs Moduli (GPa) = 119.54600 -12.08196 80.16465
#
# Poissons Ratio (x) = -0.09531 0.30383
# Poissons Ratio (y) = 0.94301 0.43056
# Poissons Ratio (z) = 0.45308 -0.06489
#
# Static dielectric constant tensor:
#      x y z
#    x 1.790890 -0.121030 -0.015670 
#    y -0.121030 1.242150 0.122930 
#    z -0.015670 0.122930 1.820910 
# 
# From -- ./inp_files/452496.got.cif
#   From: 2010.05.17/outbox.ucp.g08.bks.cvg/sg2_227_cif.got.tgz:452496.got - 2010.06.11 11:32:03.
