data_PCOD9074079
_publ_section_title
;
Structure prediction by ZEFSAII (Michael W. Deem and Ramdas Pophale) SiO2 
 PCOD9074079
Probable space group: P -1
;
_chemical_formula_sum "Si O2"
_cell_formula_units_Z 14
_cell_length_a 9.000000
_cell_length_b 9.000000
_cell_length_c 9.000000
_cell_angle_alpha 110.000000
_cell_angle_beta 90.000000
_cell_angle_gamma 110.000000
_cell_volume 638.049704
_symmetry_space_group_name_H-M "P -1"
_symmetry_group_IT_number 2
_symmetry_cell_setting 'triclinic'
loop_
_space_group_symop_operation_xyz
x,y,z
-x,-y,-z
loop_
_atom_site_type_symbol
_atom_site_label
_atom_site_fract_x
_atom_site_fract_y
_atom_site_fract_z
Si Si1 0.377476 0.273177 0.287218
Si Si2 0.872508 0.606227 0.142932
Si Si3 0.271625 0.722251 0.780385
Si Si4 0.314057 0.871280 0.496403
Si Si5 0.324851 0.223572 0.617523
Si Si6 0.118992 0.921403 0.059222
Si Si7 0.669568 0.423661 0.791009
O O1 0.549078 0.287911 0.219053
O O2 0.384735 0.292880 0.474340
O O3 0.322587 0.416357 0.258698
O O4 0.246340 0.084571 0.197777
O O5 0.859512 0.452643 0.209572
O O6 0.800098 0.710972 0.284476
O O7 0.017579 0.755463 0.105198
O O8 0.756848 0.500403 0.971369
O O9 0.276967 0.783148 0.628719
O O10 0.228331 0.860196 0.925049
O O11 0.262794 0.712196 0.329479
O O12 0.500000 0.000000 0.500000
O O13 0.243919 0.019378 0.540923
O O14 0.481218 0.304280 0.751941
O O15 0.000000 0.000000 0.000000
#
# Coordination Sequence:
#
# PCOD9074079 Si02
#       7
#     2   2   2   2   2   2   2
#     4  12  24  45  79 104 143 191 250 301 353 429
#     4  12  26  45  74 106 154 193 237 295 372 436
#     4  12  25  46  76 108 140 192 250 301 350 431
#     4  10  22  41  70 109 147 175 242 309 358 412
#     4  11  23  43  74 110 142 187 249 302 357 423
#     4  12  28  49  69 109 154 195 235 296 375 434
#     4  11  22  42  72 110 142 188 240 305 355 424
#
# _framework density 21.941863999999999
#
# number of rings (size 3 to 8) (size 9 to 14) (size 15 to 20)
#    0.000    0.571    5.714    3.429    2.000    1.714 
#    0.000    0.714    0.000    0.000    0.000    0.000 
#    0.000    0.000    0.000    0.000    0.000    0.000 
#
# Total GULP energy -78106.601631 kJ/mol
# GULP energy per Si atom -5579.042974 kJ/mol
# Density = 2.189192 g / cm^3
# Si number density = 21.941864 Si / 1000 Ang^3
#
#
#
# Elastic Constant Matrix: (Units=GPa)
#
#
# Indices 1 2 3 4 5 6 
#
# 1 55.2211 25.0638 39.2039 7.9888 -25.3047 3.4189
# 2 25.0638 173.0835 51.7304 -4.0841 -10.6031 -4.7413
# 3 39.2039 51.7304 123.8652 9.4646 -31.5527 -7.3159
# 4 7.9888 -4.0841 9.4646 54.8033 -5.3322 -10.5284
# 5 -25.3047 -10.6031 -31.5527 -5.3322 39.2098 4.8644
# 6 3.4189 -4.7413 -7.3159 -10.5284 4.8644 51.1204
#
#
#
# Elastic Compliance Matrix: (Units=1/GPa)
#
#
# Indices 1 2 3 4 5 6 
#
# 1 0.030326 -0.002227 -0.004829 -0.003236 0.015269 -0.005045
# 2 -0.002227 0.006834 -0.002611 0.001287 -0.001618 0.000828
# 3 -0.004829 -0.002611 0.012307 -0.000835 0.005829 0.001116
# 4 -0.003236 0.001287 -0.000835 0.019762 -0.000260 0.004311
# 5 0.015269 -0.001618 0.005829 -0.000260 0.040097 -0.004206
# 6 -0.005045 0.000828 0.001116 0.004311 -0.004206 0.021424
#
#
# Mechanical properties :
#
#
# Convention : Reuss Voigt Hill
#
# Bulk Modulus (GPa) = 33.18758 64.90732 49.04745
# Shear Modulus (GPa) = 31.22502 44.77149 37.99825
#
# Velocity S-wave (km/s) = 3.77647 4.52205 4.16597
# Velocity P-wave (km/s) = 5.84582 7.54393 6.74850
#
# Compressibility (1/GPa) = 0.03013175
#
# Stress axis : x y z
#
# Youngs Moduli (GPa) = 32.97525 146.32016 81.25711
#
# Poissons Ratio (x) = 0.32589 0.39242
# Poissons Ratio (y) = 0.07344 0.21215
# Poissons Ratio (z) = 0.15925 0.38202
#
# Static dielectric constant tensor:
#      x y z
#    x 1.889680 -0.051390 0.014260 
#    y -0.051390 1.820570 0.013160 
#    z 0.014260 0.013160 1.808350 
# 
# From -- ./inp_files/159776.got.cif
#   From: 2010.05.17/outbox.ucp.g08.bks.cvg/sg2_80_cif.got.tgz:159776.got - 2010.06.11 11:32:03.
