data_PCOD9074346
_publ_section_title
;
Structure prediction by ZEFSAII (Michael W. Deem and Ramdas Pophale) SiO2 
 PCOD9074346
Probable space group: P -1
;
_chemical_formula_sum "Si O2"
_cell_formula_units_Z 16
_cell_length_a 15.000000
_cell_length_b 12.000000
_cell_length_c 12.000000
_cell_angle_alpha 100.000000
_cell_angle_beta 30.000000
_cell_angle_gamma 120.000000
_cell_volume 748.962810
_symmetry_space_group_name_H-M "P -1"
_symmetry_group_IT_number 2
_symmetry_cell_setting 'triclinic'
loop_
_space_group_symop_operation_xyz
x,y,z
-x,-y,-z
loop_
_atom_site_type_symbol
_atom_site_label
_atom_site_fract_x
_atom_site_fract_y
_atom_site_fract_z
Si Si1 0.777916 0.133030 0.545243
Si Si2 0.681285 0.703591 0.045265
Si Si3 0.825869 0.207531 0.104630
Si Si4 0.242161 0.191290 0.275019
Si Si5 0.789150 0.322169 0.746104
Si Si6 0.706324 0.663955 0.527878
Si Si7 0.418828 0.766357 0.822907
Si Si8 0.455122 0.837426 0.395519
O O1 0.813240 0.212576 0.638828
O O2 0.633115 0.156488 0.627752
O O3 0.611574 0.945390 0.697420
O O4 0.035613 0.210647 0.219819
O O5 0.492228 0.521014 0.255464
O O6 0.580951 0.772303 0.225546
O O7 0.706988 0.731157 0.887907
O O8 0.680356 0.227064 0.182652
O O9 0.783019 0.249864 0.277723
O O10 0.671533 0.019526 0.239116
O O11 0.092384 0.294347 0.772381
O O12 0.187110 0.246613 0.451161
O O13 0.508554 0.247194 0.017759
O O14 0.000000 0.000000 0.500000
O O15 0.000000 0.500000 0.500000
O O16 0.812021 0.336759 0.857305
O O17 0.558101 0.708848 0.651422
#
# Coordination Sequence:
#
# PCOD9074346 Si02
#       8
#     2   2   2   2   2   2   2   2
#     4  11  22  40  67  92 128 170 216 269 321 393
#     4  12  24  40  65  94 134 169 210 272 330 386
#     4  10  23  43  71  89 127 172 220 274 314 390
#     4  11  23  41  66  95 134 172 221 269 323 401
#     4  11  23  39  63  97 137 167 213 275 331 395
#     4  11  25  40  61  96 131 168 212 268 328 386
#     4  10  23  40  63  94 127 170 217 263 321 389
#     4  10  23  45  66  97 122 170 227 267 324 379
#
# _framework density 21.362876
#
# number of rings (size 3 to 8) (size 9 to 14) (size 15 to 20)
#    0.000    1.250    1.250    5.250    5.250    2.500 
#    0.000    5.000    0.000    0.000    0.000    0.000 
#    0.000    0.000    0.000    0.000    0.000    0.000 
#
# Total GULP energy -89397.389805 kJ/mol
# GULP energy per Si atom -5587.336863 kJ/mol
# Density = 2.131425 g / cm^3
# Si number density = 21.362876 Si / 1000 Ang^3
#
#
#
# Elastic Constant Matrix: (Units=GPa)
#
#
# Indices 1 2 3 4 5 6 
#
# 1 5.5662 -4.9189 -6.3262 -18.3216 -3.8522 1.1724
# 2 -4.9189 40.7777 13.4905 1.8293 -11.4032 -19.1777
# 3 -6.3262 13.4905 127.2812 2.2664 11.3871 -9.5631
# 4 -18.3216 1.8293 2.2664 36.8245 -9.0478 15.3900
# 5 -3.8522 -11.4032 11.3871 -9.0478 31.5001 11.4823
# 6 1.1724 -19.1777 -9.5631 15.3900 11.4823 17.1706
#
#
#
# Elastic Compliance Matrix: (Units=1/GPa)
#
#
# Indices 1 2 3 4 5 6 
#
# 1 0.042362 0.051661 0.010086 -0.043235 -0.037466 0.124231
# 2 0.051661 0.058997 -0.000308 0.001766 0.008199 0.055129
# 3 0.010086 -0.000308 0.009140 0.001169 -0.003893 0.005613
# 4 -0.043235 0.001766 0.001169 -0.008932 -0.016644 0.024712
# 5 -0.037466 0.008199 -0.003893 -0.016644 0.023591 0.008689
# 6 0.124231 0.055129 0.005613 0.024712 0.008689 0.086496
#
#
# Mechanical properties :
#
#
# Convention : Reuss Voigt Hill
#
# Bulk Modulus (GPa) = 4.28493 19.79066 12.03780
# Shear Modulus (GPa) = 30.01762 28.52435 29.27099
#
# Velocity S-wave (km/s) = 3.75257 3.65804 3.70561
# Velocity P-wave (km/s) = 4.55915 5.20825 4.89447
#
# Compressibility (1/GPa) = 0.23337611
#
# Stress axis : x y z
#
# Youngs Moduli (GPa) = 23.60606 16.94991 109.41250
#
# Poissons Ratio (x) = -0.87565 -1.10349
# Poissons Ratio (y) = -1.21952 0.03373
# Poissons Ratio (z) = -0.23808 0.00523
#
# Static dielectric constant tensor:
#      x y z
#    x 1.883000 -0.036550 0.036440 
#    y -0.036550 1.787210 -0.044300 
#    z 0.036440 -0.044300 1.793370 
# 
# From -- ./inp_files/278159.got.cif
#   From: 2010.05.17/outbox.ucp.g08.bks.cvg/sg2_140_cif.got.tgz:278159.got - 2010.06.11 11:32:03.
