data_PCOD9074388
_publ_section_title
;
Structure prediction by ZEFSAII (Michael W. Deem and Ramdas Pophale) SiO2 
 PCOD9074388
Probable space group: P -1
;
_chemical_formula_sum "Si O2"
_cell_formula_units_Z 15
_cell_length_a 9.000000
_cell_length_b 12.000000
_cell_length_c 18.000000
_cell_angle_alpha 40.000000
_cell_angle_beta 130.000000
_cell_angle_gamma 100.000000
_cell_volume 729.599496
_symmetry_space_group_name_H-M "P -1"
_symmetry_group_IT_number 2
_symmetry_cell_setting 'triclinic'
loop_
_space_group_symop_operation_xyz
x,y,z
-x,-y,-z
loop_
_atom_site_type_symbol
_atom_site_label
_atom_site_fract_x
_atom_site_fract_y
_atom_site_fract_z
Si Si1 0.115555 0.439049 0.734714
Si Si2 0.161106 0.684216 0.002410
Si Si3 0.209783 0.113497 0.353075
Si Si4 0.981442 0.554749 0.138856
Si Si5 0.000000 0.500000 0.500000
Si Si6 0.276701 0.743002 0.650230
Si Si7 0.698312 0.038647 0.139590
Si Si8 0.570367 0.254218 0.149445
O O1 0.992039 0.432671 0.771799
O O2 0.153376 0.624315 0.667577
O O3 0.973897 0.493572 0.585264
O O4 0.400699 0.197433 0.941799
O O5 0.182820 0.878265 0.915015
O O6 0.935917 0.768031 0.830703
O O7 0.423769 0.466166 0.162315
O O8 0.117457 0.616642 0.100480
O O9 0.086175 0.306428 0.276739
O O10 0.500000 0.000000 0.500000
O O11 0.193485 0.923719 0.467928
O O12 0.683558 0.712948 0.942391
O O13 0.850383 0.774976 0.317192
O O14 0.265408 0.848926 0.671011
O O15 0.687305 0.124598 0.175840
O O16 0.500000 0.500000 0.000000
#
# Coordination Sequence:
#
# PCOD9074388 Si02
#       8
#     2   2   2   2   1   2   2   2
#     4  10  24  41  65  90 117 162 206 265 298 359
#     4  11  21  40  57  89 129 167 194 244 310 375
#     4  12  22  31  55  93 133 171 190 235 303 379
#     4  11  21  37  58  90 129 163 203 242 307 368
#     4  12  24  46  64  92 118 158 220 254 310 352
#     4  11  21  37  61  92 129 159 203 249 307 370
#     4  10  23  41  69  88 120 163 203 261 305 362
#     4  11  18  38  62  95 128 158 201 248 307 366
#
# _framework density 20.559225000000001
#
# number of rings (size 3 to 8) (size 9 to 14) (size 15 to 20)
#    0.000    1.067    6.667    2.400    1.867    0.533 
#    0.000    0.667    0.000    6.400    0.000    0.000 
#    0.000    0.000    0.000    0.000    0.000    0.000 
#
# Total GULP energy -83552.473353 kJ/mol
# GULP energy per Si atom -5570.164890 kJ/mol
# Density = 2.051243 g / cm^3
# Si number density = 20.559225 Si / 1000 Ang^3
#
#
#
# Elastic Constant Matrix: (Units=GPa)
#
#
# Indices 1 2 3 4 5 6 
#
# 1 111.4619 26.6754 36.3913 0.9945 -21.7947 -14.2995
# 2 26.6754 57.0632 28.5401 -16.6165 -24.5226 -24.5452
# 3 36.3913 28.5401 82.3104 -14.7137 -13.4015 0.3857
# 4 0.9945 -16.6165 -14.7137 42.7965 7.1346 -17.2637
# 5 -21.7947 -24.5226 -13.4015 7.1346 27.9632 10.0669
# 6 -14.2995 -24.5452 0.3857 -17.2637 10.0669 23.3896
#
#
#
# Elastic Compliance Matrix: (Units=1/GPa)
#
#
# Indices 1 2 3 4 5 6 
#
# 1 0.012135 -0.002641 -0.004128 -0.004508 0.006881 -0.001573
# 2 -0.002641 -0.084135 0.016509 -0.099543 0.019387 -0.171996
# 3 -0.004128 0.016509 0.012270 0.024014 -0.000737 0.032640
# 4 -0.004508 -0.099543 0.024014 -0.069033 -0.005447 -0.156222
# 5 0.006881 0.019387 -0.000737 -0.005447 0.061258 -0.005822
# 6 -0.001573 -0.171996 0.032640 -0.156222 -0.005822 -0.252041
#
#
# Mechanical properties :
#
#
# Convention : Reuss Voigt Hill
#
# Bulk Modulus (GPa) = -24.84463 48.22768 11.69152
# Shear Modulus (GPa) = -14.18672 29.44510 7.62919
#
# Velocity S-wave (km/s) = -2.62971 3.78856 1.92844
# Velocity P-wave (km/s) = 4.61857 6.53042 3.26460
#
# Compressibility (1/GPa) = -0.04025014
#
# Stress axis : x y z
#
# Youngs Moduli (GPa) = 82.40503 -11.88565 81.50210
#
# Poissons Ratio (x) = -0.03139 0.33642
# Poissons Ratio (y) = 0.21762 -1.34550
# Poissons Ratio (z) = 0.34015 0.19622
#
# Static dielectric constant tensor:
#      x y z
#    x 1.748800 0.018590 0.034880 
#    y 0.018590 1.698490 0.047280 
#    z 0.034880 0.047280 1.850300 
# 
# From -- ./inp_files/268000.got.cif
#   From: 2010.05.17/outbox.ucp.g08.bks.cvg/sg2_134_cif.got.tgz:268000.got - 2010.06.11 11:32:03.
