data_PCOD9074842
_publ_section_title
;
Structure prediction by ZEFSAII (Michael W. Deem and Ramdas Pophale) SiO2 
 PCOD9074842
Probable space group: P -1
;
_chemical_formula_sum "Si O2"
_cell_formula_units_Z 11
_cell_length_a 8.260303
_cell_length_b 14.240712
_cell_length_c 13.454841
_cell_angle_alpha 21.935586
_cell_angle_beta 136.465329
_cell_angle_gamma 133.104595
_cell_volume 406.886400
_symmetry_space_group_name_H-M "P -1"
_symmetry_group_IT_number 2
_symmetry_cell_setting 'triclinic'
loop_
_space_group_symop_operation_xyz
x,y,z
-x,-y,-z
loop_
_atom_site_type_symbol
_atom_site_label
_atom_site_fract_x
_atom_site_fract_y
_atom_site_fract_z
Si Si1 0.500000 0.500000 0.500000
Si Si2 0.806825 0.964873 0.104058
Si Si3 0.843997 0.369445 0.473547
Si Si4 0.577921 0.749143 0.474449
Si Si5 0.229240 0.534285 0.873395
Si Si6 0.004602 0.045737 0.327030
O O1 0.660285 0.703188 0.307930
O O2 0.667735 0.557082 0.621515
O O3 0.860573 0.057987 0.146314
O O4 0.054169 0.908923 0.218858
O O5 0.632692 0.144471 0.794238
O O6 0.573606 0.359284 0.395868
O O7 0.879669 0.489471 0.263493
O O8 0.000000 0.500000 0.500000
O O9 0.790012 0.948019 0.399437
O O10 0.176306 0.813265 0.615173
O O11 0.500000 0.500000 0.000000
O O12 0.134531 0.317658 0.118813
#
# Coordination Sequence:
#
# PCOD9074842 Si02
#       6
#     1   2   2   2   2   2
#     4  10  18  32  52  84 130 166 202 244 320 380
#     4  10  21  33  60  90 138 167 208 255 333 377
#     4  11  22  39  64  98 131 164 218 269 324 373
#     4  11  22  34  59  96 132 169 210 268 324 380
#     4  11  25  47  67  91 127 176 219 264 324 394
#     4  10  23  39  68  90 125 174 220 258 323 390
#
# _framework density 27.034571
#
# number of rings (size 3 to 8) (size 9 to 14) (size 15 to 20)
#    0.000    1.455    1.818    4.364   12.727    1.455 
#    0.000    1.818    0.000    0.000    0.000    0.000 
#    0.000    0.000    0.000    0.000    0.000    0.000 
#
# Total GULP energy -61339.267201 kJ/mol
# GULP energy per Si atom -5576.297018 kJ/mol
# Density = 2.697304 g / cm^3
# Si number density = 27.034571 Si / 1000 Ang^3
#
#
#
# Elastic Constant Matrix: (Units=GPa)
#
#
# Indices 1 2 3 4 5 6 
#
# 1 147.7976 16.8216 51.1414 -12.4734 -6.2517 4.9768
# 2 16.8216 59.0763 32.8389 -7.9618 19.0500 10.6108
# 3 51.1414 32.8389 129.6456 -18.8869 -1.6104 3.8303
# 4 -12.4734 -7.9618 -18.8869 36.3038 2.3342 -2.4403
# 5 -6.2517 19.0500 -1.6104 2.3342 53.1385 -2.0601
# 6 4.9768 10.6108 3.8303 -2.4403 -2.0601 51.5309
#
#
#
# Elastic Compliance Matrix: (Units=1/GPa)
#
#
# Indices 1 2 3 4 5 6 
#
# 1 0.007961 -0.000922 -0.002736 0.001018 0.001128 -0.000282
# 2 -0.000922 0.024409 -0.005431 0.002488 -0.009318 -0.004788
# 3 -0.002736 -0.005431 0.010655 0.003349 0.001833 0.000822
# 4 0.001018 0.002488 0.003349 0.030344 -0.001984 0.000498
# 5 0.001128 -0.009318 0.001833 -0.001984 0.022531 0.002480
# 6 -0.000282 -0.004788 0.000822 0.000498 0.002480 0.020481
#
#
# Mechanical properties :
#
#
# Convention : Reuss Voigt Hill
#
# Bulk Modulus (GPa) = 40.24681 59.79152 50.01916
# Shear Modulus (GPa) = 35.00409 43.90913 39.45661
#
# Velocity S-wave (km/s) = 3.60222 4.03449 3.82447
# Velocity P-wave (km/s) = 5.67634 6.62325 6.16800
#
# Compressibility (1/GPa) = 0.02484669
#
# Stress axis : x y z
#
# Youngs Moduli (GPa) = 125.61456 40.96876 93.85527
#
# Poissons Ratio (x) = 0.03777 0.25680
# Poissons Ratio (y) = 0.11580 0.50972
# Poissons Ratio (z) = 0.34370 0.22250
#
# Static dielectric constant tensor:
#      x y z
#    x 35.560650 -24.539650 23.544400 
#    y -24.539650 20.168900 -17.255420 
#    z 23.544400 -17.255420 18.753070 
# 
# From -- ./inp_files/393532.got.cif
#   From: 2010.05.17/outbox.cif.g08.bks.cpg/sg2_197_cif.got.tgz:393532.got - 2010.06.03 11:33:40.
