data_PCOD9074424
_publ_section_title
;
Structure prediction by ZEFSAII (Michael W. Deem and Ramdas Pophale) SiO2 
 PCOD9074424
Probable space group: P -1
;
_chemical_formula_sum "Si O2"
_cell_formula_units_Z 16
_cell_length_a 9.000000
_cell_length_b 6.000000
_cell_length_c 18.000000
_cell_angle_alpha 100.000000
_cell_angle_beta 130.000000
_cell_angle_gamma 90.000000
_cell_volume 725.212580
_symmetry_space_group_name_H-M "P -1"
_symmetry_group_IT_number 2
_symmetry_cell_setting 'triclinic'
loop_
_space_group_symop_operation_xyz
x,y,z
-x,-y,-z
loop_
_atom_site_type_symbol
_atom_site_label
_atom_site_fract_x
_atom_site_fract_y
_atom_site_fract_z
Si Si1 0.611521 0.268587 0.030057
Si Si2 0.144928 0.821393 0.765532
Si Si3 0.054510 0.639805 0.388512
Si Si4 0.975667 0.263931 0.032562
Si Si5 0.435283 0.765276 0.614640
Si Si6 0.334272 0.142901 0.721182
Si Si7 0.655385 0.460978 0.769381
Si Si8 0.802440 0.083547 0.698719
O O1 0.742460 0.316565 0.148774
O O2 0.770882 0.256540 0.013209
O O3 0.500000 0.500000 0.000000
O O4 0.500000 0.000000 0.000000
O O5 0.023921 0.628640 0.663534
O O6 0.290677 0.009758 0.777201
O O7 0.988456 0.954271 0.764154
O O8 0.232988 0.675655 0.504502
O O9 0.143183 0.766048 0.348942
O O10 0.867318 0.761237 0.357423
O O11 0.175159 0.332555 0.147044
O O12 0.000000 0.500000 0.000000
O O13 0.000000 0.000000 0.000000
O O14 0.518122 0.557059 0.669785
O O15 0.387697 0.953333 0.669939
O O16 0.605551 0.896160 0.623224
O O17 0.513329 0.351740 0.783844
O O18 0.763613 0.259363 0.760247
#
# Coordination Sequence:
#
# PCOD9074424 Si02
#       8
#     2   2   2   2   2   2   2   2
#     4  12  30  51  82 116 154 199 256 318 389 460
#     4  11  26  46  73 100 145 187 247 303 375 444
#     4  11  23  41  67 102 144 189 243 303 371 445
#     4  12  30  51  82 116 154 199 256 318 389 460
#     4  11  23  41  67 102 144 189 243 303 371 445
#     4  10  25  42  70 100 142 192 242 300 373 442
#     4  11  26  46  73 100 145 187 247 303 375 444
#     4  10  23  42  70 100 140 190 244 298 375 442
#
# _framework density 22.062495999999999
#
# number of rings (size 3 to 8) (size 9 to 14) (size 15 to 20)
#    0.000    1.000    0.000    4.500   12.250   10.000 
#    0.000    0.000    0.000    0.000    0.000    0.000 
#    0.000    0.000    0.000    0.000    0.000    0.000 
#
# Total GULP energy -89394.861641 kJ/mol
# GULP energy per Si atom -5587.178853 kJ/mol
# Density = 2.201228 g / cm^3
# Si number density = 22.062496 Si / 1000 Ang^3
#
#
#
# Elastic Constant Matrix: (Units=GPa)
#
#
# Indices 1 2 3 4 5 6 
#
# 1 179.2728 67.7470 29.8180 -4.4534 21.1569 3.9960
# 2 67.7470 153.5168 34.7116 -3.6106 10.1359 -3.5703
# 3 29.8180 34.7116 89.6719 -7.0295 19.1548 -6.4927
# 4 -4.4534 -3.6106 -7.0295 40.4658 0.2377 6.3901
# 5 21.1569 10.1359 19.1548 0.2377 20.7498 -1.6972
# 6 3.9960 -3.5703 -6.4927 6.3901 -1.6972 48.8359
#
#
#
# Elastic Compliance Matrix: (Units=1/GPa)
#
#
# Indices 1 2 3 4 5 6 
#
# 1 0.007455 -0.002874 -0.000054 0.000772 -0.006251 -0.001146
# 2 -0.002874 0.008272 -0.002474 -0.000105 0.001221 0.000567
# 3 -0.000054 -0.002474 0.015076 0.002294 -0.012590 0.001090
# 4 0.000772 -0.000105 0.002294 0.025720 -0.003414 -0.003250
# 5 -0.006251 0.001221 -0.012590 -0.003414 0.065767 0.001659
# 6 -0.001146 0.000567 0.001090 -0.003250 0.001659 0.021240
#
#
# Mechanical properties :
#
#
# Convention : Reuss Voigt Hill
#
# Bulk Modulus (GPa) = 50.00283 76.33496 63.16890
# Shear Modulus (GPa) = 31.05597 41.35598 36.20597
#
# Velocity S-wave (km/s) = 3.75592 4.33424 4.05540
# Velocity P-wave (km/s) = 6.44380 7.72800 7.11494
#
# Compressibility (1/GPa) = 0.01999887
#
# Stress axis : x y z
#
# Youngs Moduli (GPa) = 134.13062 120.89463 66.33201
#
# Poissons Ratio (x) = 0.34741 0.00357
# Poissons Ratio (y) = 0.38545 0.16413
# Poissons Ratio (z) = 0.00723 0.29914
#
# Static dielectric constant tensor:
#      x y z
#    x 1.815840 0.020420 -0.025610 
#    y 0.020420 1.808410 -0.010820 
#    z -0.025610 -0.010820 1.868250 
# 
# From -- ./inp_files/553675.got.cif
#   From: 2010.05.17/outbox.ucp.g08.bks.cvg/sg2_277_cif.got.tgz:553675.got - 2010.06.11 11:32:03.
