data_PCOD9074478
_publ_section_title
;
Structure prediction by ZEFSAII (Michael W. Deem and Ramdas Pophale) SiO2 
 PCOD9074478
Probable space group: P -1
;
_chemical_formula_sum "Si O2"
_cell_formula_units_Z 16
_cell_length_a 6.000000
_cell_length_b 18.000000
_cell_length_c 21.000000
_cell_angle_alpha 20.000000
_cell_angle_beta 110.000000
_cell_angle_gamma 110.000000
_cell_volume 727.418465
_symmetry_space_group_name_H-M "P -1"
_symmetry_group_IT_number 2
_symmetry_cell_setting 'triclinic'
loop_
_space_group_symop_operation_xyz
x,y,z
-x,-y,-z
loop_
_atom_site_type_symbol
_atom_site_label
_atom_site_fract_x
_atom_site_fract_y
_atom_site_fract_z
Si Si1 0.373697 0.167547 0.128243
Si Si2 0.125088 0.231746 0.302390
Si Si3 0.178985 0.194816 0.834330
Si Si4 0.036664 0.741208 0.882143
Si Si5 0.656284 0.297261 0.870865
Si Si6 0.552095 0.397796 0.291222
Si Si7 0.026348 0.566392 0.607683
Si Si8 0.943571 0.920771 0.229080
O O1 0.671355 0.163548 0.169038
O O2 0.177953 0.172340 0.163519
O O3 0.357459 0.401114 0.905634
O O4 0.227107 0.994091 0.206055
O O5 0.384704 0.242485 0.354787
O O6 0.074527 0.231709 0.221397
O O7 0.048678 0.480918 0.110000
O O8 0.000000 0.000000 0.500000
O O9 0.440569 0.182498 0.901273
O O10 0.125752 0.431189 0.667186
O O11 0.137562 0.172972 0.772286
O O12 0.000000 0.000000 0.000000
O O13 0.587222 0.489431 0.755762
O O14 0.857592 0.392062 0.767405
O O15 0.786658 0.122304 0.064881
O O16 0.779485 0.326638 0.410243
O O17 0.880302 0.748410 0.415980
#
# Coordination Sequence:
#
# PCOD9074478 Si02
#       8
#     2   2   2   2   2   2   2   2
#     4  11  23  47  73  97 145 185 231 283 356 412
#     4  10  23  43  73 101 137 182 230 286 350 411
#     4  11  23  45  67  94 138 180 225 289 348 409
#     4  10  25  47  68 105 140 183 231 291 343 424
#     4  11  23  47  65  96 138 180 227 284 349 411
#     4  10  23  45  69  94 141 180 224 286 347 418
#     4  11  25  42  65 101 134 177 231 285 343 414
#     4  12  23  41  71 100 131 182 231 284 343 412
#
# _framework density 21.995591999999998
#
# number of rings (size 3 to 8) (size 9 to 14) (size 15 to 20)
#    0.000    1.250    2.500    3.000    1.750    6.000 
#   11.250    3.125    0.000    0.000    0.000    0.000 
#    0.000    0.000    0.000    0.000    0.000    0.000 
#
# Total GULP energy -89104.714526 kJ/mol
# GULP energy per Si atom -5569.044658 kJ/mol
# Density = 2.194553 g / cm^3
# Si number density = 21.995592 Si / 1000 Ang^3
#
#
#
# Elastic Constant Matrix: (Units=GPa)
#
#
# Indices 1 2 3 4 5 6 
#
# 1 70.7675 44.7040 -19.6858 -2.0843 18.3257 11.3582
# 2 44.7040 154.2672 3.0268 10.2475 -5.2224 33.4142
# 3 -19.6858 3.0268 62.7842 5.9515 19.8002 5.2833
# 4 -2.0843 10.2475 5.9515 35.1356 15.0673 -5.4571
# 5 18.3257 -5.2224 19.8002 15.0673 -6.5335 -0.3314
# 6 11.3582 33.4142 5.2833 -5.4571 -0.3314 44.8150
#
#
#
# Elastic Compliance Matrix: (Units=1/GPa)
#
#
# Indices 1 2 3 4 5 6 
#
# 1 0.010988 -0.001808 -0.000843 -0.005913 0.016169 -0.001938
# 2 -0.001808 0.008048 0.001840 -0.000637 -0.007098 -0.005889
# 3 -0.000843 0.001840 0.012502 -0.009025 0.013424 -0.003631
# 4 -0.005913 -0.000637 -0.009025 0.024908 0.013701 0.006172
# 5 0.016169 -0.007098 0.013424 0.013701 -0.029805 0.001059
# 6 -0.001938 -0.005889 -0.003631 0.006172 0.001059 0.028384
#
#
# Mechanical properties :
#
#
# Convention : Reuss Voigt Hill
#
# Bulk Modulus (GPa) = 33.42853 38.21211 35.82032
# Shear Modulus (GPa) = 75.05512 32.00170 53.52841
#
# Velocity S-wave (km/s) = 5.84781 3.81847 4.93850
# Velocity P-wave (km/s) = 7.79915 6.07053 6.98849
#
# Compressibility (1/GPa) = 0.02991456
#
# Stress axis : x y z
#
# Youngs Moduli (GPa) = 91.01104 124.26137 79.98681
#
# Poissons Ratio (x) = 0.22460 0.06746
# Poissons Ratio (y) = 0.16450 -0.14714
# Poissons Ratio (z) = 0.07676 -0.22859
#
# Static dielectric constant tensor:
#      x y z
#    x 1.869560 -0.016520 0.033630 
#    y -0.016520 1.830320 -0.006100 
#    z 0.033630 -0.006100 1.821500 
# 
# From -- ./inp_files/584041.got.cif
#   From: 2010.05.17/outbox.ucp.g08.bks.cvg/sg2_293_cif.got.tgz:584041.got - 2010.06.11 11:32:03.
