data_PCOD9074592
_publ_section_title
;
Structure prediction by ZEFSAII (Michael W. Deem and Ramdas Pophale) SiO2 
 PCOD9074592
Probable space group: P -1
;
_chemical_formula_sum "Si O2"
_cell_formula_units_Z 14
_cell_length_a 6.508328
_cell_length_b 9.479493
_cell_length_c 9.794327
_cell_angle_alpha 87.970773
_cell_angle_beta 101.258770
_cell_angle_gamma 109.475943
_cell_volume 558.440608
_symmetry_space_group_name_H-M "P -1"
_symmetry_group_IT_number 2
_symmetry_cell_setting 'triclinic'
loop_
_space_group_symop_operation_xyz
x,y,z
-x,-y,-z
loop_
_atom_site_type_symbol
_atom_site_label
_atom_site_fract_x
_atom_site_fract_y
_atom_site_fract_z
Si Si1 0.498611 0.274639 0.432675
Si Si2 0.548268 0.730398 0.139782
Si Si3 0.359936 0.146929 0.123199
Si Si4 0.794299 0.159875 0.012240
Si Si5 0.823910 0.145903 0.554961
Si Si6 0.251537 0.404621 0.611394
Si Si7 0.908595 0.043257 0.277334
O O1 0.416913 0.213299 0.276260
O O2 0.584634 0.163632 0.539047
O O3 0.324248 0.325997 0.494092
O O4 0.706320 0.425593 0.426685
O O5 0.584425 0.605570 0.244744
O O6 0.707116 0.890831 0.216097
O O7 0.656792 0.738202 0.002430
O O8 0.291030 0.725230 0.091791
O O9 0.591205 0.127271 0.095596
O O10 0.207948 0.974479 0.083820
O O11 0.976837 0.154934 0.150212
O O12 0.845342 0.122565 0.396462
O O13 0.007434 0.299957 0.621697
O O14 0.898674 0.018233 0.639844
#
# Coordination Sequence:
#
# PCOD9074592 Si02
#       7
#     2   2   2   2   2   2   2
#     4  11  20  36  49  74 101 140 165 213 238 288
#     4   8  14  30  49  77  97 128 163 209 238 303
#     4   8  14  27  55  70  97 130 164 195 262 286
#     4   8  12  27  51  77  95 125 163 208 245 308
#     4  10  18  32  52  73 104 134 162 201 255 302
#     4  10  23  32  50  74 105 130 180 200 240 288
#     4   9  14  27  52  76  97 127 158 203 255 299
#
# _framework density 25.069811999999999
#
# number of rings (size 3 to 8) (size 9 to 14) (size 15 to 20)
#    0.857    2.000    2.857    0.429    0.000    0.571 
#    0.000   11.429    0.000   14.571    0.000   28.000 
#    0.000    0.000    0.000    0.000    0.000    0.000 
#
# Total GULP energy -78036.602441 kJ/mol
# GULP energy per Si atom -5574.043031 kJ/mol
# Density = 2.501275 g / cm^3
# Si number density = 25.069812 Si / 1000 Ang^3
#
#
#
# Elastic Constant Matrix: (Units=GPa)
#
#
# Indices 1 2 3 4 5 6 
#
# 1 26.6617 18.6065 32.5811 6.4777 5.0953 -4.1276
# 2 18.6065 58.0419 16.0821 -14.8278 6.4761 -8.5463
# 3 32.5811 16.0821 156.6438 -9.1179 1.4150 -24.2755
# 4 6.4777 -14.8278 -9.1179 37.7181 -7.8210 9.9077
# 5 5.0953 6.4761 1.4150 -7.8210 45.7307 -13.0698
# 6 -4.1276 -8.5463 -24.2755 9.9077 -13.0698 25.9790
#
#
#
# Elastic Compliance Matrix: (Units=1/GPa)
#
#
# Indices 1 2 3 4 5 6 
#
# 1 0.093934 -0.033265 -0.019158 -0.034646 -0.013186 -0.007341
# 2 -0.033265 0.031504 0.005507 0.018917 0.003703 0.004873
# 3 -0.019158 0.005507 0.011625 0.006781 0.004868 0.009494
# 4 -0.034646 0.018917 0.006781 0.044666 0.006725 -0.006596
# 5 -0.013186 0.003703 0.004868 0.006725 0.028180 0.015284
# 6 -0.007341 0.004873 0.009494 -0.006596 0.015284 0.058006
#
#
# Mechanical properties :
#
#
# Convention : Reuss Voigt Hill
#
# Bulk Modulus (GPa) = 23.13082 41.76519 32.44801
# Shear Modulus (GPa) = 13.29240 33.49073 23.39156
#
# Velocity S-wave (km/s) = 2.30514 3.65896 3.05791
# Velocity P-wave (km/s) = 4.04122 5.87762 5.04370
#
# Compressibility (1/GPa) = 0.04323236
#
# Stress axis : x y z
#
# Youngs Moduli (GPa) = 10.64579 31.74226 86.02001
#
# Poissons Ratio (x) = 1.05590 1.64795
# Poissons Ratio (y) = 0.35413 -0.47375
# Poissons Ratio (z) = 0.20395 -0.17482
#
# Static dielectric constant tensor:
#      x y z
#    x 2.197780 -0.007730 0.101380 
#    y -0.007730 1.959720 -0.104090 
#    z 0.101380 -0.104090 2.090840 
# 
# From -- ./inp_files/376498.got.cif
#   From: 2010.05.17/outbox.cif.g08.bks.cpg/sg2_189_cif.got.tgz:376498.got - 2010.06.03 11:33:40.
