data_PCOD9074367
_publ_section_title
;
Structure prediction by ZEFSAII (Michael W. Deem and Ramdas Pophale) SiO2 
 PCOD9074367
Probable space group: P -1
;
_chemical_formula_sum "Si O2"
_cell_formula_units_Z 16
_cell_length_a 30.000000
_cell_length_b 12.000000
_cell_length_c 18.000000
_cell_angle_alpha 150.000000
_cell_angle_beta 20.000000
_cell_angle_gamma 160.000000
_cell_volume 749.971719
_symmetry_space_group_name_H-M "P -1"
_symmetry_group_IT_number 2
_symmetry_cell_setting 'triclinic'
loop_
_space_group_symop_operation_xyz
x,y,z
-x,-y,-z
loop_
_atom_site_type_symbol
_atom_site_label
_atom_site_fract_x
_atom_site_fract_y
_atom_site_fract_z
Si Si1 0.402221 0.725113 0.388350
Si Si2 0.132738 0.765991 0.880284
Si Si3 0.252023 0.202386 0.446647
Si Si4 0.073139 0.639451 0.284139
Si Si5 0.184343 0.815066 0.054177
Si Si6 0.237138 0.399823 0.296127
Si Si7 0.954080 0.671485 0.712398
Si Si8 0.345052 0.477733 0.001846
O O1 0.316304 0.857976 0.616865
O O2 0.324378 0.494285 0.449363
O O3 0.334968 0.544291 0.308180
O O4 0.630875 0.001117 0.180160
O O5 0.987381 0.559598 0.919740
O O6 0.000000 0.500000 0.000000
O O7 0.212285 0.094298 0.977075
O O8 0.143105 0.914003 0.390609
O O9 0.441884 0.310652 0.234660
O O10 0.113064 0.044007 0.644534
O O11 0.216691 0.801982 0.083126
O O12 0.044345 0.385855 0.235302
O O13 0.890328 0.536739 0.475242
O O14 0.142084 0.029687 0.234966
O O15 0.344068 0.531451 0.123302
O O16 0.750710 0.477653 0.881809
O O17 0.000000 0.500000 0.500000
#
# Coordination Sequence:
#
# PCOD9074367 Si02
#       8
#     2   2   2   2   2   2   2   2
#     4  12  24  39  67  99 127 165 206 257 325 380
#     4  12  25  40  61  95 137 166 201 255 322 385
#     4  11  21  38  64  92 130 159 208 258 313 369
#     4  11  22  40  67  93 125 167 209 267 311 361
#     4  12  23  41  65  96 130 165 206 261 318 377
#     4  12  20  41  66  97 130 155 212 261 317 371
#     4  10  23  41  61  92 123 168 214 257 312 360
#     4  12  24  41  63  95 128 166 209 260 312 375
#
# _framework density 21.334137999999999
#
# number of rings (size 3 to 8) (size 9 to 14) (size 15 to 20)
#    0.000    0.500    7.500    3.000    0.000    5.000 
#    2.250    0.625    0.000    1.500    0.000    0.000 
#    0.000    0.000    0.000    0.000    0.000    0.000 
#
# Total GULP energy -89202.225575 kJ/mol
# GULP energy per Si atom -5575.139098 kJ/mol
# Density = 2.128558 g / cm^3
# Si number density = 21.334138 Si / 1000 Ang^3
#
#
#
# Elastic Constant Matrix: (Units=GPa)
#
#
# Indices 1 2 3 4 5 6 
#
# 1 133.5278 18.5518 29.6963 -9.1802 -3.1473 -24.4642
# 2 18.5518 24.7752 11.5463 -0.8406 0.4880 -6.4187
# 3 29.6963 11.5463 74.2538 -3.4381 -11.2500 -6.9932
# 4 -9.1802 -0.8406 -3.4381 27.0160 3.7692 11.7542
# 5 -3.1473 0.4880 -11.2500 3.7692 40.0198 -7.3650
# 6 -24.4642 -6.4187 -6.9932 11.7542 -7.3650 33.9542
#
#
#
# Elastic Compliance Matrix: (Units=1/GPa)
#
#
# Indices 1 2 3 4 5 6 
#
# 1 0.009802 -0.004694 -0.002446 0.000145 0.001210 0.005883
# 2 -0.004694 0.047665 -0.005356 -0.002919 -0.001211 0.005273
# 3 -0.002446 -0.005356 0.016143 -0.000348 0.004757 0.001702
# 4 0.000145 -0.002919 -0.000348 0.045862 -0.007695 -0.018065
# 5 0.001210 -0.001211 0.004757 -0.007695 0.029110 0.010600
# 6 0.005883 0.005273 0.001702 -0.018065 0.010600 0.043591
#
#
# Mechanical properties :
#
#
# Convention : Reuss Voigt Hill
#
# Bulk Modulus (GPa) = 20.56894 39.12727 29.84810
# Shear Modulus (GPa) = 21.42493 31.71547 26.57020
#
# Velocity S-wave (km/s) = 3.17244 3.85984 3.53290
# Velocity P-wave (km/s) = 4.80431 6.18421 5.53741
#
# Compressibility (1/GPa) = 0.04861700
#
# Stress axis : x y z
#
# Youngs Moduli (GPa) = 102.02402 20.97957 61.94494
#
# Poissons Ratio (x) = 0.09848 0.15152
# Poissons Ratio (y) = 0.47893 0.33180
# Poissons Ratio (z) = 0.24955 0.11238
#
# Static dielectric constant tensor:
#      x y z
#    x 1.891230 -0.008910 -0.077860 
#    y -0.008910 1.848230 -0.031700 
#    z -0.077860 -0.031700 1.855870 
# 
# From -- ./inp_files/580120.got.cif
#   From: 2010.05.17/outbox.ucp.g08.bks.cvg/sg2_291_cif.got.tgz:580120.got - 2010.06.11 11:32:03.
