data_PCOD9074479
_publ_section_title
;
Structure prediction by ZEFSAII (Michael W. Deem and Ramdas Pophale) SiO2 
 PCOD9074479
Probable space group: P -1
;
_chemical_formula_sum "Si O2"
_cell_formula_units_Z 14
_cell_length_a 12.000000
_cell_length_b 9.000000
_cell_length_c 9.000000
_cell_angle_alpha 90.000000
_cell_angle_beta 90.000000
_cell_angle_gamma 40.000000
_cell_volume 624.789557
_symmetry_space_group_name_H-M "P -1"
_symmetry_group_IT_number 2
_symmetry_cell_setting 'triclinic'
loop_
_space_group_symop_operation_xyz
x,y,z
-x,-y,-z
loop_
_atom_site_type_symbol
_atom_site_label
_atom_site_fract_x
_atom_site_fract_y
_atom_site_fract_z
Si Si1 0.744869 0.981864 0.326842
Si Si2 0.054479 0.230862 0.133157
Si Si3 0.450121 0.379703 0.541260
Si Si4 0.962423 0.213592 0.465610
Si Si5 0.267820 0.230918 0.949776
Si Si6 0.240293 0.822435 0.936146
Si Si7 0.552160 0.663165 0.107996
O O1 0.580819 0.152802 0.437104
O O2 0.755053 0.123850 0.232014
O O3 0.723944 0.879892 0.198683
O O4 0.922328 0.804041 0.421701
O O5 0.026009 0.199376 0.300490
O O6 0.894913 0.494884 0.084603
O O7 0.213845 0.182951 0.091092
O O8 0.086198 0.056497 0.026547
O O9 0.500000 0.500000 0.500000
O O10 0.245470 0.557228 0.515918
O O11 0.480996 0.313738 0.715534
O O12 0.000000 0.000000 0.500000
O O13 0.417532 0.203091 0.953064
O O14 0.279410 0.609549 0.928016
O O15 0.402233 0.732131 0.020682
#
# Coordination Sequence:
#
# PCOD9074479 Si02
#       7
#     2   2   2   2   2   2   2
#     4  11  25  46  68 105 143 178 237 279 355 421
#     4  10  23  46  65 101 138 177 232 281 346 414
#     4  12  23  45  71 104 142 178 232 293 345 413
#     4  12  24  44  76 104 138 185 228 298 346 405
#     4  10  24  48  66  99 143 183 227 291 343 425
#     4  10  23  43  73 103 132 185 239 289 337 416
#     4  11  22  44  70 102 137 180 239 285 351 402
#
# _framework density 22.407544999999999
#
# number of rings (size 3 to 8) (size 9 to 14) (size 15 to 20)
#    0.000    1.143    4.286    0.857    0.000    4.000 
#   15.429    0.000    0.000    0.000    0.000    0.000 
#    0.000    0.000    0.000    0.000    0.000    0.000 
#
# Total GULP energy -78227.232475 kJ/mol
# GULP energy per Si atom -5587.659462 kJ/mol
# Density = 2.235654 g / cm^3
# Si number density = 22.407545 Si / 1000 Ang^3
#
#
#
# Elastic Constant Matrix: (Units=GPa)
#
#
# Indices 1 2 3 4 5 6 
#
# 1 141.7078 49.2012 58.0532 14.2810 -15.0819 2.3862
# 2 49.2012 105.2971 49.5635 13.1381 -18.4636 1.9756
# 3 58.0532 49.5635 134.8180 -0.8130 -14.0529 -10.5070
# 4 14.2810 13.1381 -0.8130 35.2234 3.0256 -8.4586
# 5 -15.0819 -18.4636 -14.0529 3.0256 37.1867 -4.2473
# 6 2.3862 1.9756 -10.5070 -8.4586 -4.2473 61.7481
#
#
#
# Elastic Compliance Matrix: (Units=1/GPa)
#
#
# Indices 1 2 3 4 5 6 
#
# 1 0.009765 -0.002205 -0.003330 -0.003666 0.001762 -0.001254
# 2 -0.002205 0.013796 -0.003760 -0.005077 0.004792 -0.001362
# 3 -0.003330 -0.003760 0.010536 0.003549 0.000770 0.002581
# 4 -0.003666 -0.005077 0.003549 0.033506 -0.004802 0.005168
# 5 0.001762 0.004792 0.000770 -0.004802 0.030824 0.001372
# 6 -0.001254 -0.001362 0.002581 0.005168 0.001372 0.017528
#
#
# Mechanical properties :
#
#
# Convention : Reuss Voigt Hill
#
# Bulk Modulus (GPa) = 64.48535 77.27319 70.87927
# Shear Modulus (GPa) = 35.78707 41.83198 38.80952
#
# Velocity S-wave (km/s) = 4.00071 4.32542 4.16623
# Velocity P-wave (km/s) = 7.08391 7.71400 7.40566
#
# Compressibility (1/GPa) = 0.01550740
#
# Stress axis : x y z
#
# Youngs Moduli (GPa) = 102.40817 72.48242 94.90849
#
# Poissons Ratio (x) = 0.15984 0.31607
# Poissons Ratio (y) = 0.22584 0.35682
# Poissons Ratio (z) = 0.34105 0.27251
#
# Static dielectric constant tensor:
#      x y z
#    x 1.883540 -0.068510 0.008580 
#    y -0.068510 1.938910 -0.010760 
#    z 0.008580 -0.010760 1.780890 
# 
# From -- ./inp_files/243997.got.cif
#   From: 2010.05.17/outbox.ucp.g08.bks.cvg/sg2_122_cif.got.tgz:243997.got - 2010.06.11 11:32:03.
