data_PCOD9074132
_publ_section_title
;
Structure prediction by ZEFSAII (Michael W. Deem and Ramdas Pophale) SiO2 
 PCOD9074132
Probable space group: P -1
;
_chemical_formula_sum "Si O2"
_cell_formula_units_Z 16
_cell_length_a 9.000000
_cell_length_b 30.000000
_cell_length_c 6.000000
_cell_angle_alpha 130.000000
_cell_angle_beta 50.000000
_cell_angle_gamma 140.000000
_cell_volume 759.581896
_symmetry_space_group_name_H-M "P -1"
_symmetry_group_IT_number 2
_symmetry_cell_setting 'triclinic'
loop_
_space_group_symop_operation_xyz
x,y,z
-x,-y,-z
loop_
_atom_site_type_symbol
_atom_site_label
_atom_site_fract_x
_atom_site_fract_y
_atom_site_fract_z
Si Si1 0.404459 0.619783 0.550361
Si Si2 0.339652 0.020779 0.829865
Si Si3 0.593510 0.167138 0.342444
Si Si4 0.114880 0.405605 0.450323
Si Si5 0.162170 0.467358 0.092116
Si Si6 0.824824 0.707902 0.789073
Si Si7 0.142228 0.063969 0.754103
Si Si8 0.554562 0.284789 0.556492
O O1 0.342729 0.554993 0.233707
O O2 0.642708 0.655285 0.591730
O O3 0.460387 0.690311 0.595060
O O4 0.131067 0.573829 0.773890
O O5 0.245673 0.044163 0.793256
O O6 0.500000 0.000000 0.500000
O O7 0.504782 0.091626 0.061451
O O8 0.098158 0.948918 0.948036
O O9 0.381784 0.135775 0.637825
O O10 0.561344 0.216673 0.366938
O O11 0.885628 0.222593 0.308596
O O12 0.178731 0.440210 0.244744
O O13 0.167172 0.346425 0.230269
O O14 0.821078 0.356643 0.601250
O O15 0.217147 0.451316 0.736119
O O16 0.668348 0.729925 0.131631
O O17 0.000000 0.000000 0.500000
#
# Coordination Sequence:
#
# PCOD9074132 Si02
#       8
#     2   2   2   2   2   2   2   2
#     4  10  23  39  68  92 127 181 231 288 347 420
#     4  10  22  42  71 104 133 166 224 278 331 405
#     4  10  24  43  65  95 138 182 216 276 346 404
#     4  10  23  42  65  95 134 178 234 306 354 420
#     4  10  22  42  69  95 134 178 239 304 367 404
#     4  11  24  40  63  94 131 179 232 276 346 424
#     4   9  21  42  67  96 132 169 212 269 332 399
#     4  10  23  43  59  90 135 176 228 276 346 422
#
# _framework density 21.064219999999999
#
# number of rings (size 3 to 8) (size 9 to 14) (size 15 to 20)
#    0.000    2.000    1.250    0.000    3.500   10.500 
#    4.500    0.000    0.000    0.000    0.000    0.000 
#    0.000    0.000    0.000    0.000    0.000    0.000 
#
# Total GULP energy -89082.685194 kJ/mol
# GULP energy per Si atom -5567.667825 kJ/mol
# Density = 2.101628 g / cm^3
# Si number density = 21.064220 Si / 1000 Ang^3
#
#
#
# Elastic Constant Matrix: (Units=GPa)
#
#
# Indices 1 2 3 4 5 6 
#
# 1 115.4220 38.3348 20.7478 -1.2249 0.8023 18.2817
# 2 38.3348 131.3784 26.8957 -18.3865 -7.0188 13.7796
# 3 20.7478 26.8957 94.0458 -8.4006 -12.8975 10.0494
# 4 -1.2249 -18.3865 -8.4006 37.0259 6.6657 -0.4437
# 5 0.8023 -7.0188 -12.8975 6.6657 39.8180 -3.2319
# 6 18.2817 13.7796 10.0494 -0.4437 -3.2319 41.6003
#
#
#
# Elastic Compliance Matrix: (Units=1/GPa)
#
#
# Indices 1 2 3 4 5 6 
#
# 1 0.010319 -0.002573 -0.001438 -0.001083 -0.001225 -0.003442
# 2 -0.002573 0.009445 -0.001542 0.004166 0.000394 -0.001550
# 3 -0.001438 -0.001542 0.012129 0.001319 0.003342 -0.001514
# 4 -0.001083 0.004166 0.001319 0.030035 -0.003943 -0.001208
# 5 -0.001225 0.000394 0.003342 -0.003943 0.027086 0.001663
# 6 -0.003442 -0.001550 -0.001514 -0.001208 0.001663 0.026546
#
#
# Mechanical properties :
#
#
# Convention : Reuss Voigt Hill
#
# Bulk Modulus (GPa) = 48.10325 56.97809 52.54067
# Shear Modulus (GPa) = 37.42681 40.68003 39.05342
#
# Velocity S-wave (km/s) = 4.21978 4.39935 4.31050
# Velocity P-wave (km/s) = 6.82848 7.27421 7.05487
#
# Compressibility (1/GPa) = 0.02078861
#
# Stress axis : x y z
#
# Youngs Moduli (GPa) = 96.90909 105.88153 82.44616
#
# Poissons Ratio (x) = 0.27240 0.11853
# Poissons Ratio (y) = 0.24931 0.12710
# Poissons Ratio (z) = 0.13933 0.16323
#
# Static dielectric constant tensor:
#      x y z
#    x 1.799300 -0.006930 -0.010050 
#    y -0.006930 1.751050 -0.013080 
#    z -0.010050 -0.013080 1.844920 
# 
# From -- ./inp_files/57013.got.cif
#   From: 2010.05.17/outbox.ucp.g08.bks.cvg/sg2_29_cif.got.tgz:57013.got - 2010.06.11 11:32:03.
