data_PCOD9074988
_publ_section_title
;
Structure prediction by ZEFSAII (Michael W. Deem and Ramdas Pophale) SiO2 
 PCOD9074988
Probable space group: P -1
;
_chemical_formula_sum "Si O2"
_cell_formula_units_Z 16
_cell_length_a 8.386075
_cell_length_b 14.614710
_cell_length_c 7.025021
_cell_angle_alpha 57.324881
_cell_angle_beta 57.603132
_cell_angle_gamma 85.386478
_cell_volume 584.924207
_symmetry_space_group_name_H-M "P -1"
_symmetry_group_IT_number 2
_symmetry_cell_setting 'triclinic'
loop_
_space_group_symop_operation_xyz
x,y,z
-x,-y,-z
loop_
_atom_site_type_symbol
_atom_site_label
_atom_site_fract_x
_atom_site_fract_y
_atom_site_fract_z
Si Si1 0.711997 0.574208 0.209578
Si Si2 0.908706 0.399012 0.450629
Si Si3 0.058956 0.763758 0.748248
Si Si4 0.732086 0.649750 0.679325
Si Si5 0.865760 0.886693 0.491457
Si Si6 0.479929 0.765906 0.494559
Si Si7 0.569893 0.211330 0.936765
Si Si8 0.684303 0.009618 0.232542
O O1 0.500000 0.500000 0.500000
O O2 0.852924 0.498850 0.267149
O O3 0.672501 0.599440 0.985227
O O4 0.852468 0.697422 0.055055
O O5 0.932679 0.318758 0.345209
O O6 0.728932 0.325911 0.777199
O O7 0.116332 0.418672 0.405882
O O8 0.267707 0.774281 0.698932
O O9 0.026884 0.878750 0.552657
O O10 0.859154 0.783381 0.466796
O O11 0.550424 0.665167 0.656039
O O12 0.868135 0.002165 0.253467
O O13 0.642470 0.837893 0.774853
O O14 0.466275 0.754229 0.291336
O O15 0.625769 0.891849 0.289668
O O16 0.682094 0.114695 0.985093
O O17 0.500000 0.000000 0.500000
#
# Coordination Sequence:
#
# PCOD9074988 Si02
#       8
#     2   2   2   2   2   2   2   2
#     4  10  18  33  57  80 102 138 178 213 253 315
#     4   9  17  32  53  76 102 139 179 211 252 313
#     4   9  18  33  53  77 106 139 171 215 265 307
#     4   9  18  34  53  74 103 140 173 211 259 313
#     4   8  16  33  53  74 101 137 178 211 253 311
#     4  10  20  35  52  78 110 136 169 221 268 305
#     4  10  18  32  53  79 105 135 175 223 261 300
#     4   9  18  34  55  76 103 142 179 213 258 312
#
# _framework density 27.35397
#
# number of rings (size 3 to 8) (size 9 to 14) (size 15 to 20)
#    0.000    3.000    0.000    3.375    0.000    0.000 
#    0.000   25.000    0.000    0.000    0.000    0.875 
#    0.000    0.000    0.000    0.000    0.000    0.000 
#
# Total GULP energy -89287.510411 kJ/mol
# GULP energy per Si atom -5580.469401 kJ/mol
# Density = 2.729171 g / cm^3
# Si number density = 27.353970 Si / 1000 Ang^3
#
#
#
# Elastic Constant Matrix: (Units=GPa)
#
#
# Indices 1 2 3 4 5 6 
#
# 1 147.8959 64.5164 69.4791 -26.5643 19.0362 -66.3790
# 2 64.5164 95.4483 29.3609 -33.6658 19.7725 -56.2905
# 3 69.4791 29.3609 136.9713 -4.3960 5.8541 -45.6711
# 4 -26.5643 -33.6658 -4.3960 43.5298 -25.0306 20.8168
# 5 19.0362 19.7725 5.8541 -25.0306 46.3080 -13.2169
# 6 -66.3790 -56.2905 -45.6711 20.8168 -13.2169 75.8839
#
#
#
# Elastic Compliance Matrix: (Units=1/GPa)
#
#
# Indices 1 2 3 4 5 6 
#
# 1 0.013187 -0.003361 -0.003833 0.001625 -0.000871 0.006138
# 2 -0.003361 0.023127 0.001095 0.010423 0.000454 0.012094
# 3 -0.003833 0.001095 0.010414 -0.002827 -0.000475 0.004420
# 4 0.001625 0.010423 -0.002827 0.042586 0.017942 -0.001106
# 5 -0.000871 0.000454 -0.000475 0.017942 0.031474 -0.000151
# 6 0.006138 0.012094 0.004420 -0.001106 -0.000151 0.030456
#
#
# Mechanical properties :
#
#
# Convention : Reuss Voigt Hill
#
# Bulk Modulus (GPa) = 28.96044 78.55870 53.75957
# Shear Modulus (GPa) = 28.57955 47.60826 38.09390
#
# Velocity S-wave (km/s) = 3.23585 4.17640 3.73584
# Velocity P-wave (km/s) = 4.95694 7.21374 6.18907
#
# Compressibility (1/GPa) = 0.03452987
#
# Stress axis : x y z
#
# Youngs Moduli (GPa) = 75.83180 43.24013 96.02850
#
# Poissons Ratio (x) = 0.14535 0.36805
# Poissons Ratio (y) = 0.25490 -0.10519
# Poissons Ratio (z) = 0.29064 -0.04736
#
# Static dielectric constant tensor:
#      x y z
#    x 2.382660 0.009260 -0.023660 
#    y 0.009260 2.205530 0.101350 
#    z -0.023660 0.101350 2.181670 
# 
# From -- ./inp_files/221648.got.cif
#   From: 2010.05.17/outbox.cif.g08.bks.cpg/sg2_111_cif.got.tgz:221648.got - 2010.06.03 11:33:40.
