data_PCOD9074546
_publ_section_title
;
Structure prediction by ZEFSAII (Michael W. Deem and Ramdas Pophale) SiO2 
 PCOD9074546
Probable space group: P -1
;
_chemical_formula_sum "Si O2"
_cell_formula_units_Z 16
_cell_length_a 12.000000
_cell_length_b 18.000000
_cell_length_c 9.000000
_cell_angle_alpha 140.000000
_cell_angle_beta 40.000000
_cell_angle_gamma 140.000000
_cell_volume 723.717541
_symmetry_space_group_name_H-M "P -1"
_symmetry_group_IT_number 2
_symmetry_cell_setting 'triclinic'
loop_
_space_group_symop_operation_xyz
x,y,z
-x,-y,-z
loop_
_atom_site_type_symbol
_atom_site_label
_atom_site_fract_x
_atom_site_fract_y
_atom_site_fract_z
Si Si1 0.626104 0.371806 0.790342
Si Si2 0.071500 0.821443 0.834212
Si Si3 0.041257 0.363859 0.055205
Si Si4 0.294460 0.579003 0.565566
Si Si5 0.750701 0.685918 0.770740
Si Si6 0.586415 0.951612 0.981370
Si Si7 0.313125 0.274695 0.451229
Si Si8 0.624961 0.144099 0.646080
O O1 0.633891 0.374083 0.606171
O O2 0.584906 0.242953 0.730651
O O3 0.820626 0.488134 0.824728
O O4 0.450668 0.396727 0.066392
O O5 0.163158 0.821699 0.578374
O O6 0.865390 0.802345 0.948364
O O7 0.015252 0.706357 0.834297
O O8 0.238756 0.934862 0.931846
O O9 0.157810 0.305511 0.747390
O O10 0.850950 0.356860 0.159495
O O11 0.175538 0.425521 0.472864
O O12 0.471848 0.623119 0.566570
O O13 0.724625 0.724766 0.688011
O O14 0.682443 0.856505 0.696048
O O15 0.426525 0.869495 0.146303
O O16 0.500000 0.000000 0.000000
O O17 0.500000 0.000000 0.500000
#
# Coordination Sequence:
#
# PCOD9074546 Si02
#       8
#     2   2   2   2   2   2   2   2
#     4  12  22  46  74 107 150 191 248 304 372 437
#     4  11  24  47  73 110 139 195 256 295 372 438
#     4  12  25  45  76 112 147 198 248 307 372 448
#     4  12  24  44  75 107 149 198 242 307 377 435
#     4  12  25  44  72 110 154 191 247 313 368 446
#     4  11  26  51  78 104 150 199 245 312 377 442
#     4  12  28  46  68 112 154 195 248 309 376 440
#     4  10  23  45  74 104 139 192 247 300 360 436
#
# _framework density 22.108073000000001
#
# number of rings (size 3 to 8) (size 9 to 14) (size 15 to 20)
#    0.000    0.500    5.000    3.375    1.750    3.500 
#    0.000    0.000    0.000    0.000    0.000    0.000 
#    0.000    0.000    0.000    0.000    0.000    0.000 
#
# Total GULP energy -89173.135869 kJ/mol
# GULP energy per Si atom -5573.320992 kJ/mol
# Density = 2.205775 g / cm^3
# Si number density = 22.108073 Si / 1000 Ang^3
#
#
#
# Elastic Constant Matrix: (Units=GPa)
#
#
# Indices 1 2 3 4 5 6 
#
# 1 154.9952 47.9885 34.3704 6.9070 13.3451 -4.8192
# 2 47.9885 134.2092 30.5859 3.9027 6.3854 -10.8613
# 3 34.3704 30.5859 85.4222 1.0011 -7.9979 -3.6622
# 4 6.9070 3.9027 1.0011 34.1137 -0.4777 1.3457
# 5 13.3451 6.3854 -7.9979 -0.4777 31.9361 1.1626
# 6 -4.8192 -10.8613 -3.6622 1.3457 1.1626 43.7274
#
#
#
# Elastic Compliance Matrix: (Units=1/GPa)
#
#
# Indices 1 2 3 4 5 6 
#
# 1 0.008099 -0.002001 -0.002862 -0.001391 -0.003733 0.000298
# 2 -0.002001 0.008980 -0.002478 -0.000646 -0.001657 0.001866
# 3 -0.002862 -0.002478 0.014236 0.000515 0.005261 0.000106
# 4 -0.001391 -0.000646 0.000515 0.029721 0.001328 -0.001221
# 5 -0.003733 -0.001657 0.005261 0.001328 0.034590 -0.001343
# 6 0.000298 0.001866 0.000106 -0.001221 -0.001343 0.023447
#
#
# Mechanical properties :
#
#
# Convention : Reuss Voigt Hill
#
# Bulk Modulus (GPa) = 60.12372 66.72403 63.42388
# Shear Modulus (GPa) = 35.89361 39.40090 37.64725
#
# Velocity S-wave (km/s) = 4.03370 4.22619 4.13107
# Velocity P-wave (km/s) = 6.99634 7.35259 7.17667
#
# Compressibility (1/GPa) = 0.01663237
#
# Stress axis : x y z
#
# Youngs Moduli (GPa) = 123.47463 111.35839 70.24216
#
# Poissons Ratio (x) = 0.22287 0.20106
# Poissons Ratio (y) = 0.24712 0.17404
# Poissons Ratio (z) = 0.35344 0.27591
#
# Static dielectric constant tensor:
#      x y z
#    x 1.854870 0.080230 -0.101950 
#    y 0.080230 1.857700 -0.004170 
#    z -0.101950 -0.004170 1.999530 
# 
# From -- ./inp_files/280045.got.cif
#   From: 2010.05.17/outbox.ucp.g08.bks.cvg/sg2_141_cif.got.tgz:280045.got - 2010.06.11 11:32:03.
