data_PCOD9074269
_publ_section_title
;
Structure prediction by ZEFSAII (Michael W. Deem and Ramdas Pophale) SiO2 
 PCOD9074269
Probable space group: P -1
;
_chemical_formula_sum "Si O2"
_cell_formula_units_Z 14
_cell_length_a 15.000000
_cell_length_b 15.000000
_cell_length_c 9.000000
_cell_angle_alpha 120.000000
_cell_angle_beta 80.000000
_cell_angle_gamma 150.000000
_cell_volume 702.152635
_symmetry_space_group_name_H-M "P -1"
_symmetry_group_IT_number 2
_symmetry_cell_setting 'triclinic'
loop_
_space_group_symop_operation_xyz
x,y,z
-x,-y,-z
loop_
_atom_site_type_symbol
_atom_site_label
_atom_site_fract_x
_atom_site_fract_y
_atom_site_fract_z
Si Si1 0.327059 0.587205 0.790633
Si Si2 0.515749 0.626421 0.520572
Si Si3 0.266532 0.726769 0.765877
Si Si4 0.197389 0.662985 0.386880
Si Si5 0.991065 0.884438 0.315024
Si Si6 0.394597 0.492172 0.107522
Si Si7 0.496705 0.168308 0.743853
O O1 0.440100 0.633231 0.668939
O O2 0.212260 0.561747 0.718849
O O3 0.146586 0.334482 0.722614
O O4 0.483116 0.795055 0.052369
O O5 0.500000 0.500000 0.500000
O O6 0.387249 0.481613 0.279438
O O7 0.768085 0.905063 0.624912
O O8 0.276971 0.721635 0.581123
O O9 0.068584 0.601022 0.753644
O O10 0.500000 0.000000 0.000000
O O11 0.290747 0.674047 0.255322
O O12 0.302627 0.886758 0.518262
O O13 0.848308 0.752183 0.097706
O O14 0.000000 0.000000 0.500000
O O15 0.513634 0.725398 0.226154
O O16 0.500000 0.500000 0.000000
#
# Coordination Sequence:
#
# PCOD9074269 Si02
#       7
#     2   2   2   2   2   2   2
#     4  11  24  43  67 100 135 175 224 278 333 400
#     4  12  24  44  67  96 137 177 221 275 331 402
#     4  11  23  42  65  99 131 171 226 277 333 398
#     4  10  23  43  68  93 135 175 222 282 331 400
#     4  11  23  45  66  97 136 177 226 273 335 400
#     4  11  23  41  70  98 134 174 220 278 334 401
#     4  10  22  45  65  98 132 175 227 274 339 398
#
# _framework density 19.938685
#
# number of rings (size 3 to 8) (size 9 to 14) (size 15 to 20)
#    0.000    1.143    4.286    1.714    2.000    3.429 
#    2.571    0.000    0.000    0.000    0.000    0.000 
#    0.000    0.000    0.000    0.000    0.000    0.000 
#
# Total GULP energy -78147.293972 kJ/mol
# GULP energy per Si atom -5581.949569 kJ/mol
# Density = 1.989330 g / cm^3
# Si number density = 19.938685 Si / 1000 Ang^3
#
#
#
# Elastic Constant Matrix: (Units=GPa)
#
#
# Indices 1 2 3 4 5 6 
#
# 1 105.4155 42.5661 51.9132 -17.3526 -9.2150 -0.7848
# 2 42.5661 103.9032 55.9333 -19.1616 3.7984 23.1470
# 3 51.9132 55.9333 128.6533 -22.3342 6.7854 9.8878
# 4 -17.3526 -19.1616 -22.3342 47.5837 2.6126 -3.7710
# 5 -9.2150 3.7984 6.7854 2.6126 41.5676 -5.0640
# 6 -0.7848 23.1470 9.8878 -3.7710 -5.0640 46.6032
#
#
#
# Elastic Compliance Matrix: (Units=1/GPa)
#
#
# Indices 1 2 3 4 5 6 
#
# 1 0.013842 -0.004246 -0.004005 0.001514 0.004478 0.003801
# 2 -0.004246 0.015635 -0.003965 0.002475 -0.002743 -0.007094
# 3 -0.004005 -0.003965 0.011749 0.002551 -0.002686 -0.000677
# 4 0.001514 0.002475 0.002551 0.023860 -0.001808 -0.000011
# 5 0.004478 -0.002743 -0.002686 -0.001808 0.026429 0.004733
# 6 0.003801 -0.007094 -0.000677 -0.000011 0.004733 0.025702
#
#
# Mechanical properties :
#
#
# Convention : Reuss Voigt Hill
#
# Bulk Modulus (GPa) = 59.54158 70.97745 65.25951
# Shear Modulus (GPa) = 33.95643 39.65487 36.80565
#
# Velocity S-wave (km/s) = 4.13127 4.46448 4.30110
# Velocity P-wave (km/s) = 7.25835 7.88990 7.58071
#
# Compressibility (1/GPa) = 0.01679499
#
# Stress axis : x y z
#
# Youngs Moduli (GPa) = 72.24388 63.95869 85.11240
#
# Poissons Ratio (x) = 0.27157 0.34087
# Poissons Ratio (y) = 0.30675 0.33744
# Poissons Ratio (z) = 0.28934 0.25357
#
# Static dielectric constant tensor:
#      x y z
#    x 1.713880 -0.035130 0.007410 
#    y -0.035130 1.732360 0.041250 
#    z 0.007410 0.041250 1.729740 
# 
# From -- ./inp_files/313863.got.cif
#   From: 2010.05.17/outbox.ucp.g08.bks.cvg/sg2_157_cif.got.tgz:313863.got - 2010.06.11 11:32:03.
