data_PCOD9074893
_publ_section_title
;
Structure prediction by ZEFSAII (Michael W. Deem and Ramdas Pophale) SiO2 
 PCOD9074893
Probable space group: P -1
;
_chemical_formula_sum "Si O2"
_cell_formula_units_Z 16
_cell_length_a 12.000000
_cell_length_b 9.000000
_cell_length_c 27.000000
_cell_angle_alpha 150.000000
_cell_angle_beta 150.000000
_cell_angle_gamma 40.000000
_cell_volume 727.497153
_symmetry_space_group_name_H-M "P -1"
_symmetry_group_IT_number 2
_symmetry_cell_setting 'triclinic'
loop_
_space_group_symop_operation_xyz
x,y,z
-x,-y,-z
loop_
_atom_site_type_symbol
_atom_site_label
_atom_site_fract_x
_atom_site_fract_y
_atom_site_fract_z
Si Si1 0.182730 0.675514 0.596357
Si Si2 0.736791 0.278822 0.952512
Si Si3 0.270469 0.620611 0.840887
Si Si4 0.876580 0.754911 0.411103
Si Si5 0.928276 0.667579 0.224746
Si Si6 0.375794 0.352954 0.278893
Si Si7 0.014700 0.838157 0.086840
Si Si8 0.543862 0.831103 0.631639
O O1 0.430165 0.533182 0.646907
O O2 0.000000 0.500000 0.500000
O O3 0.074843 0.673138 0.500497
O O4 0.169966 0.998018 0.710053
O O5 0.516447 0.462093 0.898659
O O6 0.915261 0.201448 0.955279
O O7 0.696054 0.949565 0.861922
O O8 0.809819 0.484087 0.084230
O O9 0.193749 0.517665 0.727932
O O10 0.113851 0.474389 0.779145
O O11 0.213310 0.968470 0.930742
O O12 0.650056 0.932738 0.394242
O O13 0.000000 0.000000 0.500000
O O14 0.186674 0.603699 0.291924
O O15 0.467096 0.211149 0.325134
O O16 0.217407 0.021579 0.241453
O O17 0.000000 0.500000 0.000000
O O18 0.500000 0.500000 0.500000
#
# Coordination Sequence:
#
# PCOD9074893 Si02
#       8
#     2   2   2   2   2   2   2   2
#     4  12  28  45  63 103 142 173 225 289 350 395
#     4  11  23  43  68 103 129 176 235 274 334 429
#     4  12  22  41  75  96 128 185 229 280 336 414
#     4  12  20  42  71  98 131 175 239 280 327 424
#     4  12  23  42  71  98 132 179 230 278 341 411
#     4  11  22  41  69  97 130 173 236 276 330 417
#     4  11  26  44  62 103 143 169 229 296 350 394
#     4  11  20  40  71  99 128 180 236 280 330 415
#
# _framework density 21.993213000000001
#
# number of rings (size 3 to 8) (size 9 to 14) (size 15 to 20)
#    0.000    0.500    8.750    2.250    0.000    2.000 
#    4.500    0.000    0.000    0.000    0.000    0.000 
#    0.000    0.000    0.000    0.000    0.000    0.000 
#
# Total GULP energy -89192.036993 kJ/mol
# GULP energy per Si atom -5574.502312 kJ/mol
# Density = 2.194316 g / cm^3
# Si number density = 21.993213 Si / 1000 Ang^3
#
#
#
# Elastic Constant Matrix: (Units=GPa)
#
#
# Indices 1 2 3 4 5 6 
#
# 1 50.1019 31.7934 36.6328 -1.5978 -10.9299 -9.5477
# 2 31.7934 32.1827 6.1667 10.7074 4.5348 -53.1789
# 3 36.6328 6.1667 86.7445 3.8236 -18.9537 -9.7070
# 4 -1.5978 10.7074 3.8236 29.5008 -7.6428 5.2011
# 5 -10.9299 4.5348 -18.9537 -7.6428 23.2229 25.6208
# 6 -9.5477 -53.1789 -9.7070 5.2011 25.6208 23.8445
#
#
#
# Elastic Compliance Matrix: (Units=1/GPa)
#
#
# Indices 1 2 3 4 5 6 
#
# 1 0.032358 -0.002798 -0.014537 -0.001205 -0.012643 0.014646
# 2 -0.002798 0.003101 0.003273 0.006091 0.019654 -0.015319
# 3 -0.014537 0.003273 0.019757 -0.000733 0.012285 -0.003519
# 4 -0.001205 0.006091 -0.000733 0.029629 -0.002160 0.008662
# 5 -0.012643 0.019654 0.012285 -0.002160 0.033557 0.008187
# 6 0.014646 -0.015319 -0.003519 0.008662 0.008187 0.001520
#
#
# Mechanical properties :
#
#
# Convention : Reuss Voigt Hill
#
# Bulk Modulus (GPa) = 36.91053 35.35722 36.13387
# Shear Modulus (GPa) = 31.83159 21.60937 26.72048
#
# Velocity S-wave (km/s) = 3.80852 3.13796 3.48938
# Velocity P-wave (km/s) = 6.01322 5.40744 5.71836
#
# Compressibility (1/GPa) = 0.02709254
#
# Stress axis : x y z
#
# Youngs Moduli (GPa) = 30.90419 322.47178 50.61440
#
# Poissons Ratio (x) = 0.90237 0.73576
# Poissons Ratio (y) = 0.08648 -0.16566
# Poissons Ratio (z) = 0.44924 -1.05543
#
# Static dielectric constant tensor:
#      x y z
#    x 1.932870 0.018860 0.070220 
#    y 0.018860 1.817340 -0.055760 
#    z 0.070220 -0.055760 1.865250 
# 
# From -- ./inp_files/259773.got.cif
#   From: 2010.05.17/outbox.ucp.g08.bks.cvg/sg2_130_cif.got.tgz:259773.got - 2010.06.11 11:32:03.
