data_PCOD9074850
_publ_section_title
;
Structure prediction by ZEFSAII (Michael W. Deem and Ramdas Pophale) SiO2 
 PCOD9074850
Probable space group: P -1
;
_chemical_formula_sum "Si O2"
_cell_formula_units_Z 14
_cell_length_a 24.000000
_cell_length_b 30.000000
_cell_length_c 15.000000
_cell_angle_alpha 160.000000
_cell_angle_beta 20.000000
_cell_angle_gamma 170.000000
_cell_volume 622.618477
_symmetry_space_group_name_H-M "P -1"
_symmetry_group_IT_number 2
_symmetry_cell_setting 'triclinic'
loop_
_space_group_symop_operation_xyz
x,y,z
-x,-y,-z
loop_
_atom_site_type_symbol
_atom_site_label
_atom_site_fract_x
_atom_site_fract_y
_atom_site_fract_z
Si Si1 0.099190 0.609810 0.409480
Si Si2 0.177252 0.720101 0.290412
Si Si3 0.708208 0.563667 0.008178
Si Si4 0.510203 0.146762 0.217461
Si Si5 0.725716 0.761898 0.201218
Si Si6 0.186641 0.859437 0.995159
Si Si7 0.725417 0.929407 0.173793
O O1 0.195761 0.698836 0.328657
O O2 0.405320 0.776046 0.322222
O O3 0.942905 0.631697 0.724959
O O4 0.850418 0.317102 0.250738
O O5 0.873073 0.424754 0.157270
O O6 0.093673 0.815344 0.582511
O O7 0.506191 0.916464 0.111924
O O8 0.380104 0.250291 0.931954
O O9 0.710026 0.699800 0.209265
O O10 0.870247 0.687022 0.093391
O O11 0.431508 0.206849 0.516732
O O12 0.246570 0.975353 0.213739
O O13 0.500000 0.000000 0.000000
O O14 0.500000 0.500000 0.000000
O O15 0.074257 0.995707 0.067227
#
# Coordination Sequence:
#
# PCOD9074850 Si02
#       7
#     2   2   2   2   2   2   2
#     4  11  19  38  70 102 136 168 219 277 324 400
#     4  12  20  39  70  98 129 176 224 269 325 395
#     4  11  22  41  69 103 137 166 221 280 328 395
#     4  12  27  48  65  93 141 184 220 271 335 400
#     4  12  26  45  67  98 137 174 223 283 327 389
#     4  11  23  41  67 100 133 175 224 268 332 401
#     4  11  21  38  69 106 127 169 224 274 334 380
#
# _framework density 22.485679999999999
#
# number of rings (size 3 to 8) (size 9 to 14) (size 15 to 20)
#    0.000    0.571    7.143    2.571    0.000    1.143 
#    5.143    2.857    0.000    0.000    0.000    0.000 
#    0.000    0.000    0.000    0.000    0.000    0.000 
#
# Total GULP energy -78223.366768 kJ/mol
# GULP energy per Si atom -5587.383341 kJ/mol
# Density = 2.243450 g / cm^3
# Si number density = 22.485680 Si / 1000 Ang^3
#
#
#
# Elastic Constant Matrix: (Units=GPa)
#
#
# Indices 1 2 3 4 5 6 
#
# 1 66.1688 14.6421 29.9522 6.5809 -1.7450 -17.8534
# 2 14.6421 92.3149 33.2997 6.3818 -9.9445 -21.7283
# 3 29.9522 33.2997 88.0476 14.8729 -25.0290 -5.8437
# 4 6.5809 6.3818 14.8729 26.7453 -0.6777 2.4604
# 5 -1.7450 -9.9445 -25.0290 -0.6777 28.5634 12.9756
# 6 -17.8534 -21.7283 -5.8437 2.4604 12.9756 41.5642
#
#
#
# Elastic Compliance Matrix: (Units=1/GPa)
#
#
# Indices 1 2 3 4 5 6 
#
# 1 0.023651 0.002488 -0.011989 -0.001454 -0.014809 0.014483
# 2 0.002488 0.014745 -0.007088 -0.001196 -0.005267 0.009495
# 3 -0.011989 -0.007088 0.025656 -0.007846 0.024783 -0.012520
# 4 -0.001454 -0.001196 -0.007846 0.042582 -0.004843 -0.003361
# 5 -0.014809 -0.005267 0.024783 -0.004843 0.065604 -0.025824
# 6 0.014483 0.009495 -0.012520 -0.003361 -0.025824 0.041744
#
#
# Mechanical properties :
#
#
# Convention : Reuss Voigt Hill
#
# Bulk Modulus (GPa) = 32.39091 44.70212 38.54652
# Shear Modulus (GPa) = 19.42105 30.61706 25.01906
#
# Velocity S-wave (km/s) = 2.94208 3.69402 3.33928
# Velocity P-wave (km/s) = 5.09681 6.17396 5.66107
#
# Compressibility (1/GPa) = 0.03087286
#
# Stress axis : x y z
#
# Youngs Moduli (GPa) = 42.28093 67.82051 38.97734
#
# Poissons Ratio (x) = -0.16871 0.46731
# Poissons Ratio (y) = -0.10518 0.27626
# Poissons Ratio (z) = 0.50692 0.48070
#
# Static dielectric constant tensor:
#      x y z
#    x 1.875330 0.062010 0.046050 
#    y 0.062010 1.952810 0.050870 
#    z 0.046050 0.050870 1.849570 
# 
# From -- ./inp_files/226601.got.cif
#   From: 2010.05.17/outbox.ucp.g08.bks.cvg/sg2_114_cif.got.tgz:226601.got - 2010.06.11 11:32:03.
