data_PCOD9074847
_publ_section_title
;
Structure prediction by ZEFSAII (Michael W. Deem and Ramdas Pophale) SiO2 
 PCOD9074847
Probable space group: P -1
;
_chemical_formula_sum "Si O2"
_cell_formula_units_Z 16
_cell_length_a 9.000000
_cell_length_b 12.000000
_cell_length_c 15.000000
_cell_angle_alpha 100.000000
_cell_angle_beta 140.000000
_cell_angle_gamma 60.000000
_cell_volume 835.587839
_symmetry_space_group_name_H-M "P -1"
_symmetry_group_IT_number 2
_symmetry_cell_setting 'triclinic'
loop_
_space_group_symop_operation_xyz
x,y,z
-x,-y,-z
loop_
_atom_site_type_symbol
_atom_site_label
_atom_site_fract_x
_atom_site_fract_y
_atom_site_fract_z
Si Si1 0.651477 0.870802 0.486831
Si Si2 0.277927 0.575043 0.573826
Si Si3 0.706901 0.008351 0.357143
Si Si4 0.645315 0.681926 0.713400
Si Si5 0.240353 0.599103 0.764638
Si Si6 0.398896 0.723907 0.408141
Si Si7 0.855616 0.782813 0.257860
Si Si8 0.258647 0.420019 0.911537
O O1 0.457128 0.813726 0.383750
O O2 0.944063 0.749374 0.650198
O O3 0.500000 0.000000 0.500000
O O4 0.704748 0.921538 0.426710
O O5 0.454231 0.641249 0.666770
O O6 0.236337 0.554735 0.654908
O O7 0.453157 0.427887 0.585422
O O8 0.018214 0.676389 0.401800
O O9 0.445916 0.170896 0.268484
O O10 0.694396 0.932925 0.252846
O O11 0.000000 0.000000 0.500000
O O12 0.544920 0.711488 0.568247
O O13 0.965319 0.544491 0.840439
O O14 0.264060 0.492122 0.832622
O O15 0.489501 0.613551 0.911479
O O16 0.082789 0.779301 0.297224
O O17 0.728342 0.714816 0.132501
#
# Coordination Sequence:
#
# PCOD9074847 Si02
#       8
#     2   2   2   2   2   2   2   2
#     4  12  21  37  62  89 121 157 199 252 301 356
#     4  11  20  35  63  91 115 148 214 256 283 347
#     4  12  21  34  61  94 121 155 200 254 297 355
#     4  11  19  38  59  88 121 159 195 245 308 347
#     4  11  24  38  59  92 120 161 202 245 301 364
#     4  11  20  34  61  93 117 148 207 257 297 337
#     4  11  20  37  61  91 117 157 199 254 299 346
#     4  11  23  41  60  83 132 163 192 246 311 362
#
# _framework density 19.148195999999999
#
# number of rings (size 3 to 8) (size 9 to 14) (size 15 to 20)
#    0.000    0.750    8.750    0.750    1.750    1.500 
#    0.000    0.000    2.750    6.000    0.000    0.000 
#    0.000    0.000    0.000    0.000    0.000    0.000 
#
# Total GULP energy -89275.608873 kJ/mol
# GULP energy per Si atom -5579.725555 kJ/mol
# Density = 1.910461 g / cm^3
# Si number density = 19.148196 Si / 1000 Ang^3
#
#
#
# Elastic Constant Matrix: (Units=GPa)
#
#
# Indices 1 2 3 4 5 6 
#
# 1 32.0588 31.7689 -7.1440 -8.2377 -0.5872 -13.1205
# 2 31.7689 152.1304 27.2466 14.7914 8.8733 -7.6485
# 3 -7.1440 27.2466 26.0282 13.0753 11.7483 -15.6675
# 4 -8.2377 14.7914 13.0753 14.4557 6.7408 -2.3232
# 5 -0.5872 8.8733 11.7483 6.7408 19.2214 1.7597
# 6 -13.1205 -7.6485 -15.6675 -2.3232 1.7597 30.8318
#
#
#
# Elastic Compliance Matrix: (Units=1/GPa)
#
#
# Indices 1 2 3 4 5 6 
#
# 1 -0.053272 0.024916 -0.135154 0.019306 0.070741 -0.087751
# 2 0.024916 -0.002917 0.045443 -0.006011 -0.026676 0.034041
# 3 -0.135154 0.045443 -0.111931 -0.078411 0.081209 -0.113663
# 4 0.019306 -0.006011 -0.078411 0.154185 -0.000818 -0.021456
# 5 0.070741 -0.026676 0.081209 -0.000818 0.011288 0.064047
# 6 -0.087751 0.034041 -0.113663 -0.021456 0.064047 -0.059495
#
#
# Mechanical properties :
#
#
# Convention : Reuss Voigt Hill
#
# Bulk Modulus (GPa) = -3.35898 34.88448 15.76275
# Shear Modulus (GPa) = -157.29366 23.45818 -66.91774
#
# Velocity S-wave (km/s) = -9.07324 3.50392 -5.91804
# Velocity P-wave (km/s) = 10.56045 5.88453 6.20062
#
# Compressibility (1/GPa) = -0.29770972
#
# Stress axis : x y z
#
# Youngs Moduli (GPa) = -18.77141 -342.83469 -8.93411
#
# Poissons Ratio (x) = 8.54201 -1.20748
# Poissons Ratio (y) = 0.46771 0.40599
# Poissons Ratio (z) = -2.53703 15.57944
#
# Static dielectric constant tensor:
#      x y z
#    x 1.709870 0.003750 0.025760 
#    y 0.003750 1.674860 -0.002760 
#    z 0.025760 -0.002760 1.636870 
# 
# From -- ./inp_files/243420.got.cif
#   From: 2010.05.17/outbox.ucp.g08.bks.cvg/sg2_122_cif.got.tgz:243420.got - 2010.06.11 11:32:03.
