data_PCOD9074676
_publ_section_title
;
Structure prediction by ZEFSAII (Michael W. Deem and Ramdas Pophale) SiO2 
 PCOD9074676
Probable space group: P -1
;
_chemical_formula_sum "Si O2"
_cell_formula_units_Z 16
_cell_length_a 18.000000
_cell_length_b 9.000000
_cell_length_c 15.000000
_cell_angle_alpha 140.000000
_cell_angle_beta 140.000000
_cell_angle_gamma 30.000000
_cell_volume 740.097418
_symmetry_space_group_name_H-M "P -1"
_symmetry_group_IT_number 2
_symmetry_cell_setting 'triclinic'
loop_
_space_group_symop_operation_xyz
x,y,z
-x,-y,-z
loop_
_atom_site_type_symbol
_atom_site_label
_atom_site_fract_x
_atom_site_fract_y
_atom_site_fract_z
Si Si1 0.822495 0.744424 0.908871
Si Si2 0.323310 0.229251 0.902788
Si Si3 0.751179 0.004923 0.424571
Si Si4 0.892336 0.328289 0.462044
Si Si5 0.284419 0.462200 0.416831
Si Si6 0.704300 0.126268 0.152616
Si Si7 0.657679 0.271185 0.846140
Si Si8 0.368389 0.947770 0.469865
O O1 0.787022 0.537978 0.740963
O O2 0.767365 0.972483 0.876635
O O3 0.000000 0.500000 0.000000
O O4 0.716243 0.987349 0.003410
O O5 0.299539 0.159840 0.749467
O O6 0.245758 0.140909 0.854042
O O7 0.272440 0.563239 0.015115
O O8 0.500000 0.000000 0.000000
O O9 0.937610 0.816696 0.488054
O O10 0.675799 0.320378 0.447790
O O11 0.670290 0.125971 0.504355
O O12 0.844105 0.394989 0.555732
O O13 0.829329 0.165944 0.294411
O O14 0.768314 0.680553 0.476972
O O15 0.466962 0.133365 0.431480
O O16 0.525354 0.455547 0.161807
O O17 0.656864 0.165294 0.696643
#
# Coordination Sequence:
#
# PCOD9074676 Si02
#       8
#     2   2   2   2   2   2   2   2
#     4  12  28  44  70 110 145 191 238 304 366 426
#     4  10  24  44  71 106 146 189 233 294 364 435
#     4  12  27  44  74 107 147 191 237 298 369 428
#     4  12  24  48  72 105 145 186 243 302 358 423
#     4  12  24  47  76 101 146 187 250 297 352 433
#     4  11  24  45  76 105 142 191 242 294 366 429
#     4  11  24  49  73 106 147 188 242 301 358 437
#     4  12  26  46  75 110 138 193 245 300 360 427
#
# _framework density 21.618776
#
# number of rings (size 3 to 8) (size 9 to 14) (size 15 to 20)
#    0.000    0.500    3.750    4.125    8.750    0.000 
#    2.250    1.250    0.000    0.000    0.000    0.000 
#    0.000    0.000    0.000    0.000    0.000    0.000 
#
# Total GULP energy -89188.497179 kJ/mol
# GULP energy per Si atom -5574.281074 kJ/mol
# Density = 2.156957 g / cm^3
# Si number density = 21.618776 Si / 1000 Ang^3
#
#
#
# Elastic Constant Matrix: (Units=GPa)
#
#
# Indices 1 2 3 4 5 6 
#
# 1 121.4525 24.6934 40.0464 -6.6462 -23.4219 -15.0588
# 2 24.6934 86.9053 14.7338 -8.7499 0.7543 -4.6923
# 3 40.0464 14.7338 152.3757 -1.6560 -7.1297 -8.0006
# 4 -6.6462 -8.7499 -1.6560 33.4958 1.2409 0.6983
# 5 -23.4219 0.7543 -7.1297 1.2409 44.3673 5.5554
# 6 -15.0588 -4.6923 -8.0006 0.6983 5.5554 38.5322
#
#
#
# Elastic Compliance Matrix: (Units=1/GPa)
#
#
# Indices 1 2 3 4 5 6 
#
# 1 0.010843 -0.002486 -0.002218 0.001149 0.005036 0.002727
# 2 -0.002486 0.012649 -0.000588 0.002834 -0.001783 0.000652
# 3 -0.002218 -0.000588 0.007227 -0.000246 -0.000065 0.000576
# 4 0.001149 0.002834 -0.000246 0.030820 -0.000373 0.000238
# 5 0.005036 -0.001783 -0.000065 -0.000373 0.025469 -0.001928
# 6 0.002727 0.000652 0.000576 0.000238 -0.001928 0.027491
#
#
# Mechanical properties :
#
#
# Convention : Reuss Voigt Hill
#
# Bulk Modulus (GPa) = 49.66444 57.74230 53.70337
# Shear Modulus (GPa) = 37.93823 42.02974 39.98398
#
# Velocity S-wave (km/s) = 4.19367 4.41401 4.30525
# Velocity P-wave (km/s) = 6.81702 7.26260 7.04334
#
# Compressibility (1/GPa) = 0.02013513
#
# Stress axis : x y z
#
# Youngs Moduli (GPa) = 92.22904 79.05867 138.36932
#
# Poissons Ratio (x) = 0.19651 0.30689
# Poissons Ratio (y) = 0.22924 0.08139
# Poissons Ratio (z) = 0.20456 0.04650
#
# Static dielectric constant tensor:
#      x y z
#    x 1.850620 0.049160 0.012470 
#    y 0.049160 1.887540 0.007990 
#    z 0.012470 0.007990 1.786690 
# 
# From -- ./inp_files/537686.got.cif
#   From: 2010.05.17/outbox.ucp.g08.bks.cvg/sg2_269_cif.got.tgz:537686.got - 2010.06.11 11:32:03.
