data_PCOD9074814
_publ_section_title
;
Structure prediction by ZEFSAII (Michael W. Deem and Ramdas Pophale) SiO2 
 PCOD9074814
Probable space group: P -1
;
_chemical_formula_sum "Si O2"
_cell_formula_units_Z 16
_cell_length_a 15.000000
_cell_length_b 12.000000
_cell_length_c 9.000000
_cell_angle_alpha 130.000000
_cell_angle_beta 70.000000
_cell_angle_gamma 70.000000
_cell_volume 728.972637
_symmetry_space_group_name_H-M "P -1"
_symmetry_group_IT_number 2
_symmetry_cell_setting 'triclinic'
loop_
_space_group_symop_operation_xyz
x,y,z
-x,-y,-z
loop_
_atom_site_type_symbol
_atom_site_label
_atom_site_fract_x
_atom_site_fract_y
_atom_site_fract_z
Si Si1 0.163739 0.729505 0.689241
Si Si2 0.719917 0.927323 0.772477
Si Si3 0.492807 0.438683 0.289768
Si Si4 0.754195 0.553985 0.318882
Si Si5 0.974799 0.389233 0.817207
Si Si6 0.741200 0.591340 0.890127
Si Si7 0.587775 0.051738 0.266156
Si Si8 0.453322 0.423244 0.856924
O O1 0.318542 0.639956 0.504799
O O2 0.195508 0.618725 0.734183
O O3 0.170298 0.590436 0.449022
O O4 0.000000 0.000000 0.000000
O O5 0.739313 0.736162 0.550049
O O6 0.864453 0.837294 0.544253
O O7 0.701398 0.954174 0.984158
O O8 0.567189 0.189743 0.027495
O O9 0.500000 0.500000 0.500000
O O10 0.597685 0.421814 0.121892
O O11 0.584960 0.729189 0.505583
O O12 0.884121 0.391627 0.980571
O O13 0.854531 0.549743 0.890635
O O14 0.000000 0.500000 0.000000
O O15 0.616299 0.853181 0.128357
O O16 0.663081 0.551115 0.986001
O O17 0.592445 0.156753 0.491015
O O18 0.500000 0.500000 0.000000
#
# Coordination Sequence:
#
# PCOD9074814 Si02
#       8
#     2   2   2   2   2   2   2   2
#     4  12  27  46  74 110 154 199 255 312 383 452
#     4  11  23  43  77 106 141 197 251 309 363 455
#     4  12  25  46  70 107 149 198 253 301 379 452
#     4  11  22  48  75 110 145 196 250 311 379 446
#     4  10  26  46  70 112 151 190 248 315 379 435
#     4  12  26  48  75 113 149 201 259 312 376 446
#     4  12  23  45  82 106 148 198 259 309 368 456
#     4  12  26  43  69 113 152 188 243 316 376 434
#
# _framework density 21.948698
#
# number of rings (size 3 to 8) (size 9 to 14) (size 15 to 20)
#    0.000    0.500    6.250    1.500    1.750    2.500 
#    4.500    1.250    0.000    0.000    0.000    0.000 
#    0.000    0.000    0.000    0.000    0.000    0.000 
#
# Total GULP energy -89293.395884 kJ/mol
# GULP energy per Si atom -5580.837243 kJ/mol
# Density = 2.189874 g / cm^3
# Si number density = 21.948698 Si / 1000 Ang^3
#
#
#
# Elastic Constant Matrix: (Units=GPa)
#
#
# Indices 1 2 3 4 5 6 
#
# 1 99.7393 47.3696 65.5285 6.5245 4.6054 -10.1292
# 2 47.3696 110.3979 47.1706 6.7973 -11.7695 2.5245
# 3 65.5285 47.1706 113.0948 -7.2683 -12.8872 -4.2522
# 4 6.5245 6.7973 -7.2683 49.3822 0.9620 2.5075
# 5 4.6054 -11.7695 -12.8872 0.9620 40.3706 -2.4640
# 6 -10.1292 2.5245 -4.2522 2.5075 -2.4640 32.2438
#
#
#
# Elastic Compliance Matrix: (Units=1/GPa)
#
#
# Indices 1 2 3 4 5 6 
#
# 1 0.020342 -0.004806 -0.010590 -0.003716 -0.006700 0.005147
# 2 -0.004806 0.012586 -0.002259 -0.001372 0.003381 -0.002428
# 3 -0.010590 -0.002259 0.016812 0.004113 0.005769 -0.000812
# 4 -0.003716 -0.001372 0.004113 0.021631 0.000690 -0.002147
# 5 -0.006700 0.003381 0.005769 0.000690 0.028376 0.000506
# 6 0.005147 -0.002428 -0.000812 -0.002147 0.000506 0.032919
#
#
# Mechanical properties :
#
#
# Convention : Reuss Voigt Hill
#
# Bulk Modulus (GPa) = 69.30799 71.48548 70.39673
# Shear Modulus (GPa) = 28.93741 35.27689 32.10715
#
# Velocity S-wave (km/s) = 3.63493 4.01339 3.82884
# Velocity P-wave (km/s) = 7.01875 7.35639 7.18955
#
# Compressibility (1/GPa) = 0.01442835
#
# Stress axis : x y z
#
# Youngs Moduli (GPa) = 49.15987 79.45248 59.48282
#
# Poissons Ratio (x) = 0.38189 0.62994
# Poissons Ratio (y) = 0.23629 0.13436
# Poissons Ratio (z) = 0.52062 0.17947
#
# Static dielectric constant tensor:
#      x y z
#    x 1.851950 -0.026910 0.051360 
#    y -0.026910 1.893730 -0.082710 
#    z 0.051360 -0.082710 1.815560 
# 
# From -- ./inp_files/308511.got.cif
#   From: 2010.05.17/outbox.ucp.g08.bks.cvg/sg2_155_cif.got.tgz:308511.got - 2010.06.11 11:32:03.
