data_PCOD9074333
_publ_section_title
;
Structure prediction by ZEFSAII (Michael W. Deem and Ramdas Pophale) SiO2 
 PCOD9074333
Probable space group: P -1
;
_chemical_formula_sum "Si O2"
_cell_formula_units_Z 16
_cell_length_a 12.000000
_cell_length_b 9.000000
_cell_length_c 18.000000
_cell_angle_alpha 120.000000
_cell_angle_beta 130.000000
_cell_angle_gamma 30.000000
_cell_volume 736.400153
_symmetry_space_group_name_H-M "P -1"
_symmetry_group_IT_number 2
_symmetry_cell_setting 'triclinic'
loop_
_space_group_symop_operation_xyz
x,y,z
-x,-y,-z
loop_
_atom_site_type_symbol
_atom_site_label
_atom_site_fract_x
_atom_site_fract_y
_atom_site_fract_z
Si Si1 0.870299 0.457453 0.467062
Si Si2 0.549870 0.303677 0.583521
Si Si3 0.890127 0.905119 0.769254
Si Si4 0.206774 0.318627 0.226486
Si Si5 0.652087 0.152373 0.416781
Si Si6 0.646832 0.468188 0.230723
Si Si7 0.295709 0.987300 0.865185
Si Si8 0.285990 0.165926 0.058128
O O1 0.615206 0.702476 0.467332
O O2 0.778688 0.441512 0.349995
O O3 0.000000 0.500000 0.500000
O O4 0.064140 0.194087 0.546161
O O5 0.765907 0.086544 0.683756
O O6 0.632392 0.214834 0.511753
O O7 0.396839 0.633028 0.601233
O O8 0.665692 0.204145 0.806021
O O9 0.875063 0.727753 0.752772
O O10 0.193435 0.639533 0.805528
O O11 0.443134 0.210730 0.322945
O O12 0.286840 0.137329 0.140064
O O13 0.968894 0.668418 0.187551
O O14 0.697007 0.218696 0.200321
O O15 0.518099 0.872634 0.888491
O O16 0.339473 0.970931 0.969067
O O17 0.000000 0.500000 0.000000
#
# Coordination Sequence:
#
# PCOD9074333 Si02
#       8
#     2   2   2   2   2   2   2   2
#     4  11  24  40  63  93 142 189 233 290 343 411
#     4  10  23  39  60  89 133 183 239 282 338 398
#     4  11  25  45  65 103 149 184 236 289 353 417
#     4  11  25  39  73 101 140 184 235 294 357 423
#     4  11  22  39  63  93 132 181 241 284 335 409
#     4  11  25  44  72 102 140 196 237 287 353 416
#     4  10  23  45  77  99 137 181 236 298 349 437
#     4   9  22  45  73 105 135 172 236 292 371 418
#
# _framework density 21.727318
#
# number of rings (size 3 to 8) (size 9 to 14) (size 15 to 20)
#    0.000    1.500    1.250    2.625   12.250    2.000 
#    0.000    1.250    0.000    0.000    0.000    0.000 
#    0.000    0.000    0.000    0.000    0.000    0.000 
#
# Total GULP energy -89078.146956 kJ/mol
# GULP energy per Si atom -5567.384185 kJ/mol
# Density = 2.167787 g / cm^3
# Si number density = 21.727318 Si / 1000 Ang^3
#
#
#
# Elastic Constant Matrix: (Units=GPa)
#
#
# Indices 1 2 3 4 5 6 
#
# 1 86.3909 16.5831 9.4001 16.2073 -8.6423 -6.7427
# 2 16.5831 72.4516 -6.0415 6.8584 10.4767 -4.2007
# 3 9.4001 -6.0415 39.3176 13.1955 3.7423 15.0009
# 4 16.2073 6.8584 13.1955 18.0220 -0.2073 6.8040
# 5 -8.6423 10.4767 3.7423 -0.2073 36.6879 -3.6908
# 6 -6.7427 -4.2007 15.0009 6.8040 -3.6908 46.2492
#
#
#
# Elastic Compliance Matrix: (Units=1/GPa)
#
#
# Indices 1 2 3 4 5 6 
#
# 1 0.015823 -0.003008 -0.002232 -0.013330 0.005256 0.005138
# 2 -0.003008 0.016785 0.006973 -0.008711 -0.006302 -0.000397
# 3 -0.002232 0.006973 0.040350 -0.026705 -0.007736 -0.009468
# 4 -0.013330 -0.008711 -0.026705 0.093251 0.001829 -0.007646
# 5 0.005256 -0.006302 -0.007736 0.001829 0.031593 0.004955
# 6 0.005138 -0.000397 -0.009468 -0.007646 0.004955 0.026926
#
#
# Mechanical properties :
#
#
# Convention : Reuss Voigt Hill
#
# Bulk Modulus (GPa) = 13.08469 26.44928 19.76698
# Shear Modulus (GPa) = 20.26447 32.07306 26.16876
#
# Velocity S-wave (km/s) = 3.05728 3.84625 3.47424
# Velocity P-wave (km/s) = 4.30092 5.65019 5.02108
#
# Compressibility (1/GPa) = 0.07642518
#
# Stress axis : x y z
#
# Youngs Moduli (GPa) = 63.19858 59.57639 24.78291
#
# Poissons Ratio (x) = 0.17921 0.05532
# Poissons Ratio (y) = 0.19010 -0.17282
# Poissons Ratio (z) = 0.14106 -0.41544
#
# Static dielectric constant tensor:
#      x y z
#    x 1.789900 -0.049370 -0.004300 
#    y -0.049370 1.937070 0.020050 
#    z -0.004300 0.020050 1.797430 
# 
# From -- ./inp_files/143076.got.cif
#   From: 2010.05.17/outbox.ucp.g08.bks.cvg/sg2_72_cif.got.tgz:143076.got - 2010.06.11 11:32:03.
