data_PCOD9074920
_publ_section_title
;
Structure prediction by ZEFSAII (Michael W. Deem and Ramdas Pophale) SiO2 
 PCOD9074920
Probable space group: P -1
;
_chemical_formula_sum "Si O2"
_cell_formula_units_Z 16
_cell_length_a 16.267592
_cell_length_b 13.955035
_cell_length_c 9.317349
_cell_angle_alpha 122.917685
_cell_angle_beta 105.474799
_cell_angle_gamma 29.715378
_cell_volume 765.734311
_symmetry_space_group_name_H-M "P -1"
_symmetry_group_IT_number 2
_symmetry_cell_setting 'triclinic'
loop_
_space_group_symop_operation_xyz
x,y,z
-x,-y,-z
loop_
_atom_site_type_symbol
_atom_site_label
_atom_site_fract_x
_atom_site_fract_y
_atom_site_fract_z
Si Si1 0.942719 0.482492 0.258449
Si Si2 0.653397 0.036032 0.058828
Si Si3 0.703455 0.867622 0.224817
Si Si4 0.209612 0.693647 0.859613
Si Si5 0.647232 0.301207 0.278854
Si Si6 0.922464 0.261348 0.903778
Si Si7 0.743931 0.604441 0.516135
Si Si8 0.243793 0.417424 0.166235
O O1 0.832941 0.707629 0.295642
O O2 0.848331 0.571547 0.439160
O O3 0.920063 0.387787 0.085849
O O4 0.168453 0.227266 0.157459
O O5 0.705521 0.972189 0.202411
O O6 0.615748 0.209962 0.136651
O O7 0.467261 0.182675 0.075784
O O8 0.484781 0.105780 0.358757
O O9 0.776089 0.678706 0.002037
O O10 0.353679 0.607603 0.778117
O O11 0.216116 0.568376 0.671746
O O12 0.221955 0.643596 0.992296
O O13 0.000000 0.000000 0.000000
O O14 0.500000 0.500000 0.500000
O O15 0.864159 0.042507 0.230598
O O16 0.862665 0.359192 0.793960
O O17 0.810019 0.524925 0.646411
#
# Coordination Sequence:
#
# PCOD9074920 Si02
#       8
#     2   2   2   2   2   2   2   2
#     4   9  18  32  53  77 100 131 175 213 246 296
#     4  10  19  32  51  75 103 136 169 210 256 298
#     4  10  19  34  53  75 105 140 169 203 253 312
#     4   9  18  35  55  74 100 137 173 209 250 300
#     4  10  18  32  53  78 100 129 174 221 250 286
#     4   8  18  35  54  73 102 137 169 204 255 312
#     4  10  18  32  55  80 101 134 174 208 252 310
#     4  10  20  36  53  76 108 138 164 204 260 316
#
# _framework density 20.894974999999999
#
# number of rings (size 3 to 8) (size 9 to 14) (size 15 to 20)
#    0.000    2.500    0.000    4.500    0.000    0.000 
#    0.000   10.000    0.000    6.000    0.000    0.000 
#    0.000    0.000    0.000    0.000    0.000    0.000 
#
# Total GULP energy -89313.553236 kJ/mol
# GULP energy per Si atom -5582.097077 kJ/mol
# Density = 2.084742 g / cm^3
# Si number density = 20.894975 Si / 1000 Ang^3
#
#
#
# Elastic Constant Matrix: (Units=GPa)
#
#
# Indices 1 2 3 4 5 6 
#
# 1 91.8236 12.1382 22.0376 -12.4297 -22.1124 14.1520
# 2 12.1382 69.6506 28.5699 -12.1130 -12.1409 13.5032
# 3 22.0376 28.5699 99.7533 -5.3161 -25.2429 3.7645
# 4 -12.4297 -12.1130 -5.3161 24.3589 3.7117 -3.5462
# 5 -22.1124 -12.1409 -25.2429 3.7117 39.1235 4.8970
# 6 14.1520 13.5032 3.7645 -3.5462 4.8970 16.3276
#
#
#
# Elastic Compliance Matrix: (Units=1/GPa)
#
#
# Indices 1 2 3 4 5 6 
#
# 1 0.017837 0.004849 -0.000833 0.006129 0.013209 -0.021909
# 2 0.004849 0.022615 -0.003873 0.008087 0.009380 -0.023070
# 3 -0.000833 -0.003873 0.013108 -0.000761 0.007028 -0.001370
# 4 0.006129 0.008087 -0.000761 0.047583 0.001200 -0.001850
# 5 0.013209 0.009380 0.007028 0.001200 0.044606 -0.033945
# 6 -0.021909 -0.023070 -0.001370 -0.001850 -0.033945 0.109410
#
#
# Mechanical properties :
#
#
# Convention : Reuss Voigt Hill
#
# Bulk Modulus (GPa) = 18.57182 42.96879 30.77031
# Shear Modulus (GPa) = 18.32700 29.19411 23.76055
#
# Velocity S-wave (km/s) = 2.96480 3.74195 3.37581
# Velocity P-wave (km/s) = 4.54176 6.26725 5.47293
#
# Compressibility (1/GPa) = 0.05384501
#
# Stress axis : x y z
#
# Youngs Moduli (GPa) = 56.06445 44.21836 76.29099
#
# Poissons Ratio (x) = -0.21442 0.06357
# Poissons Ratio (y) = -0.27187 0.29548
# Poissons Ratio (z) = 0.04672 0.17126
#
# Static dielectric constant tensor:
#      x y z
#    x 1.796040 0.014890 -0.008220 
#    y 0.014890 1.772900 -0.006240 
#    z -0.008220 -0.006240 1.736390 
# 
# From -- ./inp_files/180078.got.cif
#   From: 2010.05.17/outbox.cif.g08.bks.cpg/sg2_91_cif.got.tgz:180078.got - 2010.06.03 11:33:40.
