data_PCOD9074279
_publ_section_title
;
Structure prediction by ZEFSAII (Michael W. Deem and Ramdas Pophale) SiO2 
 PCOD9074279
Probable space group: P -1
;
_chemical_formula_sum "Si O2"
_cell_formula_units_Z 14
_cell_length_a 18.000000
_cell_length_b 9.000000
_cell_length_c 12.000000
_cell_angle_alpha 40.000000
_cell_angle_beta 30.000000
_cell_angle_gamma 50.000000
_cell_volume 623.501542
_symmetry_space_group_name_H-M "P -1"
_symmetry_group_IT_number 2
_symmetry_cell_setting 'triclinic'
loop_
_space_group_symop_operation_xyz
x,y,z
-x,-y,-z
loop_
_atom_site_type_symbol
_atom_site_label
_atom_site_fract_x
_atom_site_fract_y
_atom_site_fract_z
Si Si1 0.607508 0.905788 0.278470
Si Si2 0.113693 0.836932 0.165758
Si Si3 0.001839 0.683636 0.991745
Si Si4 0.476903 0.429409 0.767208
Si Si5 0.426987 0.266283 0.171526
Si Si6 0.893122 0.599722 0.420955
Si Si7 0.704374 0.509179 0.234449
O O1 0.530657 0.696188 0.570098
O O2 0.710292 0.760497 0.143482
O O3 0.497280 0.051141 0.265189
O O4 0.715446 0.070346 0.117908
O O5 0.109664 0.659832 0.376356
O O6 0.039545 0.720187 0.219934
O O7 0.024716 0.065925 0.164173
O O8 0.163450 0.655840 0.845638
O O9 0.000000 0.500000 0.000000
O O10 0.894989 0.619708 0.272989
O O11 0.586551 0.376211 0.550472
O O12 0.329570 0.440127 0.879159
O O13 0.464569 0.284392 0.979451
O O14 0.251110 0.281083 0.412382
O O15 0.500000 0.500000 0.000000
#
# Coordination Sequence:
#
# PCOD9074279 Si02
#       7
#     2   2   2   2   2   2   2
#     4  10  22  45  70 104 129 186 227 285 343 405
#     4  11  25  47  69 102 145 183 228 288 342 411
#     4  12  25  46  74  97 142 187 230 287 345 415
#     4   9  23  45  66 100 140 168 230 286 338 411
#     4  12  26  42  71  98 135 180 229 283 343 404
#     4  11  29  46  65 109 141 183 237 275 353 416
#     4   9  22  45  69 103 135 180 230 282 351 409
#
# _framework density 22.453834000000001
#
# number of rings (size 3 to 8) (size 9 to 14) (size 15 to 20)
#    0.857    0.571    2.857    0.429   10.000    2.857 
#    2.571    0.000    0.000    0.000    0.000    0.000 
#    0.000    0.000    0.000    0.000    0.000    0.000 
#
# Total GULP energy -78067.307452 kJ/mol
# GULP energy per Si atom -5576.236247 kJ/mol
# Density = 2.240273 g / cm^3
# Si number density = 22.453834 Si / 1000 Ang^3
#
#
#
# Elastic Constant Matrix: (Units=GPa)
#
#
# Indices 1 2 3 4 5 6 
#
# 1 76.7899 13.6809 24.8347 8.9714 2.8760 -11.4413
# 2 13.6809 104.7066 36.1064 -3.6549 5.8308 -30.4861
# 3 24.8347 36.1064 39.8272 -1.3633 3.5925 -0.2272
# 4 8.9714 -3.6549 -1.3633 25.7993 3.5093 0.2201
# 5 2.8760 5.8308 3.5925 3.5093 32.4710 -4.4188
# 6 -11.4413 -30.4861 -0.2272 0.2201 -4.4188 51.1638
#
#
#
# Elastic Compliance Matrix: (Units=1/GPa)
#
#
# Indices 1 2 3 4 5 6 
#
# 1 0.019624 0.005331 -0.017366 -0.007193 0.001039 0.007608
# 2 0.005331 0.020020 -0.021418 -0.000275 0.000106 0.013036
# 3 -0.017366 -0.021418 0.055827 0.006613 -0.003787 -0.016753
# 4 -0.007193 -0.000275 0.006613 0.042263 -0.004933 -0.002351
# 5 0.001039 0.000106 -0.003787 -0.004933 0.032055 0.003068
# 6 0.007608 0.013036 -0.016753 -0.002351 0.003068 0.029215
#
#
# Mechanical properties :
#
#
# Convention : Reuss Voigt Hill
#
# Bulk Modulus (GPa) = 35.00938 41.17420 38.09179
# Shear Modulus (GPa) = 18.15331 31.66691 24.91011
#
# Velocity S-wave (km/s) = 2.84645 3.75949 3.33437
# Velocity P-wave (km/s) = 5.14088 6.10099 5.64139
#
# Compressibility (1/GPa) = 0.02856377
#
# Stress axis : x y z
#
# Youngs Moduli (GPa) = 50.95755 49.95082 17.91261
#
# Poissons Ratio (x) = -0.26626 0.31107
# Poissons Ratio (y) = -0.27163 0.38365
# Poissons Ratio (z) = 0.88492 1.06984
#
# Static dielectric constant tensor:
#      x y z
#    x 1.947750 -0.035220 -0.162190 
#    y -0.035220 1.876120 0.048070 
#    z -0.162190 0.048070 1.927120 
# 
# From -- ./inp_files/461773.got.cif
#   From: 2010.05.17/outbox.ucp.g08.bks.cvg/sg2_231_cif.got.tgz:461773.got - 2010.06.11 11:32:03.
