data_PCOD9074610
_publ_section_title
;
Structure prediction by ZEFSAII (Michael W. Deem and Ramdas Pophale) SiO2 
 PCOD9074610
Probable space group: P -1
;
_chemical_formula_sum "Si O2"
_cell_formula_units_Z 16
_cell_length_a 11.737132
_cell_length_b 18.270896
_cell_length_c 8.718090
_cell_angle_alpha 144.940394
_cell_angle_beta 130.878617
_cell_angle_gamma 42.338230
_cell_volume 717.383101
_symmetry_space_group_name_H-M "P -1"
_symmetry_group_IT_number 2
_symmetry_cell_setting 'triclinic'
loop_
_space_group_symop_operation_xyz
x,y,z
-x,-y,-z
loop_
_atom_site_type_symbol
_atom_site_label
_atom_site_fract_x
_atom_site_fract_y
_atom_site_fract_z
Si Si1 0.568113 0.180116 0.557855
Si Si2 0.241516 0.349463 0.416237
Si Si3 0.238507 0.045760 0.430386
Si Si4 0.103454 0.721538 0.593848
Si Si5 0.325194 0.606776 0.879588
Si Si6 0.034608 0.479436 0.747076
Si Si7 0.661546 0.490197 0.778065
Si Si8 0.541572 0.793047 0.148327
O O1 0.425756 0.209772 0.355128
O O2 0.454274 0.226237 0.694561
O O3 0.719162 0.029376 0.492942
O O4 0.642409 0.292760 0.799930
O O5 0.274614 0.489137 0.693317
O O6 0.117937 0.372921 0.491570
O O7 0.128990 0.378167 0.214662
O O8 0.331566 0.145840 0.681095
O O9 0.046560 0.133288 0.355714
O O10 0.347510 0.919367 0.184685
O O11 0.183291 0.714417 0.819258
O O12 0.262098 0.651461 0.499049
O O13 0.026362 0.607982 0.343925
O O14 0.501270 0.519597 0.791628
O O15 0.176683 0.516658 0.000859
O O16 0.597305 0.634807 0.864719
#
# Coordination Sequence:
#
# PCOD9074610 Si02
#       8
#     2   2   2   2   2   2   2   2
#     4   9  16  30  49  70 101 130 164 203 253 289
#     4  10  18  32  52  74 101 129 176 219 237 292
#     4   9  16  30  50  74 101 134 163 209 251 302
#     4  11  21  32  52  80 109 128 167 208 258 306
#     4  10  21  32  50  79 102 140 169 205 250 297
#     4  10  19  30  51  80  98 126 171 218 253 282
#     4  11  19  35  51  78 107 133 165 208 259 305
#     4   8  16  29  50  74  99 131 168 202 257 296
#
# _framework density 22.303286
#
# number of rings (size 3 to 8) (size 9 to 14) (size 15 to 20)
#    0.750    1.500    3.750    1.125    0.000    0.500 
#    0.000    0.000    0.000    1.500    0.000    0.000 
#    0.000    0.000    0.000    0.000    0.000    0.000 
#
# Total GULP energy -89162.989056 kJ/mol
# GULP energy per Si atom -5572.686816 kJ/mol
# Density = 2.225252 g / cm^3
# Si number density = 22.303286 Si / 1000 Ang^3
#
#
#
# Elastic Constant Matrix: (Units=GPa)
#
#
# Indices 1 2 3 4 5 6 
#
# 1 56.1478 17.4868 8.4399 6.2162 17.9952 -5.8234
# 2 17.4868 191.4996 31.3922 -29.7217 -0.5054 -24.3623
# 3 8.4399 31.3922 36.6076 -16.9245 14.5647 -10.1134
# 4 6.2162 -29.7217 -16.9245 34.5661 -4.4315 4.7978
# 5 17.9952 -0.5054 14.5647 -4.4315 22.7418 2.2744
# 6 -5.8234 -24.3623 -10.1134 4.7978 2.2744 25.9765
#
#
#
# Elastic Compliance Matrix: (Units=1/GPa)
#
#
# Indices 1 2 3 4 5 6 
#
# 1 0.030928 -0.004564 0.007283 -0.011545 -0.032535 0.010470
# 2 -0.004564 0.007730 -0.005756 0.005398 0.008295 0.002262
# 3 0.007283 -0.005756 0.060799 0.014953 -0.044015 0.020997
# 4 -0.011545 0.005398 0.014953 0.044119 0.008334 -0.000582
# 5 -0.032535 0.008295 -0.044015 0.008334 0.102430 -0.027158
# 6 0.010470 0.002262 0.020997 -0.000582 -0.027158 0.053625
#
#
# Mechanical properties :
#
#
# Convention : Reuss Voigt Hill
#
# Bulk Modulus (GPa) = 10.70862 44.32140 27.51501
# Shear Modulus (GPa) = 14.84419 31.78597 23.31508
#
# Velocity S-wave (km/s) = 2.58265 3.77924 3.23672
# Velocity P-wave (km/s) = 3.70205 6.24170 5.13147
#
# Compressibility (1/GPa) = 0.09338275
#
# Stress axis : x y z
#
# Youngs Moduli (GPa) = 32.33283 129.37017 16.44768
#
# Poissons Ratio (x) = 0.59042 -0.11978
# Poissons Ratio (y) = 0.14756 0.09467
# Poissons Ratio (z) = -0.23546 0.74463
#
# Static dielectric constant tensor:
#      x y z
#    x 1.811820 0.009250 -0.011970 
#    y 0.009250 1.905560 -0.007600 
#    z -0.011970 -0.007600 1.865800 
# 
# From -- ./inp_files/457340.got.cif
#   From: 2010.05.17/outbox.cif.g08.bks.cpg/sg2_229_cif.got.tgz:457340.got - 2010.06.03 11:33:40.
