data_PCOD9074569
_publ_section_title
;
Structure prediction by ZEFSAII (Michael W. Deem and Ramdas Pophale) SiO2 
 PCOD9074569
Probable space group: P -1
;
_chemical_formula_sum "Si O2"
_cell_formula_units_Z 15
_cell_length_a 6.000000
_cell_length_b 21.000000
_cell_length_c 15.000000
_cell_angle_alpha 160.000000
_cell_angle_beta 100.000000
_cell_angle_gamma 80.000000
_cell_volume 636.289766
_symmetry_space_group_name_H-M "P -1"
_symmetry_group_IT_number 2
_symmetry_cell_setting 'triclinic'
loop_
_space_group_symop_operation_xyz
x,y,z
-x,-y,-z
loop_
_atom_site_type_symbol
_atom_site_label
_atom_site_fract_x
_atom_site_fract_y
_atom_site_fract_z
Si Si1 0.213681 0.227765 0.248170
Si Si2 0.167350 0.029999 0.163377
Si Si3 0.806272 0.250287 0.861399
Si Si4 0.000000 0.500000 0.000000
Si Si5 0.468297 0.555644 0.758406
Si Si6 0.405471 0.120462 0.933412
Si Si7 0.061382 0.897557 0.504182
Si Si8 0.872045 0.395075 0.671277
O O1 0.270226 0.104065 0.175928
O O2 0.256567 0.441918 0.557442
O O3 0.361883 0.176715 0.105936
O O4 0.964750 0.158881 0.113751
O O5 0.002930 0.201766 0.406533
O O6 0.355608 0.990082 0.197432
O O7 0.775825 0.194077 0.682599
O O8 0.596819 0.317821 0.994706
O O9 0.921434 0.070608 0.679427
O O10 0.967006 0.429769 0.106913
O O11 0.908931 0.720856 0.281013
O O12 0.177411 0.567334 0.178868
O O13 0.654847 0.407281 0.610336
O O14 0.574046 0.691204 0.872780
O O15 0.210709 0.992861 0.714756
#
# Coordination Sequence:
#
# PCOD9074569 Si02
#       8
#     2   2   2   1   2   2   2   2
#     4  11  27  47  68 103 146 185 237 294 349 416
#     4  11  27  46  73 100 143 191 233 295 353 404
#     4  10  23  47  69 101 146 183 225 286 355 416
#     4  10  24  40  76 100 142 178 226 290 346 410
#     4  12  27  44  74 104 144 187 235 286 354 419
#     4  12  27  45  73 108 136 187 239 293 344 423
#     4  10  23  47  71 104 142 179 232 289 347 420
#     4  11  24  46  68 107 140 189 231 287 349 418
#
# _framework density 23.574165000000001
#
# number of rings (size 3 to 8) (size 9 to 14) (size 15 to 20)
#    0.000    1.067    2.667    1.600   11.200    2.133 
#    0.000    2.667    0.000    0.000    0.000    0.000 
#    0.000    0.000    0.000    0.000    0.000    0.000 
#
# Total GULP energy -83582.975716 kJ/mol
# GULP energy per Si atom -5572.198381 kJ/mol
# Density = 2.352051 g / cm^3
# Si number density = 23.574165 Si / 1000 Ang^3
#
#
#
# Elastic Constant Matrix: (Units=GPa)
#
#
# Indices 1 2 3 4 5 6 
#
# 1 31.3685 32.9315 13.9862 5.7021 -14.8929 5.2686
# 2 32.9315 62.5133 28.0698 -15.7410 -12.5817 7.0145
# 3 13.9862 28.0698 109.2828 -11.3290 -7.7978 14.5457
# 4 5.7021 -15.7410 -11.3290 28.4532 10.3658 0.6782
# 5 -14.8929 -12.5817 -7.7978 10.3658 32.3994 8.6320
# 6 5.2686 7.0145 14.5457 0.6782 8.6320 26.2896
#
#
#
# Elastic Compliance Matrix: (Units=1/GPa)
#
#
# Indices 1 2 3 4 5 6 
#
# 1 -2.764776 1.610460 -0.035346 1.935934 -1.422883 0.561192
# 2 1.610460 -0.916421 0.017201 -1.119282 0.835406 -0.333174
# 3 -0.035346 0.017201 0.010751 0.026599 -0.015766 0.001037
# 4 1.935934 -1.119282 0.026599 -1.311315 0.986147 -0.394015
# 5 -1.422883 0.835406 -0.015766 0.986147 -0.690620 0.272300
# 6 0.561192 -0.333174 0.001037 -0.394015 0.272300 -0.065349
#
#
# Mechanical properties :
#
#
# Convention : Reuss Voigt Hill
#
# Bulk Modulus (GPa) = -2.05839 39.23774 18.58967
# Shear Modulus (GPa) = -0.55040 25.97358 12.71159
#
# Velocity S-wave (km/s) = -0.48372 3.32291 2.32462
# Velocity P-wave (km/s) = 1.08951 5.60382 3.88689
#
# Compressibility (1/GPa) = -0.48581570
#
# Stress axis : x y z
#
# Youngs Moduli (GPa) = -0.36169 -1.09120 93.01882
#
# Poissons Ratio (x) = 1.75734 3.28784
# Poissons Ratio (y) = 0.58249 -1.60001
# Poissons Ratio (z) = -0.01278 0.01877
#
# Static dielectric constant tensor:
#      x y z
#    x 1.979020 0.041290 0.018870 
#    y 0.041290 1.992600 -0.000120 
#    z 0.018870 -0.000120 1.851010 
# 
# From -- ./inp_files/117178.got.cif
#   From: 2010.05.17/outbox.ucp.g08.bks.cvg/sg2_59_cif.got.tgz:117178.got - 2010.06.11 11:32:03.
