data_PCOD9074788
_publ_section_title
;
Structure prediction by ZEFSAII (Michael W. Deem and Ramdas Pophale) SiO2 
 PCOD9074788
Probable space group: P -1
;
_chemical_formula_sum "Si O2"
_cell_formula_units_Z 16
_cell_length_a 24.000000
_cell_length_b 9.000000
_cell_length_c 9.000000
_cell_angle_alpha 130.000000
_cell_angle_beta 130.000000
_cell_angle_gamma 30.000000
_cell_volume 725.531033
_symmetry_space_group_name_H-M "P -1"
_symmetry_group_IT_number 2
_symmetry_cell_setting 'triclinic'
loop_
_space_group_symop_operation_xyz
x,y,z
-x,-y,-z
loop_
_atom_site_type_symbol
_atom_site_label
_atom_site_fract_x
_atom_site_fract_y
_atom_site_fract_z
Si Si1 0.994354 0.679298 0.914378
Si Si2 0.637080 0.749601 0.086610
Si Si3 0.536859 0.138930 0.703025
Si Si4 0.939581 0.910869 0.309484
Si Si5 0.754739 0.756222 0.042739
Si Si6 0.718472 0.277663 0.359111
Si Si7 0.752179 0.204656 0.719488
Si Si8 0.391659 0.852915 0.483777
O O1 0.010573 0.407781 0.759757
O O2 0.888633 0.948398 0.798962
O O3 0.949864 0.848263 0.108577
O O4 0.116692 0.529674 0.988215
O O5 0.633648 0.881269 0.319483
O O6 0.715766 0.727422 0.105417
O O7 0.689112 0.445335 0.904956
O O8 0.500000 0.000000 0.000000
O O9 0.412489 0.458514 0.758033
O O10 0.576385 0.179123 0.653221
O O11 0.500000 0.000000 0.500000
O O12 0.647768 0.922375 0.858636
O O13 0.814131 0.180357 0.351835
O O14 0.000000 0.000000 0.500000
O O15 0.752906 0.984203 0.226649
O O16 0.717076 0.335894 0.572581
O O17 0.715657 0.059376 0.599087
O O18 0.500000 0.500000 0.500000
#
# Coordination Sequence:
#
# PCOD9074788 Si02
#       8
#     2   2   2   2   2   2   2   2
#     4  10  27  48  68 105 142 192 234 297 363 424
#     4  12  24  44  73 106 142 189 242 291 361 432
#     4  12  26  43  73 107 141 185 242 304 364 429
#     4  10  25  47  74  98 143 187 246 294 353 437
#     4  11  25  47  71 101 148 185 242 301 357 435
#     4  11  24  47  70 104 139 192 236 297 368 418
#     4  12  26  45  72 104 149 185 241 291 361 438
#     4  12  24  47  71 106 146 185 235 301 361 426
#
# _framework density 22.052813
#
# number of rings (size 3 to 8) (size 9 to 14) (size 15 to 20)
#    0.000    0.750    3.750    1.875    8.750    5.500 
#    0.000    0.000    0.000    0.000    0.000    0.000 
#    0.000    0.000    0.000    0.000    0.000    0.000 
#
# Total GULP energy -89093.869719 kJ/mol
# GULP energy per Si atom -5568.366857 kJ/mol
# Density = 2.200262 g / cm^3
# Si number density = 22.052813 Si / 1000 Ang^3
#
#
#
# Elastic Constant Matrix: (Units=GPa)
#
#
# Indices 1 2 3 4 5 6 
#
# 1 124.7704 21.3659 13.4280 -1.9399 19.2783 -45.7002
# 2 21.3659 95.9157 34.8372 -7.2282 -1.1231 -42.6300
# 3 13.4280 34.8372 99.4730 13.8334 13.6381 -11.2336
# 4 -1.9399 -7.2282 13.8334 37.1758 -8.8079 10.7773
# 5 19.2783 -1.1231 13.6381 -8.8079 38.7107 10.4211
# 6 -45.7002 -42.6300 -11.2336 10.7773 10.4211 41.6607
#
#
#
# Elastic Compliance Matrix: (Units=1/GPa)
#
#
# Indices 1 2 3 4 5 6 
#
# 1 0.396820 0.284971 0.091202 -0.382726 -0.576335 0.994665
# 2 0.284971 0.226610 0.061266 -0.276713 -0.418358 0.737239
# 3 0.091202 0.061266 0.035432 -0.097374 -0.140934 0.232734
# 4 -0.382726 -0.276713 -0.097374 0.408831 0.573295 -0.978411
# 5 -0.576335 -0.418358 -0.140934 0.573295 0.875353 -1.465583
# 6 0.994665 0.737239 0.232734 -0.978411 -1.465583 2.551974
#
#
# Mechanical properties :
#
#
# Convention : Reuss Voigt Hill
#
# Bulk Modulus (GPa) = 0.65200 51.04681 25.84941
# Shear Modulus (GPa) = 1.21025 40.21129 20.71077
#
# Velocity S-wave (km/s) = 0.74161 4.27477 3.06787
# Velocity P-wave (km/s) = 1.01470 6.89657 4.92911
#
# Compressibility (1/GPa) = 1.53373988
#
# Stress axis : x y z
#
# Youngs Moduli (GPa) = 2.52004 4.41286 28.22293
#
# Poissons Ratio (x) = -1.25754 -2.57398
# Poissons Ratio (y) = -0.71814 -1.72910
# Poissons Ratio (z) = -0.22983 -0.27036
#
# Static dielectric constant tensor:
#      x y z
#    x 2.298670 -0.041980 -0.457130 
#    y -0.041980 1.933080 0.103280 
#    z -0.457130 0.103280 2.320480 
# 
# From -- ./inp_files/352444.got.cif
#   From: 2010.05.17/outbox.ucp.g08.bks.cvg/sg2_177_cif.got.tgz:352444.got - 2010.06.11 11:32:03.
