data_PCOD9074012
_publ_section_title
;
Structure prediction by ZEFSAII (Michael W. Deem and Ramdas Pophale) SiO2 
 PCOD9074012
Probable space group: P -1
;
_chemical_formula_sum "Si O2"
_cell_formula_units_Z 16
_cell_length_a 18.000000
_cell_length_b 21.000000
_cell_length_c 9.000000
_cell_angle_alpha 40.000000
_cell_angle_beta 140.000000
_cell_angle_gamma 160.000000
_cell_volume 731.217405
_symmetry_space_group_name_H-M "P -1"
_symmetry_group_IT_number 2
_symmetry_cell_setting 'triclinic'
loop_
_space_group_symop_operation_xyz
x,y,z
-x,-y,-z
loop_
_atom_site_type_symbol
_atom_site_label
_atom_site_fract_x
_atom_site_fract_y
_atom_site_fract_z
Si Si1 0.749412 0.211479 0.056287
Si Si2 0.769827 0.938832 0.165013
Si Si3 0.099805 0.291294 0.413996
Si Si4 0.341611 0.587024 0.000681
Si Si5 0.248900 0.302964 0.916660
Si Si6 0.843159 0.914629 0.604134
Si Si7 0.888419 0.395058 0.251746
Si Si8 0.989696 0.718800 0.201465
O O1 0.757249 0.272934 0.117155
O O2 0.914112 0.236347 0.277893
O O3 0.880872 0.381466 0.841288
O O4 0.500000 0.000000 0.000000
O O5 0.671827 0.822571 0.376903
O O6 0.605122 0.785173 0.057077
O O7 0.006875 0.061612 0.279193
O O8 0.823168 0.093899 0.951744
O O9 0.228415 0.326156 0.676910
O O10 0.254662 0.458331 0.234619
O O11 0.974371 0.111903 0.460608
O O12 0.248199 0.628255 0.816306
O O13 0.230600 0.463022 0.906276
O O14 0.080008 0.254391 0.827238
O O15 0.500000 0.500000 0.000000
O O16 0.203925 0.159782 0.169448
O O17 0.931993 0.325843 0.528164
#
# Coordination Sequence:
#
# PCOD9074012 Si02
#       8
#     2   2   2   2   2   2   2   2
#     4  10  23  41  66  94 129 166 200 259 322 367
#     4  10  23  41  62  93 124 166 204 259 309 369
#     4  11  22  42  64  94 125 163 214 257 308 381
#     4  11  24  39  69  90 122 169 208 252 317 368
#     4  11  24  40  63  93 128 166 208 262 312 365
#     4  10  22  41  61  89 130 158 211 258 305 370
#     4  10  23  42  62  95 128 157 213 260 302 382
#     4  11  23  44  61  93 131 159 209 260 305 373
#
# _framework density 21.881316999999999
#
# number of rings (size 3 to 8) (size 9 to 14) (size 15 to 20)
#    0.000    1.500    2.500    1.500    3.500    3.000 
#    0.000    0.000    0.000    0.000    0.000    0.000 
#    0.000    0.000    0.000    0.000    0.000    0.000 
#
# Total GULP energy -89220.737445 kJ/mol
# GULP energy per Si atom -5576.296090 kJ/mol
# Density = 2.183151 g / cm^3
# Si number density = 21.881317 Si / 1000 Ang^3
#
#
#
# Elastic Constant Matrix: (Units=GPa)
#
#
# Indices 1 2 3 4 5 6 
#
# 1 5.0267 -28.2463 -27.3163 -17.5028 6.3296 -5.0065
# 2 -28.2463 75.9706 14.4438 -7.1567 5.4727 -8.9920
# 3 -27.3163 14.4438 -19.2516 -43.7905 26.5803 39.1347
# 4 -17.5028 -7.1567 -43.7905 18.3634 -13.3598 2.0001
# 5 6.3296 5.4727 26.5803 -13.3598 17.6095 -8.6121
# 6 -5.0065 -8.9920 39.1347 2.0001 -8.6121 13.7313
#
#
#
# Elastic Compliance Matrix: (Units=1/GPa)
#
#
# Indices 1 2 3 4 5 6 
#
# 1 -0.016777 -0.011597 -0.000258 -0.049067 -0.043351 -0.033019
# 2 -0.011597 0.006430 0.001578 -0.019952 -0.023276 -0.016208
# 3 -0.000258 0.001578 -0.002688 0.001519 0.012852 0.016439
# 4 -0.049067 -0.019952 0.001519 0.034664 0.040557 -0.014897
# 5 -0.043351 -0.023276 0.012852 0.040557 0.079317 -0.023836
# 6 -0.033019 -0.016208 0.016439 -0.014897 -0.023836 -0.009458
#
#
# Mechanical properties :
#
#
# Convention : Reuss Voigt Hill
#
# Bulk Modulus (GPa) = -29.77334 -2.27688 -16.02511
# Shear Modulus (GPa) = 49.58194 16.79848 33.19021
#
# Velocity S-wave (km/s) = 4.76536 2.77376 3.89887
# Velocity P-wave (km/s) = 4.07946 3.03571 3.59566
#
# Compressibility (1/GPa) = -0.03358710
#
# Stress axis : x y z
#
# Youngs Moduli (GPa) = -59.60406 155.52011 -372.03892
#
# Poissons Ratio (x) = 1.80350 -0.09586
# Poissons Ratio (y) = -0.69120 0.58720
# Poissons Ratio (z) = -0.01536 -0.24546
#
# Static dielectric constant tensor:
#      x y z
#    x 1.972840 0.001630 -0.163100 
#    y 0.001630 1.831630 0.000210 
#    z -0.163100 0.000210 1.964720 
# 
# From -- ./inp_files/78044.got.cif
#   From: 2010.05.17/outbox.ucp.g08.bks.cvg/sg2_40_cif.got.tgz:78044.got - 2010.06.11 11:32:03.
