data_PCOD9074933
_publ_section_title
;
Structure prediction by ZEFSAII (Michael W. Deem and Ramdas Pophale) SiO2 
 PCOD9074933
Probable space group: P -1
;
_chemical_formula_sum "Si O2"
_cell_formula_units_Z 16
_cell_length_a 21.000000
_cell_length_b 12.000000
_cell_length_c 12.000000
_cell_angle_alpha 120.000000
_cell_angle_beta 40.000000
_cell_angle_gamma 150.000000
_cell_volume 836.888158
_symmetry_space_group_name_H-M "P -1"
_symmetry_group_IT_number 2
_symmetry_cell_setting 'triclinic'
loop_
_space_group_symop_operation_xyz
x,y,z
-x,-y,-z
loop_
_atom_site_type_symbol
_atom_site_label
_atom_site_fract_x
_atom_site_fract_y
_atom_site_fract_z
Si Si1 0.342284 0.405468 0.232607
Si Si2 0.524120 0.151995 0.292371
Si Si3 0.864069 0.647401 0.252800
Si Si4 0.791123 0.224142 0.897707
Si Si5 0.234429 0.710169 0.640009
Si Si6 0.302130 0.021629 0.874811
Si Si7 0.957055 0.042997 0.419371
Si Si8 0.162355 0.806357 0.426445
O O1 0.175513 0.282378 0.309980
O O2 0.489220 0.661902 0.241426
O O3 0.207901 0.156580 0.361711
O O4 0.500000 0.500000 0.000000
O O5 0.686597 0.424157 0.283924
O O6 0.402805 0.925177 0.429097
O O7 0.344359 0.003514 0.374935
O O8 0.670681 0.221746 0.064675
O O9 0.795977 0.465030 0.349147
O O10 0.903302 0.844161 0.328813
O O11 0.097618 0.864578 0.030643
O O12 0.758934 0.129410 0.771931
O O13 0.024101 0.506040 0.759339
O O14 0.720122 0.049009 0.003096
O O15 0.289591 0.878001 0.744608
O O16 0.929138 0.147864 0.440207
O O17 0.000000 0.500000 0.500000
#
# Coordination Sequence:
#
# PCOD9074933 Si02
#       8
#     2   2   2   2   2   2   2   2
#     4  11  23  42  69  99 137 173 213 280 351 397
#     4  12  24  42  73  94 138 190 220 276 333 391
#     4  11  22  42  67 104 136 169 225 281 340 399
#     4  11  23  42  66 103 135 171 231 276 332 397
#     4  11  22  40  69 108 134 168 225 285 343 390
#     4  11  21  40  72 109 137 164 220 289 344 401
#     4  11  27  43  65  99 137 176 224 277 337 406
#     4  12  28  48  66  95 138 185 234 271 325 408
#
# _framework density 19.118445000000001
#
# number of rings (size 3 to 8) (size 9 to 14) (size 15 to 20)
#    0.000    0.750    5.000    3.000    8.750    0.500 
#    2.250    0.000    0.000    2.250    0.000    0.000 
#    0.000    0.000    0.000    0.000    0.000    0.000 
#
# Total GULP energy -89077.149055 kJ/mol
# GULP energy per Si atom -5567.321816 kJ/mol
# Density = 1.907493 g / cm^3
# Si number density = 19.118445 Si / 1000 Ang^3
#
#
#
# Elastic Constant Matrix: (Units=GPa)
#
#
# Indices 1 2 3 4 5 6 
#
# 1 140.7134 52.7991 32.9029 -0.4887 -27.1860 17.6558
# 2 52.7991 150.5546 35.0063 -6.5630 -21.3564 11.0179
# 3 32.9029 35.0063 90.5000 -0.8267 -20.3715 4.1179
# 4 -0.4887 -6.5630 -0.8267 47.6494 7.2408 -9.6506
# 5 -27.1860 -21.3564 -20.3715 7.2408 39.8282 -2.0070
# 6 17.6558 11.0179 4.1179 -9.6506 -2.0070 48.3738
#
#
#
# Elastic Compliance Matrix: (Units=1/GPa)
#
#
# Indices 1 2 3 4 5 6 
#
# 1 0.009549 -0.002192 -0.001435 -0.001552 0.004740 -0.002977
# 2 -0.002192 0.008190 -0.001940 0.000666 0.001747 -0.000695
# 3 -0.001435 -0.001940 0.013447 -0.000837 0.005003 -0.000138
# 4 -0.001552 0.000666 -0.000837 0.022789 -0.005031 0.004824
# 5 0.004740 0.001747 0.005003 -0.005031 0.032643 -0.002203
# 6 -0.002977 -0.000695 -0.000138 0.004824 -0.002203 0.022800
#
#
# Mechanical properties :
#
#
# Convention : Reuss Voigt Hill
#
# Bulk Modulus (GPa) = 49.87526 69.24273 59.55899
# Shear Modulus (GPa) = 39.29722 44.57426 41.93574
#
# Velocity S-wave (km/s) = 4.53864 4.83378 4.68853
# Velocity P-wave (km/s) = 7.32187 8.21281 7.78010
#
# Compressibility (1/GPa) = 0.02005002
#
# Stress axis : x y z
#
# Youngs Moduli (GPa) = 104.72473 122.10514 74.36735
#
# Poissons Ratio (x) = 0.26771 0.10674
# Poissons Ratio (y) = 0.22960 0.14426
# Poissons Ratio (z) = 0.15031 0.23687
#
# Static dielectric constant tensor:
#      x y z
#    x 1.679300 0.005330 -0.006770 
#    y 0.005330 1.703340 0.024620 
#    z -0.006770 0.024620 1.771370 
# 
# From -- ./inp_files/471203.got.cif
#   From: 2010.05.17/outbox.ucp.g08.bks.cvg/sg2_236_cif.got.tgz:471203.got - 2010.06.11 11:32:03.
