data_PCOD9074112
_publ_section_title
;
Structure prediction by ZEFSAII (Michael W. Deem and Ramdas Pophale) SiO2 
 PCOD9074112
Probable space group: P -1
;
_chemical_formula_sum "Si O2"
_cell_formula_units_Z 16
_cell_length_a 9.000000
_cell_length_b 18.000000
_cell_length_c 12.000000
_cell_angle_alpha 140.000000
_cell_angle_beta 100.000000
_cell_angle_gamma 50.000000
_cell_volume 729.599496
_symmetry_space_group_name_H-M "P -1"
_symmetry_group_IT_number 2
_symmetry_cell_setting 'triclinic'
loop_
_space_group_symop_operation_xyz
x,y,z
-x,-y,-z
loop_
_atom_site_type_symbol
_atom_site_label
_atom_site_fract_x
_atom_site_fract_y
_atom_site_fract_z
Si Si1 0.290336 0.063821 0.969049
Si Si2 0.861274 0.100410 0.278675
Si Si3 0.353362 0.101002 0.365100
Si Si4 0.896721 0.298342 0.375174
Si Si5 0.462064 0.677830 0.888602
Si Si6 0.628143 0.775485 0.177830
Si Si7 0.469450 0.565439 0.201177
Si Si8 0.791155 0.569188 0.181837
O O1 0.293191 0.922689 0.791795
O O2 0.382128 0.053578 0.848080
O O3 0.021414 0.246478 0.210544
O O4 0.500000 0.000000 0.000000
O O5 0.822408 0.213419 0.301233
O O6 0.769957 0.218356 0.519916
O O7 0.162066 0.884111 0.070082
O O8 0.234254 0.299787 0.599137
O O9 0.132653 0.174614 0.350257
O O10 0.424830 0.999576 0.376771
O O11 0.646968 0.525676 0.636691
O O12 0.584219 0.717052 0.001453
O O13 0.487383 0.565477 0.858932
O O14 0.922381 0.632801 0.052268
O O15 0.611124 0.710632 0.214046
O O16 0.688746 0.525359 0.186682
O O17 0.500000 0.500000 0.000000
#
# Coordination Sequence:
#
# PCOD9074112 Si02
#       8
#     2   2   2   2   2   2   2   2
#     4  10  23  42  67  97 126 170 223 269 327 382
#     4  11  23  42  69  91 130 175 211 270 328 381
#     4  11  21  42  64  94 130 172 214 268 325 383
#     4  10  22  42  67  89 134 170 216 271 322 384
#     4  11  23  41  63  96 129 170 220 264 322 386
#     4  11  23  39  65  94 128 172 218 260 320 396
#     4  11  24  42  65  95 133 171 213 267 321 387
#     4  11  23  41  64  93 133 171 214 265 328 377
#
# _framework density 21.929839999999999
#
# number of rings (size 3 to 8) (size 9 to 14) (size 15 to 20)
#    0.000    1.250    5.000    0.750    1.750    1.000 
#    2.250    1.875    0.000    0.000    0.000    0.000 
#    0.000    0.000    0.000    0.000    0.000    0.000 
#
# Total GULP energy -89237.905400 kJ/mol
# GULP energy per Si atom -5577.369088 kJ/mol
# Density = 2.187993 g / cm^3
# Si number density = 21.929840 Si / 1000 Ang^3
#
#
#
# Elastic Constant Matrix: (Units=GPa)
#
#
# Indices 1 2 3 4 5 6 
#
# 1 99.5293 2.4242 24.2615 3.6363 3.3464 1.1054
# 2 2.4242 41.6416 11.9434 -4.9525 -2.3454 -11.6506
# 3 24.2615 11.9434 123.0659 -10.0794 -17.4627 -3.9829
# 4 3.6363 -4.9525 -10.0794 32.8444 2.7187 -5.3810
# 5 3.3464 -2.3454 -17.4627 2.7187 46.8310 -8.6706
# 6 1.1054 -11.6506 -3.9829 -5.3810 -8.6706 21.9002
#
#
#
# Elastic Compliance Matrix: (Units=1/GPa)
#
#
# Indices 1 2 3 4 5 6 
#
# 1 0.010934 -0.001198 -0.002676 -0.002549 -0.002285 -0.003207
# 2 -0.001198 0.031108 -0.000866 0.007471 0.004611 0.020113
# 3 -0.002676 -0.000866 0.009766 0.003462 0.004332 0.004016
# 4 -0.002549 0.007471 0.003462 0.035060 0.002464 0.014323
# 5 -0.002285 0.004611 0.004332 0.002464 0.025848 0.014195
# 6 -0.003207 0.020113 0.004016 0.014323 0.014195 0.066393
#
#
# Mechanical properties :
#
#
# Convention : Reuss Voigt Hill
#
# Bulk Modulus (GPa) = 23.62482 37.94388 30.78435
# Shear Modulus (GPa) = 24.66709 35.35562 30.01136
#
# Velocity S-wave (km/s) = 3.35747 4.01960 3.70336
# Velocity P-wave (km/s) = 5.08197 6.23561 5.68811
#
# Compressibility (1/GPa) = 0.04232837
#
# Stress axis : x y z
#
# Youngs Moduli (GPa) = 91.45470 32.14590 102.40086
#
# Poissons Ratio (x) = 0.03851 0.27404
# Poissons Ratio (y) = 0.10957 0.08865
# Poissons Ratio (z) = 0.24474 0.02783
#
# Static dielectric constant tensor:
#      x y z
#    x 1.806760 -0.019800 0.043040 
#    y -0.019800 1.809330 -0.041470 
#    z 0.043040 -0.041470 1.863040 
# 
# From -- ./inp_files/106974.got.cif
#   From: 2010.05.17/outbox.ucp.g08.bks.cvg/sg2_54_cif.got.tgz:106974.got - 2010.06.11 11:32:03.
