data_PCOD9074477
_publ_section_title
;
Structure prediction by ZEFSAII (Michael W. Deem and Ramdas Pophale) SiO2 
 PCOD9074477
Probable space group: P -1
;
_chemical_formula_sum "Si O2"
_cell_formula_units_Z 16
_cell_length_a 15.000000
_cell_length_b 15.000000
_cell_length_c 15.000000
_cell_angle_alpha 140.000000
_cell_angle_beta 20.000000
_cell_angle_gamma 140.000000
_cell_volume 725.414092
_symmetry_space_group_name_H-M "P -1"
_symmetry_group_IT_number 2
_symmetry_cell_setting 'triclinic'
loop_
_space_group_symop_operation_xyz
x,y,z
-x,-y,-z
loop_
_atom_site_type_symbol
_atom_site_label
_atom_site_fract_x
_atom_site_fract_y
_atom_site_fract_z
Si Si1 0.720812 0.287587 0.287599
Si Si2 0.357526 0.644967 0.794240
Si Si3 0.222354 0.315233 0.160793
Si Si4 0.673531 0.964248 0.072938
Si Si5 0.180853 0.545070 0.240829
Si Si6 0.926019 0.791545 0.387603
Si Si7 0.289096 0.445354 0.872168
Si Si8 0.115597 0.950908 0.501019
O O1 0.679002 0.335635 0.261930
O O2 0.558306 0.383466 0.571378
O O3 0.635024 0.119909 0.258688
O O4 0.036986 0.318356 0.023906
O O5 0.255492 0.517325 0.862654
O O6 0.675399 0.663039 0.518592
O O7 0.203263 0.762803 0.068547
O O8 0.124211 0.386451 0.218270
O O9 0.045511 0.371719 0.448379
O O10 0.231104 0.148177 0.035685
O O11 0.535410 0.381126 0.927964
O O12 0.381854 0.910352 0.259540
O O13 0.908106 0.983010 0.793415
O O14 0.244272 0.540957 0.072495
O O15 0.964603 0.831097 0.484607
O O16 0.829489 0.912506 0.512153
#
# Coordination Sequence:
#
# PCOD9074477 Si02
#       8
#     2   2   2   2   2   2   2   2
#     4  12  24  44  58  92 131 175 221 257 299 372
#     4  12  23  40  61  88 126 174 220 262 312 358
#     4  10  23  43  72  99 127 158 199 271 340 380
#     4  12  23  40  66  92 128 172 204 261 325 383
#     4  10  23  46  68  99 130 155 209 268 321 388
#     4  11  22  37  57  90 127 167 208 273 310 371
#     4  12  26  41  66  89 126 180 218 258 308 374
#     4  11  22  37  57  91 132 165 208 256 325 382
#
# _framework density 22.056367999999999
#
# number of rings (size 3 to 8) (size 9 to 14) (size 15 to 20)
#    0.000    0.750    2.500    5.250    5.250    2.000 
#    0.000    1.250    0.000    0.000    0.000    0.000 
#    0.000    0.000    0.000    0.000    0.000    0.000 
#
# Total GULP energy -89271.128167 kJ/mol
# GULP energy per Si atom -5579.445510 kJ/mol
# Density = 2.200617 g / cm^3
# Si number density = 22.056368 Si / 1000 Ang^3
#
#
#
# Elastic Constant Matrix: (Units=GPa)
#
#
# Indices 1 2 3 4 5 6 
#
# 1 21.4324 23.7808 17.3212 5.8352 0.2591 -11.8121
# 2 23.7808 56.2003 -12.1382 16.4040 0.9635 -34.1500
# 3 17.3212 -12.1382 96.1972 18.3654 2.5729 -22.7560
# 4 5.8352 16.4040 18.3654 42.6642 -2.5437 -9.7366
# 5 0.2591 0.9635 2.5729 -2.5437 33.4473 9.2428
# 6 -11.8121 -34.1500 -22.7560 -9.7366 9.2428 19.3356
#
#
#
# Elastic Compliance Matrix: (Units=1/GPa)
#
#
# Indices 1 2 3 4 5 6 
#
# 1 0.076936 0.000120 -0.000834 0.001247 -0.015427 0.054233
# 2 0.000120 -0.013815 -0.013321 0.001349 0.014277 -0.046148
# 3 -0.000834 -0.013321 0.003232 -0.001247 0.006696 -0.024062
# 4 0.001247 0.001349 -0.001247 0.026878 -0.002433 0.016374
# 5 -0.015427 0.014277 0.006696 -0.002433 0.026159 0.009941
# 6 0.054233 -0.046148 -0.024062 0.016374 0.009941 -0.021481
#
#
# Mechanical properties :
#
#
# Convention : Reuss Voigt Hill
#
# Bulk Modulus (GPa) = 26.12090 25.75083 25.93587
# Shear Modulus (GPa) = 36.03896 28.74718 32.39307
#
# Velocity S-wave (km/s) = 4.04660 3.61411 3.83645
# Velocity P-wave (km/s) = 5.80532 5.39593 5.60437
#
# Compressibility (1/GPa) = 0.03828351
#
# Stress axis : x y z
#
# Youngs Moduli (GPa) = 12.99788 -72.38661 309.42400
#
# Poissons Ratio (x) = 0.00870 0.25809
# Poissons Ratio (y) = -0.00156 4.12177
# Poissons Ratio (z) = 0.01084 -0.96425
#
# Static dielectric constant tensor:
#      x y z
#    x 1.833260 0.042570 0.004190 
#    y 0.042570 1.927250 -0.003840 
#    z 0.004190 -0.003840 1.734010 
# 
# From -- ./inp_files/534270.got.cif
#   From: 2010.05.17/outbox.ucp.g08.bks.cvg/sg2_268_cif.got.tgz:534270.got - 2010.06.11 11:32:03.
