data_PCOD9074296
_publ_section_title
;
Structure prediction by ZEFSAII (Michael W. Deem and Ramdas Pophale) SiO2 
 PCOD9074296
Probable space group: P -1
;
_chemical_formula_sum "Si O2"
_cell_formula_units_Z 16
_cell_length_a 9.000000
_cell_length_b 12.000000
_cell_length_c 18.000000
_cell_angle_alpha 40.000000
_cell_angle_beta 130.000000
_cell_angle_gamma 100.000000
_cell_volume 729.599496
_symmetry_space_group_name_H-M "P -1"
_symmetry_group_IT_number 2
_symmetry_cell_setting 'triclinic'
loop_
_space_group_symop_operation_xyz
x,y,z
-x,-y,-z
loop_
_atom_site_type_symbol
_atom_site_label
_atom_site_fract_x
_atom_site_fract_y
_atom_site_fract_z
Si Si1 0.161506 0.060222 0.310559
Si Si2 0.943821 0.474745 0.230624
Si Si3 0.613053 0.445377 0.400574
Si Si4 0.666596 0.503212 0.990529
Si Si5 0.129879 0.746770 0.195977
Si Si6 0.540807 0.714337 0.105084
Si Si7 0.907424 0.786029 0.260736
Si Si8 0.597737 0.029256 0.403675
O O1 0.323571 0.095975 0.292315
O O2 0.860982 0.281810 0.112803
O O3 0.261669 0.815205 0.440138
O O4 0.276236 0.017852 0.451471
O O5 0.009185 0.636710 0.184317
O O6 0.853178 0.509502 0.099210
O O7 0.709103 0.561589 0.165969
O O8 0.196158 0.206241 0.455810
O O9 0.410028 0.578372 0.334367
O O10 0.494645 0.587442 0.213937
O O11 0.862011 0.415071 0.513174
O O12 0.500000 0.500000 0.000000
O O13 0.468923 0.744317 0.764348
O O14 0.066209 0.779452 0.246568
O O15 0.000000 0.000000 0.000000
O O16 0.725371 0.748499 0.186153
O O17 0.278341 0.972487 0.879656
#
# Coordination Sequence:
#
# PCOD9074296 Si02
#       8
#     2   2   2   2   2   2   2   2
#     4  10  24  41  66  95 125 165 212 262 323 372
#     4  10  24  43  64  93 132 172 206 261 331 369
#     4  12  23  39  69  93 119 170 216 257 316 383
#     4  11  26  42  66  98 126 169 218 264 322 387
#     4  11  22  45  64  95 131 166 213 269 316 377
#     4  10  23  41  61  90 132 165 207 264 315 374
#     4  10  23  41  61  90 128 166 211 260 315 377
#     4  10  22  46  65  90 133 165 209 268 315 384
#
# _framework density 21.929839999999999
#
# number of rings (size 3 to 8) (size 9 to 14) (size 15 to 20)
#    0.000    1.500    2.500    1.125    5.250    2.000 
#    4.500    0.000    0.000    0.000    0.000    0.000 
#    0.000    0.000    0.000    0.000    0.000    0.000 
#
# Total GULP energy -89244.962241 kJ/mol
# GULP energy per Si atom -5577.810140 kJ/mol
# Density = 2.187993 g / cm^3
# Si number density = 21.929840 Si / 1000 Ang^3
#
#
#
# Elastic Constant Matrix: (Units=GPa)
#
#
# Indices 1 2 3 4 5 6 
#
# 1 124.6317 27.4575 53.7664 -27.7055 18.2065 -16.5596
# 2 27.4575 92.8765 26.1344 -32.3838 15.6019 -13.8856
# 3 53.7664 26.1344 108.0805 -29.0408 17.1321 -14.1625
# 4 -27.7055 -32.3838 -29.0408 38.1848 -7.9840 11.9096
# 5 18.2065 15.6019 17.1321 -7.9840 43.9246 -12.7340
# 6 -16.5596 -13.8856 -14.1625 11.9096 -12.7340 35.1197
#
#
#
# Elastic Compliance Matrix: (Units=1/GPa)
#
#
# Indices 1 2 3 4 5 6 
#
# 1 0.011130 -0.000249 -0.003901 0.004034 -0.001821 0.001548
# 2 -0.000249 0.015763 0.000267 0.012473 -0.003079 0.000876
# 3 -0.003901 0.000267 0.013433 0.006979 -0.002310 0.000479
# 4 0.004034 0.012473 0.006979 0.046704 -0.002380 -0.007053
# 5 -0.001821 -0.003079 -0.002310 -0.002380 0.027316 0.007705
# 6 0.001548 0.000876 0.000479 -0.007053 0.007705 0.034929
#
#
# Mechanical properties :
#
#
# Convention : Reuss Voigt Hill
#
# Bulk Modulus (GPa) = 30.71354 60.03392 45.37373
# Shear Modulus (GPa) = 29.78070 37.99453 33.88761
#
# Velocity S-wave (km/s) = 3.68910 4.16691 3.93526
# Velocity P-wave (km/s) = 5.67289 7.11236 6.43302
#
# Compressibility (1/GPa) = 0.03255893
#
# Stress axis : x y z
#
# Youngs Moduli (GPa) = 89.84817 63.44027 74.44502
#
# Poissons Ratio (x) = 0.01578 0.29042
# Poissons Ratio (y) = 0.02235 -0.01984
# Poissons Ratio (z) = 0.35051 -0.01691
#
# Static dielectric constant tensor:
#      x y z
#    x 1.816330 0.030900 -0.010130 
#    y 0.030900 1.870890 0.064370 
#    z -0.010130 0.064370 1.806520 
# 
# From -- ./inp_files/37389.got.cif
#   From: 2010.05.17/outbox.ucp.g08.bks.cvg/sg2_19_cif.got.tgz:37389.got - 2010.06.11 11:32:03.
