data_PCOD9074513
_publ_section_title
;
Structure prediction by ZEFSAII (Michael W. Deem and Ramdas Pophale) SiO2 
 PCOD9074513
Probable space group: P -1
;
_chemical_formula_sum "Si O2"
_cell_formula_units_Z 14
_cell_length_a 15.000000
_cell_length_b 9.000000
_cell_length_c 15.000000
_cell_angle_alpha 150.000000
_cell_angle_beta 40.000000
_cell_angle_gamma 140.000000
_cell_volume 616.747849
_symmetry_space_group_name_H-M "P -1"
_symmetry_group_IT_number 2
_symmetry_cell_setting 'triclinic'
loop_
_space_group_symop_operation_xyz
x,y,z
-x,-y,-z
loop_
_atom_site_type_symbol
_atom_site_label
_atom_site_fract_x
_atom_site_fract_y
_atom_site_fract_z
Si Si1 0.522906 0.716963 0.758255
Si Si2 0.731027 0.019292 0.915080
Si Si3 0.698059 0.174749 0.708330
Si Si4 0.134736 0.832945 0.719258
Si Si5 0.177507 0.098779 0.015273
Si Si6 0.003584 0.086520 0.437603
Si Si7 0.584901 0.965811 0.506046
O O1 0.502038 0.371468 0.562622
O O2 0.616001 0.762244 0.803522
O O3 0.606259 0.976230 0.757081
O O4 0.356993 0.731469 0.899347
O O5 0.753048 0.955249 0.970582
O O6 0.892171 0.079381 0.779424
O O7 0.758873 0.539032 0.875525
O O8 0.834934 0.042055 0.517330
O O9 0.611738 0.176021 0.682901
O O10 0.083517 0.457140 0.552604
O O11 0.996102 0.951947 0.869058
O O12 0.256845 0.988320 0.634035
O O13 0.190452 0.904146 0.816011
O O14 0.000000 0.000000 0.500000
O O15 0.500000 0.000000 0.500000
#
# Coordination Sequence:
#
# PCOD9074513 Si02
#       7
#     2   2   2   2   2   2   2
#     4  11  26  42  67 102 137 172 224 273 333 402
#     4  11  24  43  68  97 135 178 220 269 340 388
#     4  11  24  44  71  97 132 179 228 272 327 399
#     4  10  24  42  67 101 130 173 230 273 323 400
#     4  10  23  44  71  95 134 177 223 276 331 388
#     4  11  22  43  72  96 131 173 226 277 328 387
#     4  12  26  43  69  97 138 174 222 273 333 400
#
# _framework density 22.699714
#
# number of rings (size 3 to 8) (size 9 to 14) (size 15 to 20)
#    0.000    1.143    1.429    3.857    6.000    5.143 
#    0.000    2.143    0.000    0.000    0.000    0.000 
#    0.000    0.000    0.000    0.000    0.000    0.000 
#
# Total GULP energy -78167.595452 kJ/mol
# GULP energy per Si atom -5583.399675 kJ/mol
# Density = 2.264805 g / cm^3
# Si number density = 22.699714 Si / 1000 Ang^3
#
#
#
# Elastic Constant Matrix: (Units=GPa)
#
#
# Indices 1 2 3 4 5 6 
#
# 1 122.9244 5.1603 3.5327 -8.0651 11.0330 -13.1134
# 2 5.1603 76.9800 3.1707 -4.9787 11.0137 -12.0220
# 3 3.5327 3.1707 38.9758 -14.3982 1.6586 8.9360
# 4 -8.0651 -4.9787 -14.3982 20.3444 -1.2027 8.6400
# 5 11.0330 11.0137 1.6586 -1.2027 35.6213 -5.6748
# 6 -13.1134 -12.0220 8.9360 8.6400 -5.6748 25.7167
#
#
#
# Elastic Compliance Matrix: (Units=1/GPa)
#
#
# Indices 1 2 3 4 5 6 
#
# 1 0.008884 0.000552 -0.001842 0.000138 -0.002046 0.004930
# 2 0.000552 0.014814 -0.004517 -0.003463 -0.003186 0.009236
# 3 -0.001842 -0.004517 0.057358 0.056822 -0.005687 -0.043327
# 4 0.000138 -0.003463 0.056822 0.114168 -0.007531 -0.061312
# 5 -0.002046 -0.003186 -0.005687 -0.007531 0.031111 0.008838
# 6 0.004930 0.009236 -0.043327 -0.061312 0.008838 0.083321
#
#
# Mechanical properties :
#
#
# Convention : Reuss Voigt Hill
#
# Bulk Modulus (GPa) = 14.40064 29.17861 21.78963
# Shear Modulus (GPa) = 14.51734 31.47092 22.99413
#
# Velocity S-wave (km/s) = 2.53165 3.72748 3.18617
# Velocity P-wave (km/s) = 3.86050 5.60425 4.81202
#
# Compressibility (1/GPa) = 0.06944134
#
# Stress axis : x y z
#
# Youngs Moduli (GPa) = 112.56801 67.50477 17.43445
#
# Poissons Ratio (x) = -0.03726 0.03212
# Poissons Ratio (y) = -0.06214 0.07874
# Poissons Ratio (z) = 0.20738 0.30489
#
# Static dielectric constant tensor:
#      x y z
#    x 1.838880 0.043610 -0.015820 
#    y 0.043610 1.801260 -0.008520 
#    z -0.015820 -0.008520 1.883440 
# 
# From -- ./inp_files/332802.got.cif
#   From: 2010.05.17/outbox.ucp.g08.bks.cvg/sg2_167_cif.got.tgz:332802.got - 2010.06.11 11:32:03.
