data_PCOD9074485
_publ_section_title
;
Structure prediction by ZEFSAII (Michael W. Deem and Ramdas Pophale) SiO2 
 PCOD9074485
Probable space group: P -1
;
_chemical_formula_sum "Si O2"
_cell_formula_units_Z 15
_cell_length_a 6.000000
_cell_length_b 21.000000
_cell_length_c 15.000000
_cell_angle_alpha 160.000000
_cell_angle_beta 90.000000
_cell_angle_gamma 90.000000
_cell_volume 646.418071
_symmetry_space_group_name_H-M "P -1"
_symmetry_group_IT_number 2
_symmetry_cell_setting 'triclinic'
loop_
_space_group_symop_operation_xyz
x,y,z
-x,-y,-z
loop_
_atom_site_type_symbol
_atom_site_label
_atom_site_fract_x
_atom_site_fract_y
_atom_site_fract_z
Si Si1 0.363454 0.257396 0.262250
Si Si2 0.285203 0.321486 0.860445
Si Si3 0.710316 0.709904 0.492565
Si Si4 0.000000 0.000000 0.500000
Si Si5 0.356505 0.709374 0.035273
Si Si6 0.265077 0.671606 0.787344
Si Si7 0.928424 0.996127 0.185900
Si Si8 0.359816 0.734070 0.364626
O O1 0.387329 0.240963 0.346012
O O2 0.224434 0.449812 0.498611
O O3 0.589368 0.285650 0.243846
O O4 0.239176 0.081266 0.989957
O O5 0.405261 0.305989 0.936322
O O6 0.483066 0.258375 0.710951
O O7 0.238543 0.533870 0.110117
O O8 0.077283 0.186738 0.689260
O O9 0.527345 0.736662 0.451850
O O10 0.765122 0.489315 0.206147
O O11 0.912969 0.845743 0.647554
O O12 0.207944 0.878708 0.293471
O O13 0.394408 0.716240 0.938040
O O14 0.062261 0.814117 0.976635
O O15 0.800513 0.091914 0.393545
#
# Coordination Sequence:
#
# PCOD9074485 Si02
#       8
#     2   2   2   1   2   2   2   2
#     4  10  23  44  66  92 137 174 216 275 326 388
#     4  10  24  46  66  96 135 178 219 274 335 392
#     4  10  23  44  65  96 132 175 220 268 328 393
#     4  12  24  38  70  98 128 168 226 272 328 392
#     4  10  24  43  65  95 136 171 216 270 334 394
#     4  10  24  43  64  97 134 175 216 271 332 388
#     4  12  23  37  69  98 128 170 228 267 324 394
#     4  10  24  44  68  96 136 176 220 275 333 392
#
# _framework density 23.204796999999999
#
# number of rings (size 3 to 8) (size 9 to 14) (size 15 to 20)
#    0.000    1.600    0.000    2.800    5.600    4.267 
#    0.000    9.333    0.000    0.000    0.000    0.000 
#    0.000    0.000    0.000    0.000    0.000    0.000 
#
# Total GULP energy -83725.821037 kJ/mol
# GULP energy per Si atom -5581.721402 kJ/mol
# Density = 2.315198 g / cm^3
# Si number density = 23.204797 Si / 1000 Ang^3
#
#
#
# Elastic Constant Matrix: (Units=GPa)
#
#
# Indices 1 2 3 4 5 6 
#
# 1 15.4698 -1.1898 33.8302 5.4287 -1.7544 8.1816
# 2 -1.1898 59.5345 5.1170 -16.9489 18.6101 2.3273
# 3 33.8302 5.1170 115.6018 2.0238 -17.2885 2.4367
# 4 5.4287 -16.9489 2.0238 31.6806 3.8456 8.1190
# 5 -1.7544 18.6101 -17.2885 3.8456 48.9920 3.7172
# 6 8.1816 2.3273 2.4367 8.1190 3.7172 26.6683
#
#
#
# Elastic Compliance Matrix: (Units=1/GPa)
#
#
# Indices 1 2 3 4 5 6 
#
# 1 0.334310 0.022545 -0.100379 -0.013334 -0.024298 -0.087912
# 2 0.022545 0.027249 -0.009847 0.015883 -0.013403 -0.011362
# 3 -0.100379 -0.009847 0.039700 0.001278 0.012086 0.025953
# 4 -0.013334 0.015883 0.001278 0.045949 -0.008895 -0.010161
# 5 -0.024298 -0.013403 0.012086 -0.008895 0.029128 0.006168
# 6 -0.087912 -0.011362 0.025953 -0.010161 0.006168 0.065322
#
#
# Mechanical properties :
#
#
# Convention : Reuss Voigt Hill
#
# Bulk Modulus (GPa) = 4.42681 29.56900 16.99791
# Shear Modulus (GPa) = 6.31058 31.65808 18.98433
#
# Velocity S-wave (km/s) = 1.65088 3.69764 2.86338
# Velocity P-wave (km/s) = 2.35494 5.56779 4.27470
#
# Compressibility (1/GPa) = 0.22589639
#
# Stress axis : x y z
#
# Youngs Moduli (GPa) = 2.99124 36.69795 25.18912
#
# Poissons Ratio (x) = -0.82734 2.52846
# Poissons Ratio (y) = -0.06744 0.24803
# Poissons Ratio (z) = 0.30026 0.36136
#
# Static dielectric constant tensor:
#      x y z
#    x 1.951280 -0.136160 0.008760 
#    y -0.136160 1.953540 -0.007060 
#    z 0.008760 -0.007060 1.886830 
# 
# From -- ./inp_files/54796.got.cif
#   From: 2010.05.17/outbox.ucp.g08.bks.cvg/sg2_28_cif.got.tgz:54796.got - 2010.06.11 11:32:03.
