data_PCOD9074390
_publ_section_title
;
Structure prediction by ZEFSAII (Michael W. Deem and Ramdas Pophale) SiO2 
 PCOD9074390
Probable space group: P -1
;
_chemical_formula_sum "Si O2"
_cell_formula_units_Z 16
_cell_length_a 21.000000
_cell_length_b 9.000000
_cell_length_c 12.000000
_cell_angle_alpha 140.000000
_cell_angle_beta 150.000000
_cell_angle_gamma 50.000000
_cell_volume 727.418465
_symmetry_space_group_name_H-M "P -1"
_symmetry_group_IT_number 2
_symmetry_cell_setting 'triclinic'
loop_
_space_group_symop_operation_xyz
x,y,z
-x,-y,-z
loop_
_atom_site_type_symbol
_atom_site_label
_atom_site_fract_x
_atom_site_fract_y
_atom_site_fract_z
Si Si1 0.733383 0.927735 0.131048
Si Si2 0.244619 0.634372 0.429259
Si Si3 0.777248 0.979909 0.626629
Si Si4 0.460259 0.847843 0.746533
Si Si5 0.656430 0.185563 0.941860
Si Si6 0.897667 0.496576 0.069103
Si Si7 0.105263 0.462515 0.538525
Si Si8 0.359659 0.232229 0.498100
O O1 0.826885 0.723104 0.132705
O O2 0.770323 0.110326 0.393144
O O3 0.593246 0.798975 0.865318
O O4 0.712616 0.091993 0.088247
O O5 0.362420 0.645115 0.524772
O O6 0.300256 0.468774 0.508806
O O7 0.125431 0.531813 0.115732
O O8 0.854065 0.803119 0.566489
O O9 0.746442 0.871233 0.636168
O O10 0.632459 0.001311 0.377736
O O11 0.841905 0.240219 0.878818
O O12 0.500000 0.000000 0.000000
O O13 0.510895 0.268130 0.781484
O O14 0.642653 0.958391 0.712673
O O15 0.761679 0.376583 0.160204
O O16 0.035419 0.521952 0.350536
O O17 0.000000 0.500000 0.500000
#
# Coordination Sequence:
#
# PCOD9074390 Si02
#       8
#     2   2   2   2   2   2   2   2
#     4  11  22  44  72 108 143 187 238 296 365 422
#     4  10  23  41  70 104 143 189 232 296 358 424
#     4  11  24  46  73 105 140 189 238 302 360 414
#     4   9  21  37  68 106 139 180 230 295 360 425
#     4  11  25  43  72 109 144 191 237 301 363 424
#     4  11  26  47  70 103 149 191 242 284 351 438
#     4  12  29  47  73 102 144 199 248 289 350 437
#     4  11  23  46  72 110 150 175 243 308 369 420
#
# _framework density 21.995591999999998
#
# number of rings (size 3 to 8) (size 9 to 14) (size 15 to 20)
#    0.000    1.250    2.500    1.875    8.750    5.500 
#    0.000    1.250    0.000    0.000    0.000    0.000 
#    0.000    0.000    0.000    0.000    0.000    0.000 
#
# Total GULP energy -89282.277199 kJ/mol
# GULP energy per Si atom -5580.142325 kJ/mol
# Density = 2.194553 g / cm^3
# Si number density = 21.995592 Si / 1000 Ang^3
#
#
#
# Elastic Constant Matrix: (Units=GPa)
#
#
# Indices 1 2 3 4 5 6 
#
# 1 72.6623 23.3607 9.9446 12.7834 0.3237 -6.9576
# 2 23.3607 129.4438 30.7705 8.9067 -11.0089 -12.0448
# 3 9.9446 30.7705 105.0502 -0.5187 -4.9783 -18.0240
# 4 12.7834 8.9067 -0.5187 34.6452 -1.1623 -3.2080
# 5 0.3237 -11.0089 -4.9783 -1.1623 24.7983 11.6442
# 6 -6.9576 -12.0448 -18.0240 -3.2080 11.6442 32.6319
#
#
#
# Elastic Compliance Matrix: (Units=1/GPa)
#
#
# Indices 1 2 3 4 5 6 
#
# 1 0.015756 -0.002369 -0.000488 -0.005054 -0.002882 0.002747
# 2 -0.002369 0.009095 -0.002240 -0.001359 0.003435 0.000255
# 3 -0.000488 -0.002240 0.011172 0.001420 -0.001447 0.005896
# 4 -0.005054 -0.001359 0.001420 0.031311 0.000172 0.002222
# 5 -0.002882 0.003435 -0.001447 0.000172 0.050053 -0.017990
# 6 0.002747 0.000255 0.005896 0.002222 -0.017990 0.041219
#
#
# Mechanical properties :
#
#
# Convention : Reuss Voigt Hill
#
# Bulk Modulus (GPa) = 38.71696 48.36752 43.54224
# Shear Modulus (GPa) = 28.18362 34.62044 31.40203
#
# Velocity S-wave (km/s) = 3.58345 3.97164 3.78253
# Velocity P-wave (km/s) = 5.89592 6.56271 6.23823
#
# Compressibility (1/GPa) = 0.02582847
#
# Stress axis : x y z
#
# Youngs Moduli (GPa) = 63.46870 109.95342 89.51349
#
# Poissons Ratio (x) = 0.26051 0.04366
# Poissons Ratio (y) = 0.15037 0.20049
# Poissons Ratio (z) = 0.03096 0.24627
#
# Static dielectric constant tensor:
#      x y z
#    x 1.835460 0.022460 0.011730 
#    y 0.022460 1.790800 -0.021130 
#    z 0.011730 -0.021130 1.834620 
# 
# From -- ./inp_files/470233.got.cif
#   From: 2010.05.17/outbox.ucp.g08.bks.cvg/sg2_236_cif.got.tgz:470233.got - 2010.06.11 11:32:03.
