data_PCOD9074229
_publ_section_title
;
Structure prediction by ZEFSAII (Michael W. Deem and Ramdas Pophale) SiO2 
 PCOD9074229
Probable space group: P -1
;
_chemical_formula_sum "Si O2"
_cell_formula_units_Z 16
_cell_length_a 12.000000
_cell_length_b 12.000000
_cell_length_c 18.000000
_cell_angle_alpha 130.000000
_cell_angle_beta 30.000000
_cell_angle_gamma 110.000000
_cell_volume 822.245522
_symmetry_space_group_name_H-M "P -1"
_symmetry_group_IT_number 2
_symmetry_cell_setting 'triclinic'
loop_
_space_group_symop_operation_xyz
x,y,z
-x,-y,-z
loop_
_atom_site_type_symbol
_atom_site_label
_atom_site_fract_x
_atom_site_fract_y
_atom_site_fract_z
Si Si1 0.830860 0.496337 0.528087
Si Si2 0.146959 0.079271 0.134867
Si Si3 0.570666 0.590503 0.245836
Si Si4 0.926781 0.065805 0.400229
Si Si5 0.080995 0.073686 0.915184
Si Si6 0.885100 0.479941 0.169425
Si Si7 0.759555 0.832016 0.632686
Si Si8 0.711312 0.844176 0.490751
O O1 0.556286 0.525625 0.732509
O O2 0.792405 0.649756 0.561615
O O3 0.000000 0.500000 0.500000
O O4 0.985939 0.294316 0.319294
O O5 0.153602 0.011466 0.184658
O O6 0.004949 0.002461 0.135512
O O7 0.454295 0.989753 0.896154
O O8 0.337255 0.776573 0.423962
O O9 0.665369 0.564120 0.265837
O O10 0.836989 0.549099 0.032564
O O11 0.019407 0.142002 0.445342
O O12 0.877448 0.915216 0.385323
O O13 0.402197 0.978451 0.699095
O O14 0.945500 0.287855 0.077450
O O15 0.000000 0.000000 0.000000
O O16 0.780504 0.647386 0.354962
O O17 0.764990 0.846977 0.547721
#
# Coordination Sequence:
#
# PCOD9074229 Si02
#       8
#     2   2   2   2   2   2   2   2
#     4  11  23  42  69 101 133 173 232 280 325 402
#     4  11  25  43  73  97 133 181 228 282 339 392
#     4  10  22  44  68 100 134 170 230 286 331 393
#     4  11  24  46  69 101 137 178 233 280 331 407
#     4  12  26  47  68 100 141 174 225 287 340 410
#     4  11  26  44  72  98 134 179 226 286 342 397
#     4  12  25  45  67 102 142 182 223 278 342 410
#     4  12  27  43  71 101 141 182 225 276 350 406
#
# _framework density 19.458908000000001
#
# number of rings (size 3 to 8) (size 9 to 14) (size 15 to 20)
#    0.000    0.750    5.000    3.000    7.000    1.500 
#    0.000    0.625    0.000    0.000    0.000    0.000 
#    0.000    0.000    0.000    0.000    0.000    0.000 
#
# Total GULP energy -89143.415294 kJ/mol
# GULP energy per Si atom -5571.463456 kJ/mol
# Density = 1.941462 g / cm^3
# Si number density = 19.458908 Si / 1000 Ang^3
#
#
#
# Elastic Constant Matrix: (Units=GPa)
#
#
# Indices 1 2 3 4 5 6 
#
# 1 133.8030 31.3643 32.7813 7.7694 -2.9535 10.9992
# 2 31.3643 136.1460 28.0034 21.4412 1.1432 13.1255
# 3 32.7813 28.0034 58.7704 18.8590 -2.6179 4.9578
# 4 7.7694 21.4412 18.8590 43.6818 3.9051 -4.1253
# 5 -2.9535 1.1432 -2.6179 3.9051 26.0486 -3.1935
# 6 10.9992 13.1255 4.9578 -4.1253 -3.1935 42.7732
#
#
#
# Elastic Compliance Matrix: (Units=1/GPa)
#
#
# Indices 1 2 3 4 5 6 
#
# 1 0.008926 -0.001114 -0.004572 0.000779 0.000322 -0.001324
# 2 -0.001114 0.008855 -0.002344 -0.003325 -0.000561 -0.002522
# 3 -0.004572 -0.002344 0.023735 -0.008699 0.003094 -0.001464
# 4 0.000779 -0.003325 -0.008699 0.028945 -0.004454 0.004287
# 5 0.000322 -0.000561 0.003094 -0.004454 0.039707 0.002266
# 6 -0.001324 -0.002522 -0.001464 0.004287 0.002266 0.025246
#
#
# Mechanical properties :
#
#
# Convention : Reuss Voigt Hill
#
# Bulk Modulus (GPa) = 39.28124 57.00193 48.14159
# Shear Modulus (GPa) = 31.25837 38.27209 34.76523
#
# Velocity S-wave (km/s) = 4.01231 4.43969 4.23140
# Velocity P-wave (km/s) = 6.45720 7.45910 6.97616
#
# Compressibility (1/GPa) = 0.02545744
#
# Stress axis : x y z
#
# Youngs Moduli (GPa) = 112.03822 112.92982 42.13215
#
# Poissons Ratio (x) = 0.12575 0.19262
# Poissons Ratio (y) = 0.12476 0.09874
# Poissons Ratio (z) = 0.51222 0.26466
#
# Static dielectric constant tensor:
#      x y z
#    x 1.714060 0.001580 0.035710 
#    y 0.001580 1.662100 -0.006080 
#    z 0.035710 -0.006080 1.758560 
# 
# From -- ./inp_files/568791.got.cif
#   From: 2010.05.17/outbox.ucp.g08.bks.cvg/sg2_285_cif.got.tgz:568791.got - 2010.06.11 11:32:03.
