data_PCOD9074692
_publ_section_title
;
Structure prediction by ZEFSAII (Michael W. Deem and Ramdas Pophale) SiO2 
 PCOD9074692
Probable space group: P -1
;
_chemical_formula_sum "Si O2"
_cell_formula_units_Z 14
_cell_length_a 9.000000
_cell_length_b 21.000000
_cell_length_c 9.000000
_cell_angle_alpha 30.000000
_cell_angle_beta 50.000000
_cell_angle_gamma 50.000000
_cell_volume 634.839654
_symmetry_space_group_name_H-M "P -1"
_symmetry_group_IT_number 2
_symmetry_cell_setting 'triclinic'
loop_
_space_group_symop_operation_xyz
x,y,z
-x,-y,-z
loop_
_atom_site_type_symbol
_atom_site_label
_atom_site_fract_x
_atom_site_fract_y
_atom_site_fract_z
Si Si1 0.029796 0.256234 0.826546
Si Si2 0.627667 0.350384 0.562102
Si Si3 0.315628 0.880405 0.767660
Si Si4 0.121869 0.187036 0.242313
Si Si5 0.808900 0.528601 0.292165
Si Si6 0.376973 0.123180 0.661728
Si Si7 0.318954 0.843727 0.339717
O O1 0.175412 0.208013 0.690786
O O2 0.943529 0.411793 0.541415
O O3 0.140027 0.219678 0.988400
O O4 0.858149 0.172105 0.102406
O O5 0.772599 0.446273 0.330253
O O6 0.408847 0.433536 0.570845
O O7 0.625054 0.289985 0.521475
O O8 0.668880 0.215646 0.905704
O O9 0.526553 0.843006 0.621341
O O10 0.261012 0.040998 0.486758
O O11 0.905805 0.156323 0.470230
O O12 0.132142 0.327060 0.035177
O O13 0.543923 0.143019 0.633884
O O14 0.339635 0.976211 0.972504
#
# Coordination Sequence:
#
# PCOD9074692 Si02
#       7
#     2   2   2   2   2   2   2
#     4  11  22  44  67 102 132 173 217 280 321 398
#     4  10  24  48  65  94 136 177 222 266 329 396
#     4  11  23  43  72  99 131 172 220 279 327 385
#     4  12  22  41  70 101 134 170 222 276 330 382
#     4  10  24  45  65  89 139 181 214 269 328 394
#     4  11  22  41  71 101 129 169 223 277 330 381
#     4  11  23  40  68 101 133 170 221 276 327 392
#
# _framework density 22.052813
#
# number of rings (size 3 to 8) (size 9 to 14) (size 15 to 20)
#    0.000    1.143    2.857    4.286    0.000    3.429 
#   12.857    1.429    0.000    0.000    0.000    0.000 
#    0.000    0.000    0.000    0.000    0.000    0.000 
#
# Total GULP energy -78114.346119 kJ/mol
# GULP energy per Si atom -5579.596151 kJ/mol
# Density = 2.200262 g / cm^3
# Si number density = 22.052813 Si / 1000 Ang^3
#
#
#
# Elastic Constant Matrix: (Units=GPa)
#
#
# Indices 1 2 3 4 5 6 
#
# 1 64.5856 33.4722 31.9632 -6.5786 -18.5073 7.6281
# 2 33.4722 117.3105 24.9169 -24.6666 -18.7222 1.6498
# 3 31.9632 24.9169 108.8230 -28.5108 -33.7425 -1.6889
# 4 -6.5786 -24.6666 -28.5108 51.1588 -8.4999 -9.3326
# 5 -18.5073 -18.7222 -33.7425 -8.4999 38.0531 -10.3324
# 6 7.6281 1.6498 -1.6889 -9.3326 -10.3324 43.1288
#
#
#
# Elastic Compliance Matrix: (Units=1/GPa)
#
#
# Indices 1 2 3 4 5 6 
#
# 1 0.021661 -0.005744 -0.006388 -0.004486 -0.000288 -0.004901
# 2 -0.005744 0.013911 0.006959 0.013738 0.015298 0.007394
# 3 -0.006388 0.006959 0.027630 0.026723 0.035173 0.016154
# 4 -0.004486 0.013738 0.026723 0.052555 0.046480 0.023822
# 5 -0.000288 0.015298 0.035173 0.046480 0.083636 0.030938
# 6 -0.004901 0.007394 0.016154 0.023822 0.030938 0.036970
#
#
# Mechanical properties :
#
#
# Convention : Reuss Voigt Hill
#
# Bulk Modulus (GPa) = 18.91907 52.38041 35.64974
# Shear Modulus (GPa) = 18.91599 39.82592 29.37095
#
# Velocity S-wave (km/s) = 2.93193 4.25424 3.65341
# Velocity P-wave (km/s) = 4.47875 6.92353 5.83071
#
# Compressibility (1/GPa) = 0.05285672
#
# Stress axis : x y z
#
# Youngs Moduli (GPa) = 46.16625 71.88430 36.19290
#
# Poissons Ratio (x) = 0.41291 0.23119
# Poissons Ratio (y) = 0.26518 -0.25187
# Poissons Ratio (z) = 0.29489 -0.50025
#
# Static dielectric constant tensor:
#      x y z
#    x 1.874880 0.011930 0.027450 
#    y 0.011930 1.831210 0.016200 
#    z 0.027450 0.016200 1.782550 
# 
# From -- ./inp_files/222809.got.cif
#   From: 2010.05.17/outbox.ucp.g08.bks.cvg/sg2_112_cif.got.tgz:222809.got - 2010.06.11 11:32:03.
