data_PCOD9074794
_publ_section_title
;
Structure prediction by ZEFSAII (Michael W. Deem and Ramdas Pophale) SiO2 
 PCOD9074794
Probable space group: P -1
;
_chemical_formula_sum "Si O2"
_cell_formula_units_Z 16
_cell_length_a 12.000000
_cell_length_b 6.000000
_cell_length_c 21.000000
_cell_angle_alpha 60.000000
_cell_angle_beta 40.000000
_cell_angle_gamma 50.000000
_cell_volume 744.426066
_symmetry_space_group_name_H-M "P -1"
_symmetry_group_IT_number 2
_symmetry_cell_setting 'triclinic'
loop_
_space_group_symop_operation_xyz
x,y,z
-x,-y,-z
loop_
_atom_site_type_symbol
_atom_site_label
_atom_site_fract_x
_atom_site_fract_y
_atom_site_fract_z
Si Si1 0.964709 0.899776 0.660389
Si Si2 0.687482 0.584303 0.493640
Si Si3 0.165280 0.436512 0.013680
Si Si4 0.243698 0.524379 0.825124
Si Si5 0.647768 0.260626 0.019011
Si Si6 0.606439 0.901442 0.755291
Si Si7 0.215813 0.450911 0.397958
Si Si8 0.246294 0.874530 0.653135
O O1 0.799733 0.799937 0.730345
O O2 0.144197 0.730099 0.556764
O O3 0.076306 0.867561 0.683617
O O4 0.833522 0.238404 0.654156
O O5 0.684357 0.618567 0.566661
O O6 0.466261 0.654290 0.563401
O O7 0.749393 0.816531 0.401400
O O8 0.206128 0.569359 0.911436
O O9 0.234045 0.578666 0.021654
O O10 0.254209 0.075099 0.009945
O O11 0.933861 0.543087 0.107844
O O12 0.228044 0.776791 0.747207
O O13 0.458183 0.246683 0.765389
O O14 0.523764 0.226015 0.136157
O O15 0.500000 0.500000 0.000000
O O16 0.676302 0.783175 0.670623
O O17 0.000000 0.500000 0.500000
#
# Coordination Sequence:
#
# PCOD9074794 Si02
#       8
#     2   2   2   2   2   2   2   2
#     4  12  24  43  65  99 139 183 242 297 363 426
#     4  11  25  44  64 101 136 191 235 301 358 431
#     4  10  25  51  75 112 148 195 243 301 384 438
#     4  10  25  48  74 102 143 194 240 305 359 453
#     4  11  26  48  81 113 152 186 242 313 372 444
#     4  11  27  43  71 105 134 193 240 292 370 441
#     4  12  24  43  68  94 143 183 239 296 357 430
#     4  11  25  42  68  99 140 185 240 297 359 436
#
# _framework density 21.493068000000001
#
# number of rings (size 3 to 8) (size 9 to 14) (size 15 to 20)
#    0.000    1.000    2.500    1.875    8.750    8.500 
#    2.250    0.000    0.000    0.000    0.000    0.000 
#    0.000    0.000    0.000    0.000    0.000    0.000 
#
# Total GULP energy -89266.598943 kJ/mol
# GULP energy per Si atom -5579.162434 kJ/mol
# Density = 2.144415 g / cm^3
# Si number density = 21.493068 Si / 1000 Ang^3
#
#
#
# Elastic Constant Matrix: (Units=GPa)
#
#
# Indices 1 2 3 4 5 6 
#
# 1 145.9795 37.8082 24.4637 -8.0647 -10.5240 -13.4501
# 2 37.8082 70.3816 24.8096 -1.8192 1.6720 -13.1142
# 3 24.4637 24.8096 75.3461 2.0608 -1.8363 -10.6775
# 4 -8.0647 -1.8192 2.0608 36.4161 -13.4257 4.0117
# 5 -10.5240 1.6720 -1.8363 -13.4257 44.6264 -3.3887
# 6 -13.4501 -13.1142 -10.6775 4.0117 -3.3887 35.3385
#
#
#
# Elastic Compliance Matrix: (Units=1/GPa)
#
#
# Indices 1 2 3 4 5 6 
#
# 1 0.008577 -0.003886 -0.001307 0.002748 0.003048 0.001408
# 2 -0.003886 0.018588 -0.004307 -0.000765 -0.001713 0.004040
# 3 -0.001307 -0.004307 0.015562 -0.001613 0.000222 0.002811
# 4 0.002748 -0.000765 -0.001613 0.032105 0.010087 -0.002403
# 5 0.003048 -0.001713 0.000222 0.010087 0.026385 0.001976
# 6 0.001408 0.004040 0.002811 -0.002403 0.001976 0.031644
#
#
# Mechanical properties :
#
#
# Convention : Reuss Voigt Hill
#
# Bulk Modulus (GPa) = 42.14461 51.76338 46.95399
# Shear Modulus (GPa) = 31.29491 36.91793 34.10642
#
# Velocity S-wave (km/s) = 3.81996 4.14897 3.98786
# Velocity P-wave (km/s) = 6.25357 6.86207 6.56487
#
# Compressibility (1/GPa) = 0.02372783
#
# Stress axis : x y z
#
# Youngs Moduli (GPa) = 116.59151 53.79903 64.25745
#
# Poissons Ratio (x) = 0.20906 0.08396
# Poissons Ratio (y) = 0.45306 0.27676
# Poissons Ratio (z) = 0.15234 0.23172
#
# Static dielectric constant tensor:
#      x y z
#    x 1.920850 0.105260 -0.150770 
#    y 0.105260 1.917330 -0.132290 
#    z -0.150770 -0.132290 1.927150 
# 
# From -- ./inp_files/592688.got.cif
#   From: 2010.05.17/outbox.ucp.g08.bks.cvg/sg2_297_cif.got.tgz:592688.got - 2010.06.11 11:32:03.
