data_PCOD9074440
_publ_section_title
;
Structure prediction by ZEFSAII (Michael W. Deem and Ramdas Pophale) SiO2 
 PCOD9074440
Probable space group: P -1
;
_chemical_formula_sum "Si O2"
_cell_formula_units_Z 16
_cell_length_a 18.000000
_cell_length_b 9.000000
_cell_length_c 12.000000
_cell_angle_alpha 100.000000
_cell_angle_beta 140.000000
_cell_angle_gamma 50.000000
_cell_volume 729.599496
_symmetry_space_group_name_H-M "P -1"
_symmetry_group_IT_number 2
_symmetry_cell_setting 'triclinic'
loop_
_space_group_symop_operation_xyz
x,y,z
-x,-y,-z
loop_
_atom_site_type_symbol
_atom_site_label
_atom_site_fract_x
_atom_site_fract_y
_atom_site_fract_z
Si Si1 0.750293 0.749943 0.490227
Si Si2 0.489669 0.164063 0.085135
Si Si3 0.618197 0.241471 0.664254
Si Si4 0.756010 0.550585 0.684931
Si Si5 0.041864 0.984013 0.852343
Si Si6 0.175401 0.605340 0.638369
Si Si7 0.029110 0.246268 0.145719
Si Si8 0.800581 0.104416 0.381843
O O1 0.742548 0.691264 0.595492
O O2 0.798710 0.560229 0.438826
O O3 0.913240 0.708993 0.678881
O O4 0.551792 0.038078 0.260077
O O5 0.643897 0.138198 0.232964
O O6 0.278537 0.450500 0.852158
O O7 0.500000 0.000000 0.000000
O O8 0.500000 0.500000 0.500000
O O9 0.455839 0.292039 0.515976
O O10 0.775271 0.002686 0.729978
O O11 0.743504 0.167657 0.906261
O O12 0.890599 0.271143 0.756973
O O13 0.869217 0.490362 0.915265
O O14 0.054963 0.827489 0.928190
O O15 0.941337 0.016467 0.632234
O O16 0.278702 0.651174 0.721732
O O17 0.949629 0.879011 0.433269
#
# Coordination Sequence:
#
# PCOD9074440 Si02
#       8
#     2   2   2   2   2   2   2   2
#     4  11  23  42  64  92 137 174 203 261 326 379
#     4  10  23  43  63  93 129 166 205 264 326 372
#     4  11  21  38  65  93 125 163 219 261 305 376
#     4  11  22  42  63  92 132 168 212 263 308 377
#     4  11  21  39  67  94 121 170 213 262 317 371
#     4  10  24  44  67  97 124 165 220 268 312 380
#     4  11  22  40  64  94 129 170 211 258 321 374
#     4  11  22  44  71  94 123 167 220 264 318 376
#
# _framework density 21.929839999999999
#
# number of rings (size 3 to 8) (size 9 to 14) (size 15 to 20)
#    0.000    1.250    5.000    1.500    0.000    4.500 
#    9.000    3.750    0.000    0.000    0.000    0.000 
#    0.000    0.000    0.000    0.000    0.000    0.000 
#
# Total GULP energy -89313.168825 kJ/mol
# GULP energy per Si atom -5582.073052 kJ/mol
# Density = 2.187993 g / cm^3
# Si number density = 21.929840 Si / 1000 Ang^3
#
#
#
# Elastic Constant Matrix: (Units=GPa)
#
#
# Indices 1 2 3 4 5 6 
#
# 1 31.8732 6.8969 21.9899 -10.2017 -10.3955 16.1247
# 2 6.8969 74.5596 25.7299 9.5453 2.6134 21.8767
# 3 21.9899 25.7299 127.9744 8.5258 -10.2614 8.8334
# 4 -10.2017 9.5453 8.5258 27.6932 6.2255 1.4694
# 5 -10.3955 2.6134 -10.2614 6.2255 46.7801 -4.2053
# 6 16.1247 21.8767 8.8334 1.4694 -4.2053 21.1646
#
#
#
# Elastic Compliance Matrix: (Units=1/GPa)
#
#
# Indices 1 2 3 4 5 6 
#
# 1 0.095239 0.016647 -0.016052 0.037885 0.004040 -0.084896
# 2 0.016647 0.024173 -0.005558 0.001951 -0.002362 -0.035954
# 3 -0.016052 -0.005558 0.011423 -0.008640 0.001670 0.014139
# 4 0.037885 0.001951 -0.008640 0.054574 -0.003707 -0.031799
# 5 0.004040 -0.002362 0.001670 -0.003707 0.023591 0.003611
# 6 -0.084896 -0.035954 0.014139 -0.031799 0.003611 0.146117
#
#
# Mechanical properties :
#
#
# Convention : Reuss Voigt Hill
#
# Bulk Modulus (GPa) = 8.27065 38.18228 23.22646
# Shear Modulus (GPa) = 12.33515 31.11360 21.72438
#
# Velocity S-wave (km/s) = 2.37424 3.77075 3.15084
# Velocity P-wave (km/s) = 3.36090 6.03382 4.88378
#
# Compressibility (1/GPa) = 0.12090945
#
# Stress axis : x y z
#
# Youngs Moduli (GPa) = 10.49989 41.36891 87.53981
#
# Poissons Ratio (x) = -0.68868 1.40520
# Poissons Ratio (y) = -0.17480 0.48656
# Poissons Ratio (z) = 0.16855 0.22994
#
# Static dielectric constant tensor:
#      x y z
#    x 1.863370 0.009940 -0.032420 
#    y 0.009940 1.801570 0.034000 
#    z -0.032420 0.034000 1.837900 
# 
# From -- ./inp_files/336721.got.cif
#   From: 2010.05.17/outbox.ucp.g08.bks.cvg/sg2_169_cif.got.tgz:336721.got - 2010.06.11 11:32:03.
