data_PCOD9074539
_publ_section_title
;
Structure prediction by ZEFSAII (Michael W. Deem and Ramdas Pophale) SiO2 
 PCOD9074539
Probable space group: P -1
;
_chemical_formula_sum "Si O2"
_cell_formula_units_Z 13
_cell_length_a 9.000000
_cell_length_b 12.000000
_cell_length_c 12.000000
_cell_angle_alpha 60.000000
_cell_angle_beta 100.000000
_cell_angle_gamma 50.000000
_cell_volume 572.373675
_symmetry_space_group_name_H-M "P -1"
_symmetry_group_IT_number 2
_symmetry_cell_setting 'triclinic'
loop_
_space_group_symop_operation_xyz
x,y,z
-x,-y,-z
loop_
_atom_site_type_symbol
_atom_site_label
_atom_site_fract_x
_atom_site_fract_y
_atom_site_fract_z
Si Si1 0.428671 0.892806 0.269520
Si Si2 0.079836 0.893113 0.249101
Si Si3 0.882963 0.695271 0.806015
Si Si4 0.459945 0.417471 0.945822
Si Si5 0.557494 0.492922 0.696585
Si Si6 0.171763 0.450663 0.315024
Si Si7 0.500000 0.000000 0.000000
O O1 0.173561 0.971504 0.195111
O O2 0.705413 0.632386 0.501537
O O3 0.319260 0.075829 0.253500
O O4 0.512931 0.887109 0.164567
O O5 0.288586 0.699098 0.473747
O O6 0.171517 0.751942 0.220686
O O7 0.747552 0.118013 0.129965
O O8 0.757449 0.723125 0.664384
O O9 0.160075 0.571762 0.860622
O O10 0.000000 0.500000 0.000000
O O11 0.467053 0.469488 0.797010
O O12 0.500000 0.500000 0.000000
O O13 0.659433 0.556475 0.721054
O O14 0.827717 0.719484 0.141189
#
# Coordination Sequence:
#
# PCOD9074539 Si02
#       7
#     2   2   2   2   2   2   1
#     4  11  24  46  67  99 133 179 222 274 332 391
#     4  10  23  45  70  96 131 171 226 273 324 389
#     4  12  25  46  67  97 140 176 220 274 336 394
#     4  12  24  43  69  98 130 175 224 272 324 393
#     4  10  24  45  69  96 131 175 219 273 328 388
#     4  11  25  44  68  99 138 173 218 278 332 396
#     4  12  24  42  68 100 134 174 222 270 334 398
#
# _framework density 22.712434999999999
#
# number of rings (size 3 to 8) (size 9 to 14) (size 15 to 20)
#    0.000    0.923    3.077    3.231    4.308    0.615 
#    8.308    0.000    0.000    0.000    0.000    0.000 
#    0.000    0.000    0.000    0.000    0.000    0.000 
#
# Total GULP energy -72431.761517 kJ/mol
# GULP energy per Si atom -5571.673963 kJ/mol
# Density = 2.266074 g / cm^3
# Si number density = 22.712435 Si / 1000 Ang^3
#
#
#
# Elastic Constant Matrix: (Units=GPa)
#
#
# Indices 1 2 3 4 5 6 
#
# 1 -7.0384 42.2155 -36.3285 -26.4199 27.3071 36.6431
# 2 42.2155 48.3824 21.7659 26.9595 -18.9393 -19.4857
# 3 -36.3285 21.7659 42.8588 -16.6150 -0.8456 15.4226
# 4 -26.4199 26.9595 -16.6150 -6.4151 23.5465 20.6989
# 5 27.3071 -18.9393 -0.8456 23.5465 -0.9858 -6.0720
# 6 36.6431 -19.4857 15.4226 20.6989 -6.0720 23.5924
#
#
#
# Elastic Compliance Matrix: (Units=1/GPa)
#
#
# Indices 1 2 3 4 5 6 
#
# 1 0.033091 -0.000490 0.019563 -0.039825 0.054399 -0.015647
# 2 -0.000490 0.011861 -0.003239 0.009548 -0.014346 0.000605
# 3 0.019563 -0.003239 0.039685 -0.026247 0.063717 -0.019574
# 4 -0.039825 0.009548 -0.026247 0.058012 -0.038744 0.026029
# 5 0.054399 -0.014346 0.063717 -0.038744 0.165782 -0.061332
# 6 -0.015647 0.000605 -0.019574 0.026029 -0.061332 0.041363
#
#
# Mechanical properties :
#
#
# Convention : Reuss Voigt Hill
#
# Bulk Modulus (GPa) = 8.59812 15.50097 12.04955
# Shear Modulus (GPa) = 14.00973 7.00831 10.50902
#
# Velocity S-wave (km/s) = 2.48630 1.75851 2.15338
# Velocity P-wave (km/s) = 3.46931 3.31102 3.39109
#
# Compressibility (1/GPa) = 0.11630447
#
# Stress axis : x y z
#
# Youngs Moduli (GPa) = 30.22008 84.30995 25.19858
#
# Poissons Ratio (x) = 0.04131 -0.49295
# Poissons Ratio (y) = 0.01481 0.08161
# Poissons Ratio (z) = -0.59118 0.27304
#
# Static dielectric constant tensor:
#      x y z
#    x 1.864840 0.079840 0.016300 
#    y 0.079840 1.784540 -0.040860 
#    z 0.016300 -0.040860 2.035090 
# 
# From -- ./inp_files/164172.got.cif
#   From: 2010.05.17/outbox.ucp.g08.bks.cvg/sg2_83_cif.got.tgz:164172.got - 2010.06.11 11:32:03.
