data_PCOD9074732
_publ_section_title
;
Structure prediction by ZEFSAII (Michael W. Deem and Ramdas Pophale) SiO2 
 PCOD9074732
Probable space group: P -1
;
_chemical_formula_sum "Si O2"
_cell_formula_units_Z 16
_cell_length_a 12.000000
_cell_length_b 18.000000
_cell_length_c 9.000000
_cell_angle_alpha 150.000000
_cell_angle_beta 120.000000
_cell_angle_gamma 50.000000
_cell_volume 736.400153
_symmetry_space_group_name_H-M "P -1"
_symmetry_group_IT_number 2
_symmetry_cell_setting 'triclinic'
loop_
_space_group_symop_operation_xyz
x,y,z
-x,-y,-z
loop_
_atom_site_type_symbol
_atom_site_label
_atom_site_fract_x
_atom_site_fract_y
_atom_site_fract_z
Si Si1 0.498688 0.171025 0.558463
Si Si2 0.225581 0.037639 0.446224
Si Si3 0.343188 0.947535 0.046662
Si Si4 0.020919 0.047693 0.924865
Si Si5 0.579098 0.537605 0.762180
Si Si6 0.445688 0.356020 0.533112
Si Si7 0.104495 0.554993 0.572401
Si Si8 0.847610 0.580268 0.951866
O O1 0.484132 0.273214 0.576514
O O2 0.666552 0.031048 0.459920
O O3 0.385881 0.097345 0.335025
O O4 0.465750 0.281341 0.877701
O O5 0.300009 0.931751 0.160229
O O6 0.074785 0.027816 0.352558
O O7 0.211709 0.220066 0.718625
O O8 0.489666 0.791650 0.805807
O O9 0.198236 0.975109 0.906136
O O10 0.955511 0.245962 0.171634
O O11 0.000000 0.000000 0.000000
O O12 0.500000 0.500000 0.500000
O O13 0.538337 0.449460 0.714831
O O14 0.747989 0.488686 0.759686
O O15 0.270172 0.479320 0.617537
O O16 0.123195 0.453745 0.259464
O O17 0.000000 0.500000 0.500000
O O18 0.000000 0.500000 0.000000
#
# Coordination Sequence:
#
# PCOD9074732 Si02
#       8
#     2   2   2   2   2   2   2   2
#     4  12  25  45  70 108 149 190 245 309 373 444
#     4  11  24  45  72 109 147 192 250 308 368 447
#     4  11  23  45  76 108 146 195 248 308 370 452
#     4  10  24  46  75 105 149 197 246 305 374 445
#     4  12  26  47  74 104 146 191 254 309 367 437
#     4  12  27  45  77 111 151 197 248 307 380 444
#     4  12  27  49  76 110 157 198 246 314 387 446
#     4  12  27  47  77 108 145 198 258 304 371 454
#
# _framework density 21.727318
#
# number of rings (size 3 to 8) (size 9 to 14) (size 15 to 20)
#    0.000    0.500    2.500    5.625    7.000    1.000 
#    0.000    1.250    0.000    0.000    0.000    0.000 
#    0.000    0.000    0.000    0.000    0.000    0.000 
#
# Total GULP energy -89167.953088 kJ/mol
# GULP energy per Si atom -5572.997068 kJ/mol
# Density = 2.167787 g / cm^3
# Si number density = 21.727318 Si / 1000 Ang^3
#
#
#
# Elastic Constant Matrix: (Units=GPa)
#
#
# Indices 1 2 3 4 5 6 
#
# 1 179.6081 66.5288 33.5228 -3.9711 43.7594 -19.8875
# 2 66.5288 145.5901 2.2305 2.2933 18.0325 -19.1585
# 3 33.5228 2.2305 71.6684 1.0725 28.7504 -11.9635
# 4 -3.9711 2.2933 1.0725 32.0733 -5.6333 9.1028
# 5 43.7594 18.0325 28.7504 -5.6333 43.0240 -5.9293
# 6 -19.8875 -19.1585 -11.9635 9.1028 -5.9293 21.9905
#
#
#
# Elastic Compliance Matrix: (Units=1/GPa)
#
#
# Indices 1 2 3 4 5 6 
#
# 1 0.008756 -0.002581 -0.000499 -0.001076 -0.007089 0.003932
# 2 -0.002581 0.009648 0.003786 -0.004269 -0.003265 0.009018
# 3 -0.000499 0.003786 0.022722 -0.007849 -0.015317 0.014328
# 4 -0.001076 -0.004269 -0.007849 0.039851 0.010218 -0.022703
# 5 -0.007089 -0.003265 -0.015317 0.010218 0.041947 -0.010508
# 6 0.003932 0.009018 0.014328 -0.022703 -0.010508 0.071247
#
#
# Mechanical properties :
#
#
# Convention : Reuss Voigt Hill
#
# Bulk Modulus (GPa) = 23.50785 66.82564 45.16674
# Shear Modulus (GPa) = 24.16192 39.05653 31.60923
#
# Velocity S-wave (km/s) = 3.33836 4.24438 3.81834
# Velocity P-wave (km/s) = 5.06977 7.40561 6.34608
#
# Compressibility (1/GPa) = 0.04253899
#
# Stress axis : x y z
#
# Youngs Moduli (GPa) = 114.21333 103.64551 44.00983
#
# Poissons Ratio (x) = 0.26749 0.02194
# Poissons Ratio (y) = 0.29476 -0.16662
# Poissons Ratio (z) = 0.05695 -0.39240
#
# Static dielectric constant tensor:
#      x y z
#    x 1.870480 -0.029010 -0.046840 
#    y -0.029010 1.799530 0.053940 
#    z -0.046840 0.053940 1.862380 
# 
# From -- ./inp_files/280279.got.cif
#   From: 2010.05.17/outbox.ucp.g08.bks.cvg/sg2_141_cif.got.tgz:280279.got - 2010.06.11 11:32:03.
