data_PCOD9074680
_publ_section_title
;
Structure prediction by ZEFSAII (Michael W. Deem and Ramdas Pophale) SiO2 
 PCOD9074680
Probable space group: P -1
;
_chemical_formula_sum "Si O2"
_cell_formula_units_Z 16
_cell_length_a 12.000000
_cell_length_b 15.000000
_cell_length_c 15.000000
_cell_angle_alpha 30.000000
_cell_angle_beta 140.000000
_cell_angle_gamma 120.000000
_cell_volume 747.221570
_symmetry_space_group_name_H-M "P -1"
_symmetry_group_IT_number 2
_symmetry_cell_setting 'triclinic'
loop_
_space_group_symop_operation_xyz
x,y,z
-x,-y,-z
loop_
_atom_site_type_symbol
_atom_site_label
_atom_site_fract_x
_atom_site_fract_y
_atom_site_fract_z
Si Si1 0.803543 0.028667 0.407013
Si Si2 0.165734 0.502171 0.536795
Si Si3 0.539559 0.117574 0.003385
Si Si4 0.950972 0.622783 0.957354
Si Si5 0.716302 0.305984 0.396046
Si Si6 0.715919 0.305916 0.818011
Si Si7 0.980188 0.107527 0.991180
Si Si8 0.258942 0.565443 0.884960
O O1 0.728131 0.250751 0.215035
O O2 0.834886 0.862470 0.645941
O O3 0.665433 0.006966 0.265448
O O4 0.000000 0.000000 0.500000
O O5 0.330893 0.301178 0.758748
O O6 0.272348 0.582936 0.602336
O O7 0.044839 0.675946 0.238029
O O8 0.000000 0.500000 0.500000
O O9 0.679246 0.192300 0.975919
O O10 0.500000 0.000000 0.000000
O O11 0.851485 0.526076 0.044292
O O12 0.000000 0.500000 0.000000
O O13 0.139064 0.610366 0.135233
O O14 0.818697 0.352337 0.334168
O O15 0.486973 0.384713 0.166955
O O16 0.828770 0.062197 0.692413
O O17 0.500000 0.500000 0.500000
O O18 0.798641 0.168460 0.897434
O O19 0.000000 0.000000 0.000000
#
# Coordination Sequence:
#
# PCOD9074680 Si02
#       8
#     2   2   2   2   2   2   2   2
#     4  12  24  47  72 106 151 188 246 304 367 449
#     4  11  25  45  70 105 145 189 245 301 367 446
#     4  12  28  46  72 109 150 194 242 307 375 440
#     4  12  27  43  77 108 145 197 244 309 375 443
#     4  10  24  46  73 100 145 192 243 306 365 439
#     4  12  26  47  72 108 147 190 250 303 367 443
#     4  10  24  44  72 100 143 193 233 303 364 436
#     4  11  24  48  74 105 146 191 247 306 369 436
#
# _framework density 21.412658
#
# number of rings (size 3 to 8) (size 9 to 14) (size 15 to 20)
#    0.000    0.750    5.000    0.750    7.000    1.000 
#    0.000    1.875    0.000    0.000    0.000    0.000 
#    0.000    0.000    0.000    0.000    0.000    0.000 
#
# Total GULP energy -89274.166718 kJ/mol
# GULP energy per Si atom -5579.635420 kJ/mol
# Density = 2.136392 g / cm^3
# Si number density = 21.412658 Si / 1000 Ang^3
#
#
#
# Elastic Constant Matrix: (Units=GPa)
#
#
# Indices 1 2 3 4 5 6 
#
# 1 163.0791 35.8405 56.7666 -2.4777 -10.3935 -8.8557
# 2 35.8405 106.4895 38.6212 9.2825 -0.8904 -8.7202
# 3 56.7666 38.6212 143.5108 6.2307 -13.1054 -3.2245
# 4 -2.4777 9.2825 6.2307 20.0460 -8.1365 -0.3995
# 5 -10.3935 -0.8904 -13.1054 -8.1365 41.8964 -10.4649
# 6 -8.8557 -8.7202 -3.2245 -0.3995 -10.4649 47.1950
#
#
#
# Elastic Compliance Matrix: (Units=1/GPa)
#
#
# Indices 1 2 3 4 5 6 
#
# 1 0.007659 -0.001854 -0.002455 0.003457 0.002120 0.001426
# 2 -0.001854 0.011379 -0.002218 -0.005466 -0.001678 0.001185
# 3 -0.002455 -0.002218 0.008764 -0.001235 0.001879 0.000135
# 4 0.003457 -0.005466 -0.001235 0.058307 0.012376 0.002792
# 5 0.002120 -0.001678 0.001879 0.012376 0.029039 0.006760
# 6 0.001426 0.001185 0.000135 0.002792 0.006760 0.023207
#
#
# Mechanical properties :
#
#
# Convention : Reuss Voigt Hill
#
# Bulk Modulus (GPa) = 67.80793 75.05953 71.43373
# Shear Modulus (GPa) = 31.98469 40.61756 36.30113
#
# Velocity S-wave (km/s) = 3.86907 4.36006 4.12188
# Velocity P-wave (km/s) = 7.18996 7.77668 7.48907
#
# Compressibility (1/GPa) = 0.01474754
#
# Stress axis : x y z
#
# Youngs Moduli (GPa) = 130.56148 87.88491 114.09840
#
# Poissons Ratio (x) = 0.16296 0.28012
# Poissons Ratio (y) = 0.24210 0.25306
# Poissons Ratio (z) = 0.32054 0.19492
#
# Static dielectric constant tensor:
#      x y z
#    x 1.700920 0.035740 0.029490 
#    y 0.035740 1.759300 -0.017010 
#    z 0.029490 -0.017010 1.831110 
# 
# From -- ./inp_files/522219.got.cif
#   From: 2010.05.17/outbox.ucp.g08.bks.cvg/sg2_262_cif.got.tgz:522219.got - 2010.06.11 11:32:03.
