data_PCOD9074062
_publ_section_title
;
Structure prediction by ZEFSAII (Michael W. Deem and Ramdas Pophale) SiO2 
 PCOD9074062
Probable space group: P -1
;
_chemical_formula_sum "Si O2"
_cell_formula_units_Z 12
_cell_length_a 9.000000
_cell_length_b 9.000000
_cell_length_c 12.000000
_cell_angle_alpha 60.000000
_cell_angle_beta 120.000000
_cell_angle_gamma 140.000000
_cell_volume 529.002133
_symmetry_space_group_name_H-M "P -1"
_symmetry_group_IT_number 2
_symmetry_cell_setting 'triclinic'
loop_
_space_group_symop_operation_xyz
x,y,z
-x,-y,-z
loop_
_atom_site_type_symbol
_atom_site_label
_atom_site_fract_x
_atom_site_fract_y
_atom_site_fract_z
Si Si1 0.972661 0.713898 0.214111
Si Si2 0.757745 0.220268 0.358189
Si Si3 0.329066 0.093245 0.380506
Si Si4 0.511841 0.559787 0.210703
Si Si5 0.041381 0.337510 0.027688
Si Si6 0.645191 0.006102 0.153178
O O1 0.960427 0.503525 0.321642
O O2 0.725739 0.629695 0.191591
O O3 0.037030 0.754523 0.092610
O O4 0.157815 0.945443 0.267973
O O5 0.565480 0.169125 0.389365
O O6 0.795282 0.070098 0.495355
O O7 0.671541 0.126383 0.233843
O O8 0.405452 0.339660 0.330498
O O9 0.314439 0.481578 0.077955
O O10 0.542117 0.747595 0.227772
O O11 0.895274 0.134963 0.140716
O O12 0.000000 0.500000 0.000000
O O13 0.500000 0.000000 0.000000
#
# Coordination Sequence:
#
# PCOD9074062 Si02
#       6
#     2   2   2   2   2   2
#     4  11  22  43  67  92 128 166 212 262 314 379
#     4  10  22  41  67  95 126 165 219 258 308 380
#     4  10  23  42  65  93 126 173 210 258 317 374
#     4  11  25  41  61  97 132 163 212 260 321 372
#     4  12  23  40  65  96 124 165 211 261 320 370
#     4  12  23  40  65  96 127 165 210 263 316 372
#
# _framework density 22.684218999999999
#
# number of rings (size 3 to 8) (size 9 to 14) (size 15 to 20)
#    0.000    1.000    3.333    3.000    0.000    6.000 
#    0.000    3.333    0.000    0.000    0.000    0.000 
#    0.000    0.000    0.000    0.000    0.000    0.000 
#
# Total GULP energy -66893.303782 kJ/mol
# GULP energy per Si atom -5574.441982 kJ/mol
# Density = 2.263259 g / cm^3
# Si number density = 22.684219 Si / 1000 Ang^3
#
#
#
# Elastic Constant Matrix: (Units=GPa)
#
#
# Indices 1 2 3 4 5 6 
#
# 1 -14.2429 -11.0053 -11.2892 -28.2062 7.4156 -19.1347
# 2 -11.0053 56.7563 -26.4177 -25.3373 21.4916 -21.8752
# 3 -11.2892 -26.4177 2.5752 -13.4315 -0.8315 -8.4510
# 4 -28.2062 -25.3373 -13.4315 21.1040 -4.6796 3.4736
# 5 7.4156 21.4916 -0.8315 -4.6796 20.9581 -5.0267
# 6 -19.1347 -21.8752 -8.4510 3.4736 -5.0267 29.8427
#
#
#
# Elastic Compliance Matrix: (Units=1/GPa)
#
#
# Indices 1 2 3 4 5 6 
#
# 1 0.101858 -0.050906 -0.132950 -0.006664 0.007575 -0.007602
# 2 -0.050906 0.029870 0.043890 -0.007050 -0.012349 0.000425
# 3 -0.132950 0.043890 0.170147 -0.015260 0.004826 -0.002302
# 4 -0.006664 -0.007050 -0.015260 0.025192 0.011050 -0.014834
# 5 0.007575 -0.012349 0.004826 0.011050 0.061869 0.006306
# 6 -0.007602 0.000425 -0.002302 -0.014834 0.006306 0.031083
#
#
# Mechanical properties :
#
#
# Convention : Reuss Voigt Hill
#
# Bulk Modulus (GPa) = 45.57090 -5.81510 19.87790
# Shear Modulus (GPa) = 7.06949 20.63436 13.85193
#
# Velocity S-wave (km/s) = 1.76727 3.01929 2.47380
# Velocity P-wave (km/s) = 4.92922 3.09608 4.11600
#
# Compressibility (1/GPa) = 0.02194383
#
# Stress axis : x y z
#
# Youngs Moduli (GPa) = 9.81759 33.47868 5.87726
#
# Poissons Ratio (x) = 1.70425 0.78138
# Poissons Ratio (y) = 0.49977 -0.25795
# Poissons Ratio (z) = 1.30525 -1.46938
#
# Static dielectric constant tensor:
#      x y z
#    x 1.828850 0.045630 0.122610 
#    y 0.045630 2.068120 -0.081830 
#    z 0.122610 -0.081830 1.942590 
# 
# From -- ./inp_files/21989.got.cif
#   From: 2010.05.17/outbox.ucp.g08.bks.cvg/sg2_11_cif.got.tgz:21989.got - 2010.06.11 11:32:03.
