data_PCOD9074646
_publ_section_title
;
Structure prediction by ZEFSAII (Michael W. Deem and Ramdas Pophale) SiO2 
 PCOD9074646
Probable space group: P -1
;
_chemical_formula_sum "Si O2"
_cell_formula_units_Z 16
_cell_length_a 21.000000
_cell_length_b 12.000000
_cell_length_c 9.000000
_cell_angle_alpha 110.000000
_cell_angle_beta 140.000000
_cell_angle_gamma 40.000000
_cell_volume 754.890988
_symmetry_space_group_name_H-M "P -1"
_symmetry_group_IT_number 2
_symmetry_cell_setting 'triclinic'
loop_
_space_group_symop_operation_xyz
x,y,z
-x,-y,-z
loop_
_atom_site_type_symbol
_atom_site_label
_atom_site_fract_x
_atom_site_fract_y
_atom_site_fract_z
Si Si1 0.760773 0.367038 0.965584
Si Si2 0.603325 0.737987 0.662244
Si Si3 0.528192 0.315472 0.840105
Si Si4 0.042718 0.658452 0.203181
Si Si5 0.551575 0.338473 0.223472
Si Si6 0.268092 0.223598 0.325499
Si Si7 0.874814 0.025297 0.859764
Si Si8 0.952987 0.914439 0.424113
O O1 0.708850 0.528824 0.840757
O O2 0.613482 0.518517 0.898980
O O3 0.755414 0.233900 0.843706
O O4 0.958089 0.191342 0.305186
O O5 0.519131 0.746217 0.378747
O O6 0.716793 0.731637 0.790643
O O7 0.445548 0.970261 0.566877
O O8 0.433221 0.533730 0.720315
O O9 0.498732 0.332248 0.970401
O O10 0.741090 0.119131 0.125806
O O11 0.211914 0.399303 0.391983
O O12 0.032898 0.739941 0.374305
O O13 0.883746 0.723759 0.924016
O O14 0.997656 0.805902 0.065332
O O15 0.733377 0.115274 0.529016
O O16 0.000000 0.000000 0.000000
O O17 0.000000 0.000000 0.500000
#
# Coordination Sequence:
#
# PCOD9074646 Si02
#       8
#     2   2   2   2   2   2   2   2
#     4  12  24  40  68 104 135 169 219 281 339 393
#     4  11  23  45  70  93 127 179 229 276 319 394
#     4  11  23  40  63  96 140 170 215 266 338 406
#     4  11  23  42  67  97 133 177 223 269 328 405
#     4  11  24  36  63 102 136 172 207 273 346 398
#     4  10  24  43  70  88 126 186 234 261 318 394
#     4  12  23  38  67 104 140 168 216 280 342 397
#     4  12  23  40  66 102 138 171 209 280 351 398
#
# _framework density 21.195112999999999
#
# number of rings (size 3 to 8) (size 9 to 14) (size 15 to 20)
#    0.000    0.750    5.000    2.625    1.750    0.000 
#    0.000    1.250   11.000    0.000    0.000    0.000 
#    0.000    0.000    0.000    0.000    0.000    0.000 
#
# Total GULP energy -89247.154344 kJ/mol
# GULP energy per Si atom -5577.947147 kJ/mol
# Density = 2.114687 g / cm^3
# Si number density = 21.195113 Si / 1000 Ang^3
#
#
#
# Elastic Constant Matrix: (Units=GPa)
#
#
# Indices 1 2 3 4 5 6 
#
# 1 80.0710 26.1633 30.9602 0.7226 3.6919 12.2397
# 2 26.1633 134.4964 15.9793 -8.2179 -6.3276 8.8099
# 3 30.9602 15.9793 61.7246 0.1257 -14.8054 5.2363
# 4 0.7226 -8.2179 0.1257 12.1497 7.0038 -3.2826
# 5 3.6919 -6.3276 -14.8054 7.0038 33.1334 -5.9289
# 6 12.2397 8.8099 5.2363 -3.2826 -5.9289 41.1218
#
#
#
# Elastic Compliance Matrix: (Units=1/GPa)
#
#
# Indices 1 2 3 4 5 6 
#
# 1 0.018232 -0.002374 -0.010043 0.000732 -0.007974 -0.004730
# 2 -0.002374 0.008387 -0.000903 0.005576 0.000194 -0.000502
# 3 -0.010043 -0.000903 0.024705 -0.007906 0.013910 0.001411
# 4 0.000732 0.005576 -0.007906 0.100557 -0.023036 0.004300
# 5 -0.007974 0.000194 0.013910 -0.023036 0.043074 0.004932
# 6 -0.004730 -0.000502 0.001411 0.004300 0.004932 0.026708
#
#
# Mechanical properties :
#
#
# Convention : Reuss Voigt Hill
#
# Bulk Modulus (GPa) = 40.51133 46.94418 43.72776
# Shear Modulus (GPa) = 19.49085 30.82694 25.15890
#
# Velocity S-wave (km/s) = 3.03577 3.81784 3.44904
# Velocity P-wave (km/s) = 5.60739 6.45223 6.04459
#
# Compressibility (1/GPa) = 0.02468445
#
# Stress axis : x y z
#
# Youngs Moduli (GPa) = 54.84848 119.23364 40.47767
#
# Poissons Ratio (x) = 0.28306 0.40653
# Poissons Ratio (y) = 0.13021 0.03653
# Poissons Ratio (z) = 0.55085 0.10762
#
# Static dielectric constant tensor:
#      x y z
#    x 1.756810 -0.087970 -0.031310 
#    y -0.087970 1.819960 -0.028010 
#    z -0.031310 -0.028010 1.733170 
# 
# From -- ./inp_files/186512.got.cif
#   From: 2010.05.17/outbox.ucp.g08.bks.cvg/sg2_94_cif.got.tgz:186512.got - 2010.06.11 11:32:03.
