data_PCOD9074910
_publ_section_title
;
Structure prediction by ZEFSAII (Michael W. Deem and Ramdas Pophale) SiO2 
 PCOD9074910
Probable space group: P -1
;
_chemical_formula_sum "Si O2"
_cell_formula_units_Z 16
_cell_length_a 17.489238
_cell_length_b 7.206365
_cell_length_c 8.126916
_cell_angle_alpha 116.705832
_cell_angle_beta 60.932073
_cell_angle_gamma 73.108383
_cell_volume 606.546231
_symmetry_space_group_name_H-M "P -1"
_symmetry_group_IT_number 2
_symmetry_cell_setting 'triclinic'
loop_
_space_group_symop_operation_xyz
x,y,z
-x,-y,-z
loop_
_atom_site_type_symbol
_atom_site_label
_atom_site_fract_x
_atom_site_fract_y
_atom_site_fract_z
Si Si1 0.608681 0.721755 0.688179
Si Si2 0.116329 0.838674 0.206953
Si Si3 0.375798 0.780240 0.436016
Si Si4 0.841988 0.574653 0.510915
Si Si5 0.418932 0.477263 0.683281
Si Si6 0.005072 0.732735 0.043433
Si Si7 0.784783 0.935284 0.973135
Si Si8 0.786059 0.083595 0.602338
O O1 0.607595 0.490608 0.665414
O O2 0.725463 0.648342 0.599186
O O3 0.609203 0.674397 0.469058
O O4 0.500000 0.000000 0.000000
O O5 0.216380 0.715883 0.191145
O O6 0.106040 0.661919 0.027623
O O7 0.126248 0.016074 0.138479
O O8 0.000000 0.000000 0.500000
O O9 0.497940 0.699190 0.319067
O O10 0.275557 0.995538 0.758852
O O11 0.323566 0.859465 0.340200
O O12 0.949602 0.303657 0.201723
O O13 0.846918 0.804050 0.527146
O O14 0.834076 0.642170 0.738354
O O15 0.500000 0.500000 0.500000
O O16 0.318614 0.807329 0.929542
O O17 0.000000 0.500000 0.000000
O O18 0.877543 0.009539 0.335270
#
# Coordination Sequence:
#
# PCOD9074910 Si02
#       8
#     2   2   2   2   2   2   2   2
#     4  10  18  32  53  77 102 138 177 210 251 311
#     4   9  17  33  52  72 101 141 175 201 251 322
#     4  10  19  35  54  78 105 135 172 218 258 300
#     4  10  18  33  55  78 102 138 177 211 252 309
#     4   8  16  30  50  72 101 139 170 200 253 318
#     4   9  17  32  54  76 101 135 172 209 252 307
#     4   9  17  32  54  75 101 142 176 200 250 324
#     4   9  20  35  54  78 105 134 172 217 259 301
#
# _framework density 26.378864
#
# number of rings (size 3 to 8) (size 9 to 14) (size 15 to 20)
#    0.000    3.000    0.000    4.500    0.000    0.000 
#    0.000   17.500    0.000    0.000    0.000    0.000 
#    0.000    0.000    0.000    0.000    0.000    0.000 
#
# Total GULP energy -89122.691410 kJ/mol
# GULP energy per Si atom -5570.168213 kJ/mol
# Density = 2.631882 g / cm^3
# Si number density = 26.378864 Si / 1000 Ang^3
#
#
#
# Elastic Constant Matrix: (Units=GPa)
#
#
# Indices 1 2 3 4 5 6 
#
# 1 158.8768 8.0547 18.1632 -1.7130 32.8412 -12.6321
# 2 8.0547 35.5694 -10.8218 3.4898 6.0196 -2.0639
# 3 18.1632 -10.8218 111.9874 8.6646 15.5587 -3.8216
# 4 -1.7130 3.4898 8.6646 13.1879 10.6082 1.6717
# 5 32.8412 6.0196 15.5587 10.6082 52.4630 -6.7494
# 6 -12.6321 -2.0639 -3.8216 1.6717 -6.7494 43.6179
#
#
#
# Elastic Compliance Matrix: (Units=1/GPa)
#
#
# Indices 1 2 3 4 5 6 
#
# 1 0.007810 -0.001765 -0.001142 0.006576 -0.005553 0.000967
# 2 -0.001765 0.031194 0.004359 -0.010350 -0.001479 0.001514
# 3 -0.001142 0.004359 0.010296 -0.007140 -0.001285 0.000852
# 4 0.006576 -0.010350 -0.007140 0.103056 -0.022504 -0.006643
# 5 -0.005553 -0.001479 -0.001285 -0.022504 0.028078 0.003416
# 6 0.000967 0.001514 0.000852 -0.006643 0.003416 0.024136
#
#
# Mechanical properties :
#
#
# Convention : Reuss Voigt Hill
#
# Bulk Modulus (GPa) = 19.15590 37.46954 28.31272
# Shear Modulus (GPa) = 22.82410 41.25625 32.04018
#
# Velocity S-wave (km/s) = 2.94469 3.95902 3.48891
# Velocity P-wave (km/s) = 4.34042 5.92737 5.19485
#
# Compressibility (1/GPa) = 0.05220323
#
# Stress axis : x y z
#
# Youngs Moduli (GPa) = 128.04396 32.05795 97.12458
#
# Poissons Ratio (x) = 0.05659 0.11087
# Poissons Ratio (y) = 0.22602 -0.42333
# Poissons Ratio (z) = 0.14617 -0.13973
#
# Static dielectric constant tensor:
#      x y z
#    x 2.335750 -0.072180 -0.022380 
#    y -0.072180 2.214320 -0.241120 
#    z -0.022380 -0.241120 2.685060 
# 
# From -- ./inp_files/329555.got.cif
#   From: 2010.05.17/outbox.cif.g08.bks.cpg/sg2_165_cif.got.tgz:329555.got - 2010.06.03 11:33:40.
