data_PCOD9074057
_publ_section_title
;
Structure prediction by ZEFSAII (Michael W. Deem and Ramdas Pophale) SiO2 
 PCOD9074057
Probable space group: P -1
;
_chemical_formula_sum "Si O2"
_cell_formula_units_Z 14
_cell_length_a 9.000000
_cell_length_b 12.000000
_cell_length_c 9.000000
_cell_angle_alpha 70.000000
_cell_angle_beta 110.000000
_cell_angle_gamma 130.000000
_cell_volume 689.539475
_symmetry_space_group_name_H-M "P -1"
_symmetry_group_IT_number 2
_symmetry_cell_setting 'triclinic'
loop_
_space_group_symop_operation_xyz
x,y,z
-x,-y,-z
loop_
_atom_site_type_symbol
_atom_site_label
_atom_site_fract_x
_atom_site_fract_y
_atom_site_fract_z
Si Si1 0.550980 0.940711 0.904062
Si Si2 0.283222 0.476457 0.716374
Si Si3 0.110927 0.157584 0.542066
Si Si4 0.132164 0.805789 0.312448
Si Si5 0.819492 0.559710 0.647730
Si Si6 0.270484 0.726809 0.665275
Si Si7 0.463210 0.308899 0.815985
O O1 0.384408 0.862194 0.755358
O O2 0.745089 0.075332 0.826645
O O3 0.561495 0.811677 0.027927
O O4 0.500000 0.000000 0.000000
O O5 0.273568 0.488017 0.528192
O O6 0.356272 0.632471 0.735604
O O7 0.400330 0.408165 0.816782
O O8 0.056002 0.350387 0.740890
O O9 0.162423 0.289962 0.388897
O O10 0.312103 0.216919 0.669829
O O11 0.965967 0.147198 0.623903
O O12 0.000000 0.000000 0.500000
O O13 0.263977 0.778572 0.473420
O O14 0.681504 0.426844 0.772433
O O15 0.042722 0.615745 0.686859
#
# Coordination Sequence:
#
# PCOD9074057 Si02
#       7
#     2   2   2   2   2   2   2
#     4  12  28  39  57  93 135 170 200 257 317 368
#     4   9  19  39  68  89 113 158 214 263 308 358
#     4   9  19  37  69  96 120 163 210 256 312 368
#     4   9  21  42  63  91 122 164 211 256 306 371
#     4   9  19  38  63  95 120 157 208 262 302 369
#     4  10  22  41  67  89 115 166 218 250 310 370
#     4  10  23  39  59  92 133 157 204 255 321 364
#
# _framework density 20.303405999999999
#
# number of rings (size 3 to 8) (size 9 to 14) (size 15 to 20)
#    0.000    2.857    0.000    3.857    8.000    5.714 
#    0.000    0.000    0.000    0.000    0.000    0.000 
#    0.000    0.000    0.000    0.000    0.000    0.000 
#
# Total GULP energy -78141.286478 kJ/mol
# GULP energy per Si atom -5581.520463 kJ/mol
# Density = 2.025719 g / cm^3
# Si number density = 20.303406 Si / 1000 Ang^3
#
#
#
# Elastic Constant Matrix: (Units=GPa)
#
#
# Indices 1 2 3 4 5 6 
#
# 1 30.7662 18.5963 15.0142 -13.1442 -7.0684 4.1020
# 2 18.5963 93.0846 19.5684 -18.3525 -26.7849 -3.4098
# 3 15.0142 19.5684 41.0315 -36.6949 -12.0690 13.9890
# 4 -13.1442 -18.3525 -36.6949 37.9881 3.4999 -15.1727
# 5 -7.0684 -26.7849 -12.0690 3.4999 22.3472 -5.8016
# 6 4.1020 -3.4098 13.9890 -15.1727 -5.8016 28.5982
#
#
#
# Elastic Compliance Matrix: (Units=1/GPa)
#
#
# Indices 1 2 3 4 5 6 
#
# 1 0.039402 0.015248 0.084268 0.106168 0.066025 0.024667
# 2 0.015248 -0.143736 -0.743159 -0.810951 -0.489946 -0.185445
# 3 0.084268 -0.743159 -3.313023 -3.676432 -2.311051 -0.899459
# 4 0.106168 -0.810951 -3.676432 -4.032713 -2.543946 -0.969189
# 5 0.066025 -0.489946 -2.311051 -2.543946 -1.526218 -0.596721
# 6 0.024667 -0.185445 -0.899459 -0.969189 -0.596721 -0.185960
#
#
# Mechanical properties :
#
#
# Convention : Reuss Voigt Hill
#
# Bulk Modulus (GPa) = -0.21256 30.13780 14.96262
# Shear Modulus (GPa) = -0.52948 25.23359 12.35205
#
# Velocity S-wave (km/s) = -0.51123 3.52920 2.46920
# Velocity P-wave (km/s) = 0.67334 5.61096 3.93888
#
# Compressibility (1/GPa) = -4.70464396
#
# Stress axis : x y z
#
# Youngs Moduli (GPa) = 25.37967 -6.95719 -0.30184
#
# Poissons Ratio (x) = 0.10608 0.02544
# Poissons Ratio (y) = -0.38698 -0.22431
# Poissons Ratio (z) = -2.13869 -5.17030
#
# Static dielectric constant tensor:
#      x y z
#    x 1.754050 -0.020230 0.022850 
#    y -0.020230 1.720410 0.008200 
#    z 0.022850 0.008200 1.720820 
# 
# From -- ./inp_files/176758.got.cif
#   From: 2010.05.17/outbox.ucp.g08.bks.cvg/sg2_89_cif.got.tgz:176758.got - 2010.06.11 11:32:03.
