data_PCOD9074623
_publ_section_title
;
Structure prediction by ZEFSAII (Michael W. Deem and Ramdas Pophale) SiO2 
 PCOD9074623
Probable space group: P -1
;
_chemical_formula_sum "Si O2"
_cell_formula_units_Z 16
_cell_length_a 9.000000
_cell_length_b 24.000000
_cell_length_c 21.000000
_cell_angle_alpha 160.000000
_cell_angle_beta 40.000000
_cell_angle_gamma 150.000000
_cell_volume 744.844803
_symmetry_space_group_name_H-M "P -1"
_symmetry_group_IT_number 2
_symmetry_cell_setting 'triclinic'
loop_
_space_group_symop_operation_xyz
x,y,z
-x,-y,-z
loop_
_atom_site_type_symbol
_atom_site_label
_atom_site_fract_x
_atom_site_fract_y
_atom_site_fract_z
Si Si1 0.872482 0.682538 0.688920
Si Si2 0.739024 0.247326 0.249429
Si Si3 0.102441 0.978628 0.543745
Si Si4 0.857270 0.673776 0.426767
Si Si5 0.945039 0.174342 0.977895
Si Si6 0.839675 0.159409 0.762019
Si Si7 0.215750 0.509109 0.124868
Si Si8 0.853243 0.028993 0.221829
O O1 0.886334 0.496095 0.469027
O O2 0.514019 0.527191 0.662438
O O3 0.094652 0.795137 0.799505
O O4 0.972498 0.839295 0.762016
O O5 0.795861 0.227935 0.135999
O O6 0.372787 0.072996 0.202139
O O7 0.434566 0.239188 0.720003
O O8 0.848691 0.991296 0.616537
O O9 0.117671 0.863302 0.352644
O O10 0.994829 0.841205 0.498772
O O11 0.995571 0.559352 0.255095
O O12 0.985481 0.797034 0.585750
O O13 0.122897 0.343965 0.040099
O O14 0.137308 0.145052 0.931984
O O15 0.504264 0.087997 0.798678
O O16 0.106763 0.380281 0.953274
#
# Coordination Sequence:
#
# PCOD9074623 Si02
#       8
#     2   2   2   2   2   2   2   2
#     4  11  25  43  71 106 139 194 231 289 360 422
#     4  10  24  42  69  99 149 186 238 284 353 428
#     4  11  27  53  72 104 143 189 240 298 352 423
#     4  12  26  46  74 105 145 186 239 292 357 424
#     4  11  25  44  68 105 145 188 234 293 352 425
#     4  11  27  48  76 105 141 185 242 296 353 427
#     4  12  26  49  75 105 143 191 236 298 358 413
#     4  12  25  45  72 106 148 183 237 294 355 428
#
# _framework density 21.480985
#
# number of rings (size 3 to 8) (size 9 to 14) (size 15 to 20)
#    0.000    0.750    2.500    3.375    8.750    2.000 
#    0.000    0.000    0.000    0.000    0.000    0.000 
#    0.000    0.000    0.000    0.000    0.000    0.000 
#
# Total GULP energy -89109.595895 kJ/mol
# GULP energy per Si atom -5569.349743 kJ/mol
# Density = 2.143209 g / cm^3
# Si number density = 21.480985 Si / 1000 Ang^3
#
#
#
# Elastic Constant Matrix: (Units=GPa)
#
#
# Indices 1 2 3 4 5 6 
#
# 1 173.8332 74.1512 28.3248 14.0361 -3.1588 -21.4117
# 2 74.1512 138.9721 27.1915 16.7397 -1.3574 -22.8971
# 3 28.3248 27.1915 65.7176 5.0178 3.7077 -9.4614
# 4 14.0361 16.7397 5.0178 31.2769 -8.2675 -8.4511
# 5 -3.1588 -1.3574 3.7077 -8.2675 49.0250 -0.5072
# 6 -21.4117 -22.8971 -9.4614 -8.4511 -0.5072 57.6312
#
#
#
# Elastic Compliance Matrix: (Units=1/GPa)
#
#
# Indices 1 2 3 4 5 6 
#
# 1 0.007736 -0.003506 -0.001680 -0.000935 0.000382 0.001072
# 2 -0.003506 0.010177 -0.002171 -0.003077 -0.000279 0.001931
# 3 -0.001680 -0.002171 0.017172 -0.000947 -0.001615 0.001179
# 4 -0.000935 -0.003077 -0.000947 0.036831 0.006176 0.003730
# 5 0.000382 -0.000279 -0.001615 0.006176 0.021587 0.000862
# 6 0.001072 0.001931 0.001179 0.003730 0.000862 0.019265
#
#
# Mechanical properties :
#
#
# Convention : Reuss Voigt Hill
#
# Bulk Modulus (GPa) = 49.08705 70.87311 59.98008
# Shear Modulus (GPa) = 37.23723 44.17699 40.70711
#
# Velocity S-wave (km/s) = 4.16805 4.53985 4.35792
# Velocity P-wave (km/s) = 6.78708 7.78109 7.30102
#
# Compressibility (1/GPa) = 0.02037197
#
# Stress axis : x y z
#
# Youngs Moduli (GPa) = 129.25820 98.25686 58.23415
#
# Poissons Ratio (x) = 0.34452 0.09780
# Poissons Ratio (y) = 0.45322 0.12643
# Poissons Ratio (z) = 0.21709 0.21333
#
# Static dielectric constant tensor:
#      x y z
#    x 1.778260 0.035900 0.000540 
#    y 0.035900 1.798490 -0.055400 
#    z 0.000540 -0.055400 1.908880 
# 
# From -- ./inp_files/591987.got.cif
#   From: 2010.05.17/outbox.ucp.g08.bks.cvg/sg2_296_cif.got.tgz:591987.got - 2010.06.11 11:32:03.
