data_PCOD9074148
_publ_section_title
;
Structure prediction by ZEFSAII (Michael W. Deem and Ramdas Pophale) SiO2 
 PCOD9074148
Probable space group: P -1
;
_chemical_formula_sum "Si O2"
_cell_formula_units_Z 16
_cell_length_a 21.000000
_cell_length_b 6.000000
_cell_length_c 9.000000
_cell_angle_alpha 70.000000
_cell_angle_beta 130.000000
_cell_angle_gamma 120.000000
_cell_volume 751.947714
_symmetry_space_group_name_H-M "P -1"
_symmetry_group_IT_number 2
_symmetry_cell_setting 'triclinic'
loop_
_space_group_symop_operation_xyz
x,y,z
-x,-y,-z
loop_
_atom_site_type_symbol
_atom_site_label
_atom_site_fract_x
_atom_site_fract_y
_atom_site_fract_z
Si Si1 0.392941 0.425596 0.884761
Si Si2 0.499888 0.791956 0.417525
Si Si3 0.311952 0.550990 0.029702
Si Si4 0.986479 0.443776 0.166881
Si Si5 0.244820 0.919476 0.664619
Si Si6 0.812428 0.533017 0.863032
Si Si7 0.682419 0.200205 0.485845
Si Si8 0.920171 0.965210 0.683878
O O1 0.337695 0.153902 0.788679
O O2 0.362208 0.627251 0.705864
O O3 0.500000 0.500000 0.000000
O O4 0.351850 0.414606 0.993748
O O5 0.500000 0.500000 0.500000
O O6 0.406886 0.743799 0.200365
O O7 0.500000 0.000000 0.500000
O O8 0.596867 0.942672 0.453025
O O9 0.243964 0.412009 0.096911
O O10 0.253587 0.688496 0.825584
O O11 0.026071 0.202961 0.283409
O O12 0.879829 0.390282 0.045511
O O13 0.031198 0.726976 0.258833
O O14 0.000000 0.500000 0.000000
O O15 0.162395 0.013296 0.541649
O O16 0.248771 0.848102 0.514109
O O17 0.737787 0.348377 0.678459
O O18 0.874102 0.786987 0.800840
#
# Coordination Sequence:
#
# PCOD9074148 Si02
#       8
#     2   2   2   2   2   2   2   2
#     4  11  24  44  70  97 140 192 242 281 348 424
#     4  12  28  46  66 106 148 181 230 295 359 408
#     4  11  27  44  67 106 144 184 234 300 353 411
#     4  10  22  42  71 107 139 179 233 297 358 427
#     4  11  24  44  69  99 137 191 239 285 346 435
#     4  11  22  45  71 109 138 179 237 301 359 412
#     4  11  24  43  71  98 140 189 242 284 351 425
#     4  11  23  45  74 102 139 186 237 290 356 433
#
# _framework density 21.278075000000001
#
# number of rings (size 3 to 8) (size 9 to 14) (size 15 to 20)
#    0.000    1.000    2.500    4.500    8.750    2.000 
#    6.750    1.250    0.000    0.000    0.000    0.000 
#    0.000    0.000    0.000    0.000    0.000    0.000 
#
# Total GULP energy -89107.135846 kJ/mol
# GULP energy per Si atom -5569.195990 kJ/mol
# Density = 2.122965 g / cm^3
# Si number density = 21.278075 Si / 1000 Ang^3
#
#
#
# Elastic Constant Matrix: (Units=GPa)
#
#
# Indices 1 2 3 4 5 6 
#
# 1 134.1853 18.2830 35.7288 -0.2552 14.8753 -17.1618
# 2 18.2830 82.9419 13.8469 5.4794 -8.1835 -17.4085
# 3 35.7288 13.8469 89.0582 5.2914 22.4014 -6.9811
# 4 -0.2552 5.4794 5.2914 35.3459 -7.2053 8.8765
# 5 14.8753 -8.1835 22.4014 -7.2053 48.3398 -4.4986
# 6 -17.1618 -17.4085 -6.9811 8.8765 -4.4986 40.6535
#
#
#
# Elastic Compliance Matrix: (Units=1/GPa)
#
#
# Indices 1 2 3 4 5 6 
#
# 1 0.008841 -0.001023 -0.002805 -0.000326 -0.001388 0.002730
# 2 -0.001023 0.014583 -0.002189 -0.002754 0.003991 0.006480
# 3 -0.002805 -0.002189 0.014618 -0.003337 -0.006745 0.000371
# 4 -0.000326 -0.002754 -0.003337 0.032387 0.005228 -0.008383
# 5 -0.001388 0.003991 -0.006745 0.005228 0.025851 0.001684
# 6 0.002730 0.006480 0.000371 -0.008383 0.001684 0.030606
#
#
# Mechanical properties :
#
#
# Convention : Reuss Voigt Hill
#
# Bulk Modulus (GPa) = 38.44979 49.10029 43.77504
# Shear Modulus (GPa) = 33.87731 40.75629 37.31680
#
# Velocity S-wave (km/s) = 3.99447 4.38129 4.19234
# Velocity P-wave (km/s) = 6.27565 6.97996 6.63716
#
# Compressibility (1/GPa) = 0.02600794
#
# Stress axis : x y z
#
# Youngs Moduli (GPa) = 113.10732 68.57115 68.40726
#
# Poissons Ratio (x) = 0.07014 0.19190
# Poissons Ratio (y) = 0.11570 0.14976
# Poissons Ratio (z) = 0.31730 0.15012
#
# Static dielectric constant tensor:
#      x y z
#    x 1.818560 -0.010490 -0.008080 
#    y -0.010490 1.831830 -0.025210 
#    z -0.008080 -0.025210 1.820870 
# 
# From -- ./inp_files/340275.got.cif
#   From: 2010.05.17/outbox.ucp.g08.bks.cvg/sg2_171_cif.got.tgz:340275.got - 2010.06.11 11:32:03.
