data_PCOD9074511
_publ_section_title
;
Structure prediction by ZEFSAII (Michael W. Deem and Ramdas Pophale) SiO2 
 PCOD9074511
Probable space group: P -1
;
_chemical_formula_sum "Si O2"
_cell_formula_units_Z 16
_cell_length_a 12.540970
_cell_length_b 13.752088
_cell_length_c 12.039657
_cell_angle_alpha 104.674148
_cell_angle_beta 50.692643
_cell_angle_gamma 147.287982
_cell_volume 645.448930
_symmetry_space_group_name_H-M "P -1"
_symmetry_group_IT_number 2
_symmetry_cell_setting 'triclinic'
loop_
_space_group_symop_operation_xyz
x,y,z
-x,-y,-z
loop_
_atom_site_type_symbol
_atom_site_label
_atom_site_fract_x
_atom_site_fract_y
_atom_site_fract_z
Si Si1 0.405328 0.237480 0.332652
Si Si2 0.938757 0.363310 0.306777
Si Si3 0.044778 0.912232 0.934337
Si Si4 0.591222 0.811307 0.433714
Si Si5 0.167974 0.772959 0.041406
Si Si6 0.504605 0.050329 0.690971
Si Si7 0.533957 0.848073 0.947666
Si Si8 0.500908 0.518049 0.368802
O O1 0.310568 0.131516 0.485296
O O2 0.295053 0.280201 0.403276
O O3 0.809971 0.510211 0.155662
O O4 0.356145 0.139862 0.227718
O O5 0.705448 0.306466 0.424664
O O6 0.779038 0.180288 0.271377
O O7 0.318920 0.634571 0.107076
O O8 0.848405 0.269642 0.463898
O O9 0.388581 0.087657 0.796611
O O10 0.096982 0.942609 0.774205
O O11 0.774106 0.690595 0.136017
O O12 0.000000 0.000000 0.000000
O O13 0.460965 0.613842 0.424829
O O14 0.273648 0.761381 0.057090
O O15 0.450825 0.957440 0.813607
O O16 0.176765 0.892061 0.117032
O O17 0.500000 0.500000 0.500000
#
# Coordination Sequence:
#
# PCOD9074511 Si02
#       8
#     2   2   2   2   2   2   2   2
#     4  11  18  35  54  75 106 137 177 221 260 308
#     4  10  18  32  51  79 108 137 178 213 265 316
#     4   9  16  29  46  80 104 131 181 211 254 322
#     4   9  18  28  51  76 102 139 172 215 264 311
#     4  11  21  33  52  80 106 141 177 216 265 312
#     4  10  19  31  53  78 107 141 172 221 262 312
#     4  11  22  33  53  80 105 144 175 218 264 310
#     4   9  17  28  51  80 100 133 177 212 259 311
#
# _framework density 24.788948000000001
#
# number of rings (size 3 to 8) (size 9 to 14) (size 15 to 20)
#    0.000    2.000    3.750    1.125    0.000    0.500 
#    0.000    0.000    0.000    6.750    0.000    7.000 
#    0.000    0.000    0.000    0.000    0.000    0.000 
#
# Total GULP energy -89145.167693 kJ/mol
# GULP energy per Si atom -5571.572981 kJ/mol
# Density = 2.473253 g / cm^3
# Si number density = 24.788948 Si / 1000 Ang^3
#
#
#
# Elastic Constant Matrix: (Units=GPa)
#
#
# Indices 1 2 3 4 5 6 
#
# 1 35.7360 10.7938 31.6205 -5.0284 19.6609 -13.4342
# 2 10.7938 80.7658 54.8923 26.9795 6.1430 -15.4142
# 3 31.6205 54.8923 209.9487 -3.7265 46.2111 8.8513
# 4 -5.0284 26.9795 -3.7265 40.0303 -5.5572 -2.4055
# 5 19.6609 6.1430 46.2111 -5.5572 41.8588 0.9901
# 6 -13.4342 -15.4142 8.8513 -2.4055 0.9901 24.1925
#
#
#
# Elastic Compliance Matrix: (Units=1/GPa)
#
#
# Indices 1 2 3 4 5 6 
#
# 1 0.060742 0.005688 -0.007564 0.002567 -0.021649 0.041263
# 2 0.005688 0.028734 -0.009915 -0.018022 0.001115 0.023256
# 3 -0.007564 -0.009915 0.010350 0.005128 -0.005416 -0.013573
# 4 0.002567 -0.018022 0.005128 0.037566 0.000960 -0.008238
# 5 -0.021649 0.001115 -0.005416 0.000960 0.040259 -0.010882
# 6 0.041263 0.023256 -0.013573 -0.008238 -0.010882 0.083659
#
#
# Mechanical properties :
#
#
# Convention : Reuss Voigt Hill
#
# Bulk Modulus (GPa) = 13.11594 57.89596 35.50595
# Shear Modulus (GPa) = 16.11300 36.49257 26.30279
#
# Velocity S-wave (km/s) = 2.55229 3.84100 3.26094
# Velocity P-wave (km/s) = 3.74007 6.56333 5.34160
#
# Compressibility (1/GPa) = 0.07624308
#
# Stress axis : x y z
#
# Youngs Moduli (GPa) = 16.46297 34.80186 96.61711
#
# Poissons Ratio (x) = -0.19794 0.73085
# Poissons Ratio (y) = -0.09364 0.95797
# Poissons Ratio (z) = 0.12453 0.34506
#
# Static dielectric constant tensor:
#      x y z
#    x 1.971560 0.009220 0.004650 
#    y 0.009220 2.040220 0.003940 
#    z 0.004650 0.003940 2.018650 
# 
# From -- ./inp_files/302808.got.cif
#   From: 2010.05.17/outbox.cif.g08.bks.cpg/sg2_152_cif.got.tgz:302808.got - 2010.06.03 11:33:40.
