data_PCOD9074549
_publ_section_title
;
Structure prediction by ZEFSAII (Michael W. Deem and Ramdas Pophale) SiO2 
 PCOD9074549
Probable space group: P -1
;
_chemical_formula_sum "Si O2"
_cell_formula_units_Z 14
_cell_length_a 9.000000
_cell_length_b 9.000000
_cell_length_c 21.000000
_cell_angle_alpha 40.000000
_cell_angle_beta 40.000000
_cell_angle_gamma 40.000000
_cell_volume 633.252849
_symmetry_space_group_name_H-M "P -1"
_symmetry_group_IT_number 2
_symmetry_cell_setting 'triclinic'
loop_
_space_group_symop_operation_xyz
x,y,z
-x,-y,-z
loop_
_atom_site_type_symbol
_atom_site_label
_atom_site_fract_x
_atom_site_fract_y
_atom_site_fract_z
Si Si1 0.746779 0.229804 0.370200
Si Si2 0.983919 0.273610 0.146933
Si Si3 0.590279 0.882154 0.096795
Si Si4 0.225494 0.294220 0.449794
Si Si5 0.701753 0.359002 0.922441
Si Si6 0.536936 0.209649 0.245514
Si Si7 0.708232 0.736903 0.248044
O O1 0.925320 0.242296 0.250135
O O2 0.475606 0.264027 0.418313
O O3 0.713238 0.460979 0.352230
O O4 0.850765 0.941846 0.454771
O O5 0.809757 0.598378 0.090096
O O6 0.812249 0.171261 0.195679
O O7 0.295266 0.071988 0.103807
O O8 0.559484 0.819970 0.201639
O O9 0.713376 0.082019 0.995364
O O10 0.331516 0.300399 0.341445
O O11 0.000000 0.500000 0.500000
O O12 0.571046 0.550752 0.844786
O O13 0.996110 0.315394 0.846776
O O14 0.500000 0.500000 0.000000
O O15 0.587323 0.955090 0.270527
#
# Coordination Sequence:
#
# PCOD9074549 Si02
#       7
#     2   2   2   2   2   2   2
#     4   9  22  42  71  99 136 192 229 298 374 430
#     4  10  25  44  73 107 144 191 253 298 362 433
#     4  11  24  45  74 102 145 206 243 295 361 436
#     4  10  23  45  75 102 139 184 240 301 370 436
#     4  12  25  44  71 104 152 195 240 298 367 424
#     4  11  27  43  70 112 142 190 245 308 358 435
#     4  11  25  44  72 103 149 189 244 295 366 442
#
# _framework density 22.108073000000001
#
# number of rings (size 3 to 8) (size 9 to 14) (size 15 to 20)
#    0.000    1.429    1.429    2.143   10.000    4.000 
#    0.000    1.429    0.000    0.000    0.000    0.000 
#    0.000    0.000    0.000    0.000    0.000    0.000 
#
# Total GULP energy -78034.023501 kJ/mol
# GULP energy per Si atom -5573.858822 kJ/mol
# Density = 2.205775 g / cm^3
# Si number density = 22.108073 Si / 1000 Ang^3
#
#
#
# Elastic Constant Matrix: (Units=GPa)
#
#
# Indices 1 2 3 4 5 6 
#
# 1 73.0298 37.8766 20.4131 -8.8292 6.7404 2.9079
# 2 37.8766 172.8296 61.2149 1.6187 0.7354 22.8711
# 3 20.4131 61.2149 95.2789 -14.6565 -2.5796 4.8932
# 4 -8.8292 1.6187 -14.6565 44.7892 10.0893 -15.7773
# 5 6.7404 0.7354 -2.5796 10.0893 31.1811 -0.7324
# 6 2.9079 22.8711 4.8932 -15.7773 -0.7324 56.4721
#
#
#
# Elastic Compliance Matrix: (Units=1/GPa)
#
#
# Indices 1 2 3 4 5 6 
#
# 1 0.016850 -0.003767 -0.000645 0.005159 -0.005227 0.002087
# 2 -0.003767 0.009203 -0.005576 -0.004796 0.001585 -0.004369
# 3 -0.000645 -0.005576 0.014993 0.006002 -0.000368 0.002665
# 4 0.005159 -0.004796 0.006002 0.031258 -0.010391 0.009755
# 5 -0.005227 0.001585 -0.000368 -0.010391 0.036430 -0.002771
# 6 0.002087 -0.004369 0.002665 0.009755 -0.002771 0.021828
#
#
# Mechanical properties :
#
#
# Convention : Reuss Voigt Hill
#
# Bulk Modulus (GPa) = 47.46105 64.46083 55.96094
# Shear Modulus (GPa) = 31.73364 41.26406 36.49885
#
# Velocity S-wave (km/s) = 3.79276 4.32495 4.06757
# Velocity P-wave (km/s) = 6.37922 7.35940 6.88677
#
# Compressibility (1/GPa) = 0.02106991
#
# Stress axis : x y z
#
# Youngs Moduli (GPa) = 59.34711 108.66072 66.69872
#
# Poissons Ratio (x) = 0.40928 0.04303
# Poissons Ratio (y) = 0.22354 0.37193
# Poissons Ratio (z) = 0.03829 0.60591
#
# Static dielectric constant tensor:
#      x y z
#    x 1.839530 -0.017380 0.029000 
#    y -0.017380 1.875030 -0.026590 
#    z 0.029000 -0.026590 1.892020 
# 
# From -- ./inp_files/134339.got.cif
#   From: 2010.05.17/outbox.ucp.g08.bks.cvg/sg2_68_cif.got.tgz:134339.got - 2010.06.11 11:32:03.
