data_PCOD9074944
_publ_section_title
;
Structure prediction by ZEFSAII (Michael W. Deem and Ramdas Pophale) SiO2 
 PCOD9074944
Probable space group: P -1
;
_chemical_formula_sum "Si O2"
_cell_formula_units_Z 16
_cell_length_a 27.000000
_cell_length_b 27.000000
_cell_length_c 9.000000
_cell_angle_alpha 140.000000
_cell_angle_beta 40.000000
_cell_angle_gamma 170.000000
_cell_volume 728.340053
_symmetry_space_group_name_H-M "P -1"
_symmetry_group_IT_number 2
_symmetry_cell_setting 'triclinic'
loop_
_space_group_symop_operation_xyz
x,y,z
-x,-y,-z
loop_
_atom_site_type_symbol
_atom_site_label
_atom_site_fract_x
_atom_site_fract_y
_atom_site_fract_z
Si Si1 0.231868 0.765163 0.670233
Si Si2 0.476913 0.162695 0.364362
Si Si3 0.292121 0.214890 0.478140
Si Si4 0.272766 0.732429 0.820741
Si Si5 0.829099 0.693067 0.516661
Si Si6 0.935467 0.027865 0.875420
Si Si7 0.959477 0.642697 0.155303
Si Si8 0.401132 0.542233 0.175332
O O1 0.251530 0.742336 0.728771
O O2 0.000000 0.500000 0.500000
O O3 0.500000 0.000000 0.500000
O O4 0.133378 0.757937 0.907024
O O5 0.612086 0.243392 0.371287
O O6 0.670659 0.325609 0.150617
O O7 0.511357 0.285973 0.597821
O O8 0.154975 0.838984 0.305466
O O9 0.623749 0.527774 0.478428
O O10 0.153283 0.165697 0.678310
O O11 0.210371 0.098957 0.240917
O O12 0.138390 0.024948 0.532509
O O13 0.000000 0.500000 0.000000
O O14 0.500000 0.000000 0.000000
O O15 0.869712 0.640027 0.297019
O O16 0.712262 0.601207 0.737621
O O17 0.140304 0.289597 0.076731
O O18 0.676236 0.765486 0.984540
#
# Coordination Sequence:
#
# PCOD9074944 Si02
#       8
#     2   2   2   2   2   2   2   2
#     4  12  25  42  63  97 133 161 207 268 315 361
#     4  11  21  41  68  93 122 167 216 259 308 371
#     4  11  24  43  65  91 130 172 207 244 322 392
#     4  12  22  42  70  92 120 174 217 250 303 386
#     4  11  23  41  67  95 121 169 216 253 310 381
#     4  11  24  43  64  92 132 167 201 265 315 367
#     4  11  22  42  67  89 131 169 203 261 320 370
#     4  11  23  40  66  97 127 159 213 270 306 356
#
# _framework density 21.967760999999999
#
# number of rings (size 3 to 8) (size 9 to 14) (size 15 to 20)
#    0.000    0.750    2.500    6.750    0.000    5.000 
#    6.750    0.000    0.000    0.000    0.000    0.000 
#    0.000    0.000    0.000    0.000    0.000    0.000 
#
# Total GULP energy -89302.329787 kJ/mol
# GULP energy per Si atom -5581.395612 kJ/mol
# Density = 2.191776 g / cm^3
# Si number density = 21.967761 Si / 1000 Ang^3
#
#
#
# Elastic Constant Matrix: (Units=GPa)
#
#
# Indices 1 2 3 4 5 6 
#
# 1 81.2836 12.0406 28.7677 -11.0227 8.6515 9.7103
# 2 12.0406 109.9528 38.6887 -5.1355 17.6264 9.5299
# 3 28.7677 38.6887 92.6847 -8.2517 18.9488 14.5498
# 4 -11.0227 -5.1355 -8.2517 33.4928 3.5762 1.3098
# 5 8.6515 17.6264 18.9488 3.5762 34.9945 -2.4405
# 6 9.7103 9.5299 14.5498 1.3098 -2.4405 26.4301
#
#
#
# Elastic Compliance Matrix: (Units=1/GPa)
#
#
# Indices 1 2 3 4 5 6 
#
# 1 0.014808 0.000561 -0.003085 0.004701 -0.003065 -0.004460
# 2 0.000561 0.011246 -0.003381 0.001653 -0.004343 -0.002883
# 3 -0.003085 -0.003381 0.016068 0.003469 -0.007099 -0.007320
# 4 0.004701 0.001653 0.003469 0.033600 -0.007768 -0.006615
# 5 -0.003065 -0.004343 -0.007099 -0.007768 0.036884 0.010391
# 6 -0.004460 -0.002883 -0.007320 -0.006615 0.010391 0.045831
#
#
# Mechanical properties :
#
#
# Convention : Reuss Voigt Hill
#
# Bulk Modulus (GPa) = 32.99046 49.21277 41.10162
# Shear Modulus (GPa) = 27.72379 32.61176 30.16777
#
# Velocity S-wave (km/s) = 3.55635 3.85714 3.70979
# Velocity P-wave (km/s) = 5.64923 6.50289 6.09103
#
# Compressibility (1/GPa) = 0.03031179
#
# Stress axis : x y z
#
# Youngs Moduli (GPa) = 67.53173 88.91840 62.23675
#
# Poissons Ratio (x) = -0.04992 0.19201
# Poissons Ratio (y) = -0.03792 0.21044
# Poissons Ratio (z) = 0.20835 0.30065
#
# Static dielectric constant tensor:
#      x y z
#    x 1.701560 -0.038180 -0.000340 
#    y -0.038180 1.806470 0.023000 
#    z -0.000340 0.023000 1.768740 
# 
# From -- ./inp_files/223340.got.cif
#   From: 2010.05.17/outbox.ucp.g08.bks.cvg/sg2_112_cif.got.tgz:223340.got - 2010.06.11 11:32:03.
