data_PCOD9074336
_publ_section_title
;
Structure prediction by ZEFSAII (Michael W. Deem and Ramdas Pophale) SiO2 
 PCOD9074336
Probable space group: P -1
;
_chemical_formula_sum "Si O2"
_cell_formula_units_Z 16
_cell_length_a 9.000000
_cell_length_b 12.000000
_cell_length_c 15.000000
_cell_angle_alpha 130.000000
_cell_angle_beta 70.000000
_cell_angle_gamma 70.000000
_cell_volume 728.972637
_symmetry_space_group_name_H-M "P -1"
_symmetry_group_IT_number 2
_symmetry_cell_setting 'triclinic'
loop_
_space_group_symop_operation_xyz
x,y,z
-x,-y,-z
loop_
_atom_site_type_symbol
_atom_site_label
_atom_site_fract_x
_atom_site_fract_y
_atom_site_fract_z
Si Si1 0.243801 0.869429 0.992723
Si Si2 0.107169 0.569162 0.063731
Si Si3 0.303838 0.208772 0.417910
Si Si4 0.519263 0.815803 0.069861
Si Si5 0.521608 0.604582 0.342786
Si Si6 0.173993 0.994513 0.761773
Si Si7 0.306287 0.029919 0.507577
Si Si8 0.041305 0.319377 0.187195
O O1 0.378401 0.810372 0.028626
O O2 0.964850 0.000718 0.132966
O O3 0.422484 0.608665 0.786032
O O4 0.183155 0.067763 0.057982
O O5 0.050482 0.737852 0.090469
O O6 0.945289 0.755082 0.274116
O O7 0.367773 0.337639 0.941123
O O8 0.000000 0.500000 0.000000
O O9 0.271886 0.123213 0.465273
O O10 0.091995 0.486037 0.608397
O O11 0.319622 0.087315 0.270916
O O12 0.585110 0.079750 0.298593
O O13 0.757869 0.722241 0.925269
O O14 0.794798 0.467559 0.251104
O O15 0.303624 0.797149 0.559653
O O16 0.421518 0.783866 0.374323
O O17 0.500000 0.000000 0.500000
#
# Coordination Sequence:
#
# PCOD9074336 Si02
#       8
#     2   2   2   2   2   2   2   2
#     4  12  28  42  59  94 141 170 204 259 329 388
#     4  11  20  37  70  96 125 156 217 268 305 378
#     4  11  22  39  72  96 120 163 225 271 302 373
#     4  12  25  41  65  97 125 174 212 261 322 375
#     4  10  23  42  68  95 127 165 214 270 314 373
#     4  10  23  39  63  98 123 161 209 264 323 367
#     4  11  17  37  66 103 119 153 216 272 311 360
#     4  11  24  45  68  90 121 177 228 256 303 376
#
# _framework density 21.948698
#
# number of rings (size 3 to 8) (size 9 to 14) (size 15 to 20)
#    0.000    1.000    6.250    1.500    3.500    5.000 
#    0.000    1.250    0.000    0.000    0.000    0.000 
#    0.000    0.000    0.000    0.000    0.000    0.000 
#
# Total GULP energy -89300.728943 kJ/mol
# GULP energy per Si atom -5581.295559 kJ/mol
# Density = 2.189874 g / cm^3
# Si number density = 21.948698 Si / 1000 Ang^3
#
#
#
# Elastic Constant Matrix: (Units=GPa)
#
#
# Indices 1 2 3 4 5 6 
#
# 1 33.5545 0.7944 30.2095 8.5763 33.1489 -4.5779
# 2 0.7944 67.4690 16.9267 33.7778 6.4562 12.5726
# 3 30.2095 16.9267 122.1137 29.3679 34.7487 9.7315
# 4 8.5763 33.7778 29.3679 44.3965 14.2519 4.2372
# 5 33.1489 6.4562 34.7487 14.2519 32.8808 3.3522
# 6 -4.5779 12.5726 9.7315 4.2372 3.3522 33.8160
#
#
#
# Elastic Compliance Matrix: (Units=1/GPa)
#
#
# Indices 1 2 3 4 5 6 
#
# 1 -0.398487 0.011602 -0.007050 -0.060413 0.442528 -0.092529
# 2 0.011602 0.025858 0.001193 -0.019279 -0.009162 -0.005062
# 3 -0.007050 0.001193 0.012532 -0.006443 -0.003182 -0.003882
# 4 -0.060413 -0.019279 -0.006443 0.035725 0.056962 -0.009279
# 5 0.442528 -0.009162 -0.003182 0.056962 -0.445575 0.101263
# 6 -0.092529 -0.005062 -0.003882 -0.009279 0.101263 0.011169
#
#
# Mechanical properties :
#
#
# Convention : Reuss Voigt Hill
#
# Bulk Modulus (GPa) = -2.86856 35.44427 16.28786
# Shear Modulus (GPa) = -5.64035 33.89909 14.12937
#
# Velocity S-wave (km/s) = -1.60480 3.93424 2.53997
# Velocity P-wave (km/s) = 2.17798 6.06806 4.00486
#
# Compressibility (1/GPa) = -0.34860718
#
# Stress axis : x y z
#
# Youngs Moduli (GPa) = -2.50949 38.67309 79.79305
#
# Poissons Ratio (x) = -0.44870 0.56256
# Poissons Ratio (y) = 0.02912 -0.09516
# Poissons Ratio (z) = -0.01769 -0.04612
#
# Static dielectric constant tensor:
#      x y z
#    x 1.783460 -0.001650 0.054940 
#    y -0.001650 1.848070 -0.040800 
#    z 0.054940 -0.040800 1.761830 
# 
# From -- ./inp_files/500817.got.cif
#   From: 2010.05.17/outbox.ucp.g08.bks.cvg/sg2_251_cif.got.tgz:500817.got - 2010.06.11 11:32:03.
