data_PCOD9074752
_publ_section_title
;
Structure prediction by ZEFSAII (Michael W. Deem and Ramdas Pophale) SiO2 
 PCOD9074752
Probable space group: P -1
;
_chemical_formula_sum "Si O2"
_cell_formula_units_Z 14
_cell_length_a 18.000000
_cell_length_b 9.000000
_cell_length_c 9.000000
_cell_angle_alpha 110.000000
_cell_angle_beta 60.000000
_cell_angle_gamma 150.000000
_cell_volume 617.235917
_symmetry_space_group_name_H-M "P -1"
_symmetry_group_IT_number 2
_symmetry_cell_setting 'triclinic'
loop_
_space_group_symop_operation_xyz
x,y,z
-x,-y,-z
loop_
_atom_site_type_symbol
_atom_site_label
_atom_site_fract_x
_atom_site_fract_y
_atom_site_fract_z
Si Si1 0.991881 0.334010 0.841885
Si Si2 0.479807 0.886831 0.320836
Si Si3 0.854824 0.728357 0.436142
Si Si4 0.620868 0.836756 0.002798
Si Si5 0.680025 0.693933 0.367930
Si Si6 0.854876 0.265916 0.446105
Si Si7 0.480697 0.171208 0.202724
O O1 0.066721 0.273732 0.764308
O O2 0.098875 0.544838 0.664031
O O3 0.800802 0.043436 0.887986
O O4 0.000000 0.500000 0.000000
O O5 0.287256 0.547410 0.400334
O O6 0.500000 0.000000 0.500000
O O7 0.519719 0.066513 0.206397
O O8 0.587158 0.896539 0.198728
O O9 0.751591 0.698031 0.432455
O O10 0.000000 0.000000 0.500000
O O11 0.573161 0.874084 0.924999
O O12 0.500000 0.500000 0.000000
O O13 0.500000 0.500000 0.500000
O O14 0.639121 0.525371 0.208115
O O15 0.822473 0.046114 0.327873
O O16 0.000000 0.500000 0.500000
O O17 0.683997 0.037823 0.615990
#
# Coordination Sequence:
#
# PCOD9074752 Si02
#       7
#     2   2   2   2   2   2   2
#     4  12  27  46  73 108 152 188 245 313 379 434
#     4  12  25  47  75 107 147 198 252 300 374 458
#     4  12  25  46  76 112 145 193 250 310 372 444
#     4  12  29  46  73 111 151 195 249 311 374 443
#     4  10  25  41  73 107 146 193 249 301 369 447
#     4  11  22  45  71 105 143 194 242 305 378 442
#     4  11  24  45  73 104 149 197 251 299 372 453
#
# _framework density 22.681764999999999
#
# number of rings (size 3 to 8) (size 9 to 14) (size 15 to 20)
#    0.000    0.571    4.286    3.000    8.000    0.000 
#    0.000    0.714    0.000    0.000    0.000    0.000 
#    0.000    0.000    0.000    0.000    0.000    0.000 
#
# Total GULP energy -78010.754221 kJ/mol
# GULP energy per Si atom -5572.196730 kJ/mol
# Density = 2.263014 g / cm^3
# Si number density = 22.681765 Si / 1000 Ang^3
#
#
#
# Elastic Constant Matrix: (Units=GPa)
#
#
# Indices 1 2 3 4 5 6 
#
# 1 126.8035 30.9332 24.9374 7.2201 -14.4190 9.1849
# 2 30.9332 121.3731 10.0575 -14.8748 -10.0475 19.9853
# 3 24.9374 10.0575 75.5207 1.1924 -16.7014 -2.8434
# 4 7.2201 -14.8748 1.1924 -8.9011 -10.9718 7.6268
# 5 -14.4190 -10.0475 -16.7014 -10.9718 33.2013 7.1207
# 6 9.1849 19.9853 -2.8434 7.6268 7.1207 31.0899
#
#
#
# Elastic Compliance Matrix: (Units=1/GPa)
#
#
# Indices 1 2 3 4 5 6 
#
# 1 0.009182 -0.001107 -0.002206 0.001446 0.003754 -0.003418
# 2 -0.001107 0.007218 -0.000960 -0.011262 -0.002261 -0.001120
# 3 -0.002206 -0.000960 0.015358 -0.002636 0.005147 0.002142
# 4 0.001446 -0.011262 -0.002636 -0.044118 -0.023574 0.022793
# 5 0.003754 -0.002261 0.005147 -0.023574 0.025712 0.000709
# 6 -0.003418 -0.001120 0.002142 0.022793 0.000709 0.028337
#
#
# Mechanical properties :
#
#
# Convention : Reuss Voigt Hill
#
# Bulk Modulus (GPa) = 43.07987 50.61705 46.84846
# Shear Modulus (GPa) = 86.24951 28.26263 57.25607
#
# Velocity S-wave (km/s) = 6.17321 3.53377 5.02971
# Velocity P-wave (km/s) = 8.35737 6.24618 7.37768
#
# Compressibility (1/GPa) = 0.02321270
#
# Stress axis : x y z
#
# Youngs Moduli (GPa) = 108.90783 138.54556 65.11227
#
# Poissons Ratio (x) = 0.15332 0.14363
# Poissons Ratio (y) = 0.12052 0.06252
# Poissons Ratio (z) = 0.24024 0.13302
#
# Static dielectric constant tensor:
#      x y z
#    x 1.914570 -0.016960 0.030730 
#    y -0.016960 1.595250 -0.124020 
#    z 0.030730 -0.124020 1.732710 
# 
# From -- ./inp_files/328747.got.cif
#   From: 2010.05.17/outbox.ucp.g08.bks.cvg/sg2_165_cif.got.tgz:328747.got - 2010.06.11 11:32:03.
