data_PCOD9074493
_publ_section_title
;
Structure prediction by ZEFSAII (Michael W. Deem and Ramdas Pophale) SiO2 
 PCOD9074493
Probable space group: P -1
;
_chemical_formula_sum "Si O2"
_cell_formula_units_Z 12
_cell_length_a 18.000000
_cell_length_b 6.000000
_cell_length_c 9.000000
_cell_angle_alpha 100.000000
_cell_angle_beta 130.000000
_cell_angle_gamma 50.000000
_cell_volume 520.713542
_symmetry_space_group_name_H-M "P -1"
_symmetry_group_IT_number 2
_symmetry_cell_setting 'triclinic'
loop_
_space_group_symop_operation_xyz
x,y,z
-x,-y,-z
loop_
_atom_site_type_symbol
_atom_site_label
_atom_site_fract_x
_atom_site_fract_y
_atom_site_fract_z
Si Si1 0.419218 0.722617 0.785060
Si Si2 0.008026 0.677983 0.753540
Si Si3 0.727229 0.732710 0.790147
Si Si4 0.609839 0.435821 0.741119
Si Si5 0.160644 0.443712 0.611115
Si Si6 0.755784 0.403385 0.518179
O O1 0.528091 0.652478 0.806344
O O2 0.357769 0.601126 0.613525
O O3 0.296616 0.069227 0.736435
O O4 0.500000 0.500000 0.000000
O O5 0.091333 0.600638 0.699145
O O6 0.944638 0.535499 0.619177
O O7 0.114257 0.514070 0.001658
O O8 0.892495 0.045076 0.693776
O O9 0.672677 0.575980 0.774504
O O10 0.714313 0.691641 0.593866
O O11 0.687342 0.060395 0.825861
O O12 0.500000 0.500000 0.500000
O O13 0.209284 0.585926 0.604436
#
# Coordination Sequence:
#
# PCOD9074493 Si02
#       6
#     2   2   2   2   2   2
#     4  11  25  42  67 100 133 181 228 277 341 405
#     4  10  24  44  67 101 130 179 227 283 341 401
#     4  12  27  44  74 101 138 182 225 280 341 403
#     4  12  26  47  69 101 143 179 225 280 337 406
#     4  10  23  44  68  94 138 173 230 284 339 398
#     4  11  24  42  69  97 134 178 224 288 333 406
#
# _framework density 23.045300000000001
#
# number of rings (size 3 to 8) (size 9 to 14) (size 15 to 20)
#    0.000    1.000    1.667    3.500    9.333    1.333 
#    0.000    0.000    0.000    0.000    0.000    0.000 
#    0.000    0.000    0.000    0.000    0.000    0.000 
#
# Total GULP energy -66807.158591 kJ/mol
# GULP energy per Si atom -5567.263216 kJ/mol
# Density = 2.299285 g / cm^3
# Si number density = 23.045300 Si / 1000 Ang^3
#
#
#
# Elastic Constant Matrix: (Units=GPa)
#
#
# Indices 1 2 3 4 5 6 
#
# 1 67.8936 28.0404 -25.5105 -19.4696 -10.1466 -10.7335
# 2 28.0404 70.0710 33.4652 8.7900 17.4277 5.0429
# 3 -25.5105 33.4652 55.7920 -41.2074 0.9653 -10.7201
# 4 -19.4696 8.7900 -41.2074 1.7485 -12.1672 -14.5033
# 5 -10.1466 17.4277 0.9653 -12.1672 10.1892 3.6744
# 6 -10.7335 5.0429 -10.7201 -14.5033 3.6744 38.5560
#
#
#
# Elastic Compliance Matrix: (Units=1/GPa)
#
#
# Indices 1 2 3 4 5 6 
#
# 1 0.009692 -0.000142 -0.003779 -0.010702 -0.001736 -0.002194
# 2 -0.000142 0.012349 0.003627 0.013520 -0.007315 0.005137
# 3 -0.003779 0.003627 0.008327 -0.008101 -0.020313 -0.000323
# 4 -0.010702 0.013520 -0.008101 0.006637 -0.024300 -0.002187
# 5 -0.001736 -0.007315 -0.020313 -0.024300 0.090092 -0.022901
# 6 -0.002194 0.005137 -0.000323 -0.002187 -0.022901 0.025924
#
#
# Mechanical properties :
#
#
# Convention : Reuss Voigt Hill
#
# Bulk Modulus (GPa) = 33.57851 29.52743 31.55297
# Shear Modulus (GPa) = 30.57433 20.61615 25.59524
#
# Velocity S-wave (km/s) = 3.64635 2.99422 3.33626
# Velocity P-wave (km/s) = 5.68596 4.97940 5.34437
#
# Compressibility (1/GPa) = 0.02978095
#
# Stress axis : x y z
#
# Youngs Moduli (GPa) = 103.17416 80.97514 120.09689
#
# Poissons Ratio (x) = 0.01147 0.45384
# Poissons Ratio (y) = 0.01462 -0.43559
# Poissons Ratio (z) = 0.38989 -0.29369
#
# Static dielectric constant tensor:
#      x y z
#    x 1.927240 -0.048550 -0.054430 
#    y -0.048550 2.029340 -0.086670 
#    z -0.054430 -0.086670 1.886880 
# 
# From -- ./inp_files/17803.got.cif
#   From: 2010.05.17/outbox.ucp.g08.bks.cvg/sg2_9_cif.got.tgz:17803.got - 2010.06.11 11:32:03.
