data_PCOD9074629
_publ_section_title
;
Structure prediction by ZEFSAII (Michael W. Deem and Ramdas Pophale) SiO2 
 PCOD9074629
Probable space group: P -1
;
_chemical_formula_sum "Si O2"
_cell_formula_units_Z 16
_cell_length_a 12.337473
_cell_length_b 8.325694
_cell_length_c 11.136072
_cell_angle_alpha 70.552560
_cell_angle_beta 143.739736
_cell_angle_gamma 104.538711
_cell_volume 637.639143
_symmetry_space_group_name_H-M "P -1"
_symmetry_group_IT_number 2
_symmetry_cell_setting 'triclinic'
loop_
_space_group_symop_operation_xyz
x,y,z
-x,-y,-z
loop_
_atom_site_type_symbol
_atom_site_label
_atom_site_fract_x
_atom_site_fract_y
_atom_site_fract_z
Si Si1 0.618977 0.200944 0.690712
Si Si2 0.923418 0.795308 0.536426
Si Si3 0.415029 0.334087 0.812424
Si Si4 0.754604 0.490988 0.583517
Si Si5 0.755028 0.399170 0.218598
Si Si6 0.880111 0.027632 0.138462
Si Si7 0.766237 0.892994 0.724328
Si Si8 0.115001 0.312976 0.891507
O O1 0.685097 0.385377 0.660675
O O2 0.401571 0.173764 0.489238
O O3 0.698742 0.056636 0.702978
O O4 0.712566 0.149271 0.913259
O O5 0.720167 0.817765 0.298302
O O6 0.883107 0.656716 0.644531
O O7 0.052868 0.700688 0.577442
O O8 0.040986 0.935572 0.669919
O O9 0.420635 0.438379 0.665841
O O10 0.308128 0.480764 0.759590
O O11 0.591609 0.282976 0.058716
O O12 0.897338 0.355187 0.681642
O O13 0.779429 0.524764 0.097010
O O14 0.055052 0.056466 0.201030
O O15 0.827426 0.836925 0.110630
O O16 0.829068 0.748365 0.911234
#
# Coordination Sequence:
#
# PCOD9074629 Si02
#       8
#     2   2   2   2   2   2   2   2
#     4  10  18  32  52  75 104 141 178 205 244 299
#     4   9  22  33  53  77 111 130 167 212 263 304
#     4   9  20  36  60  76  99 128 179 214 258 303
#     4   9  17  34  53  77  98 133 178 210 243 305
#     4  10  19  38  60  75  96 135 174 219 253 302
#     4  11  20  36  48  79 113 138 163 211 259 303
#     4  10  19  31  52  76 105 140 175 210 245 294
#     4  10  18  33  58  75 103 136 179 209 246 302
#
# _framework density 25.092562999999998
#
# number of rings (size 3 to 8) (size 9 to 14) (size 15 to 20)
#    0.750    1.500    2.500    1.875    0.000    1.500 
#    0.000    1.250    0.000    1.500    0.000    0.000 
#    0.000    0.000    0.000    0.000    0.000    0.000 
#
# Total GULP energy -89318.014474 kJ/mol
# GULP energy per Si atom -5582.375905 kJ/mol
# Density = 2.503545 g / cm^3
# Si number density = 25.092563 Si / 1000 Ang^3
#
#
#
# Elastic Constant Matrix: (Units=GPa)
#
#
# Indices 1 2 3 4 5 6 
#
# 1 43.7626 1.0884 6.7675 -7.4421 -4.8274 -0.9679
# 2 1.0884 55.7757 12.8734 6.4352 5.5517 9.2642
# 3 6.7675 12.8734 137.9553 15.7240 -3.9089 9.4003
# 4 -7.4421 6.4352 15.7240 39.2966 -5.9878 2.4029
# 5 -4.8274 5.5517 -3.9089 -5.9878 25.5186 3.2975
# 6 -0.9679 9.2642 9.4003 2.4029 3.2975 27.3571
#
#
#
# Elastic Compliance Matrix: (Units=1/GPa)
#
#
# Indices 1 2 3 4 5 6 
#
# 1 0.024978 -0.001591 -0.001695 0.006584 0.006270 0.000671
# 2 -0.001591 0.020048 -0.001152 -0.003539 -0.004953 -0.005541
# 3 -0.001695 -0.001152 0.007961 -0.003073 0.000715 -0.002222
# 4 0.006584 -0.003539 -0.003073 0.029904 0.008715 -0.001190
# 5 0.006270 -0.004953 0.000715 0.008715 0.044179 -0.004437
# 6 0.000671 -0.005541 -0.002222 -0.001190 -0.004437 0.039857
#
#
# Mechanical properties :
#
#
# Convention : Reuss Voigt Hill
#
# Bulk Modulus (GPa) = 22.67054 30.99469 26.83261
# Shear Modulus (GPa) = 26.24558 32.88539 29.56549
#
# Velocity S-wave (km/s) = 3.23762 3.62410 3.43630
# Velocity P-wave (km/s) = 4.79903 5.46727 5.14401
#
# Compressibility (1/GPa) = 0.04411012
#
# Stress axis : x y z
#
# Youngs Moduli (GPa) = 40.03457 49.88096 125.60710
#
# Poissons Ratio (x) = 0.07938 0.21295
# Poissons Ratio (y) = 0.06371 0.14471
# Poissons Ratio (z) = 0.06787 0.05747
#
# Static dielectric constant tensor:
#      x y z
#    x 2.008600 -0.020820 -0.017190 
#    y -0.020820 2.011060 0.000600 
#    z -0.017190 0.000600 1.960340 
# 
# From -- ./inp_files/316961.got.cif
#   From: 2010.05.17/outbox.cif.g08.bks.cpg/sg2_159_cif.got.tgz:316961.got - 2010.06.03 11:33:40.
