data_PCOD9074359
_publ_section_title
;
Structure prediction by ZEFSAII (Michael W. Deem and Ramdas Pophale) SiO2 
 PCOD9074359
Probable space group: P -1
;
_chemical_formula_sum "Si O2"
_cell_formula_units_Z 14
_cell_length_a 27.000000
_cell_length_b 15.000000
_cell_length_c 15.000000
_cell_angle_alpha 160.000000
_cell_angle_beta 160.000000
_cell_angle_gamma 20.000000
_cell_volume 621.679612
_symmetry_space_group_name_H-M "P -1"
_symmetry_group_IT_number 2
_symmetry_cell_setting 'triclinic'
loop_
_space_group_symop_operation_xyz
x,y,z
-x,-y,-z
loop_
_atom_site_type_symbol
_atom_site_label
_atom_site_fract_x
_atom_site_fract_y
_atom_site_fract_z
Si Si1 0.259309 0.596457 0.756656
Si Si2 0.135500 0.913164 0.020940
Si Si3 0.953261 0.490928 0.135524
Si Si4 0.830310 0.508150 0.757031
Si Si5 0.213314 0.964650 0.386128
Si Si6 0.650956 0.177501 0.037369
Si Si7 0.323935 0.301456 0.998454
O O1 0.268055 0.849236 0.948524
O O2 0.093633 0.582980 0.433030
O O3 0.229758 0.665669 0.875316
O O4 0.451818 0.336725 0.833522
O O5 0.247191 0.901912 0.280665
O O6 0.056977 0.220085 0.122715
O O7 0.976740 0.911132 0.791685
O O8 0.787763 0.709137 0.117626
O O9 0.882581 0.399845 0.844879
O O10 0.737131 0.346741 0.397463
O O11 0.000000 0.500000 0.000000
O O12 0.704420 0.860587 0.873115
O O13 0.238703 0.243840 0.715191
O O14 0.308880 0.630617 0.279534
O O15 0.500000 0.000000 0.000000
#
# Coordination Sequence:
#
# PCOD9074359 Si02
#       7
#     2   2   2   2   2   2   2
#     4  11  24  44  68  98 135 174 224 280 326 397
#     4  10  23  40  68  96 127 172 221 270 327 389
#     4  11  25  41  73  94 136 177 226 270 336 393
#     4  12  25  46  68  99 135 178 221 275 332 400
#     4  10  23  41  67  94 130 171 219 266 328 390
#     4  11  28  43  69 100 135 175 223 275 336 389
#     4  11  24  43  65  98 135 174 215 273 329 393
#
# _framework density 22.519638
#
# number of rings (size 3 to 8) (size 9 to 14) (size 15 to 20)
#    0.000    1.143    2.857    1.714    6.000    5.143 
#    0.000    0.000    0.000    0.000    0.000    0.000 
#    0.000    0.000    0.000    0.000    0.000    0.000 
#
# Total GULP energy -77993.098099 kJ/mol
# GULP energy per Si atom -5570.935578 kJ/mol
# Density = 2.246838 g / cm^3
# Si number density = 22.519638 Si / 1000 Ang^3
#
#
#
# Elastic Constant Matrix: (Units=GPa)
#
#
# Indices 1 2 3 4 5 6 
#
# 1 73.9149 18.2063 8.2302 -15.8773 -17.0871 10.1785
# 2 18.2063 83.8774 0.7873 -4.5962 20.8891 -20.4708
# 3 8.2302 0.7873 62.9116 2.0323 -9.0290 4.6365
# 4 -15.8773 -4.5962 2.0323 29.7027 -2.2696 9.3914
# 5 -17.0871 20.8891 -9.0290 -2.2696 27.6307 6.2737
# 6 10.1785 -20.4708 4.6365 9.3914 6.2737 9.9379
#
#
#
# Elastic Compliance Matrix: (Units=1/GPa)
#
#
# Indices 1 2 3 4 5 6 
#
# 1 0.004342 0.008292 -0.004151 -0.005575 -0.011559 0.027136
# 2 0.008292 0.001870 0.001932 0.013455 0.011202 -0.025330
# 3 -0.004151 0.001932 0.016105 -0.004793 -0.000408 0.005503
# 4 -0.005575 0.013455 -0.004793 0.023646 -0.018988 0.025302
# 5 -0.011559 0.011202 -0.000408 -0.018988 0.007980 0.048011
# 6 0.027136 -0.025330 0.005503 0.025302 0.048011 -0.036131
#
#
# Mechanical properties :
#
#
# Convention : Reuss Voigt Hill
#
# Bulk Modulus (GPa) = 29.01611 30.57238 29.79425
# Shear Modulus (GPa) = 291.49916 26.35294 158.92605
#
# Velocity S-wave (km/s) = 11.38961 3.42456 8.40984
# Velocity P-wave (km/s) = 13.63367 5.40760 10.37109
#
# Compressibility (1/GPa) = 0.03446361
#
# Stress axis : x y z
#
# Youngs Moduli (GPa) = 230.29152 534.89762 62.09294
#
# Poissons Ratio (x) = -4.43555 0.25772
# Poissons Ratio (y) = -1.90965 -0.11994
# Poissons Ratio (z) = 0.95584 -1.03326
#
# Static dielectric constant tensor:
#      x y z
#    x 1.868080 0.005080 -0.043230 
#    y 0.005080 1.899510 -0.055570 
#    z -0.043230 -0.055570 1.946870 
# 
# From -- ./inp_files/39921.got.cif
#   From: 2010.05.17/outbox.ucp.g08.bks.cvg/sg2_20_cif.got.tgz:39921.got - 2010.06.11 11:32:03.
