data_PCOD9074809
_publ_section_title
;
Structure prediction by ZEFSAII (Michael W. Deem and Ramdas Pophale) SiO2 
 PCOD9074809
Probable space group: P -1
;
_chemical_formula_sum "Si O2"
_cell_formula_units_Z 16
_cell_length_a 7.267507
_cell_length_b 10.480467
_cell_length_c 21.034473
_cell_angle_alpha 39.939203
_cell_angle_beta 87.050261
_cell_angle_gamma 58.616583
_cell_volume 678.560951
_symmetry_space_group_name_H-M "P -1"
_symmetry_group_IT_number 2
_symmetry_cell_setting 'triclinic'
loop_
_space_group_symop_operation_xyz
x,y,z
-x,-y,-z
loop_
_atom_site_type_symbol
_atom_site_label
_atom_site_fract_x
_atom_site_fract_y
_atom_site_fract_z
Si Si1 0.254325 0.460104 0.970048
Si Si2 0.332557 0.826794 0.504265
Si Si3 0.778519 0.292372 0.995517
Si Si4 0.369733 0.652273 0.217916
Si Si5 0.515097 0.846771 0.238165
Si Si6 0.647177 0.185796 0.279883
Si Si7 0.063062 0.252289 0.455963
Si Si8 0.826970 0.998930 0.698806
O O1 0.159283 0.683107 0.943621
O O2 0.333198 0.188438 0.102453
O O3 0.540842 0.318458 0.993173
O O4 0.027049 0.650479 0.845810
O O5 0.591507 0.540925 0.651885
O O6 0.120159 0.806823 0.515598
O O7 0.206718 0.110285 0.439527
O O8 0.340249 0.872799 0.412738
O O9 0.615343 0.601828 0.843725
O O10 0.055711 0.968911 0.086873
O O11 0.497797 0.745845 0.210461
O O12 0.547789 0.429016 0.241225
O O13 0.844000 0.605136 0.335153
O O14 0.388666 0.819564 0.308545
O O15 0.932984 0.024418 0.301772
O O16 0.723721 0.936572 0.417302
#
# Coordination Sequence:
#
# PCOD9074809 Si02
#       8
#     2   2   2   2   2   2   2   2
#     4  10  22  37  52  78 113 140 176 222 265 311
#     4   8  16  31  52  80 110 132 174 219 266 310
#     4  10  20  38  57  74 105 152 178 211 259 326
#     4  10  19  34  61  84 102 138 178 226 262 310
#     4  11  20  33  57  82 109 135 176 227 271 303
#     4   9  19  35  57  80 110 138 182 213 260 319
#     4   8  16  32  52  79 107 138 170 224 262 305
#     4  10  18  32  52  80 110 136 171 221 265 308
#
# _framework density 23.579312999999999
#
# number of rings (size 3 to 8) (size 9 to 14) (size 15 to 20)
#    0.000    2.500    1.250    3.000    0.000    4.500 
#    0.000    6.250    5.500    1.500    0.000    0.000 
#    0.000    0.000    0.000    0.000    0.000    0.000 
#
# Total GULP energy -89256.440132 kJ/mol
# GULP energy per Si atom -5578.527508 kJ/mol
# Density = 2.352565 g / cm^3
# Si number density = 23.579313 Si / 1000 Ang^3
#
#
#
# Elastic Constant Matrix: (Units=GPa)
#
#
# Indices 1 2 3 4 5 6 
#
# 1 50.9763 2.9041 4.1526 4.2244 12.2303 -4.2377
# 2 2.9041 41.1183 14.1679 6.8349 -4.0354 1.4416
# 3 4.1526 14.1679 107.5695 12.0579 20.5801 0.1592
# 4 4.2244 6.8349 12.0579 42.9420 -0.4248 8.7098
# 5 12.2303 -4.0354 20.5801 -0.4248 20.9744 -2.5398
# 6 -4.2377 1.4416 0.1592 8.7098 -2.5398 9.4614
#
#
#
# Elastic Compliance Matrix: (Units=1/GPa)
#
#
# Indices 1 2 3 4 5 6 
#
# 1 0.025281 -0.004271 0.003566 -0.005455 -0.017697 0.012185
# 2 -0.004271 0.028396 -0.005947 -0.002206 0.013692 -0.000433
# 3 0.003566 -0.005947 0.013475 -0.003591 -0.016374 0.001186
# 4 -0.005455 -0.002206 -0.003591 0.031295 0.003283 -0.029975
# 5 -0.017697 0.013692 -0.016374 0.003283 0.077746 0.008111
# 6 0.012185 -0.000433 0.001186 -0.029975 0.008111 0.140966
#
#
# Mechanical properties :
#
#
# Convention : Reuss Voigt Hill
#
# Bulk Modulus (GPa) = 18.57086 26.90149 22.73618
# Shear Modulus (GPa) = 14.35075 26.57154 20.46114
#
# Velocity S-wave (km/s) = 2.46969 3.36058 2.94897
# Velocity P-wave (km/s) = 4.00319 5.14701 4.61070
#
# Compressibility (1/GPa) = 0.05384781
#
# Stress axis : x y z
#
# Youngs Moduli (GPa) = 39.55599 35.21569 74.20935
#
# Poissons Ratio (x) = 0.15042 -0.26462
# Poissons Ratio (y) = 0.16896 0.44130
# Poissons Ratio (z) = -0.14105 0.20942
#
# Static dielectric constant tensor:
#      x y z
#    x 1.970700 -0.036370 0.008840 
#    y -0.036370 1.857830 0.005760 
#    z 0.008840 0.005760 2.000030 
# 
# From -- ./inp_files/239081.got.cif
#   From: 2010.05.17/outbox.cif.g08.bks.cpg/sg2_120_cif.got.tgz:239081.got - 2010.06.03 11:33:40.
