data_PCOD9074277
_publ_section_title
;
Structure prediction by ZEFSAII (Michael W. Deem and Ramdas Pophale) SiO2 
 PCOD9074277
Probable space group: P -1
;
_chemical_formula_sum "Si O2"
_cell_formula_units_Z 14
_cell_length_a 6.000000
_cell_length_b 24.000000
_cell_length_c 15.000000
_cell_angle_alpha 20.000000
_cell_angle_beta 90.000000
_cell_angle_gamma 100.000000
_cell_volume 636.464036
_symmetry_space_group_name_H-M "P -1"
_symmetry_group_IT_number 2
_symmetry_cell_setting 'triclinic'
loop_
_space_group_symop_operation_xyz
x,y,z
-x,-y,-z
loop_
_atom_site_type_symbol
_atom_site_label
_atom_site_fract_x
_atom_site_fract_y
_atom_site_fract_z
Si Si1 0.952063 0.351768 0.581048
Si Si2 0.294275 0.835169 0.314585
Si Si3 0.326351 0.175664 0.897633
Si Si4 0.767787 0.220969 0.078407
Si Si5 0.517510 0.308755 0.302631
Si Si6 0.003392 0.993994 0.686098
Si Si7 0.263906 0.817125 0.661377
O O1 0.902758 0.316297 0.527964
O O2 0.645717 0.271349 0.738502
O O3 0.144761 0.265638 0.731648
O O4 0.115983 0.572964 0.274548
O O5 0.396875 0.735896 0.533880
O O6 0.500000 0.000000 0.000000
O O7 0.207173 0.962716 0.177594
O O8 0.247899 0.138241 0.056616
O O9 0.959965 0.142378 0.175577
O O10 0.735632 0.250417 0.138002
O O11 0.502483 0.033943 0.331739
O O12 0.708712 0.305298 0.232071
O O13 0.247473 0.116489 0.567326
O O14 0.500000 0.500000 0.000000
O O15 0.979929 0.157047 0.391220
#
# Coordination Sequence:
#
# PCOD9074277 Si02
#       7
#     2   2   2   2   2   2   2
#     4  11  26  43  73 106 143 183 248 293 348 437
#     4  10  22  45  69  99 145 187 232 294 368 425
#     4  11  24  45  72 105 140 192 233 296 367 423
#     4  10  25  43  67 100 135 187 241 292 354 425
#     4  11  25  43  71 110 139 187 244 300 358 435
#     4  11  23  43  72  91 146 180 237 290 369 418
#     4  10  23  46  67  95 140 188 232 294 367 422
#
# _framework density 21.99653
#
# number of rings (size 3 to 8) (size 9 to 14) (size 15 to 20)
#    0.000    1.429    1.429    2.571    6.000    6.286 
#    0.000    0.000    0.000    0.000    0.000    0.000 
#    0.000    0.000    0.000    0.000    0.000    0.000 
#
# Total GULP energy -77940.822664 kJ/mol
# GULP energy per Si atom -5567.201619 kJ/mol
# Density = 2.194646 g / cm^3
# Si number density = 21.996530 Si / 1000 Ang^3
#
#
#
# Elastic Constant Matrix: (Units=GPa)
#
#
# Indices 1 2 3 4 5 6 
#
# 1 110.9414 28.0950 42.1090 10.1445 25.1932 -9.9759
# 2 28.0950 79.4099 30.9392 13.3014 12.5657 -6.4796
# 3 42.1090 30.9392 112.2698 -9.9601 23.5251 -0.0750
# 4 10.1445 13.3014 -9.9601 34.7581 0.2489 9.0958
# 5 25.1932 12.5657 23.5251 0.2489 49.9167 -1.3574
# 6 -9.9759 -6.4796 -0.0750 9.0958 -1.3574 37.1868
#
#
#
# Elastic Compliance Matrix: (Units=1/GPa)
#
#
# Indices 1 2 3 4 5 6 
#
# 1 0.012661 -0.000904 -0.004150 -0.005680 -0.004056 0.004472
# 2 -0.000904 0.016865 -0.004804 -0.008811 -0.001351 0.004792
# 3 -0.004150 -0.004804 0.013117 0.007866 -0.003025 -0.003958
# 4 -0.005680 -0.008811 0.007866 0.039355 0.000838 -0.012639
# 5 -0.004056 -0.001351 -0.003025 0.000838 0.023824 -0.000665
# 6 0.004472 0.004792 -0.003958 -0.012639 -0.000665 0.031985
#
#
# Mechanical properties :
#
#
# Convention : Reuss Voigt Hill
#
# Bulk Modulus (GPa) = 43.61975 56.10083 49.86029
# Shear Modulus (GPa) = 30.27269 37.80417 34.03843
#
# Velocity S-wave (km/s) = 3.71381 4.15015 3.93803
# Velocity P-wave (km/s) = 6.18572 6.96597 6.58741
#
# Compressibility (1/GPa) = 0.02292539
#
# Stress axis : x y z
#
# Youngs Moduli (GPa) = 78.98512 59.29377 76.23919
#
# Poissons Ratio (x) = 0.05361 0.31642
# Poissons Ratio (y) = 0.07142 0.36625
# Poissons Ratio (z) = 0.32782 0.28485
#
# Static dielectric constant tensor:
#      x y z
#    x 1.950400 0.001250 -0.011230 
#    y 0.001250 1.846950 0.026260 
#    z -0.011230 0.026260 1.819950 
# 
# From -- ./inp_files/485927.got.cif
#   From: 2010.05.17/outbox.ucp.g08.bks.cvg/sg2_243_cif.got.tgz:485927.got - 2010.06.11 11:32:03.
