data_PCOD9074628
_publ_section_title
;
Structure prediction by ZEFSAII (Michael W. Deem and Ramdas Pophale) SiO2 
 PCOD9074628
Probable space group: P -1
;
_chemical_formula_sum "Si O2"
_cell_formula_units_Z 14
_cell_length_a 18.000000
_cell_length_b 6.000000
_cell_length_c 12.000000
_cell_angle_alpha 120.000000
_cell_angle_beta 50.000000
_cell_angle_gamma 140.000000
_cell_volume 638.079485
_symmetry_space_group_name_H-M "P -1"
_symmetry_group_IT_number 2
_symmetry_cell_setting 'triclinic'
loop_
_space_group_symop_operation_xyz
x,y,z
-x,-y,-z
loop_
_atom_site_type_symbol
_atom_site_label
_atom_site_fract_x
_atom_site_fract_y
_atom_site_fract_z
Si Si1 0.151002 0.668164 0.673252
Si Si2 0.466568 0.580879 0.380148
Si Si3 0.910658 0.314608 0.653008
Si Si4 0.718620 0.515364 0.646957
Si Si5 0.687868 0.597572 0.176405
Si Si6 0.707164 0.383248 0.315582
Si Si7 0.336497 0.705236 0.102749
O O1 0.243638 0.692754 0.496926
O O2 0.161330 0.463425 0.709106
O O3 0.015720 0.504054 0.701833
O O4 0.212088 0.020585 0.768556
O O5 0.394916 0.537110 0.324795
O O6 0.536924 0.432005 0.286884
O O7 0.355281 0.455056 0.545382
O O8 0.594036 0.989180 0.367467
O O9 0.779560 0.270158 0.780270
O O10 0.000000 0.500000 0.500000
O O11 0.846994 0.918735 0.612856
O O12 0.678859 0.421378 0.789116
O O13 0.707518 0.385198 0.183272
O O14 0.709788 0.566716 0.019534
O O15 0.500000 0.000000 0.000000
#
# Coordination Sequence:
#
# PCOD9074628 Si02
#       7
#     2   2   2   2   2   2   2
#     4  10  24  42  72 104 129 187 240 293 343 414
#     4   9  19  35  62 100 130 185 226 285 343 406
#     4  12  27  47  76 102 136 192 246 286 351 421
#     4  11  24  45  74 101 143 181 247 295 340 417
#     4  11  23  40  66 102 148 179 226 287 356 422
#     4   9  19  36  62  97 142 175 228 281 348 410
#     4  12  28  46  72 110 147 187 229 289 363 423
#
# _framework density 21.940840000000001
#
# number of rings (size 3 to 8) (size 9 to 14) (size 15 to 20)
#    0.000    1.429    1.429    3.429    4.000    6.286 
#    0.000    1.429    0.000    0.000    0.000    0.000 
#    0.000    0.000    0.000    0.000    0.000    0.000 
#
# Total GULP energy -77998.471074 kJ/mol
# GULP energy per Si atom -5571.319362 kJ/mol
# Density = 2.189090 g / cm^3
# Si number density = 21.940840 Si / 1000 Ang^3
#
#
#
# Elastic Constant Matrix: (Units=GPa)
#
#
# Indices 1 2 3 4 5 6 
#
# 1 181.0450 26.4141 48.0650 -3.4080 6.7065 33.6303
# 2 26.4141 98.2971 47.0672 8.8031 6.8723 19.2118
# 3 48.0650 47.0672 110.6043 2.8391 20.5940 6.7984
# 4 -3.4080 8.8031 2.8391 29.1935 7.5213 6.0046
# 5 6.7065 6.8723 20.5940 7.5213 51.0874 -2.7517
# 6 33.6303 19.2118 6.7984 6.0046 -2.7517 35.4024
#
#
#
# Elastic Compliance Matrix: (Units=1/GPa)
#
#
# Indices 1 2 3 4 5 6 
#
# 1 0.007757 0.000727 -0.003156 0.002742 -0.000661 -0.007673
# 2 0.000727 0.014401 -0.006027 -0.002343 0.000369 -0.006922
# 3 -0.003156 -0.006027 0.013533 0.000527 -0.004132 0.003259
# 4 0.002742 -0.002343 0.000527 0.038623 -0.006400 -0.008483
# 5 -0.000661 0.000369 -0.004132 -0.006400 0.022438 0.004051
# 6 -0.007673 -0.006922 0.003259 -0.008483 0.004051 0.040420
#
#
# Mechanical properties :
#
#
# Convention : Reuss Voigt Hill
#
# Bulk Modulus (GPa) = 53.25228 70.33766 61.79497
# Shear Modulus (GPa) = 31.18306 41.02998 36.10652
#
# Velocity S-wave (km/s) = 3.77402 4.32907 4.06104
# Velocity P-wave (km/s) = 6.58137 7.55747 7.08625
#
# Compressibility (1/GPa) = 0.01877854
#
# Stress axis : x y z
#
# Youngs Moduli (GPa) = 128.92025 69.44057 73.89253
#
# Poissons Ratio (x) = -0.05050 0.23320
# Poissons Ratio (y) = -0.09375 0.44537
# Poissons Ratio (z) = 0.40687 0.41854
#
# Static dielectric constant tensor:
#      x y z
#    x 1.871760 -0.054840 -0.019350 
#    y -0.054840 1.891650 0.049580 
#    z -0.019350 0.049580 1.827740 
# 
# From -- ./inp_files/459617.got.cif
#   From: 2010.05.17/outbox.ucp.g08.bks.cvg/sg2_230_cif.got.tgz:459617.got - 2010.06.11 11:32:03.
