data_PCOD9074186
_publ_section_title
;
Structure prediction by ZEFSAII (Michael W. Deem and Ramdas Pophale) SiO2 
 PCOD9074186
Probable space group: P -1
;
_chemical_formula_sum "Si O2"
_cell_formula_units_Z 16
_cell_length_a 21.187185
_cell_length_b 11.738668
_cell_length_c 5.190583
_cell_angle_alpha 73.413482
_cell_angle_beta 94.756194
_cell_angle_gamma 138.242161
_cell_volume 806.695277
_symmetry_space_group_name_H-M "P -1"
_symmetry_group_IT_number 2
_symmetry_cell_setting 'triclinic'
loop_
_space_group_symop_operation_xyz
x,y,z
-x,-y,-z
loop_
_atom_site_type_symbol
_atom_site_label
_atom_site_fract_x
_atom_site_fract_y
_atom_site_fract_z
Si Si1 0.650897 0.344197 0.202583
Si Si2 0.118601 0.398835 0.278208
Si Si3 0.527942 0.170454 0.795621
Si Si4 0.315010 0.884305 0.782011
Si Si5 0.201473 0.725307 0.350008
Si Si6 0.033000 0.863116 0.220428
Si Si7 0.966212 0.543670 0.175399
Si Si8 0.150997 0.256447 0.012822
O O1 0.586313 0.240622 0.503571
O O2 0.680752 0.254655 0.165843
O O3 0.744209 0.555759 0.167528
O O4 0.590541 0.312227 0.960762
O O5 0.187510 0.563050 0.397859
O O6 0.009684 0.231914 0.454987
O O7 0.110460 0.479435 0.986901
O O8 0.150651 0.314625 0.259920
O O9 0.423757 0.079236 0.756908
O O10 0.500000 0.000000 0.000000
O O11 0.274618 0.866617 0.505065
O O12 0.245338 0.827617 0.027235
O O13 0.094574 0.598184 0.514381
O O14 0.043612 0.752626 0.153434
O O15 0.940084 0.804356 0.111694
O O16 0.122407 0.078579 0.112426
O O17 0.000000 0.500000 0.000000
#
# Coordination Sequence:
#
# PCOD9074186 Si02
#       8
#     2   2   2   2   2   2   2   2
#     4  11  19  30  46  70  99 143 171 213 257 295
#     4  10  18  32  49  76 100 141 174 209 259 301
#     4  10  21  30  44  69 100 138 176 209 261 298
#     4  11  18  32  47  68 103 131 181 210 242 321
#     4  11  19  31  51  73  95 140 168 206 260 297
#     4   9  20  32  50  75 100 148 175 215 255 292
#     4  10  21  36  52  77 109 135 174 219 266 310
#     4  10  19  32  49  72 110 136 187 208 242 320
#
# _framework density 19.834007
#
# number of rings (size 3 to 8) (size 9 to 14) (size 15 to 20)
#    0.000    1.750    2.500    5.625    1.750    2.000 
#    0.000    0.000    0.000    0.000    0.000    0.000 
#    0.000    6.000    0.000    0.000    0.000    0.000 
#
# Total GULP energy -89131.499049 kJ/mol
# GULP energy per Si atom -5570.718691 kJ/mol
# Density = 1.978886 g / cm^3
# Si number density = 19.834007 Si / 1000 Ang^3
#
#
#
# Elastic Constant Matrix: (Units=GPa)
#
#
# Indices 1 2 3 4 5 6 
#
# 1 40.5602 36.7150 24.6730 -0.1896 -14.8261 -6.6439
# 2 36.7150 107.6821 46.8180 -4.2737 -8.3081 4.1668
# 3 24.6730 46.8180 126.2021 12.3016 -29.7798 -6.9797
# 4 -0.1896 -4.2737 12.3016 30.3571 4.0357 -1.7313
# 5 -14.8261 -8.3081 -29.7798 4.0357 30.1299 2.6100
# 6 -6.6439 4.1668 -6.9797 -1.7313 2.6100 30.3501
#
#
#
# Elastic Compliance Matrix: (Units=1/GPa)
#
#
# Indices 1 2 3 4 5 6 
#
# 1 0.047410 -0.016502 0.003114 -0.005526 0.021628 0.011185
# 2 -0.016502 0.017471 -0.006557 0.005988 -0.010038 -0.006314
# 3 0.003114 -0.006557 0.014186 -0.008416 0.014603 0.003108
# 4 -0.005526 0.005988 -0.008416 0.039071 -0.014578 -0.000485
# 5 0.021628 -0.010038 0.014603 -0.014578 0.057127 0.003727
# 6 0.011185 -0.006314 0.003108 -0.000485 0.003727 0.036631
#
#
# Mechanical properties :
#
#
# Convention : Reuss Voigt Hill
#
# Bulk Modulus (GPa) = 25.52531 54.53960 40.03246
# Shear Modulus (GPa) = 18.87894 29.24999 24.06446
#
# Velocity S-wave (km/s) = 3.08855 3.84440 3.48701
# Velocity P-wave (km/s) = 5.06125 6.87485 6.03655
#
# Compressibility (1/GPa) = 0.03917680
#
# Stress axis : x y z
#
# Youngs Moduli (GPa) = 21.09248 57.23643 70.49376
#
# Poissons Ratio (x) = 0.94452 -0.21950
# Poissons Ratio (y) = 0.34807 0.46222
# Poissons Ratio (z) = -0.06568 0.37529
#
# Static dielectric constant tensor:
#      x y z
#    x 1.764240 0.072070 0.022150 
#    y 0.072070 1.746070 0.036600 
#    z 0.022150 0.036600 1.800870 
# 
# From -- ./inp_files/123268.got.cif
#   From: 2010.05.17/outbox.cif.g08.bks.cpg/sg2_62_cif.got.tgz:123268.got - 2010.06.03 11:33:40.
