data_PCOD9074787
_publ_section_title
;
Structure prediction by ZEFSAII (Michael W. Deem and Ramdas Pophale) SiO2 
 PCOD9074787
Probable space group: P -1
;
_chemical_formula_sum "Si O2"
_cell_formula_units_Z 16
_cell_length_a 6.000000
_cell_length_b 15.000000
_cell_length_c 9.000000
_cell_angle_alpha 100.000000
_cell_angle_beta 70.000000
_cell_angle_gamma 80.000000
_cell_volume 725.431091
_symmetry_space_group_name_H-M "P -1"
_symmetry_group_IT_number 2
_symmetry_cell_setting 'triclinic'
loop_
_space_group_symop_operation_xyz
x,y,z
-x,-y,-z
loop_
_atom_site_type_symbol
_atom_site_label
_atom_site_fract_x
_atom_site_fract_y
_atom_site_fract_z
Si Si1 0.829591 0.504014 0.332063
Si Si2 0.380394 0.547480 0.192824
Si Si3 0.426639 0.646628 0.632885
Si Si4 0.630056 0.254256 0.636478
Si Si5 0.018047 0.081735 0.409536
Si Si6 0.380331 0.950080 0.766043
Si Si7 0.266586 0.175290 0.877450
Si Si8 0.330482 0.793699 0.956749
O O1 0.618827 0.522929 0.249846
O O2 0.679794 0.567919 0.518132
O O3 0.809004 0.398493 0.337918
O O4 0.105470 0.522112 0.259371
O O5 0.334838 0.659753 0.244878
O O6 0.500000 0.500000 0.000000
O O7 0.407528 0.712883 0.515227
O O8 0.425088 0.704300 0.800306
O O9 0.881693 0.175275 0.554100
O O10 0.396192 0.215253 0.722636
O O11 0.820140 0.070480 0.318463
O O12 0.312223 0.078423 0.322005
O O13 0.000000 0.000000 0.500000
O O14 0.318843 0.890433 0.900258
O O15 0.322589 0.062299 0.830685
O O16 0.447788 0.205092 0.973357
O O17 0.963074 0.207092 0.950594
#
# Coordination Sequence:
#
# PCOD9074787 Si02
#       8
#     2   2   2   2   2   2   2   2
#     4  10  25  47  74 104 143 188 238 293 356 429
#     4  11  26  46  74 108 149 184 232 297 369 428
#     4  10  25  48  77 105 142 191 244 296 351 431
#     4  11  27  47  75 109 143 189 246 295 359 427
#     4  12  25  44  74 106 142 191 242 299 349 420
#     4  12  25  48  72 101 145 193 244 291 359 421
#     4  12  28  46  70 107 147 188 234 303 359 425
#     4  12  27  45  74 103 145 191 240 291 361 428
#
# _framework density 22.055851000000001
#
# number of rings (size 3 to 8) (size 9 to 14) (size 15 to 20)
#    0.000    0.750    2.500    3.000    5.250    7.500 
#    0.000    0.000    0.000    0.000    0.000    0.000 
#    0.000    0.000    0.000    0.000    0.000    0.000 
#
# Total GULP energy -89075.545077 kJ/mol
# GULP energy per Si atom -5567.221567 kJ/mol
# Density = 2.200565 g / cm^3
# Si number density = 22.055851 Si / 1000 Ang^3
#
#
#
# Elastic Constant Matrix: (Units=GPa)
#
#
# Indices 1 2 3 4 5 6 
#
# 1 213.7239 30.2268 72.2717 -0.7160 -22.0280 22.2863
# 2 30.2268 87.5467 44.4752 5.8571 3.0597 18.6710
# 3 72.2717 44.4752 99.4731 27.9344 -14.2035 6.6173
# 4 -0.7160 5.8571 27.9344 47.3020 8.6964 1.0455
# 5 -22.0280 3.0597 -14.2035 8.6964 56.0874 -8.4362
# 6 22.2863 18.6710 6.6173 1.0455 -8.4362 48.7707
#
#
#
# Elastic Compliance Matrix: (Units=1/GPa)
#
#
# Indices 1 2 3 4 5 6 
#
# 1 0.007042 0.001276 -0.006594 0.003910 -0.000016 -0.002898
# 2 0.001276 0.017595 -0.010468 0.005080 -0.004929 -0.006860
# 3 -0.006594 -0.010468 0.024297 -0.014591 0.007191 0.005281
# 4 0.003910 0.005080 -0.014591 0.030698 -0.007761 -0.003752
# 5 -0.000016 -0.004929 0.007191 -0.007761 0.021848 0.004864
# 6 -0.002898 -0.006860 0.005281 -0.003752 0.004864 0.024660
#
#
# Mechanical properties :
#
#
# Convention : Reuss Voigt Hill
#
# Bulk Modulus (GPa) = 57.59815 77.18790 67.39303
# Shear Modulus (GPa) = 30.58085 47.35000 38.96542
#
# Velocity S-wave (km/s) = 3.72764 4.63841 4.20774
# Velocity P-wave (km/s) = 6.68569 7.98492 7.36401
#
# Compressibility (1/GPa) = 0.01736167
#
# Stress axis : x y z
#
# Youngs Moduli (GPa) = 142.00439 56.83274 41.15672
#
# Poissons Ratio (x) = -0.07250 0.27139
# Poissons Ratio (y) = -0.18115 0.43083
# Poissons Ratio (z) = 0.93640 0.59493
#
# Static dielectric constant tensor:
#      x y z
#    x 1.822450 -0.033440 0.048770 
#    y -0.033440 1.792380 -0.077530 
#    z 0.048770 -0.077530 1.872710 
# 
# From -- ./inp_files/135463.got.cif
#   From: 2010.05.17/outbox.ucp.g08.bks.cvg/sg2_68_cif.got.tgz:135463.got - 2010.06.11 11:32:03.
