data_PCOD9074922
_publ_section_title
;
Structure prediction by ZEFSAII (Michael W. Deem and Ramdas Pophale) SiO2 
 PCOD9074922
Probable space group: P -1
;
_chemical_formula_sum "Si O2"
_cell_formula_units_Z 14
_cell_length_a 27.000000
_cell_length_b 15.000000
_cell_length_c 15.000000
_cell_angle_alpha 20.000000
_cell_angle_beta 160.000000
_cell_angle_gamma 160.000000
_cell_volume 621.679612
_symmetry_space_group_name_H-M "P -1"
_symmetry_group_IT_number 2
_symmetry_cell_setting 'triclinic'
loop_
_space_group_symop_operation_xyz
x,y,z
-x,-y,-z
loop_
_atom_site_type_symbol
_atom_site_label
_atom_site_fract_x
_atom_site_fract_y
_atom_site_fract_z
Si Si1 0.412414 0.403016 0.705044
Si Si2 0.828385 0.455289 0.104138
Si Si3 0.577758 0.149585 0.829999
Si Si4 0.795407 0.000685 0.614532
Si Si5 0.605964 0.359823 0.356594
Si Si6 0.863817 0.476267 0.539831
Si Si7 0.783821 0.875456 0.903656
O O1 0.353664 0.533588 0.401893
O O2 0.369083 0.513764 0.619378
O O3 0.611576 0.584346 0.866916
O O4 0.376277 0.066966 0.946184
O O5 0.964317 0.521784 0.193436
O O6 0.874131 0.301166 0.407429
O O7 0.662318 0.194560 0.025815
O O8 0.787608 0.717904 0.815254
O O9 0.384228 0.037505 0.625282
O O10 0.873645 0.001151 0.843340
O O11 0.783561 0.480187 0.494948
O O12 0.500000 0.000000 0.500000
O O13 0.500000 0.500000 0.000000
O O14 0.744845 0.132978 0.630129
O O15 0.866448 0.746913 0.233209
#
# Coordination Sequence:
#
# PCOD9074922 Si02
#       7
#     2   2   2   2   2   2   2
#     4  11  21  39  66  93 119 155 209 263 297 349
#     4  12  25  41  60  90 128 171 201 252 302 361
#     4  11  23  41  64  90 122 163 214 250 293 360
#     4  11  23  40  65  87 123 167 215 249 296 358
#     4  12  22  40  67  95 120 157 202 251 313 372
#     4  12  24  40  61  93 131 156 201 251 317 373
#     4  11  22  39  62  93 125 157 204 258 305 359
#
# _framework density 22.519638
#
# number of rings (size 3 to 8) (size 9 to 14) (size 15 to 20)
#    0.000    0.571    2.857    7.714    0.000    3.429 
#    0.000    1.429    0.000    0.000    0.000    0.000 
#    0.000    0.000    0.000    0.000    0.000    0.000 
#
# Total GULP energy -78157.289416 kJ/mol
# GULP energy per Si atom -5582.663530 kJ/mol
# Density = 2.246838 g / cm^3
# Si number density = 22.519638 Si / 1000 Ang^3
#
#
#
# Elastic Constant Matrix: (Units=GPa)
#
#
# Indices 1 2 3 4 5 6 
#
# 1 146.1722 24.6833 53.8094 -2.1760 27.6109 4.2608
# 2 24.6833 43.3260 32.8232 -13.8613 6.5306 -7.5769
# 3 53.8094 32.8232 115.8230 -41.4059 13.1795 -1.1990
# 4 -2.1760 -13.8613 -41.4059 42.5371 -6.0420 4.7492
# 5 27.6109 6.5306 13.1795 -6.0420 40.7812 -5.6938
# 6 4.2608 -7.5769 -1.1990 4.7492 -5.6938 32.0416
#
#
#
# Elastic Compliance Matrix: (Units=1/GPa)
#
#
# Indices 1 2 3 4 5 6 
#
# 1 0.010660 -0.003409 -0.005712 -0.006720 -0.006176 -0.002539
# 2 -0.003409 0.032069 -0.006285 0.003436 0.000749 0.007425
# 3 -0.005712 -0.006285 0.018777 0.016320 0.000905 -0.002282
# 4 -0.006720 0.003436 0.016320 0.041131 0.004400 -0.002998
# 5 -0.006176 0.000749 0.000905 0.004400 0.029732 0.005663
# 6 -0.002539 0.007425 -0.002282 -0.002998 0.005663 0.034668
#
#
# Mechanical properties :
#
#
# Convention : Reuss Voigt Hill
#
# Bulk Modulus (GPa) = 32.57930 58.66144 45.62037
# Shear Modulus (GPa) = 24.02932 36.00566 30.01749
#
# Velocity S-wave (km/s) = 3.27010 4.00291 3.65492
# Velocity P-wave (km/s) = 5.36251 6.88984 6.17359
#
# Compressibility (1/GPa) = 0.03069434
#
# Stress axis : x y z
#
# Youngs Moduli (GPa) = 93.80721 31.18312 53.25803
#
# Poissons Ratio (x) = 0.10629 0.30423
# Poissons Ratio (y) = 0.31975 0.33471
# Poissons Ratio (z) = 0.53586 0.19597
#
# Static dielectric constant tensor:
#      x y z
#    x 1.881410 0.003340 -0.040880 
#    y 0.003340 1.943660 0.026970 
#    z -0.040880 0.026970 1.831800 
# 
# From -- ./inp_files/72260.got.cif
#   From: 2010.05.17/outbox.ucp.g08.bks.cvg/sg2_37_cif.got.tgz:72260.got - 2010.06.11 11:32:03.
