data_PCOD9074247
_publ_section_title
;
Structure prediction by ZEFSAII (Michael W. Deem and Ramdas Pophale) SiO2 
 PCOD9074247
Probable space group: P -1
;
_chemical_formula_sum "Si O2"
_cell_formula_units_Z 16
_cell_length_a 8.992875
_cell_length_b 19.935519
_cell_length_c 10.309986
_cell_angle_alpha 103.605073
_cell_angle_beta 29.856688
_cell_angle_gamma 101.154196
_cell_volume 894.135568
_symmetry_space_group_name_H-M "P -1"
_symmetry_group_IT_number 2
_symmetry_cell_setting 'triclinic'
loop_
_space_group_symop_operation_xyz
x,y,z
-x,-y,-z
loop_
_atom_site_type_symbol
_atom_site_label
_atom_site_fract_x
_atom_site_fract_y
_atom_site_fract_z
Si Si1 0.824432 0.033336 0.768454
Si Si2 0.593678 0.326937 0.952824
Si Si3 0.107707 0.677833 0.552576
Si Si4 0.836191 0.023614 0.264160
Si Si5 0.888361 0.466701 0.779561
Si Si6 0.294462 0.824596 0.199756
Si Si7 0.991615 0.829835 0.711177
Si Si8 0.376474 0.538216 0.317934
O O1 0.797176 0.115069 0.801702
O O2 0.000000 0.000000 0.500000
O O3 0.997420 0.012274 0.757150
O O4 0.500000 0.000000 0.000000
O O5 0.688517 0.252899 0.906394
O O6 0.235233 0.339284 0.237167
O O7 0.681934 0.317231 0.730568
O O8 0.783676 0.392981 0.878537
O O9 0.083260 0.754527 0.663586
O O10 0.255460 0.613531 0.487082
O O11 0.857770 0.105629 0.307084
O O12 0.500000 0.000000 0.500000
O O13 0.000000 0.000000 0.000000
O O14 0.755708 0.470136 0.733369
O O15 0.230089 0.483604 0.501011
O O16 0.722933 0.523355 0.021114
O O17 0.634129 0.838330 0.994365
O O18 0.084319 0.828518 0.487900
#
# Coordination Sequence:
#
# PCOD9074247 Si02
#       8
#     2   2   2   2   2   2   2   2
#     4  12  21  37  59  77  99 134 174 213 250 303
#     4   9  16  23  36  57  83 111 151 193 235 272
#     4   9  16  24  37  56  79 115 155 193 224 277
#     4  12  24  37  54  79 106 132 164 214 268 307
#     4   9  14  20  30  48  78 113 143 183 225 276
#     4  10  18  32  50  71  90 124 169 207 236 291
#     4  10  19  33  49  68  96 125 163 205 248 292
#     4   9  14  20  31  48  75 112 153 178 218 277
#
# _framework density 17.894378
#
# number of rings (size 3 to 8) (size 9 to 14) (size 15 to 20)
#    0.000    2.000    2.500    5.250    0.000    0.000 
#    0.000    0.000    0.000    0.000    0.000    0.000 
#    0.000    0.000    0.000    6.750    0.000   10.250 
#
# Total GULP energy -89114.663132 kJ/mol
# GULP energy per Si atom -5569.666446 kJ/mol
# Density = 1.785365 g / cm^3
# Si number density = 17.894378 Si / 1000 Ang^3
#
#
#
# Elastic Constant Matrix: (Units=GPa)
#
#
# Indices 1 2 3 4 5 6 
#
# 1 50.5697 28.2070 26.2807 -0.7518 -1.1850 -2.3709
# 2 28.2070 162.3925 28.2181 1.9120 -3.4363 -7.1697
# 3 26.2807 28.2181 108.3401 -6.7913 -8.5547 -4.1338
# 4 -0.7518 1.9120 -6.7913 28.9730 3.0143 -1.2384
# 5 -1.1850 -3.4363 -8.5547 3.0143 16.4143 -1.0357
# 6 -2.3709 -7.1697 -4.1338 -1.2384 -1.0357 8.5212
#
#
#
# Elastic Compliance Matrix: (Units=1/GPa)
#
#
# Indices 1 2 3 4 5 6 
#
# 1 0.024298 -0.003305 -0.005110 -0.000138 -0.001494 0.001299
# 2 -0.003305 0.007117 -0.000815 -0.000674 0.001248 0.004727
# 3 -0.005110 -0.000815 0.011406 0.002234 0.005272 0.004391
# 4 -0.000138 -0.000674 0.002234 0.035841 -0.005250 0.005049
# 5 -0.001494 0.001248 0.005272 -0.005250 0.065443 0.010383
# 6 0.001299 0.004727 0.004391 0.005049 0.010383 0.125819
#
#
# Mechanical properties :
#
#
# Convention : Reuss Voigt Hill
#
# Bulk Modulus (GPa) = 41.05202 54.07932 47.56567
# Shear Modulus (GPa) = 16.86316 26.68815 21.77565
#
# Velocity S-wave (km/s) = 3.07314 3.86609 3.49219
# Velocity P-wave (km/s) = 5.96518 7.08632 6.54978
#
# Compressibility (1/GPa) = 0.02435934
#
# Stress axis : x y z
#
# Youngs Moduli (GPa) = 41.15597 140.51464 87.67323
#
# Poissons Ratio (x) = 0.46441 0.44803
# Poissons Ratio (y) = 0.13602 0.07147
# Poissons Ratio (z) = 0.21032 0.11455
#
# Static dielectric constant tensor:
#      x y z
#    x 1.575000 -0.017260 -0.009920 
#    y -0.017260 1.708520 0.000680 
#    z -0.009920 0.000680 1.614150 
# 
# From -- ./inp_files/223666.got.cif
#   From: 2010.05.17/outbox.cif.g08.bks.cpg/sg2_112_cif.got.tgz:223666.got - 2010.06.03 11:33:40.
