data_PCOD9074218
_publ_section_title
;
Structure prediction by ZEFSAII (Michael W. Deem and Ramdas Pophale) SiO2 
 PCOD9074218
Probable space group: P -1
;
_chemical_formula_sum "Si O2"
_cell_formula_units_Z 16
_cell_length_a 12.000000
_cell_length_b 18.000000
_cell_length_c 9.000000
_cell_angle_alpha 150.000000
_cell_angle_beta 120.000000
_cell_angle_gamma 50.000000
_cell_volume 736.400153
_symmetry_space_group_name_H-M "P -1"
_symmetry_group_IT_number 2
_symmetry_cell_setting 'triclinic'
loop_
_space_group_symop_operation_xyz
x,y,z
-x,-y,-z
loop_
_atom_site_type_symbol
_atom_site_label
_atom_site_fract_x
_atom_site_fract_y
_atom_site_fract_z
Si Si1 0.088043 0.668448 0.774034
Si Si2 0.349656 0.204328 0.573953
Si Si3 0.333637 0.025304 0.677991
Si Si4 0.224639 0.284435 0.310125
Si Si5 0.304597 0.708606 0.162688
Si Si6 0.131292 0.101304 0.396410
Si Si7 0.403462 0.506581 0.181789
Si Si8 0.184531 0.752092 0.680973
O O1 0.159762 0.479870 0.561706
O O2 0.146977 0.665870 0.644240
O O3 0.913892 0.744186 0.793722
O O4 0.145819 0.767896 0.089770
O O5 0.510032 0.040741 0.413102
O O6 0.325378 0.240639 0.445070
O O7 0.212065 0.187798 0.511133
O O8 0.358923 0.360625 0.924728
O O9 0.338503 0.861766 0.476618
O O10 0.200501 0.083237 0.573497
O O11 0.307310 0.168119 0.025009
O O12 0.329071 0.606593 0.153564
O O13 0.423645 0.588050 0.908424
O O14 0.180038 0.919791 0.036780
O O15 0.954452 0.195627 0.432081
O O16 0.336503 0.635762 0.496828
#
# Coordination Sequence:
#
# PCOD9074218 Si02
#       8
#     2   2   2   2   2   2   2   2
#     4  11  23  44  63  94 129 161 215 263 301 385
#     4  11  23  45  62  94 132 160 212 265 307 380
#     4  11  25  41  67  92 126 171 209 257 318 371
#     4  11  25  41  67  96 124 169 208 262 318 364
#     4  10  22  44  64  93 128 157 221 260 304 378
#     4  11  25  43  61  97 130 163 214 257 311 381
#     4  10  24  41  68  94 123 170 205 264 317 365
#     4  11  25  43  66  91 130 170 205 261 316 370
#
# _framework density 21.727318
#
# number of rings (size 3 to 8) (size 9 to 14) (size 15 to 20)
#    0.000    1.250    3.750    0.750    5.250    2.500 
#    0.000    0.000    0.000    0.000    0.000    0.000 
#    0.000    0.000    0.000    0.000    0.000    0.000 
#
# Total GULP energy -89452.219471 kJ/mol
# GULP energy per Si atom -5590.763717 kJ/mol
# Density = 2.167787 g / cm^3
# Si number density = 21.727318 Si / 1000 Ang^3
#
#
#
# Elastic Constant Matrix: (Units=GPa)
#
#
# Indices 1 2 3 4 5 6 
#
# 1 43.3254 -2.9521 -0.4195 13.5501 11.2617 8.3419
# 2 -2.9521 46.3815 -12.8275 -6.9895 1.4247 3.1191
# 3 -0.4195 -12.8275 40.2984 -3.2601 -3.2307 3.3123
# 4 13.5501 -6.9895 -3.2601 -3.2364 1.2847 11.4171
# 5 11.2617 1.4247 -3.2307 1.2847 19.4533 -8.3984
# 6 8.3419 3.1191 3.3123 11.4171 -8.3984 20.8256
#
#
#
# Elastic Compliance Matrix: (Units=1/GPa)
#
#
# Indices 1 2 3 4 5 6 
#
# 1 0.038739 0.007511 0.003006 0.004650 -0.037868 -0.034941
# 2 0.007511 0.020918 0.005008 -0.016933 -0.003533 0.000920
# 3 0.003006 0.005008 0.025514 -0.012820 0.004136 0.002684
# 4 0.004650 -0.016933 -0.012820 -0.065477 0.021082 0.047110
# 5 -0.037868 -0.003533 0.004136 0.021082 0.090065 0.039803
# 6 -0.034941 0.000920 0.002684 0.047110 0.039803 0.051674
#
#
# Mechanical properties :
#
#
# Convention : Reuss Voigt Hill
#
# Bulk Modulus (GPa) = 8.60432 10.84524 9.72478
# Shear Modulus (GPa) = 29.56430 17.15547 23.35988
#
# Velocity S-wave (km/s) = 3.69276 2.81300 3.28249
# Velocity P-wave (km/s) = 4.70646 3.94372 4.34187
#
# Compressibility (1/GPa) = 0.11622073
#
# Stress axis : x y z
#
# Youngs Moduli (GPa) = 25.81404 47.80477 39.19403
#
# Poissons Ratio (x) = -0.35904 -0.11782
# Poissons Ratio (y) = -0.19388 -0.19629
# Poissons Ratio (z) = -0.07760 -0.23941
#
# Static dielectric constant tensor:
#      x y z
#    x 1.763290 0.013310 0.006720 
#    y 0.013310 1.812220 0.014500 
#    z 0.006720 0.014500 1.743440 
# 
# From -- ./inp_files/190000.got.cif
#   From: 2010.05.17/outbox.ucp.g08.bks.cvg/sg2_95_cif.got.tgz:190000.got - 2010.06.11 11:32:03.
