data_PCOD9074258
_publ_section_title
;
Structure prediction by ZEFSAII (Michael W. Deem and Ramdas Pophale) SiO2 
 PCOD9074258
Probable space group: P -1
;
_chemical_formula_sum "Si O2"
_cell_formula_units_Z 16
_cell_length_a 12.000000
_cell_length_b 15.000000
_cell_length_c 15.000000
_cell_angle_alpha 150.000000
_cell_angle_beta 140.000000
_cell_angle_gamma 60.000000
_cell_volume 747.221570
_symmetry_space_group_name_H-M "P -1"
_symmetry_group_IT_number 2
_symmetry_cell_setting 'triclinic'
loop_
_space_group_symop_operation_xyz
x,y,z
-x,-y,-z
loop_
_atom_site_type_symbol
_atom_site_label
_atom_site_fract_x
_atom_site_fract_y
_atom_site_fract_z
Si Si1 0.751634 0.659789 0.004997
Si Si2 0.944388 0.468072 0.333265
Si Si3 0.889588 0.839934 0.588443
Si Si4 0.358139 0.168953 0.160079
Si Si5 0.874216 0.968741 0.502714
Si Si6 0.644281 0.206978 0.523429
Si Si7 0.642206 0.007458 0.675533
Si Si8 0.366886 0.565301 0.595271
O O1 0.894148 0.846149 0.186904
O O2 0.838356 0.778876 0.254003
O O3 0.766946 0.457981 0.818443
O O4 0.519389 0.594589 0.794354
O O5 0.849289 0.610854 0.377297
O O6 0.000000 0.500000 0.500000
O O7 0.156041 0.538833 0.473054
O O8 0.783630 0.236138 0.001843
O O9 0.802884 0.874563 0.473800
O O10 0.790712 0.920602 0.668786
O O11 0.132884 0.977233 0.853290
O O12 0.492684 0.135994 0.286448
O O13 0.333336 0.360975 0.345490
O O14 0.497133 0.244554 0.222809
O O15 0.767054 0.086977 0.498273
O O16 0.512151 0.139636 0.472590
O O17 0.500000 0.000000 0.500000
#
# Coordination Sequence:
#
# PCOD9074258 Si02
#       8
#     2   2   2   2   2   2   2   2
#     4  10  24  42  70 104 139 179 226 296 353 426
#     4  12  30  46  74 107 145 191 243 295 351 428
#     4  12  26  45  74 102 143 184 237 291 362 422
#     4  10  22  44  73 104 135 183 233 296 353 419
#     4  11  24  44  67 107 142 173 232 289 364 424
#     4  11  25  43  73  97 140 187 232 291 354 420
#     4  12  28  49  70 102 146 190 243 292 353 432
#     4  10  22  44  72 102 141 181 236 291 354 417
#
# _framework density 21.412658
#
# number of rings (size 3 to 8) (size 9 to 14) (size 15 to 20)
#    0.000    1.000    3.750    1.125    8.750    4.000 
#    0.000    0.000    0.000    0.000    0.000    0.000 
#    0.000    0.000    0.000    0.000    0.000    0.000 
#
# Total GULP energy -89408.707744 kJ/mol
# GULP energy per Si atom -5588.044234 kJ/mol
# Density = 2.136392 g / cm^3
# Si number density = 21.412658 Si / 1000 Ang^3
#
#
#
# Elastic Constant Matrix: (Units=GPa)
#
#
# Indices 1 2 3 4 5 6 
#
# 1 72.8510 6.9629 6.9633 -4.9054 -5.3574 1.3632
# 2 6.9629 80.2571 2.9536 -12.8289 -16.2454 -11.7275
# 3 6.9633 2.9536 45.4715 -6.1121 -12.3752 -7.8659
# 4 -4.9054 -12.8289 -6.1121 24.7557 -8.1650 -3.2969
# 5 -5.3574 -16.2454 -12.3752 -8.1650 21.4998 5.6727
# 6 1.3632 -11.7275 -7.8659 -3.2969 5.6727 33.3330
#
#
#
# Elastic Compliance Matrix: (Units=1/GPa)
#
#
# Indices 1 2 3 4 5 6 
#
# 1 0.014497 0.000765 0.000047 0.005294 0.006462 -0.000889
# 2 0.000765 0.025169 0.013508 0.029536 0.035871 0.008828
# 3 0.000047 0.013508 0.038403 0.031558 0.041713 0.009835
# 4 0.005294 0.029536 0.031558 0.090296 0.072336 0.014243
# 5 0.006462 0.035871 0.041713 0.072336 0.124555 0.008157
# 6 -0.000889 0.008828 0.009835 0.014243 0.008157 0.035484
#
#
# Mechanical properties :
#
#
# Convention : Reuss Voigt Hill
#
# Bulk Modulus (GPa) = 9.37142 25.81547 17.59344
# Shear Modulus (GPa) = 14.91046 28.03101 21.47073
#
# Velocity S-wave (km/s) = 2.64169 3.62205 3.17000
# Velocity P-wave (km/s) = 3.70010 5.43826 4.65110
#
# Compressibility (1/GPa) = 0.10670747
#
# Stress axis : x y z
#
# Youngs Moduli (GPa) = 68.97792 39.73194 26.03980
#
# Poissons Ratio (x) = -0.03039 -0.00122
# Poissons Ratio (y) = -0.05276 -0.35174
# Poissons Ratio (z) = -0.00323 -0.53669
#
# Static dielectric constant tensor:
#      x y z
#    x 1.803490 0.018150 -0.017390 
#    y 0.018150 1.812620 0.006240 
#    z -0.017390 0.006240 1.768200 
# 
# From -- ./inp_files/434250.got.cif
#   From: 2010.05.17/outbox.ucp.g08.bks.cvg/sg2_218_cif.got.tgz:434250.got - 2010.06.11 11:32:03.
