data_PCOD9074810
_publ_section_title
;
Structure prediction by ZEFSAII (Michael W. Deem and Ramdas Pophale) SiO2 
 PCOD9074810
Probable space group: P -1
;
_chemical_formula_sum "Si O2"
_cell_formula_units_Z 14
_cell_length_a 9.000000
_cell_length_b 9.000000
_cell_length_c 15.000000
_cell_angle_alpha 100.000000
_cell_angle_beta 40.000000
_cell_angle_gamma 120.000000
_cell_volume 626.690879
_symmetry_space_group_name_H-M "P -1"
_symmetry_group_IT_number 2
_symmetry_cell_setting 'triclinic'
loop_
_space_group_symop_operation_xyz
x,y,z
-x,-y,-z
loop_
_atom_site_type_symbol
_atom_site_label
_atom_site_fract_x
_atom_site_fract_y
_atom_site_fract_z
Si Si1 0.228425 0.484782 0.161899
Si Si2 0.993503 0.172504 0.495825
Si Si3 0.932469 0.521309 0.136011
Si Si4 0.495149 0.181551 0.787002
Si Si5 0.607264 0.686930 0.525499
Si Si6 0.969553 0.097492 0.899210
Si Si7 0.963391 0.095720 0.311455
O O1 0.333027 0.628304 0.212841
O O2 0.135268 0.541527 0.123502
O O3 0.972423 0.267627 0.279749
O O4 0.500000 0.500000 0.000000
O O5 0.701381 0.155373 0.629634
O O6 0.118801 0.208087 0.342706
O O7 0.153021 0.298146 0.520887
O O8 0.000000 0.000000 0.500000
O O9 0.626337 0.354717 0.297286
O O10 0.957419 0.710215 0.147644
O O11 0.000000 0.500000 0.000000
O O12 0.246907 0.154761 0.835286
O O13 0.312478 0.011821 0.922314
O O14 0.500000 0.500000 0.500000
O O15 0.722155 0.881823 0.439396
O O16 0.914846 0.962071 0.828925
#
# Coordination Sequence:
#
# PCOD9074810 Si02
#       7
#     2   2   2   2   2   2   2
#     4  12  27  48  75 112 151 196 254 310 380 445
#     4  10  26  45  74 110 152 197 249 310 379 445
#     4  12  29  45  78 108 150 198 251 314 374 453
#     4  11  26  48  76 111 153 196 254 314 377 449
#     4  11  24  48  71 110 148 194 252 302 381 444
#     4  11  26  48  79 109 149 200 253 311 380 448
#     4  11  26  47  74 108 152 196 248 310 372 451
#
# _framework density 22.339562000000001
#
# number of rings (size 3 to 8) (size 9 to 14) (size 15 to 20)
#    0.000    0.857    2.857    1.714   12.000    4.571 
#    0.000    0.000    0.000    0.000    0.000    0.000 
#    0.000    0.000    0.000    0.000    0.000    0.000 
#
# Total GULP energy -77962.552415 kJ/mol
# GULP energy per Si atom -5568.753744 kJ/mol
# Density = 2.228872 g / cm^3
# Si number density = 22.339562 Si / 1000 Ang^3
#
#
#
# Elastic Constant Matrix: (Units=GPa)
#
#
# Indices 1 2 3 4 5 6 
#
# 1 94.7721 31.1498 18.1782 -0.4630 17.5730 -3.7621
# 2 31.1498 125.0452 12.0672 -3.2576 12.0279 10.9167
# 3 18.1782 12.0672 58.0976 -4.0517 14.5178 -1.0914
# 4 -0.4630 -3.2576 -4.0517 44.7128 2.9021 14.8867
# 5 17.5730 12.0279 14.5178 2.9021 41.3617 3.0357
# 6 -3.7621 10.9167 -1.0914 14.8867 3.0357 36.2159
#
#
#
# Elastic Compliance Matrix: (Units=1/GPa)
#
#
# Indices 1 2 3 4 5 6 
#
# 1 0.012787 -0.002850 -0.002455 -0.000994 -0.003882 0.002847
# 2 -0.002850 0.009262 -0.000696 0.001921 -0.001094 -0.003807
# 3 -0.002455 -0.000696 0.019728 0.002021 -0.005836 0.000208
# 4 -0.000994 0.001921 0.002021 0.026593 -0.001875 -0.011395
# 5 -0.003882 -0.001094 -0.005836 -0.001875 0.028461 -0.001864
# 6 0.002847 -0.003807 0.000208 -0.011395 -0.001864 0.033902
#
#
# Mechanical properties :
#
#
# Convention : Reuss Voigt Hill
#
# Bulk Modulus (GPa) = 33.58478 44.52279 39.05378
# Shear Modulus (GPa) = 32.75243 38.89273 35.82258
#
# Velocity S-wave (km/s) = 3.83315 4.17703 4.00878
# Velocity P-wave (km/s) = 5.88703 6.57547 6.24075
#
# Compressibility (1/GPa) = 0.02977540
#
# Stress axis : x y z
#
# Youngs Moduli (GPa) = 78.20447 107.97163 50.68830
#
# Poissons Ratio (x) = 0.30767 0.12444
# Poissons Ratio (y) = 0.22284 0.03530
# Poissons Ratio (z) = 0.19199 0.07519
#
# Static dielectric constant tensor:
#      x y z
#    x 2.067670 0.104700 -0.081570 
#    y 0.104700 1.875140 -0.053970 
#    z -0.081570 -0.053970 1.882060 
# 
# From -- ./inp_files/495125.got.cif
#   From: 2010.05.17/outbox.ucp.g08.bks.cvg/sg2_248_cif.got.tgz:495125.got - 2010.06.11 11:32:03.
