data_PCOD9074010
_publ_section_title
;
Structure prediction by ZEFSAII (Michael W. Deem and Ramdas Pophale) SiO2 
 PCOD9074010
Probable space group: P -1
;
_chemical_formula_sum "Si O2"
_cell_formula_units_Z 14
_cell_length_a 9.000000
_cell_length_b 12.000000
_cell_length_c 9.000000
_cell_angle_alpha 110.000000
_cell_angle_beta 130.000000
_cell_angle_gamma 60.000000
_cell_volume 644.526612
_symmetry_space_group_name_H-M "P -1"
_symmetry_group_IT_number 2
_symmetry_cell_setting 'triclinic'
loop_
_space_group_symop_operation_xyz
x,y,z
-x,-y,-z
loop_
_atom_site_type_symbol
_atom_site_label
_atom_site_fract_x
_atom_site_fract_y
_atom_site_fract_z
Si Si1 0.816538 0.678323 0.737836
Si Si2 0.111473 0.919623 0.214777
Si Si3 0.670851 0.105945 0.967573
Si Si4 0.411899 0.347725 0.118036
Si Si5 0.750324 0.848995 0.483199
Si Si6 0.776817 0.363286 0.808391
Si Si7 0.995569 0.608768 0.326032
O O1 0.655259 0.685881 0.775437
O O2 0.733763 0.790603 0.610591
O O3 0.890611 0.543108 0.630725
O O4 0.029191 0.667462 0.961249
O O5 0.179897 0.889520 0.071167
O O6 0.242982 0.773713 0.288652
O O7 0.185259 0.028920 0.383354
O O8 0.853079 0.975392 0.097881
O O9 0.460356 0.108861 0.741858
O O10 0.593838 0.225327 0.093008
O O11 0.404535 0.495777 0.198653
O O12 0.217544 0.372655 0.891901
O O13 0.927529 0.726044 0.454436
O O14 0.853390 0.381692 0.702994
#
# Coordination Sequence:
#
# PCOD9074010 Si02
#       7
#     2   2   2   2   2   2   2
#     4   9  16  33  62  89 116 153 197 246 291 339
#     4  11  23  38  59  87 123 156 189 241 298 348
#     4  10  22  41  60  86 118 155 200 241 288 347
#     4   8  17  36  62  87 113 154 202 242 288 344
#     4  11  21  37  61  89 119 154 196 238 291 354
#     4   9  18  36  59  87 121 154 194 242 292 348
#     4   8  17  34  59  89 118 153 197 243 290 342
#
# _framework density 21.721367999999998
#
# number of rings (size 3 to 8) (size 9 to 14) (size 15 to 20)
#    0.000    2.571    0.000    4.286    0.000    1.143 
#    0.000   17.143    0.000    7.714    0.000    5.000 
#    0.000    0.000    0.000    0.000    0.000    0.000 
#
# Total GULP energy -77934.001805 kJ/mol
# GULP energy per Si atom -5566.714415 kJ/mol
# Density = 2.167193 g / cm^3
# Si number density = 21.721368 Si / 1000 Ang^3
#
#
#
# Elastic Constant Matrix: (Units=GPa)
#
#
# Indices 1 2 3 4 5 6 
#
# 1 60.6051 49.5430 21.2780 17.9070 -10.3872 -30.4145
# 2 49.5430 170.2953 38.1008 45.5935 -8.6294 -17.8006
# 3 21.2780 38.1008 82.0120 12.4934 -7.5105 -0.6958
# 4 17.9070 45.5935 12.4934 34.6261 -12.3652 -8.4879
# 5 -10.3872 -8.6294 -7.5105 -12.3652 25.8464 7.3919
# 6 -30.4145 -17.8006 -0.6958 -8.4879 7.3919 52.9076
#
#
#
# Elastic Compliance Matrix: (Units=1/GPa)
#
#
# Indices 1 2 3 4 5 6 
#
# 1 0.032060 -0.005980 -0.004763 -0.001662 0.004278 0.015491
# 2 -0.005980 0.011199 -0.002158 -0.012993 -0.005205 -0.001055
# 3 -0.004763 -0.002158 0.014633 0.000100 0.002704 -0.003633
# 4 -0.001662 -0.012993 0.000100 0.054396 0.020910 0.000480
# 5 0.004278 -0.005205 0.002704 0.020910 0.050299 -0.002929
# 6 0.015491 -0.001055 -0.003633 0.000480 -0.002929 0.027889
#
#
# Mechanical properties :
#
#
# Convention : Reuss Voigt Hill
#
# Bulk Modulus (GPa) = 31.16278 58.97288 45.06783
# Shear Modulus (GPa) = 22.02889 36.27540 29.15215
#
# Velocity S-wave (km/s) = 3.18804 4.09104 3.66744
# Velocity P-wave (km/s) = 5.28481 7.03734 6.22307
#
# Compressibility (1/GPa) = 0.03208956
#
# Stress axis : x y z
#
# Youngs Moduli (GPa) = 31.19199 89.29211 68.33778
#
# Poissons Ratio (x) = 0.53400 0.32550
# Poissons Ratio (y) = 0.18654 0.14745
# Poissons Ratio (z) = 0.14857 0.19266
#
# Static dielectric constant tensor:
#      x y z
#    x 1.839530 0.055810 0.028330 
#    y 0.055810 1.908010 -0.027890 
#    z 0.028330 -0.027890 1.821720 
# 
# From -- ./inp_files/189595.got.cif
#   From: 2010.05.17/outbox.ucp.g08.bks.cvg/sg2_95_cif.got.tgz:189595.got - 2010.06.11 11:32:03.
