data_PCOD9074823
_publ_section_title
;
Structure prediction by ZEFSAII (Michael W. Deem and Ramdas Pophale) SiO2 
 PCOD9074823
Probable space group: P -1
;
_chemical_formula_sum "Si O2"
_cell_formula_units_Z 15
_cell_length_a 12.000000
_cell_length_b 9.000000
_cell_length_c 9.000000
_cell_angle_alpha 40.000000
_cell_angle_beta 100.000000
_cell_angle_gamma 100.000000
_cell_volume 614.029152
_symmetry_space_group_name_H-M "P -1"
_symmetry_group_IT_number 2
_symmetry_cell_setting 'triclinic'
loop_
_space_group_symop_operation_xyz
x,y,z
-x,-y,-z
loop_
_atom_site_type_symbol
_atom_site_label
_atom_site_fract_x
_atom_site_fract_y
_atom_site_fract_z
Si Si1 0.000000 0.000000 0.000000
Si Si2 0.248544 0.174532 0.240782
Si Si3 0.519717 0.755172 0.615620
Si Si4 0.904830 0.648875 0.714500
Si Si5 0.877914 0.268539 0.492927
Si Si6 0.688834 0.592479 0.217470
Si Si7 0.410091 0.107805 0.792342
Si Si8 0.829388 0.089828 0.146580
O O1 0.061670 0.852411 0.264302
O O2 0.887512 0.012577 0.068155
O O3 0.353063 0.294950 0.264158
O O4 0.129224 0.270731 0.190039
O O5 0.222059 0.903616 0.465995
O O6 0.280065 0.216098 0.046256
O O7 0.415006 0.568357 0.755447
O O8 0.528218 0.798654 0.410362
O O9 0.500000 0.000000 0.500000
O O10 0.030507 0.661379 0.666206
O O11 0.856724 0.873840 0.435504
O O12 0.866830 0.370872 0.933270
O O13 0.807174 0.480419 0.363333
O O14 0.644057 0.690449 0.283680
O O15 0.306374 0.925312 0.870605
O O16 0.500000 0.000000 0.000000
#
# Coordination Sequence:
#
# PCOD9074823 Si02
#       8
#     1   2   2   2   2   2   2   2
#     4  10  26  48  78 106 170 202 270 334 414 488
#     4  12  26  50  78 116 161 215 276 345 412 497
#     4  12  26  50  79 113 159 213 275 347 411 490
#     4  11  28  47  81 114 166 208 280 336 413 487
#     4  11  27  50  78 120 158 217 275 339 420 495
#     4  12  29  48  84 114 164 214 278 344 416 499
#     4  12  29  49  80 118 163 213 278 343 420 496
#     4  11  27  49  79 119 156 222 264 344 411 492
#
# _framework density 24.428808
#
# number of rings (size 3 to 8) (size 9 to 14) (size 15 to 20)
#    0.000    0.533    2.667    2.800   14.933    1.600 
#    0.000    0.000    0.000    0.000    0.000    0.000 
#    0.000    0.000    0.000    0.000    0.000    0.000 
#
# Total GULP energy -83513.694619 kJ/mol
# GULP energy per Si atom -5567.579641 kJ/mol
# Density = 2.437321 g / cm^3
# Si number density = 24.428808 Si / 1000 Ang^3
#
#
#
# Elastic Constant Matrix: (Units=GPa)
#
#
# Indices 1 2 3 4 5 6 
#
# 1 80.1741 3.6197 28.5671 -12.3087 -3.8128 -22.6439
# 2 3.6197 70.1202 22.5081 -16.8312 -9.2320 -17.7027
# 3 28.5671 22.5081 103.3037 -4.2700 -7.7285 11.6976
# 4 -12.3087 -16.8312 -4.2700 43.0475 12.7222 -9.1673
# 5 -3.8128 -9.2320 -7.7285 12.7222 49.8209 0.1300
# 6 -22.6439 -17.7027 11.6976 -9.1673 0.1300 40.4589
#
#
#
# Elastic Compliance Matrix: (Units=1/GPa)
#
#
# Indices 1 2 3 4 5 6 
#
# 1 0.028953 0.015807 -0.014400 0.020549 -0.002420 0.031948
# 2 0.015807 0.031069 -0.013858 0.022283 -0.000955 0.031500
# 3 -0.014400 -0.013858 0.018895 -0.013276 0.002710 -0.022602
# 4 0.020549 0.022283 -0.013276 0.046562 -0.008341 0.035666
# 5 -0.002420 -0.000955 0.002710 -0.008341 0.022272 -0.004517
# 6 0.031948 0.031500 -0.022602 0.035666 -0.004517 0.071010
#
#
# Mechanical properties :
#
#
# Convention : Reuss Voigt Hill
#
# Bulk Modulus (GPa) = 18.51304 40.33197 29.42251
# Shear Modulus (GPa) = 19.10824 39.92568 29.51696
#
# Velocity S-wave (km/s) = 2.79982 4.04712 3.47981
# Velocity P-wave (km/s) = 4.24815 6.19554 5.31185
#
# Compressibility (1/GPa) = 0.05401597
#
# Stress axis : x y z
#
# Youngs Moduli (GPa) = 34.53873 32.18649 52.92394
#
# Poissons Ratio (x) = -0.50878 0.76210
# Poissons Ratio (y) = -0.54596 0.73341
# Poissons Ratio (z) = 0.49735 0.44604
#
# Static dielectric constant tensor:
#      x y z
#    x 1.966360 0.053200 0.068380 
#    y 0.053200 2.070790 -0.018960 
#    z 0.068380 -0.018960 1.946650 
# 
# From -- ./inp_files/241818.got.cif
#   From: 2010.05.17/outbox.ucp.g08.bks.cvg/sg2_121_cif.got.tgz:241818.got - 2010.06.11 11:32:03.
