data_PCOD9074885
_publ_section_title
;
Structure prediction by ZEFSAII (Michael W. Deem and Ramdas Pophale) SiO2 
 PCOD9074885
Probable space group: P -1
;
_chemical_formula_sum "Si O2"
_cell_formula_units_Z 16
_cell_length_a 12.000000
_cell_length_b 9.000000
_cell_length_c 15.000000
_cell_angle_alpha 110.000000
_cell_angle_beta 50.000000
_cell_angle_gamma 70.000000
_cell_volume 728.972637
_symmetry_space_group_name_H-M "P -1"
_symmetry_group_IT_number 2
_symmetry_cell_setting 'triclinic'
loop_
_space_group_symop_operation_xyz
x,y,z
-x,-y,-z
loop_
_atom_site_type_symbol
_atom_site_label
_atom_site_fract_x
_atom_site_fract_y
_atom_site_fract_z
Si Si1 0.714778 0.396938 0.061869
Si Si2 0.638251 0.952292 0.123874
Si Si3 0.230153 0.908783 0.762719
Si Si4 0.838447 0.762736 0.524849
Si Si5 0.555991 0.205250 0.036786
Si Si6 0.154923 0.502672 0.154862
Si Si7 0.042015 0.704584 0.590629
Si Si8 0.553393 0.382917 0.584061
O O1 0.566761 0.378892 0.093031
O O2 0.557584 0.596158 0.264924
O O3 0.790792 0.435238 0.945388
O O4 0.955122 0.132266 0.929976
O O5 0.710982 0.000821 0.178988
O O6 0.436555 0.001859 0.268224
O O7 0.535731 0.131824 0.126932
O O8 0.849497 0.670277 0.918370
O O9 0.346637 0.657765 0.698413
O O10 0.347751 0.815629 0.584637
O O11 0.894466 0.527036 0.457872
O O12 0.927627 0.738634 0.377216
O O13 0.975376 0.741359 0.527739
O O14 0.358669 0.334530 0.091705
O O15 0.804726 0.952875 0.813753
O O16 0.243064 0.661864 0.502314
#
# Coordination Sequence:
#
# PCOD9074885 Si02
#       8
#     2   2   2   2   2   2   2   2
#     4  12  26  45  67  98 139 174 215 268 338 392
#     4  12  24  43  71  98 129 177 226 272 318 388
#     4  11  25  42  71  98 124 176 227 275 316 385
#     4  11  22  39  66  99 132 169 216 270 332 381
#     4  12  22  44  71 101 131 171 225 271 327 389
#     4  12  27  43  65 100 141 175 208 273 336 398
#     4  11  20  39  72 100 127 167 224 280 320 380
#     4  11  23  43  71 100 126 169 228 279 321 376
#
# _framework density 21.948698
#
# number of rings (size 3 to 8) (size 9 to 14) (size 15 to 20)
#    0.000    0.500    6.250    3.375    0.000    2.500 
#    0.000    2.500    0.000    0.000    0.000    0.000 
#    0.000    0.000    0.000    0.000    0.000    0.000 
#
# Total GULP energy -89520.414903 kJ/mol
# GULP energy per Si atom -5595.025931 kJ/mol
# Density = 2.189874 g / cm^3
# Si number density = 21.948698 Si / 1000 Ang^3
#
#
#
# Elastic Constant Matrix: (Units=GPa)
#
#
# Indices 1 2 3 4 5 6 
#
# 1 119.7099 13.4386 23.2441 -6.8653 25.7693 -19.1098
# 2 13.4386 57.7543 21.9730 -36.1766 14.0548 -8.2038
# 3 23.2441 21.9730 133.5470 -32.3351 27.4439 -18.2207
# 4 -6.8653 -36.1766 -32.3351 44.4208 -12.4160 7.2651
# 5 25.7693 14.0548 27.4439 -12.4160 45.3906 -5.3521
# 6 -19.1098 -8.2038 -18.2207 7.2651 -5.3521 18.0569
#
#
#
# Elastic Compliance Matrix: (Units=1/GPa)
#
#
# Indices 1 2 3 4 5 6 
#
# 1 0.011246 -0.001421 0.000288 -0.002542 -0.005525 0.010931
# 2 -0.001421 0.037087 0.002891 0.030274 -0.003551 0.005030
# 3 0.000288 0.002891 0.010878 0.007710 -0.004567 0.008139
# 4 -0.002542 0.030274 0.007710 0.053202 0.001718 -0.002052
# 5 -0.005525 -0.003551 -0.004567 0.001718 0.029008 -0.004162
# 6 0.010931 0.005030 0.008139 -0.002052 -0.004162 0.077040
#
#
# Mechanical properties :
#
#
# Convention : Reuss Voigt Hill
#
# Bulk Modulus (GPa) = 15.94215 47.59138 31.76676
# Shear Modulus (GPa) = 21.19957 38.39736 29.79846
#
# Velocity S-wave (km/s) = 3.11121 4.18714 3.68862
# Velocity P-wave (km/s) = 4.49281 6.71612 5.71365
#
# Compressibility (1/GPa) = 0.06272679
#
# Stress axis : x y z
#
# Youngs Moduli (GPa) = 88.92262 26.96348 91.92916
#
# Poissons Ratio (x) = 0.03832 -0.02646
# Poissons Ratio (y) = 0.12638 -0.26580
# Poissons Ratio (z) = -0.02559 -0.07796
#
# Static dielectric constant tensor:
#      x y z
#    x 1.747640 0.014370 0.014320 
#    y 0.014370 1.826770 0.019370 
#    z 0.014320 0.019370 1.859390 
# 
# From -- ./inp_files/398068.got.cif
#   From: 2010.05.17/outbox.ucp.g08.bks.cvg/sg2_200_cif.got.tgz:398068.got - 2010.06.11 11:32:03.
