data_PCOD9074421
_publ_section_title
;
Structure prediction by ZEFSAII (Michael W. Deem and Ramdas Pophale) SiO2 
 PCOD9074421
Probable space group: P -1
;
_chemical_formula_sum "Si O2"
_cell_formula_units_Z 16
_cell_length_a 21.000000
_cell_length_b 9.000000
_cell_length_c 15.000000
_cell_angle_alpha 130.000000
_cell_angle_beta 160.000000
_cell_angle_gamma 50.000000
_cell_volume 734.602417
_symmetry_space_group_name_H-M "P -1"
_symmetry_group_IT_number 2
_symmetry_cell_setting 'triclinic'
loop_
_space_group_symop_operation_xyz
x,y,z
-x,-y,-z
loop_
_atom_site_type_symbol
_atom_site_label
_atom_site_fract_x
_atom_site_fract_y
_atom_site_fract_z
Si Si1 0.637605 0.586709 0.940895
Si Si2 0.167478 0.192842 0.570223
Si Si3 0.830908 0.751399 0.887241
Si Si4 0.389327 0.326231 0.256835
Si Si5 0.524386 0.896523 0.218106
Si Si6 0.716925 0.181382 0.952622
Si Si7 0.172988 0.894885 0.624936
Si Si8 0.791179 0.377780 0.581934
O O1 0.704496 0.642888 0.953034
O O2 0.638311 0.355748 0.852169
O O3 0.417871 0.670886 0.694853
O O4 0.753255 0.640942 0.200518
O O5 0.285833 0.169288 0.621511
O O6 0.203425 0.018284 0.623546
O O7 0.938137 0.212208 0.270400
O O8 0.756231 0.683786 0.858347
O O9 0.797008 0.603821 0.706479
O O10 0.732911 0.974657 0.842841
O O11 0.054539 0.738028 0.192846
O O12 0.500000 0.500000 0.500000
O O13 0.522979 0.117934 0.337598
O O14 0.424287 0.807182 0.141285
O O15 0.358788 0.884906 0.924363
O O16 0.155173 0.685694 0.474164
O O17 0.000000 0.000000 0.500000
#
# Coordination Sequence:
#
# PCOD9074421 Si02
#       8
#     2   2   2   2   2   2   2   2
#     4  12  25  42  66 100 136 172 220 278 340 392
#     4  12  23  41  69  95 135 178 224 275 331 399
#     4  10  23  42  69  93 131 176 224 275 328 394
#     4  11  22  40  66  98 127 173 228 276 322 396
#     4  11  23  41  67  95 132 178 225 278 329 394
#     4  11  26  45  64 100 143 176 215 278 345 396
#     4  12  20  38  68 100 130 166 228 282 320 388
#     4  11  22  40  67  98 123 176 226 268 325 398
#
# _framework density 21.780488999999999
#
# number of rings (size 3 to 8) (size 9 to 14) (size 15 to 20)
#    0.000    0.750    6.250    2.250    0.000    1.000 
#    2.250    0.000    0.000    3.750    0.000    0.000 
#    0.000    0.000    0.000    0.000    0.000    0.000 
#
# Total GULP energy -89157.292927 kJ/mol
# GULP energy per Si atom -5572.330808 kJ/mol
# Density = 2.173092 g / cm^3
# Si number density = 21.780489 Si / 1000 Ang^3
#
#
#
# Elastic Constant Matrix: (Units=GPa)
#
#
# Indices 1 2 3 4 5 6 
#
# 1 126.5488 47.0112 17.6327 8.8513 19.1890 -33.4451
# 2 47.0112 99.9286 11.4201 13.5739 0.9615 -20.6348
# 3 17.6327 11.4201 55.7189 16.7610 7.5472 -16.4590
# 4 8.8513 13.5739 16.7610 31.5426 -10.8853 -12.0285
# 5 19.1890 0.9615 7.5472 -10.8853 36.6618 14.1833
# 6 -33.4451 -20.6348 -16.4590 -12.0285 14.1833 40.3117
#
#
#
# Elastic Compliance Matrix: (Units=1/GPa)
#
#
# Indices 1 2 3 4 5 6 
#
# 1 0.016832 -0.003666 0.005162 -0.004992 -0.018723 0.019293
# 2 -0.003666 0.012815 0.000752 -0.004085 -0.000918 0.002929
# 3 0.005162 0.000752 0.030206 -0.017969 -0.021736 0.019286
# 4 -0.004992 -0.004085 -0.017969 0.049988 0.024008 -0.007101
# 5 -0.018723 -0.000918 -0.021736 0.024008 0.064309 -0.040341
# 6 0.019293 0.002929 0.019286 -0.007101 -0.040341 0.062262
#
#
# Mechanical properties :
#
#
# Convention : Reuss Voigt Hill
#
# Bulk Modulus (GPa) = 15.54046 48.25825 31.89936
# Shear Modulus (GPa) = 19.73429 35.44538 27.58984
#
# Velocity S-wave (km/s) = 3.01334 4.03847 3.56297
# Velocity P-wave (km/s) = 4.38833 6.62951 5.62174
#
# Compressibility (1/GPa) = 0.06434814
#
# Stress axis : x y z
#
# Youngs Moduli (GPa) = 59.41086 78.03645 33.10570
#
# Poissons Ratio (x) = 0.28610 -0.17088
# Poissons Ratio (y) = 0.21781 -0.02490
# Poissons Ratio (z) = -0.30666 -0.05870
#
# Static dielectric constant tensor:
#      x y z
#    x 1.793090 -0.006930 0.019800 
#    y -0.006930 1.927330 0.024650 
#    z 0.019800 0.024650 1.845650 
# 
# From -- ./inp_files/540574.got.cif
#   From: 2010.05.17/outbox.ucp.g08.bks.cvg/sg2_271_cif.got.tgz:540574.got - 2010.06.11 11:32:03.
