data_PCOD9074007
_publ_section_title
;
Structure prediction by ZEFSAII (Michael W. Deem and Ramdas Pophale) SiO2 
 PCOD9074007
Probable space group: P -1
;
_chemical_formula_sum "Si O2"
_cell_formula_units_Z 14
_cell_length_a 9.000000
_cell_length_b 18.000000
_cell_length_c 6.000000
_cell_angle_alpha 80.000000
_cell_angle_beta 80.000000
_cell_angle_gamma 40.000000
_cell_volume 614.029152
_symmetry_space_group_name_H-M "P -1"
_symmetry_group_IT_number 2
_symmetry_cell_setting 'triclinic'
loop_
_space_group_symop_operation_xyz
x,y,z
-x,-y,-z
loop_
_atom_site_type_symbol
_atom_site_label
_atom_site_fract_x
_atom_site_fract_y
_atom_site_fract_z
Si Si1 0.873641 0.972125 0.478198
Si Si2 0.195003 0.771859 0.159960
Si Si3 0.097216 0.312872 0.221141
Si Si4 0.428303 0.802545 0.762790
Si Si5 0.233449 0.105232 0.098391
Si Si6 0.391363 0.364805 0.572409
Si Si7 0.958928 0.417964 0.712988
O O1 0.786119 0.963851 0.721550
O O2 0.047756 0.853038 0.366688
O O3 0.676877 0.074843 0.307184
O O4 0.000000 0.000000 0.500000
O O5 0.447284 0.656137 0.271334
O O6 0.270481 0.811385 0.956455
O O7 0.991899 0.805106 0.056949
O O8 0.315888 0.285873 0.161978
O O9 0.189384 0.193310 0.224592
O O10 0.015129 0.354758 0.484741
O O11 0.958268 0.382901 0.984501
O O12 0.458769 0.754291 0.535989
O O13 0.500000 0.000000 0.000000
O O14 0.156676 0.409144 0.684998
O O15 0.294969 0.455178 0.353400
#
# Coordination Sequence:
#
# PCOD9074007 Si02
#       7
#     2   2   2   2   2   2   2
#     4  12  25  43  68 106 138 187 237 300 358 436
#     4  12  23  43  70 101 143 186 243 299 360 433
#     4  11  26  46  71 106 150 192 236 299 373 425
#     4  11  23  41  73 102 145 181 249 294 367 427
#     4  12  30  45  70 104 151 190 241 293 372 440
#     4  10  22  40  73 106 138 184 251 304 353 421
#     4  10  24  44  73 107 146 189 245 305 360 426
#
# _framework density 22.800219999999999
#
# number of rings (size 3 to 8) (size 9 to 14) (size 15 to 20)
#    0.000    0.857    4.286    1.286   10.000    2.857 
#    0.000    1.429    0.000    0.000    0.000    0.000 
#    0.000    0.000    0.000    0.000    0.000    0.000 
#
# Total GULP energy -77951.412061 kJ/mol
# GULP energy per Si atom -5567.958004 kJ/mol
# Density = 2.274833 g / cm^3
# Si number density = 22.800220 Si / 1000 Ang^3
#
#
#
# Elastic Constant Matrix: (Units=GPa)
#
#
# Indices 1 2 3 4 5 6 
#
# 1 98.3411 19.4217 22.6082 6.5043 21.9248 -8.8373
# 2 19.4217 69.4325 0.8920 -13.9179 9.8623 -18.1304
# 3 22.6082 0.8920 69.2705 -15.3653 7.8556 -9.6945
# 4 6.5043 -13.9179 -15.3653 38.3976 -10.9033 8.7529
# 5 21.9248 9.8623 7.8556 -10.9033 46.0174 -6.9629
# 6 -8.8373 -18.1304 -9.6945 8.7529 -6.9629 30.2854
#
#
#
# Elastic Compliance Matrix: (Units=1/GPa)
#
#
# Indices 1 2 3 4 5 6 
#
# 1 0.014531 -0.004570 -0.005708 -0.008485 -0.006898 0.000543
# 2 -0.004570 0.019586 0.004199 0.007489 0.000503 0.009687
# 3 -0.005708 0.004199 0.018790 0.009416 0.001523 0.004492
# 4 -0.008485 0.007489 0.009416 0.037397 0.009133 -0.003687
# 5 -0.006898 0.000503 0.001523 0.009133 0.027174 0.002384
# 6 0.000543 0.009687 0.004492 -0.003687 0.002384 0.042028
#
#
# Mechanical properties :
#
#
# Convention : Reuss Voigt Hill
#
# Bulk Modulus (GPa) = 24.54024 35.87644 30.20834
# Shear Modulus (GPa) = 26.99098 35.88157 31.43627
#
# Velocity S-wave (km/s) = 3.44438 3.97134 3.71721
# Velocity P-wave (km/s) = 5.15799 6.06614 5.63040
#
# Compressibility (1/GPa) = 0.04074939
#
# Stress axis : x y z
#
# Youngs Moduli (GPa) = 68.81703 51.05643 53.22118
#
# Poissons Ratio (x) = 0.23335 0.30376
# Poissons Ratio (y) = 0.31453 -0.22349
# Poissons Ratio (z) = 0.39278 -0.21440
#
# Static dielectric constant tensor:
#      x y z
#    x 1.906410 -0.030030 0.047900 
#    y -0.030030 1.963390 -0.052540 
#    z 0.047900 -0.052540 1.872510 
# 
# From -- ./inp_files/43785.got.cif
#   From: 2010.05.17/outbox.ucp.g08.bks.cvg/sg2_22_cif.got.tgz:43785.got - 2010.06.11 11:32:03.
