data_PCOD9074900
_publ_section_title
;
Structure prediction by ZEFSAII (Michael W. Deem and Ramdas Pophale) SiO2 
 PCOD9074900
Probable space group: P -1
;
_chemical_formula_sum "Si O2"
_cell_formula_units_Z 14
_cell_length_a 15.000000
_cell_length_b 27.000000
_cell_length_c 27.000000
_cell_angle_alpha 170.000000
_cell_angle_beta 160.000000
_cell_angle_gamma 20.000000
_cell_volume 630.401208
_symmetry_space_group_name_H-M "P -1"
_symmetry_group_IT_number 2
_symmetry_cell_setting 'triclinic'
loop_
_space_group_symop_operation_xyz
x,y,z
-x,-y,-z
loop_
_atom_site_type_symbol
_atom_site_label
_atom_site_fract_x
_atom_site_fract_y
_atom_site_fract_z
Si Si1 0.827552 0.724103 0.067788
Si Si2 0.002573 0.543995 0.269225
Si Si3 0.524825 0.225437 0.852248
Si Si4 0.903113 0.711531 0.825902
Si Si5 0.310195 0.992069 0.829582
Si Si6 0.441177 0.696184 0.358458
Si Si7 0.455327 0.296663 0.468608
O O1 0.137290 0.684121 0.205156
O O2 0.819369 0.866494 0.149644
O O3 0.606952 0.953418 0.210045
O O4 0.694418 0.447606 0.724533
O O5 0.715102 0.667414 0.210060
O O6 0.998511 0.525941 0.310425
O O7 0.217292 0.706306 0.517098
O O8 0.149772 0.215761 0.006820
O O9 0.455424 0.978828 0.610179
O O10 0.528615 0.462371 0.130187
O O11 0.826228 0.173688 0.933308
O O12 0.630290 0.923629 0.916666
O O13 0.773433 0.639686 0.632923
O O14 0.605930 0.642493 0.444270
#
# Coordination Sequence:
#
# PCOD9074900 Si02
#       7
#     2   2   2   2   2   2   2
#     4  11  20  42  68 101 133 168 232 281 333 391
#     4  12  23  47  70 100 134 181 228 277 332 404
#     4  12  26  45  70 101 140 182 220 277 340 411
#     4  11  28  44  69 105 141 176 224 280 345 400
#     4  11  23  43  73  99 134 173 232 283 330 392
#     4  12  24  44  70  96 139 180 228 272 338 407
#     4  11  25  41  68 101 134 177 223 286 334 389
#
# _framework density 22.208079000000001
#
# number of rings (size 3 to 8) (size 9 to 14) (size 15 to 20)
#    0.000    0.571    2.857    5.571    0.000    8.000 
#    0.000    2.857    0.000    0.000    0.000    0.000 
#    0.000    0.000    0.000    0.000    0.000    0.000 
#
# Total GULP energy -77952.458208 kJ/mol
# GULP energy per Si atom -5568.032729 kJ/mol
# Density = 2.215753 g / cm^3
# Si number density = 22.208079 Si / 1000 Ang^3
#
#
#
# Elastic Constant Matrix: (Units=GPa)
#
#
# Indices 1 2 3 4 5 6 
#
# 1 102.8312 43.5389 -5.6671 -31.3353 16.8322 26.7185
# 2 43.5389 129.4257 24.7963 -40.1819 8.9642 6.7501
# 3 -5.6671 24.7963 17.9831 -26.4015 2.2178 6.8416
# 4 -31.3353 -40.1819 -26.4015 21.4488 -4.6539 6.7827
# 5 16.8322 8.9642 2.2178 -4.6539 35.7014 -6.6959
# 6 26.7185 6.7501 6.8416 6.7827 -6.6959 56.4395
#
#
#
# Elastic Compliance Matrix: (Units=1/GPa)
#
#
# Indices 1 2 3 4 5 6 
#
# 1 0.006836 -0.004050 -0.012998 -0.014355 -0.003239 0.000164
# 2 -0.004050 0.012967 -0.009072 0.007058 0.000259 0.000649
# 3 -0.012998 -0.009072 -0.001607 -0.040858 0.005620 0.013010
# 4 -0.014355 0.007058 -0.040858 -0.013913 0.008263 0.013556
# 5 -0.003239 0.000259 0.005620 0.008263 0.030854 0.003489
# 6 0.000164 0.000649 0.013010 0.013556 0.003489 0.014770
#
#
# Mechanical properties :
#
#
# Convention : Reuss Voigt Hill
#
# Bulk Modulus (GPa) = -29.37239 41.73068 6.17914
# Shear Modulus (GPa) = 55.06550 35.22273 45.14412
#
# Velocity S-wave (km/s) = 4.98489 3.98682 4.51353
# Velocity P-wave (km/s) = 4.45841 6.32650 5.47275
#
# Compressibility (1/GPa) = -0.03404558
#
# Stress axis : x y z
#
# Youngs Moduli (GPa) = 146.27386 77.12136 -622.29049
#
# Poissons Ratio (x) = 0.31237 -8.08868
# Poissons Ratio (y) = 0.59246 -5.64559
# Poissons Ratio (z) = 1.90130 0.69967
#
# Static dielectric constant tensor:
#      x y z
#    x 1.858420 0.041130 -0.056450 
#    y 0.041130 1.847700 0.048020 
#    z -0.056450 0.048020 2.071150 
# 
# From -- ./inp_files/620008.got.cif
#   From: 2010.05.17/outbox.ucp.g08.bks.cvg/sg2_311_cif.got.tgz:620008.got - 2010.06.11 11:32:03.
