data_PCOD9074908
_publ_section_title
;
Structure prediction by ZEFSAII (Michael W. Deem and Ramdas Pophale) SiO2 
 PCOD9074908
Probable space group: P -1
;
_chemical_formula_sum "Si O2"
_cell_formula_units_Z 16
_cell_length_a 12.000000
_cell_length_b 21.000000
_cell_length_c 18.000000
_cell_angle_alpha 160.000000
_cell_angle_beta 30.000000
_cell_angle_gamma 140.000000
_cell_volume 744.844803
_symmetry_space_group_name_H-M "P -1"
_symmetry_group_IT_number 2
_symmetry_cell_setting 'triclinic'
loop_
_space_group_symop_operation_xyz
x,y,z
-x,-y,-z
loop_
_atom_site_type_symbol
_atom_site_label
_atom_site_fract_x
_atom_site_fract_y
_atom_site_fract_z
Si Si1 0.142400 0.812742 0.600259
Si Si2 0.195638 0.831347 0.871475
Si Si3 0.068400 0.854512 0.232878
Si Si4 0.804178 0.627723 0.883198
Si Si5 0.351471 0.243012 0.716200
Si Si6 0.396970 0.435225 0.566516
Si Si7 0.840202 0.905689 0.673744
Si Si8 0.687637 0.320121 0.812813
O O1 0.124940 0.606347 0.414985
O O2 0.371031 0.860066 0.554809
O O3 0.224483 0.755344 0.404035
O O4 0.903132 0.986619 0.929258
O O5 0.429282 0.661822 0.572107
O O6 0.008254 0.714538 0.838163
O O7 0.173114 0.953534 0.094796
O O8 0.833243 0.844331 0.314142
O O9 0.237814 0.949190 0.190183
O O10 0.210975 0.630208 0.916313
O O11 0.000000 0.000000 0.500000
O O12 0.736246 0.707126 0.093554
O O13 0.566886 0.703929 0.057668
O O14 0.332993 0.453783 0.923524
O O15 0.500000 0.500000 0.500000
O O16 0.280930 0.262148 0.425010
O O17 0.107500 0.795808 0.381172
#
# Coordination Sequence:
#
# PCOD9074908 Si02
#       8
#     2   2   2   2   2   2   2   2
#     4   8  18  27  51  84 117 149 187 240 311 358
#     4  11  21  30  58  91 120 154 193 243 312 374
#     4  12  26  41  62  88 121 169 211 249 296 352
#     4   9  16  30  51  88 125 148 183 252 312 354
#     4   9  15  35  51  78 121 151 191 252 294 346
#     4  12  25  42  61  86 129 163 202 253 302 359
#     4  11  22  37  61  89 121 164 204 245 305 362
#     4   8  16  29  54  85 122 150 188 248 314 353
#
# _framework density 21.480985
#
# number of rings (size 3 to 8) (size 9 to 14) (size 15 to 20)
#    0.000    2.000    3.750    1.875    5.250    2.000 
#    0.000    0.000    0.000    0.750    0.000    2.625 
#    0.000    0.000    0.000    0.000    0.000    0.000 
#
# Total GULP energy -89116.796330 kJ/mol
# GULP energy per Si atom -5569.799771 kJ/mol
# Density = 2.143209 g / cm^3
# Si number density = 21.480985 Si / 1000 Ang^3
#
#
#
# Elastic Constant Matrix: (Units=GPa)
#
#
# Indices 1 2 3 4 5 6 
#
# 1 49.4315 28.0098 32.2864 2.3381 -17.5802 21.8730
# 2 28.0098 93.5766 34.0711 30.8744 1.7081 29.6371
# 3 32.2864 34.0711 76.9407 14.7518 -22.9128 4.5073
# 4 2.3381 30.8744 14.7518 22.2536 2.2360 0.2872
# 5 -17.5802 1.7081 -22.9128 2.2360 32.6733 1.5691
# 6 21.8730 29.6371 4.5073 0.2872 1.5691 21.0558
#
#
#
# Elastic Compliance Matrix: (Units=1/GPa)
#
#
# Indices 1 2 3 4 5 6 
#
# 1 0.278620 0.267650 -0.094873 -0.341783 0.124016 -0.650434
# 2 0.267650 0.365350 -0.102349 -0.469476 0.122393 -0.773093
# 3 -0.094873 -0.102349 0.054567 0.115465 -0.026442 0.231331
# 4 -0.341783 -0.469476 0.115465 0.660024 -0.171331 0.994905
# 5 0.124016 0.122393 -0.026442 -0.171331 0.098546 -0.300449
# 6 -0.650434 -0.773093 0.231331 0.994905 -0.300449 1.770634
#
#
# Mechanical properties :
#
#
# Convention : Reuss Voigt Hill
#
# Bulk Modulus (GPa) = 1.19134 45.40927 23.30030
# Shear Modulus (GPa) = 1.48514 23.56866 12.52690
#
# Velocity S-wave (km/s) = 0.83239 3.31597 2.41750
# Velocity P-wave (km/s) = 1.21640 5.98716 4.32005
#
# Compressibility (1/GPa) = 0.83939231
#
# Stress axis : x y z
#
# Youngs Moduli (GPa) = 3.58912 2.73710 18.32613
#
# Poissons Ratio (x) = -0.73258 1.73866
# Poissons Ratio (y) = -0.96063 1.87567
# Poissons Ratio (z) = 0.34051 0.28014
#
# Static dielectric constant tensor:
#      x y z
#    x 1.824250 -0.010390 -0.075670 
#    y -0.010390 1.795500 -0.009240 
#    z -0.075670 -0.009240 1.816790 
# 
# From -- ./inp_files/446488.got.cif
#   From: 2010.05.17/outbox.ucp.g08.bks.cvg/sg2_224_cif.got.tgz:446488.got - 2010.06.11 11:32:03.
