data_PCOD9074451
_publ_section_title
;
Structure prediction by ZEFSAII (Michael W. Deem and Ramdas Pophale) SiO2 
 PCOD9074451
Probable space group: P -1
;
_chemical_formula_sum "Si O2"
_cell_formula_units_Z 16
_cell_length_a 6.000000
_cell_length_b 18.000000
_cell_length_c 21.000000
_cell_angle_alpha 20.000000
_cell_angle_beta 70.000000
_cell_angle_gamma 70.000000
_cell_volume 727.418465
_symmetry_space_group_name_H-M "P -1"
_symmetry_group_IT_number 2
_symmetry_cell_setting 'triclinic'
loop_
_space_group_symop_operation_xyz
x,y,z
-x,-y,-z
loop_
_atom_site_type_symbol
_atom_site_label
_atom_site_fract_x
_atom_site_fract_y
_atom_site_fract_z
Si Si1 0.433925 0.526734 0.247651
Si Si2 0.106527 0.269311 0.017236
Si Si3 0.178112 0.678113 0.360802
Si Si4 0.501916 0.749100 0.776440
Si Si5 0.000678 0.845917 0.020443
Si Si6 0.930733 0.920512 0.689488
Si Si7 0.638544 0.501892 0.382819
Si Si8 0.196943 0.321775 0.315313
O O1 0.653836 0.619116 0.114559
O O2 0.521986 0.424572 0.389376
O O3 0.299034 0.378170 0.329839
O O4 0.252541 0.739026 0.105368
O O5 0.905854 0.465379 0.883917
O O6 0.020140 0.154510 0.054251
O O7 0.139879 0.131785 0.188893
O O8 0.427401 0.620285 0.348624
O O9 0.228198 0.659816 0.447656
O O10 0.000000 0.500000 0.500000
O O11 0.068778 0.904610 0.160179
O O12 0.713122 0.847515 0.722825
O O13 0.600439 0.770836 0.677530
O O14 0.216024 0.826961 0.737268
O O15 0.500000 0.500000 0.000000
O O16 0.815670 0.680539 0.198590
O O17 0.978668 0.169215 0.468832
#
# Coordination Sequence:
#
# PCOD9074451 Si02
#       8
#     2   2   2   2   2   2   2   2
#     4  10  23  44  71  93 138 182 229 288 348 418
#     4  10  24  43  66  95 134 184 225 287 346 416
#     4  11  24  41  69 100 136 174 229 282 348 414
#     4  12  25  46  74 101 143 184 237 294 356 420
#     4  10  23  44  64  97 135 179 228 278 352 411
#     4  12  27  44  71 106 137 188 235 297 353 419
#     4  10  23  43  66  99 131 180 222 283 346 415
#     4  11  25  44  69  99 136 178 231 286 354 416
#
# _framework density 21.995591999999998
#
# number of rings (size 3 to 8) (size 9 to 14) (size 15 to 20)
#    0.000    1.250    1.250    3.000    5.250   10.000 
#    0.000    1.250    0.000    0.000    0.000    0.000 
#    0.000    0.000    0.000    0.000    0.000    0.000 
#
# Total GULP energy -89286.416780 kJ/mol
# GULP energy per Si atom -5580.401049 kJ/mol
# Density = 2.194553 g / cm^3
# Si number density = 21.995592 Si / 1000 Ang^3
#
#
#
# Elastic Constant Matrix: (Units=GPa)
#
#
# Indices 1 2 3 4 5 6 
#
# 1 120.1511 25.4416 2.9960 1.1245 4.5594 3.5623
# 2 25.4416 84.0113 23.5247 32.7927 4.7359 2.3415
# 3 2.9960 23.5247 59.4764 17.0087 7.4885 -0.8757
# 4 1.1245 32.7927 17.0087 30.9742 2.4018 10.7408
# 5 4.5594 4.7359 7.4885 2.4018 33.2078 1.6257
# 6 3.5623 2.3415 -0.8757 10.7408 1.6257 47.2546
#
#
#
# Elastic Compliance Matrix: (Units=1/GPa)
#
#
# Indices 1 2 3 4 5 6 
#
# 1 0.009391 -0.004886 -0.000024 0.005500 -0.000902 -0.001685
# 2 -0.004886 0.023831 -0.001616 -0.025864 -0.000741 0.005062
# 3 -0.000024 -0.001616 0.021009 -0.010566 -0.003887 0.003007
# 4 0.005500 -0.025864 -0.010566 0.070533 0.000968 -0.015394
# 5 -0.000902 -0.000741 -0.003887 0.000968 0.031211 -0.001261
# 6 -0.001685 0.005062 0.003007 -0.015394 -0.001261 0.024636
#
#
# Mechanical properties :
#
#
# Convention : Reuss Voigt Hill
#
# Bulk Modulus (GPa) = 24.28422 40.84038 32.56230
# Shear Modulus (GPa) = 24.10919 36.39910 30.25414
#
# Velocity S-wave (km/s) = 3.31432 4.07238 3.71275
# Velocity P-wave (km/s) = 5.07058 6.38124 5.76329
#
# Compressibility (1/GPa) = 0.04117901
#
# Stress axis : x y z
#
# Youngs Moduli (GPa) = 106.48756 41.96137 47.59852
#
# Poissons Ratio (x) = 0.20502 0.00117
# Poissons Ratio (y) = 0.52028 0.07691
# Poissons Ratio (z) = 0.00261 0.06780
#
# Static dielectric constant tensor:
#      x y z
#    x 1.863550 -0.043660 0.015400 
#    y -0.043660 1.881940 -0.067270 
#    z 0.015400 -0.067270 1.808230 
# 
# From -- ./inp_files/143174.got.cif
#   From: 2010.05.17/outbox.ucp.g08.bks.cvg/sg2_72_cif.got.tgz:143174.got - 2010.06.11 11:32:03.
