data_PCOD9074035
_publ_section_title
;
Structure prediction by ZEFSAII (Michael W. Deem and Ramdas Pophale) SiO2 
 PCOD9074035
Probable space group: P -1
;
_chemical_formula_sum "Si O2"
_cell_formula_units_Z 16
_cell_length_a 18.000000
_cell_length_b 12.000000
_cell_length_c 21.000000
_cell_angle_alpha 40.000000
_cell_angle_beta 20.000000
_cell_angle_gamma 30.000000
_cell_volume 744.844803
_symmetry_space_group_name_H-M "P -1"
_symmetry_group_IT_number 2
_symmetry_cell_setting 'triclinic'
loop_
_space_group_symop_operation_xyz
x,y,z
-x,-y,-z
loop_
_atom_site_type_symbol
_atom_site_label
_atom_site_fract_x
_atom_site_fract_y
_atom_site_fract_z
Si Si1 0.705417 0.887199 0.695234
Si Si2 0.476836 0.875786 0.748104
Si Si3 0.319026 0.376717 0.063992
Si Si4 0.195378 0.711871 0.114185
Si Si5 0.671417 0.239438 0.318919
Si Si6 0.289011 0.433786 0.770230
Si Si7 0.163071 0.398858 0.744329
Si Si8 0.373115 0.472938 0.322909
O O1 0.651870 0.834661 0.689951
O O2 0.576457 0.838268 0.879778
O O3 0.053152 0.695531 0.508523
O O4 0.554097 0.158486 0.693816
O O5 0.640502 0.699314 0.633208
O O6 0.258673 0.150679 0.790956
O O7 0.282757 0.819468 0.950306
O O8 0.125029 0.586544 0.180492
O O9 0.150354 0.411601 0.119778
O O10 0.536627 0.411313 0.846465
O O11 0.500000 0.500000 0.000000
O O12 0.912950 0.959655 0.263285
O O13 0.713076 0.387341 0.265515
O O14 0.371014 0.331803 0.547939
O O15 0.600438 0.322843 0.264860
O O16 0.241718 0.463537 0.717747
O O17 0.000000 0.500000 0.000000
#
# Coordination Sequence:
#
# PCOD9074035 Si02
#       8
#     2   2   2   2   2   2   2   2
#     4  11  23  45  70 100 141 176 229 286 329 409
#     4  10  22  41  65 103 140 179 222 274 345 401
#     4  11  23  43  70 106 137 179 225 279 351 388
#     4  11  23  39  70  98 139 175 220 282 334 411
#     4  12  25  44  68 101 136 182 229 276 346 402
#     4  11  26  49  70  92 136 184 229 282 335 407
#     4  11  24  44  69  99 136 181 230 278 338 412
#     4  11  24  41  71 105 141 178 223 285 338 409
#
# _framework density 21.480985
#
# number of rings (size 3 to 8) (size 9 to 14) (size 15 to 20)
#    0.000    1.000    2.500    4.500    1.750    7.500 
#    2.250    1.250    0.000    0.000    0.000    0.000 
#    0.000    0.000    0.000    0.000    0.000    0.000 
#
# Total GULP energy -89117.333183 kJ/mol
# GULP energy per Si atom -5569.833324 kJ/mol
# Density = 2.143209 g / cm^3
# Si number density = 21.480985 Si / 1000 Ang^3
#
#
#
# Elastic Constant Matrix: (Units=GPa)
#
#
# Indices 1 2 3 4 5 6 
#
# 1 143.6272 45.2967 -2.8898 -1.9883 -3.6771 -14.2604
# 2 45.2967 82.7962 -2.8547 2.5355 -10.4267 0.6381
# 3 -2.8898 -2.8547 53.8677 4.1860 5.2035 -6.2019
# 4 -1.9883 2.5355 4.1860 37.7339 -5.7395 3.6421
# 5 -3.6771 -10.4267 5.2035 -5.7395 34.7132 -1.9333
# 6 -14.2604 0.6381 -6.2019 3.6421 -1.9333 40.5329
#
#
#
# Elastic Compliance Matrix: (Units=1/GPa)
#
#
# Indices 1 2 3 4 5 6 
#
# 1 0.008834 -0.004897 0.000595 0.000359 -0.000385 0.003226
# 2 -0.004897 0.015276 0.000014 -0.000528 0.003884 -0.001729
# 3 0.000595 0.000014 0.019510 -0.002934 -0.003158 0.003307
# 4 0.000359 -0.000528 -0.002934 0.027858 0.004781 -0.002590
# 5 -0.000385 0.003884 -0.003158 0.004781 0.031218 0.000379
# 6 0.003226 -0.001729 0.003307 -0.002590 0.000379 0.026590
#
#
# Mechanical properties :
#
#
# Convention : Reuss Voigt Hill
#
# Bulk Modulus (GPa) = 28.53510 39.93283 34.23396
# Shear Modulus (GPa) = 33.43474 38.64528 36.04001
#
# Velocity S-wave (km/s) = 3.94951 4.24612 4.10049
# Velocity P-wave (km/s) = 5.84045 6.53219 6.19598
#
# Compressibility (1/GPa) = 0.03504456
#
# Stress axis : x y z
#
# Youngs Moduli (GPa) = 113.19673 65.46230 51.25448
#
# Poissons Ratio (x) = 0.32056 -0.03050
# Poissons Ratio (y) = 0.55431 -0.00070
# Poissons Ratio (z) = -0.06737 -0.00090
#
# Static dielectric constant tensor:
#      x y z
#    x 1.870990 0.056650 -0.055010 
#    y 0.056650 1.945320 -0.078610 
#    z -0.055010 -0.078610 1.948160 
# 
# From -- ./inp_files/447141.got.cif
#   From: 2010.05.17/outbox.ucp.g08.bks.cvg/sg2_224_cif.got.tgz:447141.got - 2010.06.11 11:32:03.
