data_PCOD9074804
_publ_section_title
;
Structure prediction by ZEFSAII (Michael W. Deem and Ramdas Pophale) SiO2 
 PCOD9074804
Probable space group: P -1
;
_chemical_formula_sum "Si O2"
_cell_formula_units_Z 15
_cell_length_a 9.000000
_cell_length_b 9.000000
_cell_length_c 15.000000
_cell_angle_alpha 40.000000
_cell_angle_beta 60.000000
_cell_angle_gamma 80.000000
_cell_volume 626.690879
_symmetry_space_group_name_H-M "P -1"
_symmetry_group_IT_number 2
_symmetry_cell_setting 'triclinic'
loop_
_space_group_symop_operation_xyz
x,y,z
-x,-y,-z
loop_
_atom_site_type_symbol
_atom_site_label
_atom_site_fract_x
_atom_site_fract_y
_atom_site_fract_z
Si Si1 0.220509 0.532462 0.092292
Si Si2 0.827115 0.242414 0.157240
Si Si3 0.892004 0.773152 0.342212
Si Si4 0.500000 0.000000 0.500000
Si Si5 0.477730 0.519100 0.647576
Si Si6 0.541344 0.012171 0.085353
Si Si7 0.123350 0.564371 0.654603
Si Si8 0.183665 0.977724 0.317501
O O1 0.010113 0.503300 0.189965
O O2 0.219280 0.262587 0.196912
O O3 0.299357 0.696530 0.905610
O O4 0.331407 0.704383 0.059941
O O5 0.702352 0.106705 0.340296
O O6 0.894832 0.038247 0.187289
O O7 0.000000 0.500000 0.000000
O O8 0.680806 0.599647 0.507557
O O9 0.955749 0.635093 0.308967
O O10 0.018178 0.842958 0.359855
O O11 0.497801 0.291213 0.364648
O O12 0.331418 0.592209 0.600493
O O13 0.392327 0.219362 0.815736
O O14 0.361645 0.958205 0.225409
O O15 0.500000 0.000000 0.000000
O O16 0.137101 0.828175 0.491780
#
# Coordination Sequence:
#
# PCOD9074804 Si02
#       8
#     2   2   2   1   2   2   2   2
#     4  12  28  47  74 114 153 198 253 317 378 457
#     4  11  23  46  74 110 150 192 253 311 382 452
#     4  11  24  46  77 106 149 196 254 311 379 457
#     4  10  26  42  78 110 148 192 244 318 378 448
#     4  11  26  46  77 111 143 198 253 314 378 458
#     4  12  29  48  74 108 154 199 251 315 385 451
#     4  12  26  46  76 110 147 199 253 315 381 454
#     4  12  27  48  74 108 152 204 249 310 382 454
#
# _framework density 23.935244999999998
#
# number of rings (size 3 to 8) (size 9 to 14) (size 15 to 20)
#    0.000    0.533    2.667    4.000    9.333    5.333 
#    0.000    0.000    0.000    0.000    0.000    0.000 
#    0.000    0.000    0.000    0.000    0.000    0.000 
#
# Total GULP energy -83586.045090 kJ/mol
# GULP energy per Si atom -5572.403006 kJ/mol
# Density = 2.388077 g / cm^3
# Si number density = 23.935245 Si / 1000 Ang^3
#
#
#
# Elastic Constant Matrix: (Units=GPa)
#
#
# Indices 1 2 3 4 5 6 
#
# 1 59.0745 32.8010 51.5329 -22.2490 5.3706 8.9364
# 2 32.8010 102.6546 12.8453 -10.6469 -2.9961 -13.3274
# 3 51.5329 12.8453 51.0231 -2.8356 -4.4349 1.9823
# 4 -22.2490 -10.6469 -2.8356 35.0358 -5.4779 3.6157
# 5 5.3706 -2.9961 -4.4349 -5.4779 31.4153 -5.8213
# 6 8.9364 -13.3274 1.9823 3.6157 -5.8213 37.4578
#
#
#
# Elastic Compliance Matrix: (Units=1/GPa)
#
#
# Indices 1 2 3 4 5 6 
#
# 1 -0.083729 0.017273 0.079023 -0.040608 0.025564 0.029832
# 2 0.017273 0.007396 -0.018881 0.011387 -0.003318 -0.002105
# 3 0.079023 -0.018881 -0.053958 0.039798 -0.021529 -0.029902
# 4 -0.040608 0.011387 0.039798 0.010873 0.018022 0.013385
# 5 0.025564 -0.003318 -0.021529 0.018022 0.026553 -0.003753
# 6 0.029832 -0.002105 -0.029902 0.013385 -0.003753 0.018538
#
#
# Mechanical properties :
#
#
# Convention : Reuss Voigt Hill
#
# Bulk Modulus (GPa) = 40.75226 45.23451 42.99339
# Shear Modulus (GPa) = -22.62669 28.48664 2.92998
#
# Velocity S-wave (km/s) = -3.07796 3.45360 1.10760
# Velocity P-wave (km/s) = 2.10505 5.90279 4.43137
#
# Compressibility (1/GPa) = 0.02453852
#
# Stress axis : x y z
#
# Youngs Moduli (GPa) = -11.94334 135.21305 -18.53285
#
# Poissons Ratio (x) = -2.33552 1.46452
# Poissons Ratio (y) = 0.20630 -0.34992
# Poissons Ratio (z) = 0.94380 2.55298
#
# Static dielectric constant tensor:
#      x y z
#    x 2.041540 0.082370 0.024370 
#    y 0.082370 1.729310 0.115060 
#    z 0.024370 0.115060 1.868100 
# 
# From -- ./inp_files/244473.got.cif
#   From: 2010.05.17/outbox.ucp.g08.bks.cvg/sg2_123_cif.got.tgz:244473.got - 2010.06.11 11:32:03.
