data_PCOD9074306
_publ_section_title
;
Structure prediction by ZEFSAII (Michael W. Deem and Ramdas Pophale) SiO2 
 PCOD9074306
Probable space group: P -1
;
_chemical_formula_sum "Si O2"
_cell_formula_units_Z 15
_cell_length_a 9.000000
_cell_length_b 9.000000
_cell_length_c 12.000000
_cell_angle_alpha 40.000000
_cell_angle_beta 100.000000
_cell_angle_gamma 100.000000
_cell_volume 614.029152
_symmetry_space_group_name_H-M "P -1"
_symmetry_group_IT_number 2
_symmetry_cell_setting 'triclinic'
loop_
_space_group_symop_operation_xyz
x,y,z
-x,-y,-z
loop_
_atom_site_type_symbol
_atom_site_label
_atom_site_fract_x
_atom_site_fract_y
_atom_site_fract_z
Si Si1 0.877168 0.093369 0.013031
Si Si2 0.361810 0.235770 0.712464
Si Si3 0.993608 0.737932 0.694255
Si Si4 0.137271 0.347394 0.034004
Si Si5 0.748035 0.514557 0.657271
Si Si6 0.450487 0.160969 0.144701
Si Si7 0.512663 0.459173 0.244976
Si Si8 0.500000 0.000000 0.500000
O O1 0.757825 0.247026 0.845708
O O2 0.977629 0.250973 0.019696
O O3 0.788766 0.902338 0.185121
O O4 0.000000 0.000000 0.000000
O O5 0.317399 0.420466 0.507261
O O6 0.430966 0.354283 0.763269
O O7 0.473059 0.053369 0.780145
O O8 0.883514 0.697535 0.811488
O O9 0.918708 0.608024 0.651428
O O10 0.140642 0.611991 0.833873
O O11 0.000000 0.000000 0.500000
O O12 0.273124 0.207707 0.083890
O O13 0.643543 0.646489 0.656513
O O14 0.473759 0.117879 0.303868
O O15 0.518992 0.393497 0.954512
O O16 0.609958 0.236454 0.402526
#
# Coordination Sequence:
#
# PCOD9074306 Si02
#       8
#     2   2   2   2   2   2   2   1
#     4  11  25  46  72 103 146 195 246 311 368 441
#     4  12  26  46  80 107 150 195 246 312 378 440
#     4  10  22  46  70  96 146 200 241 298 364 439
#     4  10  24  42  70 105 140 191 249 299 363 442
#     4  11  24  44  71 107 143 191 248 303 369 438
#     4  12  26  47  76 114 147 193 251 308 378 442
#     4  12  26  46  72 111 144 197 241 308 375 441
#     4  12  28  46  70 112 154 190 240 312 364 452
#
# _framework density 24.428808
#
# number of rings (size 3 to 8) (size 9 to 14) (size 15 to 20)
#    0.000    0.800    2.667    3.600    1.867    2.667 
#    4.800    0.000    0.000    0.000    0.000    0.000 
#    0.000    0.000    0.000    0.000    0.000    0.000 
#
# Total GULP energy -83508.720405 kJ/mol
# GULP energy per Si atom -5567.248027 kJ/mol
# Density = 2.437321 g / cm^3
# Si number density = 24.428808 Si / 1000 Ang^3
#
#
#
# Elastic Constant Matrix: (Units=GPa)
#
#
# Indices 1 2 3 4 5 6 
#
# 1 79.0688 -2.0619 18.9783 12.0226 2.3843 -1.6772
# 2 -2.0619 47.4273 36.5529 14.9483 0.8799 3.5807
# 3 18.9783 36.5529 215.1802 27.5813 2.4122 14.0212
# 4 12.0226 14.9483 27.5813 35.4624 5.0558 -4.5088
# 5 2.3843 0.8799 2.4122 5.0558 30.1975 12.3160
# 6 -1.6772 3.5807 14.0212 -4.5088 12.3160 16.0761
#
#
#
# Elastic Compliance Matrix: (Units=1/GPa)
#
#
# Indices 1 2 3 4 5 6 
#
# 1 0.013770 0.002939 -0.001154 -0.004793 -0.000668 0.000957
# 2 0.002939 0.028256 -0.002609 -0.013375 0.006452 -0.012406
# 3 -0.001154 -0.002609 0.006553 -0.005656 0.004917 -0.010608
# 4 -0.004793 -0.013375 -0.005656 0.047844 -0.022233 0.037864
# 5 -0.000668 0.006452 0.004917 -0.022233 0.059948 -0.057958
# 6 0.000957 -0.012406 -0.010608 0.037864 -0.057958 0.129342
#
#
# Mechanical properties :
#
#
# Convention : Reuss Voigt Hill
#
# Bulk Modulus (GPa) = 21.30771 49.84610 35.57690
# Shear Modulus (GPa) = 16.50139 35.56100 26.03119
#
# Velocity S-wave (km/s) = 2.60184 3.81950 3.26789
# Velocity P-wave (km/s) = 4.21514 6.31668 5.36972
#
# Compressibility (1/GPa) = 0.04693137
#
# Stress axis : x y z
#
# Youngs Moduli (GPa) = 72.62126 35.39100 152.59564
#
# Poissons Ratio (x) = -0.10401 0.17614
# Poissons Ratio (y) = -0.21343 0.39805
# Poissons Ratio (z) = 0.08382 0.09232
#
# Static dielectric constant tensor:
#      x y z
#    x 1.819760 0.118680 -0.227380 
#    y 0.118680 2.062300 0.005520 
#    z -0.227380 0.005520 1.793140 
# 
# From -- ./inp_files/380889.got.cif
#   From: 2010.05.17/outbox.ucp.g08.bks.cvg/sg2_191_cif.got.tgz:380889.got - 2010.06.11 11:32:03.
