data_PCOD9074839
_publ_section_title
;
Structure prediction by ZEFSAII (Michael W. Deem and Ramdas Pophale) SiO2 
 PCOD9074839
Probable space group: P -1
;
_chemical_formula_sum "Si O2"
_cell_formula_units_Z 16
_cell_length_a 18.000000
_cell_length_b 12.000000
_cell_length_c 21.000000
_cell_angle_alpha 30.000000
_cell_angle_beta 20.000000
_cell_angle_gamma 40.000000
_cell_volume 744.844803
_symmetry_space_group_name_H-M "P -1"
_symmetry_group_IT_number 2
_symmetry_cell_setting 'triclinic'
loop_
_space_group_symop_operation_xyz
x,y,z
-x,-y,-z
loop_
_atom_site_type_symbol
_atom_site_label
_atom_site_fract_x
_atom_site_fract_y
_atom_site_fract_z
Si Si1 0.378372 0.789919 0.153412
Si Si2 0.258273 0.942006 0.646745
Si Si3 0.156754 0.010537 0.112260
Si Si4 0.153943 0.255210 0.224630
Si Si5 0.067839 0.382615 0.087957
Si Si6 0.258557 0.068542 0.732317
Si Si7 0.427751 0.715221 0.419503
Si Si8 0.778363 0.441802 0.475086
O O1 0.255994 0.617907 0.392738
O O2 0.220366 0.857312 0.193597
O O3 0.584139 0.723871 0.984632
O O4 0.500000 0.000000 0.000000
O O5 0.522824 0.005553 0.381557
O O6 0.094482 0.058125 0.681167
O O7 0.250801 0.013691 0.690905
O O8 0.149204 0.660090 0.876030
O O9 0.167552 0.256503 0.015380
O O10 0.346901 0.069715 0.874261
O O11 0.146345 0.299017 0.133275
O O12 0.039001 0.444127 0.252460
O O13 0.000000 0.000000 0.500000
O O14 0.794504 0.283495 0.361474
O O15 0.318656 0.340947 0.560814
O O16 0.000000 0.000000 0.000000
O O17 0.500000 0.500000 0.500000
O O18 0.338007 0.699892 0.424833
#
# Coordination Sequence:
#
# PCOD9074839 Si02
#       8
#     2   2   2   2   2   2   2   2
#     4  12  20  38  61  91 129 165 195 243 309 379
#     4  11  25  40  61  91 120 160 215 256 307 368
#     4  12  23  37  60  95 134 161 195 255 314 374
#     4  11  19  33  56  89 123 157 201 235 294 368
#     4  11  21  35  60  91 129 160 194 250 315 373
#     4  11  25  45  64  84 119 166 217 261 305 361
#     4  11  21  32  56  93 129 159 190 242 315 374
#     4  11  23  39  63  89 123 166 206 250 307 367
#
# _framework density 21.480985
#
# number of rings (size 3 to 8) (size 9 to 14) (size 15 to 20)
#    0.000    0.750    5.000    4.125    1.750    1.000 
#    0.000    0.625    0.000    1.500    0.000    0.000 
#    0.000    0.000    0.000    0.000    0.000    0.000 
#
# Total GULP energy -89201.432859 kJ/mol
# GULP energy per Si atom -5575.089554 kJ/mol
# Density = 2.143209 g / cm^3
# Si number density = 21.480985 Si / 1000 Ang^3
#
#
#
# Elastic Constant Matrix: (Units=GPa)
#
#
# Indices 1 2 3 4 5 6 
#
# 1 100.5285 15.2378 30.8726 19.0167 -4.9312 -46.8762
# 2 15.2378 78.8548 18.9818 46.1284 -16.0293 -14.3530
# 3 30.8726 18.9818 80.5233 48.2037 -0.8031 -10.5682
# 4 19.0167 46.1284 48.2037 42.5888 -9.0651 -6.8541
# 5 -4.9312 -16.0293 -0.8031 -9.0651 31.5973 8.8719
# 6 -46.8762 -14.3530 -10.5682 -6.8541 8.8719 48.4167
#
#
#
# Elastic Compliance Matrix: (Units=1/GPa)
#
#
# Indices 1 2 3 4 5 6 
#
# 1 0.019952 -0.004381 -0.010408 0.010132 -0.001361 0.017430
# 2 -0.004381 -0.053274 -0.074990 0.145170 0.017378 -0.019037
# 3 -0.010408 -0.074990 -0.059952 0.151621 0.009517 -0.025674
# 4 0.010132 0.145170 0.151621 -0.307105 -0.022087 0.046512
# 5 -0.001361 0.017378 0.009517 -0.022087 0.035185 -0.003662
# 6 0.017430 -0.019037 -0.025674 0.046512 -0.003662 0.033538
#
#
# Mechanical properties :
#
#
# Convention : Reuss Voigt Hill
#
# Bulk Modulus (GPa) = -3.66524 43.34343 19.83910
# Shear Modulus (GPa) = -20.57263 37.50820 8.46779
#
# Velocity S-wave (km/s) = -3.09805 4.18318 1.98760
# Velocity P-wave (km/s) = 3.80883 6.59950 3.81092
#
# Compressibility (1/GPa) = -0.27283377
#
# Stress axis : x y z
#
# Youngs Moduli (GPa) = 50.11956 -18.77074 -16.67987
#
# Poissons Ratio (x) = -0.08223 -0.17361
# Poissons Ratio (y) = 0.21957 -1.25083
# Poissons Ratio (z) = 0.52165 -1.40763
#
# Static dielectric constant tensor:
#      x y z
#    x 1.827230 -0.020200 -0.038470 
#    y -0.020200 1.825780 -0.101830 
#    z -0.038470 -0.101830 2.106540 
# 
# From -- ./inp_files/579777.got.cif
#   From: 2010.05.17/outbox.ucp.g08.bks.cvg/sg2_290_cif.got.tgz:579777.got - 2010.06.11 11:32:03.
