data_PCOD9074034
_publ_section_title
;
Structure prediction by ZEFSAII (Michael W. Deem and Ramdas Pophale) SiO2 
 PCOD9074034
Probable space group: P -1
;
_chemical_formula_sum "Si O2"
_cell_formula_units_Z 16
_cell_length_a 12.000000
_cell_length_b 12.000000
_cell_length_c 12.000000
_cell_angle_alpha 120.000000
_cell_angle_beta 50.000000
_cell_angle_gamma 80.000000
_cell_volume 763.164900
_symmetry_space_group_name_H-M "P -1"
_symmetry_group_IT_number 2
_symmetry_cell_setting 'triclinic'
loop_
_space_group_symop_operation_xyz
x,y,z
-x,-y,-z
loop_
_atom_site_type_symbol
_atom_site_label
_atom_site_fract_x
_atom_site_fract_y
_atom_site_fract_z
Si Si1 0.536215 0.688887 0.519364
Si Si2 0.005929 0.273765 0.079555
Si Si3 0.831236 0.100557 0.294809
Si Si4 0.523180 0.652857 0.173703
Si Si5 0.503569 0.630864 0.917039
Si Si6 0.230862 0.324642 0.821623
Si Si7 0.736673 0.052492 0.962741
Si Si8 0.005093 0.642361 0.612779
O O1 0.762152 0.465003 0.285679
O O2 0.596851 0.764244 0.432275
O O3 0.356494 0.724504 0.583079
O O4 0.437085 0.809227 0.757189
O O5 0.015653 0.323854 0.223362
O O6 0.063511 0.087112 0.934182
O O7 0.192416 0.217929 0.856458
O O8 0.034922 0.045248 0.182958
O O9 0.691800 0.162413 0.526996
O O10 0.561909 0.475975 0.084593
O O11 0.716021 0.606378 0.082745
O O12 0.499039 0.687560 0.074631
O O13 0.754188 0.467214 0.631965
O O14 0.353406 0.810508 0.017768
O O15 0.000000 0.500000 0.000000
O O16 0.806133 0.858954 0.798284
O O17 0.000000 0.500000 0.500000
#
# Coordination Sequence:
#
# PCOD9074034 Si02
#       8
#     2   2   2   2   2   2   2   2
#     4  10  22  41  65 102 139 172 228 282 348 408
#     4  11  23  42  69 101 138 183 223 290 352 403
#     4  11  24  40  70 103 138 174 233 289 348 410
#     4  10  23  47  69 102 143 185 231 293 337 419
#     4  11  25  47  71  98 142 187 238 280 348 413
#     4   9  21  40  66 102 135 180 223 280 352 399
#     4  12  25  43  69 105 135 184 232 285 350 416
#     4  12  26  47  69  99 142 183 234 284 348 422
#
# _framework density 20.965325
#
# number of rings (size 3 to 8) (size 9 to 14) (size 15 to 20)
#    0.000    1.250    3.750    1.125    5.250    3.500 
#    2.250    2.500    0.000    0.000    0.000    0.000 
#    0.000    0.000    0.000    0.000    0.000    0.000 
#
# Total GULP energy -89356.951615 kJ/mol
# GULP energy per Si atom -5584.809476 kJ/mol
# Density = 2.091761 g / cm^3
# Si number density = 20.965325 Si / 1000 Ang^3
#
#
#
# Elastic Constant Matrix: (Units=GPa)
#
#
# Indices 1 2 3 4 5 6 
#
# 1 117.2026 57.5928 39.6719 6.4877 8.9298 -13.3885
# 2 57.5928 127.8019 48.3105 2.5580 3.5661 -28.4175
# 3 39.6719 48.3105 99.4582 3.9204 7.4834 -22.3887
# 4 6.4877 2.5580 3.9204 43.5908 -3.5419 1.7221
# 5 8.9298 3.5661 7.4834 -3.5419 41.9268 -4.1961
# 6 -13.3885 -28.4175 -22.3887 1.7221 -4.1961 35.2971
#
#
#
# Elastic Compliance Matrix: (Units=1/GPa)
#
#
# Indices 1 2 3 4 5 6 
#
# 1 0.011676 -0.004430 -0.002510 -0.001369 -0.001866 -0.000885
# 2 -0.004430 0.012318 -0.002816 0.000016 0.001058 0.006575
# 3 -0.002510 -0.002816 0.013777 -0.001014 -0.001228 0.005423
# 4 -0.001369 0.000016 -0.001014 0.023498 0.002253 -0.002028
# 5 -0.001866 0.001058 -0.001228 0.002253 0.024788 0.002202
# 6 -0.000885 0.006575 0.005423 -0.002028 0.002202 0.037089
#
#
# Mechanical properties :
#
#
# Convention : Reuss Voigt Hill
#
# Bulk Modulus (GPa) = 54.77322 70.62367 62.69844
# Shear Modulus (GPa) = 33.61478 37.42209 35.51844
#
# Velocity S-wave (km/s) = 4.00853 4.22945 4.12047
# Velocity P-wave (km/s) = 6.89977 7.59013 7.25317
#
# Compressibility (1/GPa) = 0.01825710
#
# Stress axis : x y z
#
# Youngs Moduli (GPa) = 85.64854 81.18393 72.58622
#
# Poissons Ratio (x) = 0.35964 0.18221
# Poissons Ratio (y) = 0.37942 0.20442
# Poissons Ratio (z) = 0.21500 0.22863
#
# Static dielectric constant tensor:
#      x y z
#    x 1.764240 0.055930 -0.022100 
#    y 0.055930 1.826870 -0.032450 
#    z -0.022100 -0.032450 1.737520 
# 
# From -- ./inp_files/428665.got.cif
#   From: 2010.05.17/outbox.ucp.g08.bks.cvg/sg2_215_cif.got.tgz:428665.got - 2010.06.11 11:32:03.
