data_PCOD9074457
_publ_section_title
;
Structure prediction by ZEFSAII (Michael W. Deem and Ramdas Pophale) SiO2 
 PCOD9074457
Probable space group: P -1
;
_chemical_formula_sum "Si O2"
_cell_formula_units_Z 12
_cell_length_a 18.000000
_cell_length_b 15.000000
_cell_length_c 12.000000
_cell_angle_alpha 30.000000
_cell_angle_beta 160.000000
_cell_angle_gamma 150.000000
_cell_volume 527.600048
_symmetry_space_group_name_H-M "P -1"
_symmetry_group_IT_number 2
_symmetry_cell_setting 'triclinic'
loop_
_space_group_symop_operation_xyz
x,y,z
-x,-y,-z
loop_
_atom_site_type_symbol
_atom_site_label
_atom_site_fract_x
_atom_site_fract_y
_atom_site_fract_z
Si Si1 0.884362 0.937489 0.681814
Si Si2 0.545402 0.129376 0.688326
Si Si3 0.603143 0.835509 0.791368
Si Si4 0.560576 0.713200 0.099097
Si Si5 0.739890 0.510175 0.887052
Si Si6 0.936069 0.279340 0.235438
O O1 0.670928 0.914564 0.486863
O O2 0.879422 0.728447 0.866582
O O3 0.861042 0.064381 0.407372
O O4 0.124092 0.064146 0.933947
O O5 0.485285 0.225279 0.389665
O O6 0.763225 0.268960 0.902868
O O7 0.586652 0.931153 0.929984
O O8 0.500000 0.000000 0.500000
O O9 0.524232 0.692437 0.936849
O O10 0.356075 0.590410 0.021254
O O11 0.807738 0.680277 0.493830
O O12 0.500000 0.500000 0.500000
O O13 0.878442 0.402812 0.121806
#
# Coordination Sequence:
#
# PCOD9074457 Si02
#       6
#     2   2   2   2   2   2
#     4  11  22  42  72  97 132 179 220 277 331 392
#     4  11  19  41  72  95 131 182 219 268 338 394
#     4   9  22  42  68  95 133 182 222 266 334 400
#     4  10  23  43  67  98 138 173 223 274 327 399
#     4  12  24  42  68 106 133 168 228 276 336 389
#     4  11  23  44  71  99 136 174 218 283 329 392
#
# _framework density 22.744501
#
# number of rings (size 3 to 8) (size 9 to 14) (size 15 to 20)
#    0.000    1.333    3.333    2.500    0.000    3.333 
#    9.000    4.167    0.000    2.000    0.000    0.000 
#    0.000    0.000    0.000    0.000    0.000    0.000 
#
# Total GULP energy -67147.912441 kJ/mol
# GULP energy per Si atom -5595.659370 kJ/mol
# Density = 2.269273 g / cm^3
# Si number density = 22.744501 Si / 1000 Ang^3
#
#
#
# Elastic Constant Matrix: (Units=GPa)
#
#
# Indices 1 2 3 4 5 6 
#
# 1 75.0700 62.6596 29.4672 2.2852 -5.5363 -8.3012
# 2 62.6596 91.0359 29.1602 -38.1147 -12.1302 -4.8293
# 3 29.4672 29.1602 82.1854 6.7317 -3.4908 -11.7063
# 4 2.2852 -38.1147 6.7317 30.3264 -9.4553 -1.6582
# 5 -5.5363 -12.1302 -3.4908 -9.4553 58.8495 -2.7227
# 6 -8.3012 -4.8293 -11.7063 -1.6582 -2.7227 23.2105
#
#
#
# Elastic Compliance Matrix: (Units=1/GPa)
#
#
# Indices 1 2 3 4 5 6 
#
# 1 -0.010350 0.033370 -0.011238 0.049512 0.013317 0.002673
# 2 0.033370 -0.042574 0.007713 -0.062426 -0.015175 0.000727
# 3 -0.011238 0.007713 0.013647 0.008745 0.002999 0.005445
# 4 0.049512 -0.062426 0.008745 -0.056146 -0.016565 0.003175
# 5 0.013317 -0.015175 0.002999 -0.016565 0.012793 0.003435
# 6 0.002673 0.000727 0.005445 0.003175 0.003435 0.047567
#
#
# Mechanical properties :
#
#
# Convention : Reuss Voigt Hill
#
# Bulk Modulus (GPa) = 48.98968 54.54058 51.76513
# Shear Modulus (GPa) = -56.85046 30.94424 -12.95311
#
# Velocity S-wave (km/s) = -5.00495 3.69252 -2.38902
# Velocity P-wave (km/s) = 3.43707 6.49702 3.89858
#
# Compressibility (1/GPa) = 0.02041246
#
# Stress axis : x y z
#
# Youngs Moduli (GPa) = -96.61381 -23.48856 73.27697
#
# Poissons Ratio (x) = 0.78380 0.82348
# Poissons Ratio (y) = 3.22396 -0.56521
# Poissons Ratio (z) = -1.08573 0.18117
#
# Static dielectric constant tensor:
#      x y z
#    x 1.853410 -0.007910 -0.081670 
#    y -0.007910 1.831160 -0.008630 
#    z -0.081670 -0.008630 1.900780 
# 
# From -- ./inp_files/162805.got.cif
#   From: 2010.05.17/outbox.ucp.g08.bks.cvg/sg2_82_cif.got.tgz:162805.got - 2010.06.11 11:32:03.
