data_PCOD9074603
_publ_section_title
;
Structure prediction by ZEFSAII (Michael W. Deem and Ramdas Pophale) SiO2 
 PCOD9074603
Probable space group: P -1
;
_chemical_formula_sum "Si O2"
_cell_formula_units_Z 16
_cell_length_a 15.000000
_cell_length_b 9.000000
_cell_length_c 21.000000
_cell_angle_alpha 40.000000
_cell_angle_beta 30.000000
_cell_angle_gamma 40.000000
_cell_volume 863.446988
_symmetry_space_group_name_H-M "P -1"
_symmetry_group_IT_number 2
_symmetry_cell_setting 'triclinic'
loop_
_space_group_symop_operation_xyz
x,y,z
-x,-y,-z
loop_
_atom_site_type_symbol
_atom_site_label
_atom_site_fract_x
_atom_site_fract_y
_atom_site_fract_z
Si Si1 0.781033 0.031146 0.704459
Si Si2 0.574157 0.464480 0.789317
Si Si3 0.227772 0.216267 0.902559
Si Si4 0.346325 0.122670 0.609833
Si Si5 0.533416 0.017586 0.665802
Si Si6 0.531390 0.247518 0.022500
Si Si7 0.804723 0.287710 0.471487
Si Si8 0.789281 0.333163 0.143437
O O1 0.635867 0.876784 0.834512
O O2 0.988111 0.829910 0.649399
O O3 0.711739 0.251466 0.727789
O O4 0.794154 0.167545 0.585926
O O5 0.375645 0.562744 0.841272
O O6 0.614884 0.715929 0.706847
O O7 0.556318 0.323395 0.910447
O O8 0.363430 0.114202 0.791145
O O9 0.255163 0.456513 0.842127
O O10 0.292501 0.978802 0.986887
O O11 0.004034 0.294189 0.001485
O O12 0.452776 0.085792 0.623245
O O13 0.248292 0.420013 0.575170
O O14 0.500000 0.000000 0.500000
O O15 0.220438 0.938688 0.745295
O O16 0.670530 0.174851 0.548496
O O17 0.500000 0.500000 0.000000
#
# Coordination Sequence:
#
# PCOD9074603 Si02
#       8
#     2   2   2   2   2   2   2   2
#     4  11  24  41  65  91 131 163 208 259 313 376
#     4  11  22  42  66  93 127 166 207 260 322 372
#     4  11  22  43  66  94 132 159 212 264 322 368
#     4  11  24  42  65  90 128 169 213 255 312 371
#     4  11  22  42  66  88 127 166 207 263 313 368
#     4  12  23  41  67  93 130 165 207 263 320 374
#     4  11  23  42  63  94 124 169 211 256 308 375
#     4  10  24  41  66  96 127 167 208 265 313 377
#
# _framework density 18.530379
#
# number of rings (size 3 to 8) (size 9 to 14) (size 15 to 20)
#    0.000    1.000    3.750    3.000    1.750    3.500 
#    4.500    0.000    0.000    0.000    0.000    0.000 
#    0.000    0.000    0.000    0.000    0.000    0.000 
#
# Total GULP energy -89095.994335 kJ/mol
# GULP energy per Si atom -5568.499646 kJ/mol
# Density = 1.848820 g / cm^3
# Si number density = 18.530379 Si / 1000 Ang^3
#
#
#
# Elastic Constant Matrix: (Units=GPa)
#
#
# Indices 1 2 3 4 5 6 
#
# 1 90.7162 51.1952 42.0858 3.9755 0.5845 24.2214
# 2 51.1952 195.7902 57.4492 -7.6532 -8.7459 30.2997
# 3 42.0858 57.4492 76.2672 -0.1802 -6.3270 7.3231
# 4 3.9755 -7.6532 -0.1802 44.7751 4.3819 0.1911
# 5 0.5845 -8.7459 -6.3270 4.3819 35.2987 -5.1876
# 6 24.2214 30.2997 7.3231 0.1911 -5.1876 45.9891
#
#
#
# Elastic Compliance Matrix: (Units=1/GPa)
#
#
# Indices 1 2 3 4 5 6 
#
# 1 0.017682 -0.001188 -0.008393 -0.001480 -0.003014 -0.007527
# 2 -0.001188 0.007345 -0.004512 0.001323 0.000358 -0.003460
# 3 -0.008393 -0.004512 0.021003 -0.000301 0.003476 0.004442
# 4 -0.001480 0.001323 -0.000301 0.022948 -0.002614 -0.000434
# 5 -0.003014 0.000358 0.003476 -0.002614 0.030033 0.004197
# 6 -0.007527 -0.003460 0.004442 -0.000434 0.004197 0.027756
#
#
# Mechanical properties :
#
#
# Convention : Reuss Voigt Hill
#
# Bulk Modulus (GPa) = 56.04274 73.80378 64.92326
# Shear Modulus (GPa) = 31.07506 39.34883 35.21194
#
# Velocity S-wave (km/s) = 4.09954 4.61312 4.36389
# Velocity P-wave (km/s) = 7.26069 8.26375 7.77840
#
# Compressibility (1/GPa) = 0.01784352
#
# Stress axis : x y z
#
# Youngs Moduli (GPa) = 56.55585 136.13973 47.61227
#
# Poissons Ratio (x) = 0.16179 0.39960
# Poissons Ratio (y) = 0.06721 0.21483
# Poissons Ratio (z) = 0.47466 0.61428
#
# Static dielectric constant tensor:
#      x y z
#    x 1.652790 -0.015770 -0.005510 
#    y -0.015770 1.663640 -0.004770 
#    z -0.005510 -0.004770 1.673530 
# 
# From -- ./inp_files/532703.got.cif
#   From: 2010.05.17/outbox.ucp.g08.bks.cvg/sg2_267_cif.got.tgz:532703.got - 2010.06.11 11:32:03.
