data_PCOD9074072
_publ_section_title
;
Structure prediction by ZEFSAII (Michael W. Deem and Ramdas Pophale) SiO2 
 PCOD9074072
Probable space group: P -1
;
_chemical_formula_sum "Si O2"
_cell_formula_units_Z 16
_cell_length_a 9.000000
_cell_length_b 12.000000
_cell_length_c 9.000000
_cell_angle_alpha 90.000000
_cell_angle_beta 100.000000
_cell_angle_gamma 50.000000
_cell_volume 725.212580
_symmetry_space_group_name_H-M "P -1"
_symmetry_group_IT_number 2
_symmetry_cell_setting 'triclinic'
loop_
_space_group_symop_operation_xyz
x,y,z
-x,-y,-z
loop_
_atom_site_type_symbol
_atom_site_label
_atom_site_fract_x
_atom_site_fract_y
_atom_site_fract_z
Si Si1 0.268899 0.854325 0.963660
Si Si2 0.526750 0.325881 0.593594
Si Si3 0.370745 0.582021 0.125894
Si Si4 0.099944 0.501349 0.158783
Si Si5 0.150041 0.979541 0.235737
Si Si6 0.714261 0.940779 0.487021
Si Si7 0.500985 0.759223 0.713356
Si Si8 0.838981 0.652034 0.387155
O O1 0.445269 0.766158 0.875478
O O2 0.069915 0.953214 0.835397
O O3 0.251955 0.747761 0.051559
O O4 0.262726 0.945382 0.097397
O O5 0.507570 0.435700 0.706624
O O6 0.513431 0.332141 0.413169
O O7 0.370275 0.307792 0.621514
O O8 0.742007 0.171428 0.659167
O O9 0.227302 0.550000 0.142449
O O10 0.500000 0.500000 0.000000
O O11 0.261995 0.334451 0.250089
O O12 0.920011 0.612771 0.236271
O O13 0.000000 0.500000 0.000000
O O14 0.166512 0.073838 0.349725
O O15 0.828662 0.783932 0.434878
O O16 0.500000 0.000000 0.500000
O O17 0.648297 0.073228 0.367862
O O18 0.000000 0.500000 0.500000
#
# Coordination Sequence:
#
# PCOD9074072 Si02
#       8
#     2   2   2   2   2   2   2   2
#     4  10  22  41  68  96 134 176 229 283 338 395
#     4  10  22  43  69  94 139 174 225 284 331 402
#     4  11  23  43  68  95 137 183 223 275 345 399
#     4  12  27  45  67 103 141 178 229 278 344 411
#     4   9  21  40  66  92 132 171 223 280 335 396
#     4  11  22  41  69  95 133 180 224 274 347 394
#     4  11  23  44  68 102 135 176 232 285 331 408
#     4  12  24  45  69 102 139 177 224 283 337 410
#
# _framework density 22.062495999999999
#
# number of rings (size 3 to 8) (size 9 to 14) (size 15 to 20)
#    0.000    1.250    5.000    0.750    1.750    9.500 
#    0.000    1.250    0.000    0.000    0.000    0.000 
#    0.000    0.000    0.000    0.000    0.000    0.000 
#
# Total GULP energy -89108.302992 kJ/mol
# GULP energy per Si atom -5569.268937 kJ/mol
# Density = 2.201228 g / cm^3
# Si number density = 22.062496 Si / 1000 Ang^3
#
#
#
# Elastic Constant Matrix: (Units=GPa)
#
#
# Indices 1 2 3 4 5 6 
#
# 1 24.7418 23.3630 17.8682 0.9992 -4.7083 28.1817
# 2 23.3630 116.5324 69.4445 17.5022 6.9708 7.0635
# 3 17.8682 69.4445 120.0716 29.1371 19.3813 26.1603
# 4 0.9992 17.5022 29.1371 48.6429 -6.4153 6.8306
# 5 -4.7083 6.9708 19.3813 -6.4153 39.3100 0.0623
# 6 28.1817 7.0635 26.1603 6.8306 0.0623 23.0379
#
#
#
# Elastic Compliance Matrix: (Units=1/GPa)
#
#
# Indices 1 2 3 4 5 6 
#
# 1 -0.048634 0.016251 -0.017111 -0.005373 -0.001267 0.075537
# 2 0.016251 0.008555 -0.004431 0.002183 0.002999 -0.018127
# 3 -0.017111 -0.004431 0.016123 -0.010132 -0.010878 0.007014
# 4 -0.005373 0.002183 -0.010132 0.025651 0.008135 0.009781
# 5 -0.001267 0.002999 -0.010878 0.008135 0.031429 0.010486
# 6 0.075537 -0.018127 0.007014 0.009781 0.010486 -0.054331
#
#
# Mechanical properties :
#
#
# Convention : Reuss Voigt Hill
#
# Bulk Modulus (GPa) = -28.95551 53.63302 12.33875
# Shear Modulus (GPa) = -225.84876 32.24285 -96.80296
#
# Velocity S-wave (km/s) = -10.12867 3.82702 -6.63114
# Velocity P-wave (km/s) = 12.24498 6.62499 7.28179
#
# Compressibility (1/GPa) = -0.03453574
#
# Stress axis : x y z
#
# Youngs Moduli (GPa) = -20.56160 116.89090 62.02176
#
# Poissons Ratio (x) = -1.89964 1.06123
# Poissons Ratio (y) = 0.33415 0.27480
# Poissons Ratio (z) = -0.35182 0.51790
#
# Static dielectric constant tensor:
#      x y z
#    x 1.878840 -0.027660 0.004140 
#    y -0.027660 1.941340 -0.010710 
#    z 0.004140 -0.010710 1.904680 
# 
# From -- ./inp_files/187780.got.cif
#   From: 2010.05.17/outbox.ucp.g08.bks.cvg/sg2_94_cif.got.tgz:187780.got - 2010.06.11 11:32:03.
