data_PCOD9074757
_publ_section_title
;
Structure prediction by ZEFSAII (Michael W. Deem and Ramdas Pophale) SiO2 
 PCOD9074757
Probable space group: P -1
;
_chemical_formula_sum "Si O2"
_cell_formula_units_Z 16
_cell_length_a 12.000000
_cell_length_b 12.000000
_cell_length_c 15.000000
_cell_angle_alpha 100.000000
_cell_angle_beta 150.000000
_cell_angle_gamma 60.000000
_cell_volume 748.962810
_symmetry_space_group_name_H-M "P -1"
_symmetry_group_IT_number 2
_symmetry_cell_setting 'triclinic'
loop_
_space_group_symop_operation_xyz
x,y,z
-x,-y,-z
loop_
_atom_site_type_symbol
_atom_site_label
_atom_site_fract_x
_atom_site_fract_y
_atom_site_fract_z
Si Si1 0.640049 0.399682 0.938276
Si Si2 0.089639 0.865777 0.279417
Si Si3 0.503656 0.227194 0.921735
Si Si4 0.931282 0.705168 0.532700
Si Si5 0.898964 0.265562 0.921310
Si Si6 0.611580 0.442692 0.470521
Si Si7 0.565947 0.021048 0.446269
Si Si8 0.973425 0.488183 0.262478
O O1 0.657725 0.291391 0.006581
O O2 0.697596 0.308013 0.875434
O O3 0.294724 0.581832 0.732816
O O4 0.890971 0.411311 0.130795
O O5 0.104626 0.808455 0.181064
O O6 0.172475 0.744826 0.396679
O O7 0.309352 0.896796 0.442907
O O8 0.746077 0.040396 0.079014
O O9 0.273325 0.263665 0.688983
O O10 0.333657 0.324371 0.907966
O O11 0.950282 0.598160 0.602991
O O12 0.784627 0.861706 0.511201
O O13 0.712275 0.449198 0.794341
O O14 0.246343 0.143933 0.184439
O O15 0.500000 0.500000 0.500000
O O16 0.770132 0.507039 0.572316
O O17 0.500000 0.000000 0.500000
#
# Coordination Sequence:
#
# PCOD9074757 Si02
#       8
#     2   2   2   2   2   2   2   2
#     4  11  23  39  67 102 131 171 216 271 335 400
#     4  11  25  45  64  96 136 174 226 271 324 384
#     4  11  21  40  69  95 136 170 211 280 335 388
#     4  11  22  41  66 100 135 168 216 267 342 398
#     4  11  24  44  65  97 134 175 221 268 326 389
#     4  10  25  44  65  88 131 184 226 268 320 383
#     4  12  26  40  70 102 133 171 211 278 338 393
#     4  11  22  41  66  96 132 175 221 268 329 395
#
# _framework density 21.362876
#
# number of rings (size 3 to 8) (size 9 to 14) (size 15 to 20)
#    0.000    1.000    1.250    7.500    8.750    2.000 
#    2.250    0.000    0.000    3.000    0.000    0.000 
#    0.000    0.000    0.000    0.000    0.000    0.000 
#
# Total GULP energy -89096.399097 kJ/mol
# GULP energy per Si atom -5568.524944 kJ/mol
# Density = 2.131425 g / cm^3
# Si number density = 21.362876 Si / 1000 Ang^3
#
#
#
# Elastic Constant Matrix: (Units=GPa)
#
#
# Indices 1 2 3 4 5 6 
#
# 1 -43.9549 -52.7797 -1.2360 2.8508 -6.0256 1.6791
# 2 -52.7797 73.0547 47.0323 0.3010 -10.6437 -3.6881
# 3 -1.2360 47.0323 122.7462 -12.2927 -17.3749 12.7778
# 4 2.8508 0.3010 -12.2927 47.9742 -0.2167 0.8088
# 5 -6.0256 -10.6437 -17.3749 -0.2167 12.3589 -1.2423
# 6 1.6791 -3.6881 12.7778 0.8088 -1.2423 38.2974
#
#
#
# Elastic Compliance Matrix: (Units=1/GPa)
#
#
# Indices 1 2 3 4 5 6 
#
# 1 -0.009425 -0.010053 0.002718 0.001307 -0.009590 -0.001800
# 2 -0.010053 0.008865 -0.004257 -0.000607 -0.002997 0.002630
# 3 0.002718 -0.004257 0.012735 0.003270 0.015183 -0.004355
# 4 0.001307 -0.000607 0.003270 0.021656 0.004941 -0.001504
# 5 -0.009590 -0.002997 0.015183 0.004941 0.094891 -0.001960
# 6 -0.001800 0.002630 -0.004355 -0.001504 -0.001960 0.027865
#
#
# Mechanical properties :
#
#
# Convention : Reuss Voigt Hill
#
# Bulk Modulus (GPa) = -90.83516 15.31992 -37.75762
# Shear Modulus (GPa) = 28.39289 30.31471 29.35380
#
# Velocity S-wave (km/s) = 3.64961 3.77110 3.71085
# Velocity P-wave (km/s) = 4.98527 5.11355 0.80483
#
# Compressibility (1/GPa) = -0.01100895
#
# Stress axis : x y z
#
# Youngs Moduli (GPa) = -106.09657 112.80721 78.52193
#
# Poissons Ratio (x) = 1.13402 -0.21340
# Poissons Ratio (y) = -1.06656 0.33425
# Poissons Ratio (z) = 0.28834 0.48019
#
# Static dielectric constant tensor:
#      x y z
#    x 1.867910 0.037590 0.070690 
#    y 0.037590 1.787390 -0.073490 
#    z 0.070690 -0.073490 1.894450 
# 
# From -- ./inp_files/519775.got.cif
#   From: 2010.05.17/outbox.ucp.g08.bks.cvg/sg2_260_cif.got.tgz:519775.got - 2010.06.11 11:32:03.
