data_PCOD9074448
_publ_section_title
;
Structure prediction by ZEFSAII (Michael W. Deem and Ramdas Pophale) SiO2 
 PCOD9074448
Probable space group: P -1
;
_chemical_formula_sum "Si O2"
_cell_formula_units_Z 16
_cell_length_a 12.000000
_cell_length_b 9.000000
_cell_length_c 12.000000
_cell_angle_alpha 110.000000
_cell_angle_beta 50.000000
_cell_angle_gamma 130.000000
_cell_volume 754.912344
_symmetry_space_group_name_H-M "P -1"
_symmetry_group_IT_number 2
_symmetry_cell_setting 'triclinic'
loop_
_space_group_symop_operation_xyz
x,y,z
-x,-y,-z
loop_
_atom_site_type_symbol
_atom_site_label
_atom_site_fract_x
_atom_site_fract_y
_atom_site_fract_z
Si Si1 0.175654 0.386598 0.681731
Si Si2 0.788010 0.814906 0.587503
Si Si3 0.230539 0.133408 0.755634
Si Si4 0.356031 0.285740 0.092663
Si Si5 0.473014 0.169359 0.410852
Si Si6 0.120401 0.267336 0.066239
Si Si7 0.210599 0.695978 0.104069
Si Si8 0.489311 0.031984 0.851588
O O1 0.209935 0.348771 0.523582
O O2 0.173665 0.232723 0.726144
O O3 0.342176 0.610581 0.658252
O O4 0.979369 0.340258 0.804127
O O5 0.687074 0.746770 0.755380
O O6 0.669834 0.850431 0.591477
O O7 0.000000 0.000000 0.500000
O O8 0.383810 0.139486 0.584196
O O9 0.239266 0.252983 0.891241
O O10 0.090285 0.914775 0.842120
O O11 0.174188 0.230884 0.141129
O O12 0.500000 0.500000 0.000000
O O13 0.406173 0.147588 0.972822
O O14 0.504655 0.016182 0.294334
O O15 0.167148 0.482029 0.085505
O O16 0.313089 0.831025 0.182295
O O17 0.357022 0.823576 0.945849
#
# Coordination Sequence:
#
# PCOD9074448 Si02
#       8
#     2   2   2   2   2   2   2   2
#     4  11  24  42  71  97 132 178 227 269 324 397
#     4  11  22  43  71  99 131 177 226 273 326 396
#     4  10  23  43  66  95 136 171 216 269 333 396
#     4  12  25  41  68  97 131 170 217 276 339 391
#     4  11  24  41  71  99 131 176 226 272 324 397
#     4  11  24  43  66  98 134 173 214 276 337 397
#     4  11  23  42  67  99 130 174 226 272 327 391
#     4  11  23  43  67  95 132 173 224 277 324 395
#
# _framework density 21.194514000000002
#
# number of rings (size 3 to 8) (size 9 to 14) (size 15 to 20)
#    0.000    1.000    1.250    7.500    3.500    4.000 
#    2.250    2.500    0.000    0.000    0.000    0.000 
#    0.000    0.000    0.000    0.000    0.000    0.000 
#
# Total GULP energy -89260.416011 kJ/mol
# GULP energy per Si atom -5578.776001 kJ/mol
# Density = 2.114627 g / cm^3
# Si number density = 21.194514 Si / 1000 Ang^3
#
#
#
# Elastic Constant Matrix: (Units=GPa)
#
#
# Indices 1 2 3 4 5 6 
#
# 1 60.7040 23.5778 17.8975 1.6248 -0.7322 4.8275
# 2 23.5778 151.4055 51.9238 0.0240 0.6864 11.1526
# 3 17.8975 51.9238 147.3675 9.3761 19.3660 3.0902
# 4 1.6248 0.0240 9.3761 42.9872 5.1663 0.1148
# 5 -0.7322 0.6864 19.3660 5.1663 36.9844 -8.0592
# 6 4.8275 11.1526 3.0902 0.1148 -8.0592 29.6717
#
#
#
# Elastic Compliance Matrix: (Units=1/GPa)
#
#
# Indices 1 2 3 4 5 6 
#
# 1 0.017903 -0.002165 -0.001458 -0.000455 0.000848 -0.001715
# 2 -0.002165 0.008004 -0.002629 0.000582 0.000621 -0.002216
# 3 -0.001458 -0.002629 0.008578 -0.001273 -0.004486 -0.000881
# 4 -0.000455 0.000582 -0.001273 0.023907 -0.002886 -0.000889
# 5 0.000848 0.000621 -0.004486 -0.002886 0.031695 0.008716
# 6 -0.001715 -0.002216 -0.000881 -0.000889 0.008716 0.037277
#
#
# Mechanical properties :
#
#
# Convention : Reuss Voigt Hill
#
# Bulk Modulus (GPa) = 45.49590 60.69726 53.09658
# Shear Modulus (GPa) = 33.96838 39.66716 36.81777
#
# Velocity S-wave (km/s) = 4.00771 4.33087 4.17242
# Velocity P-wave (km/s) = 6.55196 7.32864 6.95115
#
# Compressibility (1/GPa) = 0.02198000
#
# Stress axis : x y z
#
# Youngs Moduli (GPa) = 55.85641 124.93679 116.57370
#
# Poissons Ratio (x) = 0.27055 0.16994
# Poissons Ratio (y) = 0.12096 0.30652
# Poissons Ratio (z) = 0.08143 0.32851
#
# Static dielectric constant tensor:
#      x y z
#    x 1.856340 0.036800 -0.030900 
#    y 0.036800 1.803070 0.031470 
#    z -0.030900 0.031470 1.774360 
# 
# From -- ./inp_files/333829.got.cif
#   From: 2010.05.17/outbox.ucp.g08.bks.cvg/sg2_167_cif.got.tgz:333829.got - 2010.06.11 11:32:03.
