data_PCOD9074837
_publ_section_title
;
Structure prediction by ZEFSAII (Michael W. Deem and Ramdas Pophale) SiO2 
 PCOD9074837
Probable space group: P -1
;
_chemical_formula_sum "Si O2"
_cell_formula_units_Z 16
_cell_length_a 12.000000
_cell_length_b 12.000000
_cell_length_c 12.000000
_cell_angle_alpha 60.000000
_cell_angle_beta 50.000000
_cell_angle_gamma 100.000000
_cell_volume 763.164900
_symmetry_space_group_name_H-M "P -1"
_symmetry_group_IT_number 2
_symmetry_cell_setting 'triclinic'
loop_
_space_group_symop_operation_xyz
x,y,z
-x,-y,-z
loop_
_atom_site_type_symbol
_atom_site_label
_atom_site_fract_x
_atom_site_fract_y
_atom_site_fract_z
Si Si1 0.034141 0.058310 0.580010
Si Si2 0.608323 0.600745 0.666843
Si Si3 0.607655 0.766516 0.131023
Si Si4 0.171302 0.225707 0.803876
Si Si5 0.729574 0.402482 0.160503
Si Si6 0.159221 0.854445 0.660086
Si Si7 0.563905 0.159576 0.617761
Si Si8 0.815621 0.192143 0.099974
O O1 0.229696 0.277604 0.392433
O O2 0.090600 0.953976 0.640832
O O3 0.000000 0.000000 0.500000
O O4 0.820010 0.962972 0.833400
O O5 0.498398 0.389752 0.820873
O O6 0.715163 0.687834 0.431874
O O7 0.435889 0.603856 0.782751
O O8 0.687157 0.728138 0.203669
O O9 0.458249 0.772466 0.289338
O O10 0.048790 0.277373 0.888717
O O11 0.000000 0.000000 0.000000
O O12 0.646019 0.295803 0.388349
O O13 0.792271 0.327864 0.072798
O O14 0.950267 0.627043 0.927343
O O15 0.287367 0.870564 0.469342
O O16 0.284539 0.932720 0.658284
O O17 0.326014 0.950746 0.840544
#
# Coordination Sequence:
#
# PCOD9074837 Si02
#       8
#     2   2   2   2   2   2   2   2
#     4  12  26  47  66  85 117 165 220 266 297 349
#     4  12  23  39  65  91 129 159 198 254 313 370
#     4  12  24  39  61  97 123 161 205 248 315 374
#     4  12  19  35  60  94 136 160 188 244 313 381
#     4  11  21  34  57  95 128 164 194 238 312 382
#     4  11  22  38  55  88 129 161 208 250 294 365
#     4  11  21  34  58  92 130 162 190 242 315 381
#     4  11  19  32  58  89 131 165 194 229 314 379
#
# _framework density 20.965325
#
# number of rings (size 3 to 8) (size 9 to 14) (size 15 to 20)
#    0.000    0.500    6.250    4.875    3.500    0.500 
#    0.000    0.625    0.000    0.750    0.000    0.000 
#    0.000    0.000    0.000    0.000    0.000    0.000 
#
# Total GULP energy -89304.291095 kJ/mol
# GULP energy per Si atom -5581.518193 kJ/mol
# Density = 2.091761 g / cm^3
# Si number density = 20.965325 Si / 1000 Ang^3
#
#
#
# Elastic Constant Matrix: (Units=GPa)
#
#
# Indices 1 2 3 4 5 6 
#
# 1 16.4001 20.4764 5.3428 3.6776 -6.3344 12.5084
# 2 20.4764 159.1000 14.2827 9.4735 -15.2408 0.6120
# 3 5.3428 14.2827 36.1080 9.8041 -17.1336 1.6221
# 4 3.6776 9.4735 9.8041 48.3936 -2.8029 -11.6070
# 5 -6.3344 -15.2408 -17.1336 -2.8029 15.3198 5.2432
# 6 12.5084 0.6120 1.6221 -11.6070 5.2432 45.2891
#
#
#
# Elastic Compliance Matrix: (Units=1/GPa)
#
#
# Indices 1 2 3 4 5 6 
#
# 1 0.187670 -0.012191 0.067692 -0.035861 0.162721 -0.082122
# 2 -0.012191 0.007949 -0.001705 0.000542 -0.000130 0.003475
# 3 0.067692 -0.001705 0.096549 -0.026963 0.145025 -0.045831
# 4 -0.035861 0.000542 -0.026963 0.031895 -0.046986 0.024477
# 5 0.162721 -0.000130 0.145025 -0.046986 0.319985 -0.099222
# 6 -0.082122 0.003475 -0.045831 0.024477 -0.099222 0.064116
#
#
# Mechanical properties :
#
#
# Convention : Reuss Voigt Hill
#
# Bulk Modulus (GPa) = 2.50151 32.42356 17.46253
# Shear Modulus (GPa) = 6.81360 33.23425 20.02393
#
# Velocity S-wave (km/s) = 1.80471 3.98578 3.09382
# Velocity P-wave (km/s) = 2.35338 6.05647 4.59452
#
# Compressibility (1/GPa) = 0.39975923
#
# Stress axis : x y z
#
# Youngs Moduli (GPa) = 5.32850 125.79491 10.35748
#
# Poissons Ratio (x) = 1.53361 -0.70112
# Poissons Ratio (y) = 0.06496 0.01766
# Poissons Ratio (z) = -0.36070 0.21450
#
# Static dielectric constant tensor:
#      x y z
#    x 1.796820 -0.001180 -0.055000 
#    y -0.001180 1.755950 -0.055390 
#    z -0.055000 -0.055390 1.862710 
# 
# From -- ./inp_files/427737.got.cif
#   From: 2010.05.17/outbox.ucp.g08.bks.cvg/sg2_214_cif.got.tgz:427737.got - 2010.06.11 11:32:03.
