data_PCOD9074929
_publ_section_title
;
Structure prediction by ZEFSAII (Michael W. Deem and Ramdas Pophale) SiO2 
 PCOD9074929
Probable space group: P -1
;
_chemical_formula_sum "Si O2"
_cell_formula_units_Z 16
_cell_length_a 21.000000
_cell_length_b 9.000000
_cell_length_c 12.000000
_cell_angle_alpha 40.000000
_cell_angle_beta 30.000000
_cell_angle_gamma 50.000000
_cell_volume 727.418465
_symmetry_space_group_name_H-M "P -1"
_symmetry_group_IT_number 2
_symmetry_cell_setting 'triclinic'
loop_
_space_group_symop_operation_xyz
x,y,z
-x,-y,-z
loop_
_atom_site_type_symbol
_atom_site_label
_atom_site_fract_x
_atom_site_fract_y
_atom_site_fract_z
Si Si1 0.572892 0.818923 0.772928
Si Si2 0.085450 0.583455 0.662460
Si Si3 0.643145 0.438446 0.622146
Si Si4 0.517400 0.708094 0.265197
Si Si5 0.859065 0.306739 0.744499
Si Si6 0.235139 0.241651 0.287750
Si Si7 0.982436 0.125946 0.204329
Si Si8 0.641273 0.951217 0.342945
O O1 0.689062 0.765512 0.707599
O O2 0.636083 0.886229 0.519465
O O3 0.506989 0.050681 0.777943
O O4 0.464199 0.616658 0.087366
O O5 0.225209 0.618778 0.486811
O O6 0.098405 0.633436 0.482043
O O7 0.005734 0.758561 0.756833
O O8 0.026477 0.325744 0.934052
O O9 0.581698 0.316881 0.674703
O O10 0.670803 0.704888 0.388351
O O11 0.500000 0.500000 0.500000
O O12 0.658690 0.714586 0.993919
O O13 0.853135 0.540841 0.691067
O O14 0.936679 0.098411 0.794665
O O15 0.720008 0.173766 0.046269
O O16 0.158003 0.995675 0.530661
O O17 0.500000 0.000000 0.500000
#
# Coordination Sequence:
#
# PCOD9074929 Si02
#       8
#     2   2   2   2   2   2   2   2
#     4  11  22  41  66  96 134 174 220 268 334 395
#     4  11  24  46  70  98 130 176 223 277 331 388
#     4  11  21  40  67  94 133 169 218 274 333 390
#     4  11  23  42  65 102 133 175 219 272 333 392
#     4  12  25  45  66 100 135 171 229 270 333 394
#     4  11  24  44  68  96 135 178 220 272 329 397
#     4  11  25  47  68  96 133 175 229 271 328 394
#     4  12  23  39  64 101 134 171 215 276 333 392
#
# _framework density 21.995591999999998
#
# number of rings (size 3 to 8) (size 9 to 14) (size 15 to 20)
#    0.000    0.750    1.250    8.625    0.000    1.500 
#    9.000    0.000    0.000    0.000    0.000    0.000 
#    0.000    0.000    0.000    0.000    0.000    0.000 
#
# Total GULP energy -89355.560573 kJ/mol
# GULP energy per Si atom -5584.722536 kJ/mol
# Density = 2.194553 g / cm^3
# Si number density = 21.995592 Si / 1000 Ang^3
#
#
#
# Elastic Constant Matrix: (Units=GPa)
#
#
# Indices 1 2 3 4 5 6 
#
# 1 15.7580 -8.0619 29.0533 -3.0118 10.5902 -2.5839
# 2 -8.0619 93.2741 18.7856 -14.4935 -4.7341 -0.7335
# 3 29.0533 18.7856 161.8538 -23.3140 19.4102 18.6874
# 4 -3.0118 -14.4935 -23.3140 37.4151 -3.0896 -0.7658
# 5 10.5902 -4.7341 19.4102 -3.0896 39.0464 -1.2759
# 6 -2.5839 -0.7335 18.6874 -0.7658 -1.2759 29.7990
#
#
#
# Elastic Compliance Matrix: (Units=1/GPa)
#
#
# Indices 1 2 3 4 5 6 
#
# 1 0.145876 0.017478 -0.029218 -0.000886 -0.021996 0.030438
# 2 0.017478 0.013813 -0.004714 0.003899 -0.000253 0.004901
# 3 -0.029218 -0.004714 0.013818 0.004241 0.000454 -0.011187
# 4 -0.000886 0.003899 0.004241 0.030853 0.000987 -0.001805
# 5 -0.021996 -0.000253 0.000454 0.000987 0.031371 -0.000830
# 6 0.030438 0.004901 -0.011187 -0.001805 -0.000830 0.043252
#
#
# Mechanical properties :
#
#
# Convention : Reuss Voigt Hill
#
# Bulk Modulus (GPa) = 7.11244 38.93777 23.02510
# Shear Modulus (GPa) = 13.93696 36.65936 25.29816
#
# Velocity S-wave (km/s) = 2.51992 4.08691 3.39506
# Velocity P-wave (km/s) = 3.42159 6.32546 5.08521
#
# Compressibility (1/GPa) = 0.14059879
#
# Stress axis : x y z
#
# Youngs Moduli (GPa) = 6.85514 72.39632 72.36730
#
# Poissons Ratio (x) = -1.26535 2.11442
# Poissons Ratio (y) = -0.11982 0.34117
# Poissons Ratio (z) = 0.20029 0.34131
#
# Static dielectric constant tensor:
#      x y z
#    x 1.804410 -0.003530 -0.058980 
#    y -0.003530 1.874640 0.046300 
#    z -0.058980 0.046300 1.872400 
# 
# From -- ./inp_files/261667.got.cif
#   From: 2010.05.17/outbox.ucp.g08.bks.cvg/sg2_131_cif.got.tgz:261667.got - 2010.06.11 11:32:03.
