data_PCOD9074758
_publ_section_title
;
Structure prediction by ZEFSAII (Michael W. Deem and Ramdas Pophale) SiO2 
 PCOD9074758
Probable space group: P -1
;
_chemical_formula_sum "Si O2"
_cell_formula_units_Z 16
_cell_length_a 15.000000
_cell_length_b 9.000000
_cell_length_c 9.000000
_cell_angle_alpha 90.000000
_cell_angle_beta 100.000000
_cell_angle_gamma 40.000000
_cell_volume 751.948787
_symmetry_space_group_name_H-M "P -1"
_symmetry_group_IT_number 2
_symmetry_cell_setting 'triclinic'
loop_
_space_group_symop_operation_xyz
x,y,z
-x,-y,-z
loop_
_atom_site_type_symbol
_atom_site_label
_atom_site_fract_x
_atom_site_fract_y
_atom_site_fract_z
Si Si1 0.787691 0.811760 0.993364
Si Si2 0.540152 0.117602 0.348906
Si Si3 0.263875 0.503646 0.474096
Si Si4 0.687181 0.684621 0.190898
Si Si5 0.007480 0.304719 0.724064
Si Si6 0.873679 0.036329 0.493783
Si Si7 0.499287 0.325486 0.034077
Si Si8 0.179413 0.185905 0.355284
O O1 0.771312 0.679321 0.090664
O O2 0.921737 0.734935 0.100314
O O3 0.645740 0.078055 0.004306
O O4 0.790698 0.813074 0.812496
O O5 0.408740 0.270664 0.428742
O O6 0.503259 0.290724 0.214098
O O7 0.569375 0.942592 0.241248
O O8 0.682000 0.964710 0.494536
O O9 0.237867 0.467280 0.632812
O O10 0.133649 0.620199 0.326871
O O11 0.259133 0.686099 0.505127
O O12 0.620846 0.627231 0.083012
O O13 0.944594 0.537858 0.639236
O O14 0.122205 0.072504 0.652543
O O15 0.877929 0.907697 0.626832
O O16 0.000000 0.000000 0.500000
O O17 0.500000 0.500000 0.000000
#
# Coordination Sequence:
#
# PCOD9074758 Si02
#       8
#     2   2   2   2   2   2   2   2
#     4  11  26  45  70 106 141 187 238 289 351 419
#     4  11  24  45  74 104 138 186 241 287 355 413
#     4  11  25  43  74 104 141 188 233 299 346 429
#     4  11  24  44  73 102 145 182 234 290 352 422
#     4  11  25  46  70 100 145 184 242 283 353 414
#     4  10  25  44  66 101 139 185 231 289 359 411
#     4  11  27  45  71 106 147 183 225 299 356 423
#     4  12  25  45  75 104 139 184 247 290 342 430
#
# _framework density 21.278044999999999
#
# number of rings (size 3 to 8) (size 9 to 14) (size 15 to 20)
#    0.000    1.000    1.250    4.875   12.250    0.500 
#    0.000    2.500    0.000    0.000    0.000    0.000 
#    0.000    0.000    0.000    0.000    0.000    0.000 
#
# Total GULP energy -89229.060156 kJ/mol
# GULP energy per Si atom -5576.816260 kJ/mol
# Density = 2.122962 g / cm^3
# Si number density = 21.278045 Si / 1000 Ang^3
#
#
#
# Elastic Constant Matrix: (Units=GPa)
#
#
# Indices 1 2 3 4 5 6 
#
# 1 117.8554 28.8365 61.6690 4.1781 -1.6486 18.3409
# 2 28.8365 75.1548 12.7457 14.1407 -1.4675 22.9604
# 3 61.6690 12.7457 176.2269 14.9683 0.0140 3.9110
# 4 4.1781 14.1407 14.9683 28.8335 -6.6120 -3.6884
# 5 -1.6486 -1.4675 0.0140 -6.6120 50.8257 -5.8020
# 6 18.3409 22.9604 3.9110 -3.6884 -5.8020 44.9140
#
#
#
# Elastic Compliance Matrix: (Units=1/GPa)
#
#
# Indices 1 2 3 4 5 6 
#
# 1 0.011711 -0.003367 -0.003945 0.001726 0.000217 -0.002548
# 2 -0.003367 0.019563 0.000949 -0.011362 -0.002155 -0.009920
# 3 -0.003945 0.000949 0.007308 -0.003809 -0.000587 0.000101
# 4 0.001726 -0.011362 -0.003809 0.044793 0.006695 0.009979
# 5 0.000217 -0.002155 -0.000587 0.006695 0.020985 0.004325
# 6 -0.002548 -0.009920 0.000101 0.009979 0.004325 0.029746
#
#
# Mechanical properties :
#
#
# Convention : Reuss Voigt Hill
#
# Bulk Modulus (GPa) = 38.67501 63.97106 51.32303
# Shear Modulus (GPa) = 32.16465 42.64703 37.40584
#
# Velocity S-wave (km/s) = 3.89219 4.48177 4.19735
# Velocity P-wave (km/s) = 6.19793 7.54396 6.90383
#
# Compressibility (1/GPa) = 0.02585649
#
# Stress axis : x y z
#
# Youngs Moduli (GPa) = 85.38806 51.11644 136.84281
#
# Poissons Ratio (x) = 0.17209 0.53982
# Poissons Ratio (y) = 0.28746 -0.12981
# Poissons Ratio (z) = 0.33684 -0.04849
#
# Static dielectric constant tensor:
#      x y z
#    x 1.828030 -0.001910 0.009350 
#    y -0.001910 1.847860 -0.042730 
#    z 0.009350 -0.042730 1.776840 
# 
# From -- ./inp_files/298567.got.cif
#   From: 2010.05.17/outbox.ucp.g08.bks.cvg/sg2_150_cif.got.tgz:298567.got - 2010.06.11 11:32:03.
