data_PCOD9074759
_publ_section_title
;
Structure prediction by ZEFSAII (Michael W. Deem and Ramdas Pophale) SiO2 
 PCOD9074759
Probable space group: P -1
;
_chemical_formula_sum "Si O2"
_cell_formula_units_Z 14
_cell_length_a 6.000000
_cell_length_b 12.000000
_cell_length_c 15.000000
_cell_angle_alpha 130.000000
_cell_angle_beta 70.000000
_cell_angle_gamma 130.000000
_cell_volume 629.093620
_symmetry_space_group_name_H-M "P -1"
_symmetry_group_IT_number 2
_symmetry_cell_setting 'triclinic'
loop_
_space_group_symop_operation_xyz
x,y,z
-x,-y,-z
loop_
_atom_site_type_symbol
_atom_site_label
_atom_site_fract_x
_atom_site_fract_y
_atom_site_fract_z
Si Si1 0.862909 0.001501 0.114277
Si Si2 0.840790 0.608854 0.988639
Si Si3 0.659335 0.709490 0.477583
Si Si4 0.627205 0.692773 0.689734
Si Si5 0.710916 0.055098 0.581227
Si Si6 0.265856 0.747933 0.147977
Si Si7 0.274403 0.808661 0.881447
O O1 0.762907 0.130110 0.176542
O O2 0.101900 0.110552 0.212745
O O3 0.565935 0.816861 0.089896
O O4 0.000000 0.000000 0.000000
O O5 0.895898 0.456127 0.904642
O O6 0.978376 0.707815 0.927874
O O7 0.500000 0.500000 0.000000
O O8 0.043985 0.747516 0.110389
O O9 0.647832 0.706455 0.586187
O O10 0.424726 0.497017 0.376932
O O11 0.969207 0.791810 0.426362
O O12 0.630333 0.864514 0.528931
O O13 0.377220 0.685138 0.778674
O O14 0.659558 0.136862 0.715574
O O15 0.500000 0.000000 0.500000
O O16 0.500000 0.000000 0.000000
#
# Coordination Sequence:
#
# PCOD9074759 Si02
#       7
#     2   2   2   2   2   2   2
#     4  12  23  39  68  98 133 178 223 275 342 400
#     4  11  25  41  65  98 135 174 216 272 345 394
#     4  10  25  44  67  96 132 180 224 282 328 401
#     4  11  24  44  67  98 139 175 227 277 339 398
#     4  11  24  44  69  95 131 175 232 276 342 393
#     4  11  24  42  64  96 133 171 223 278 326 410
#     4  12  23  41  66  99 135 174 221 276 334 407
#
# _framework density 22.254238999999998
#
# number of rings (size 3 to 8) (size 9 to 14) (size 15 to 20)
#    0.000    0.857    2.857    3.429    0.000    8.000 
#    0.000    3.571    0.000    0.000    0.000    0.000 
#    0.000    0.000    0.000    0.000    0.000    0.000 
#
# Total GULP energy -77964.987751 kJ/mol
# GULP energy per Si atom -5568.927696 kJ/mol
# Density = 2.220359 g / cm^3
# Si number density = 22.254239 Si / 1000 Ang^3
#
#
#
# Elastic Constant Matrix: (Units=GPa)
#
#
# Indices 1 2 3 4 5 6 
#
# 1 28.9604 30.3518 19.6505 -0.5385 4.6794 7.6328
# 2 30.3518 166.4145 27.3767 -3.4785 -1.4731 -1.7308
# 3 19.6505 27.3767 117.4169 -7.3628 -1.6268 3.0663
# 4 -0.5385 -3.4785 -7.3628 40.0256 4.2199 -8.6120
# 5 4.6794 -1.4731 -1.6268 4.2199 21.2638 -0.7947
# 6 7.6328 -1.7308 3.0663 -8.6120 -0.7947 30.0384
#
#
#
# Elastic Compliance Matrix: (Units=1/GPa)
#
#
# Indices 1 2 3 4 5 6 
#
# 1 0.055015 -0.009215 -0.007049 -0.003205 -0.013211 -0.015059
# 2 -0.009215 0.007808 -0.000268 0.000921 0.002483 0.003148
# 3 -0.007049 -0.000268 0.009863 0.001773 0.001985 0.001330
# 4 -0.003205 0.000921 0.001773 0.027624 -0.004260 0.008493
# 5 -0.013211 0.002483 0.001985 -0.004260 0.051233 0.003432
# 6 -0.015059 0.003148 0.001330 0.008493 0.003432 0.039689
#
#
# Mechanical properties :
#
#
# Convention : Reuss Voigt Hill
#
# Bulk Modulus (GPa) = 25.23946 51.94997 38.59472
# Shear Modulus (GPa) = 21.05239 33.95976 27.50607
#
# Velocity S-wave (km/s) = 3.07904 3.91063 3.51948
# Velocity P-wave (km/s) = 4.89966 6.61704 5.82202
#
# Compressibility (1/GPa) = 0.03962049
#
# Stress axis : x y z
#
# Youngs Moduli (GPa) = 18.17698 128.07584 101.38974
#
# Poissons Ratio (x) = 1.18019 0.71473
# Poissons Ratio (y) = 0.16750 0.02721
# Poissons Ratio (z) = 0.12813 0.03437
#
# Static dielectric constant tensor:
#      x y z
#    x 2.031090 -0.000220 -0.004980 
#    y -0.000220 1.813650 0.020880 
#    z -0.004980 0.020880 1.787310 
# 
# From -- ./inp_files/61053.got.cif
#   From: 2010.05.17/outbox.ucp.g08.bks.cvg/sg2_31_cif.got.tgz:61053.got - 2010.06.11 11:32:03.
