data_PCOD9074101
_publ_section_title
;
Structure prediction by ZEFSAII (Michael W. Deem and Ramdas Pophale) SiO2 
 PCOD9074101
Probable space group: P -1
;
_chemical_formula_sum "Si O2"
_cell_formula_units_Z 16
_cell_length_a 12.000000
_cell_length_b 21.000000
_cell_length_c 9.000000
_cell_angle_alpha 50.000000
_cell_angle_beta 140.000000
_cell_angle_gamma 150.000000
_cell_volume 727.418465
_symmetry_space_group_name_H-M "P -1"
_symmetry_group_IT_number 2
_symmetry_cell_setting 'triclinic'
loop_
_space_group_symop_operation_xyz
x,y,z
-x,-y,-z
loop_
_atom_site_type_symbol
_atom_site_label
_atom_site_fract_x
_atom_site_fract_y
_atom_site_fract_z
Si Si1 0.171581 0.186461 0.192922
Si Si2 0.983648 0.340265 0.362124
Si Si3 0.414393 0.680801 0.934962
Si Si4 0.396604 0.115583 0.417041
Si Si5 0.006135 0.159607 0.725182
Si Si6 0.265708 0.861156 0.042887
Si Si7 0.564797 0.463065 0.259249
Si Si8 0.842072 0.586018 0.890183
O O1 0.214097 0.103390 0.361305
O O2 0.452559 0.332987 0.295302
O O3 0.066464 0.174998 0.939100
O O4 0.960350 0.152767 0.134380
O O5 0.915827 0.218800 0.497674
O O6 0.138552 0.425033 0.542471
O O7 0.737362 0.311407 0.124304
O O8 0.166009 0.418760 0.287642
O O9 0.475292 0.765273 0.732568
O O10 0.229410 0.532283 0.944105
O O11 0.700979 0.752430 0.175292
O O12 0.610879 0.137735 0.686941
O O13 0.206054 0.986421 0.320801
O O14 0.119273 0.732142 0.999787
O O15 0.500000 0.000000 0.000000
O O16 0.500000 0.500000 0.000000
O O17 0.383470 0.436280 0.242454
#
# Coordination Sequence:
#
# PCOD9074101 Si02
#       8
#     2   2   2   2   2   2   2   2
#     4  10  22  42  65  98 132 173 227 277 326 398
#     4  12  24  42  70 100 136 183 214 279 349 382
#     4  11  24  42  68 102 129 171 232 274 328 403
#     4  11  25  43  70  97 132 184 221 279 335 396
#     4  11  23  44  68  99 137 174 226 276 331 405
#     4  11  26  45  65  98 138 178 225 275 334 404
#     4  11  21  41  69  98 136 176 221 278 332 398
#     4  11  25  44  66 100 144 169 225 283 329 406
#
# _framework density 21.995591999999998
#
# number of rings (size 3 to 8) (size 9 to 14) (size 15 to 20)
#    0.000    1.000    2.500    4.500    3.500    6.000 
#    0.000    0.000    0.000    0.000    0.000    0.000 
#    0.000    0.000    0.000    0.000    0.000    0.000 
#
# Total GULP energy -89374.962802 kJ/mol
# GULP energy per Si atom -5585.935175 kJ/mol
# Density = 2.194553 g / cm^3
# Si number density = 21.995592 Si / 1000 Ang^3
#
#
#
# Elastic Constant Matrix: (Units=GPa)
#
#
# Indices 1 2 3 4 5 6 
#
# 1 78.3808 34.4012 7.1840 8.1465 10.1677 -13.5266
# 2 34.4012 176.0348 35.8066 -5.4540 -2.5600 -25.4088
# 3 7.1840 35.8066 29.3752 9.6759 -4.0916 -14.8217
# 4 8.1465 -5.4540 9.6759 25.6281 -4.4538 4.3534
# 5 10.1677 -2.5600 -4.0916 -4.4538 30.2773 -6.4388
# 6 -13.5266 -25.4088 -14.8217 4.3534 -6.4388 29.8708
#
#
#
# Elastic Compliance Matrix: (Units=1/GPa)
#
#
# Indices 1 2 3 4 5 6 
#
# 1 0.017379 -0.004368 0.009345 -0.012432 -0.004733 0.009583
# 2 -0.004368 0.009492 -0.014630 0.009531 0.001207 -0.002292
# 3 0.009345 -0.014630 0.088340 -0.045184 0.010367 0.044441
# 4 -0.012432 0.009531 -0.045184 0.067472 0.002586 -0.029218
# 5 -0.004733 0.001207 0.010367 0.002586 0.039068 0.012072
# 6 0.009583 -0.002292 0.044441 -0.029218 0.012072 0.064779
#
#
# Mechanical properties :
#
#
# Convention : Reuss Voigt Hill
#
# Bulk Modulus (GPa) = 10.42693 48.73048 29.57870
# Shear Modulus (GPa) = 14.80149 30.91518 22.85834
#
# Velocity S-wave (km/s) = 2.59690 3.75309 3.22720
# Velocity P-wave (km/s) = 3.70711 6.40185 5.23098
#
# Compressibility (1/GPa) = 0.09590554
#
# Stress axis : x y z
#
# Youngs Moduli (GPa) = 57.54164 105.35066 11.31991
#
# Poissons Ratio (x) = 0.46016 -0.10578
# Poissons Ratio (y) = 0.25133 0.16561
# Poissons Ratio (z) = -0.53772 1.54125
#
# Static dielectric constant tensor:
#      x y z
#    x 1.901130 0.042130 0.006210 
#    y 0.042130 1.810660 0.026250 
#    z 0.006210 0.026250 1.781560 
# 
# From -- ./inp_files/282966.got.cif
#   From: 2010.05.17/outbox.ucp.g08.bks.cvg/sg2_142_cif.got.tgz:282966.got - 2010.06.11 11:32:03.
