data_PCOD9074832
_publ_section_title
;
Structure prediction by ZEFSAII (Michael W. Deem and Ramdas Pophale) SiO2 
 PCOD9074832
Probable space group: P -1
;
_chemical_formula_sum "Si O2"
_cell_formula_units_Z 15
_cell_length_a 14.659135
_cell_length_b 25.497479
_cell_length_c 5.267013
_cell_angle_alpha 66.935782
_cell_angle_beta 76.994142
_cell_angle_gamma 20.997596
_cell_volume 586.967927
_symmetry_space_group_name_H-M "P -1"
_symmetry_group_IT_number 2
_symmetry_cell_setting 'triclinic'
loop_
_space_group_symop_operation_xyz
x,y,z
-x,-y,-z
loop_
_atom_site_type_symbol
_atom_site_label
_atom_site_fract_x
_atom_site_fract_y
_atom_site_fract_z
Si Si1 0.070640 0.101850 0.839433
Si Si2 0.000000 0.500000 0.500000
Si Si3 0.773828 0.698594 0.733897
Si Si4 0.189857 0.699635 0.884704
Si Si5 0.161107 0.588566 0.218598
Si Si6 0.362959 0.421974 0.918999
Si Si7 0.479477 0.770425 0.105181
Si Si8 0.553008 0.903699 0.122521
O O1 0.934544 0.196911 0.477608
O O2 0.864551 0.231101 0.961637
O O3 0.206604 0.960390 0.012062
O O4 0.327949 0.997914 0.925653
O O5 0.180183 0.363838 0.429841
O O6 0.275682 0.390195 0.555331
O O7 0.559563 0.870068 0.458988
O O8 0.068353 0.557393 0.875780
O O9 0.675886 0.710263 0.984076
O O10 0.500000 0.500000 0.000000
O O11 0.060487 0.711431 0.004192
O O12 0.309107 0.495433 0.575954
O O13 0.869181 0.720648 0.159268
O O14 0.376205 0.447539 0.126888
O O15 0.571724 0.251648 0.017341
O O16 0.500000 0.000000 0.000000
#
# Coordination Sequence:
#
# PCOD9074832 Si02
#       8
#     2   1   2   2   2   2   2   2
#     4  12  25  44  70 104 133 176 225 279 336 400
#     4  10  18  32  52  82 134 178 220 238 308 398
#     4  10  21  33  51  87 136 194 213 240 313 407
#     4  12  28  50  73  93 128 180 237 287 332 391
#     4  11  24  42  64  99 133 177 217 261 342 398
#     4  10  23  36  62  92 136 172 213 262 312 404
#     4  11  23  35  61  92 139 180 222 257 326 404
#     4  11  22  38  60  99 145 169 210 273 342 405
#
# _framework density 25.555057999999999
#
# number of rings (size 3 to 8) (size 9 to 14) (size 15 to 20)
#    0.000    1.067    2.667    4.400   11.200    1.600 
#    0.000    0.000    0.000    4.800    0.000    0.000 
#    0.000    0.000    0.000    0.000    0.000    0.000 
#
# Total GULP energy -83692.152513 kJ/mol
# GULP energy per Si atom -5579.476834 kJ/mol
# Density = 2.549689 g / cm^3
# Si number density = 25.555058 Si / 1000 Ang^3
#
#
#
# Elastic Constant Matrix: (Units=GPa)
#
#
# Indices 1 2 3 4 5 6 
#
# 1 38.7976 37.3794 23.8332 -3.8228 -2.2476 22.2164
# 2 37.3794 172.2589 54.3123 4.9777 -0.9812 32.1442
# 3 23.8332 54.3123 135.9759 7.8015 -6.4915 14.4621
# 4 -3.8228 4.9777 7.8015 42.7662 6.6884 -1.5309
# 5 -2.2476 -0.9812 -6.4915 6.6884 25.1795 -9.2719
# 6 22.2164 32.1442 14.4621 -1.5309 -9.2719 54.8625
#
#
#
# Elastic Compliance Matrix: (Units=1/GPa)
#
#
# Indices 1 2 3 4 5 6 
#
# 1 0.041229 -0.005389 -0.004176 0.005198 -0.003747 -0.012925
# 2 -0.005389 0.008056 -0.002042 -0.000928 -0.001272 -0.002240
# 3 -0.004176 -0.002042 0.009065 -0.002195 0.002803 0.000911
# 4 0.005198 -0.000928 -0.002195 0.025469 -0.007468 -0.001534
# 5 -0.003747 -0.001272 0.002803 -0.007468 0.045343 0.008978
# 6 -0.012925 -0.002240 0.000911 -0.001534 0.008978 0.026008
#
#
# Mechanical properties :
#
#
# Convention : Reuss Voigt Hill
#
# Bulk Modulus (GPa) = 28.46246 64.23137 46.34692
# Shear Modulus (GPa) = 26.30217 39.99546 33.14881
#
# Velocity S-wave (km/s) = 3.21165 3.96039 3.60551
# Velocity P-wave (km/s) = 4.99147 6.78984 5.95889
#
# Compressibility (1/GPa) = 0.03513399
#
# Stress axis : x y z
#
# Youngs Moduli (GPa) = 24.25487 124.12646 110.31532
#
# Poissons Ratio (x) = 0.66897 0.46069
# Poissons Ratio (y) = 0.13072 0.22532
# Poissons Ratio (z) = 0.10129 0.25352
#
# Static dielectric constant tensor:
#      x y z
#    x 2.090450 -0.043090 0.045700 
#    y -0.043090 2.062860 0.076190 
#    z 0.045700 0.076190 1.739650 
# 
# From -- ./inp_files/113295.got.cif
#   From: 2010.05.17/outbox.cif.g08.bks.cpg/sg2_57_cif.got.tgz:113295.got - 2010.06.03 11:33:40.
