data_PCOD9074260
_publ_section_title
;
Structure prediction by ZEFSAII (Michael W. Deem and Ramdas Pophale) SiO2 
 PCOD9074260
Probable space group: P -1
;
_chemical_formula_sum "Si O2"
_cell_formula_units_Z 14
_cell_length_a 21.000000
_cell_length_b 6.000000
_cell_length_c 15.000000
_cell_angle_alpha 100.000000
_cell_angle_beta 160.000000
_cell_angle_gamma 80.000000
_cell_volume 636.289766
_symmetry_space_group_name_H-M "P -1"
_symmetry_group_IT_number 2
_symmetry_cell_setting 'triclinic'
loop_
_space_group_symop_operation_xyz
x,y,z
-x,-y,-z
loop_
_atom_site_type_symbol
_atom_site_label
_atom_site_fract_x
_atom_site_fract_y
_atom_site_fract_z
Si Si1 0.428693 0.742270 0.791359
Si Si2 0.263297 0.872729 0.765030
Si Si3 0.692437 0.398144 0.017473
Si Si4 0.061350 0.616952 0.227727
Si Si5 0.154825 0.181162 0.204229
Si Si6 0.554833 0.038632 0.680150
Si Si7 0.109103 0.256227 0.810143
O O1 0.365323 0.722356 0.810135
O O2 0.235409 0.783223 0.484369
O O3 0.518211 0.524475 0.845356
O O4 0.591887 0.924967 0.017948
O O5 0.239741 0.765218 0.824364
O O6 0.055551 0.907142 0.451489
O O7 0.833429 0.587937 0.185483
O O8 0.636670 0.273496 0.843023
O O9 0.132657 0.384891 0.259540
O O10 0.979657 0.589935 0.216899
O O11 0.897386 0.713456 0.954333
O O12 0.352140 0.050180 0.459190
O O13 0.000000 0.000000 0.000000
O O14 0.500000 0.000000 0.500000
O O15 0.706957 0.862506 0.910858
#
# Coordination Sequence:
#
# PCOD9074260 Si02
#       7
#     2   2   2   2   2   2   2
#     4  10  22  44  73 101 142 177 239 289 338 418
#     4  10  24  46  71 105 138 189 232 287 346 413
#     4  12  25  42  72 101 146 184 229 288 350 414
#     4  10  23  45  68 105 133 190 231 288 342 420
#     4  11  25  43  73  97 138 181 242 284 349 410
#     4  12  27  47  67 107 140 184 227 291 357 410
#     4  11  26  44  71 104 148 177 234 285 353 418
#
# _framework density 22.002554
#
# number of rings (size 3 to 8) (size 9 to 14) (size 15 to 20)
#    0.000    1.143    2.857    1.714    6.000    4.000 
#    0.000    2.857    0.000    0.000    0.000    0.000 
#    0.000    0.000    0.000    0.000    0.000    0.000 
#
# Total GULP energy -78076.295161 kJ/mol
# GULP energy per Si atom -5576.878226 kJ/mol
# Density = 2.195248 g / cm^3
# Si number density = 22.002554 Si / 1000 Ang^3
#
#
#
# Elastic Constant Matrix: (Units=GPa)
#
#
# Indices 1 2 3 4 5 6 
#
# 1 134.1097 44.6638 45.2547 -4.3129 -4.7414 -10.8933
# 2 44.6638 55.9880 47.0607 10.2578 -2.9036 -10.1127
# 3 45.2547 47.0607 179.0553 8.5109 -0.3071 -1.0678
# 4 -4.3129 10.2578 8.5109 36.3311 -3.4758 -3.2798
# 5 -4.7414 -2.9036 -0.3071 -3.4758 38.8478 10.1461
# 6 -10.8933 -10.1127 -1.0678 -3.2798 10.1461 32.4446
#
#
#
# Elastic Compliance Matrix: (Units=1/GPa)
#
#
# Indices 1 2 3 4 5 6 
#
# 1 0.010765 -0.008528 -0.000662 0.004012 0.000741 0.001109
# 2 -0.008528 0.032245 -0.005890 -0.008256 -0.001116 0.006508
# 3 -0.000662 -0.005890 0.007303 -0.000294 -0.000008 -0.001845
# 4 0.004012 -0.008256 -0.000294 0.030726 0.002320 0.001144
# 5 0.000741 -0.001116 -0.000008 0.002320 0.028226 -0.008692
# 6 0.001109 0.006508 -0.001845 0.001144 -0.008692 0.035995
#
#
# Mechanical properties :
#
#
# Convention : Reuss Voigt Hill
#
# Bulk Modulus (GPa) = 49.61972 71.45682 60.53827
# Shear Modulus (GPa) = 27.45149 37.00294 32.22722
#
# Velocity S-wave (km/s) = 3.53604 4.10537 3.83130
# Velocity P-wave (km/s) = 6.26675 7.41749 6.86627
#
# Compressibility (1/GPa) = 0.02015328
#
# Stress axis : x y z
#
# Youngs Moduli (GPa) = 92.89057 31.01255 136.92316
#
# Poissons Ratio (x) = 0.26446 0.09070
# Poissons Ratio (y) = 0.79213 0.80652
# Poissons Ratio (z) = 0.06153 0.18267
#
# Static dielectric constant tensor:
#      x y z
#    x 1.828780 -0.004960 0.008370 
#    y -0.004960 1.846990 -0.011310 
#    z 0.008370 -0.011310 1.837000 
# 
# From -- ./inp_files/107109.got.cif
#   From: 2010.05.17/outbox.ucp.g08.bks.cvg/sg2_54_cif.got.tgz:107109.got - 2010.06.11 11:32:03.
