data_PCOD9074364
_publ_section_title
;
Structure prediction by ZEFSAII (Michael W. Deem and Ramdas Pophale) SiO2 
 PCOD9074364
Probable space group: P -1
;
_chemical_formula_sum "Si O2"
_cell_formula_units_Z 14
_cell_length_a 30.000000
_cell_length_b 15.000000
_cell_length_c 12.000000
_cell_angle_alpha 30.000000
_cell_angle_beta 160.000000
_cell_angle_gamma 160.000000
_cell_volume 624.976433
_symmetry_space_group_name_H-M "P -1"
_symmetry_group_IT_number 2
_symmetry_cell_setting 'triclinic'
loop_
_space_group_symop_operation_xyz
x,y,z
-x,-y,-z
loop_
_atom_site_type_symbol
_atom_site_label
_atom_site_fract_x
_atom_site_fract_y
_atom_site_fract_z
Si Si1 0.251241 0.989268 0.872749
Si Si2 0.551466 0.338239 0.804718
Si Si3 0.934408 0.847450 0.127538
Si Si4 0.380056 0.714680 0.721201
Si Si5 0.757413 0.956977 0.764991
Si Si6 0.168330 0.487173 0.252540
Si Si7 0.448298 0.208668 0.317609
O O1 0.446965 0.192590 0.043513
O O2 0.301200 0.119951 0.969935
O O3 0.096563 0.916175 0.506472
O O4 0.202891 0.733569 0.055795
O O5 0.500000 0.500000 0.500000
O O6 0.382471 0.080122 0.612190
O O7 0.761309 0.537986 0.026255
O O8 0.589625 0.316817 0.045519
O O9 0.850855 0.902713 0.962194
O O10 0.000000 0.000000 0.000000
O O11 0.202206 0.485016 0.468143
O O12 0.406769 0.956530 0.518276
O O13 0.613269 0.761974 0.741190
O O14 0.950095 0.231843 0.976575
O O15 0.335899 0.570244 0.472873
#
# Coordination Sequence:
#
# PCOD9074364 Si02
#       7
#     2   2   2   2   2   2   2
#     4   9  19  41  66  92 126 169 201 249 315 373
#     4  10  23  41  58  86 126 168 206 247 309 377
#     4  11  25  43  63  85 127 175 206 249 324 375
#     4   9  19  42  66  90 127 168 202 251 314 372
#     4  11  24  40  64  96 126 158 215 259 304 363
#     4   9  21  41  68  96 124 161 208 257 306 363
#     4   9  21  39  65  98 128 155 208 260 308 364
#
# _framework density 22.400845
#
# number of rings (size 3 to 8) (size 9 to 14) (size 15 to 20)
#    0.000    2.286    0.000    3.429    6.000    2.286 
#    2.571    3.571    0.000    0.000    0.000    0.000 
#    0.000    0.000    0.000    0.000    0.000    0.000 
#
# Total GULP energy -78050.947151 kJ/mol
# GULP energy per Si atom -5575.067654 kJ/mol
# Density = 2.234986 g / cm^3
# Si number density = 22.400845 Si / 1000 Ang^3
#
#
#
# Elastic Constant Matrix: (Units=GPa)
#
#
# Indices 1 2 3 4 5 6 
#
# 1 144.3392 22.5360 57.1413 7.2941 -27.5797 8.9652
# 2 22.5360 70.4664 38.0790 24.6900 -25.5263 4.9517
# 3 57.1413 38.0790 153.3247 24.7860 -51.1080 7.3773
# 4 7.2941 24.6900 24.7860 43.0265 -7.0994 -9.9047
# 5 -27.5797 -25.5263 -51.1080 -7.0994 54.0925 -2.7771
# 6 8.9652 4.9517 7.3773 -9.9047 -2.7771 24.6031
#
#
#
# Elastic Compliance Matrix: (Units=1/GPa)
#
#
# Indices 1 2 3 4 5 6 
#
# 1 0.008394 -0.000753 -0.002325 0.000170 0.001650 -0.001955
# 2 -0.000753 0.022782 -0.000060 -0.013621 0.008068 -0.008866
# 3 -0.002325 -0.000060 0.011348 -0.005572 0.008581 -0.003818
# 4 0.000170 -0.013621 -0.005572 0.037640 -0.005697 0.018860
# 5 0.001650 0.008068 0.008581 -0.005697 0.030307 -0.003671
# 6 -0.001955 -0.008866 -0.003818 0.018860 -0.003671 0.051465
#
#
# Mechanical properties :
#
#
# Convention : Reuss Voigt Hill
#
# Bulk Modulus (GPa) = 27.58646 67.07145 47.32896
# Shear Modulus (GPa) = 27.73232 41.03602 34.38417
#
# Velocity S-wave (km/s) = 3.52234 4.28471 3.92209
# Velocity P-wave (km/s) = 5.37440 7.38138 6.45635
#
# Compressibility (1/GPa) = 0.03624966
#
# Stress axis : x y z
#
# Youngs Moduli (GPa) = 119.13071 43.89388 88.11973
#
# Poissons Ratio (x) = 0.03304 0.20486
# Poissons Ratio (y) = 0.08968 0.00527
# Poissons Ratio (z) = 0.27696 0.00262
#
# Static dielectric constant tensor:
#      x y z
#    x 1.849510 -0.069600 0.060060 
#    y -0.069600 1.985300 -0.070600 
#    z 0.060060 -0.070600 2.087200 
# 
# From -- ./inp_files/279965.got.cif
#   From: 2010.05.17/outbox.ucp.g08.bks.cvg/sg2_140_cif.got.tgz:279965.got - 2010.06.11 11:32:03.
