data_PCOD9074131
_publ_section_title
;
Structure prediction by ZEFSAII (Michael W. Deem and Ramdas Pophale) SiO2 
 PCOD9074131
Probable space group: P -1
;
_chemical_formula_sum "Si O2"
_cell_formula_units_Z 16
_cell_length_a 18.000000
_cell_length_b 15.000000
_cell_length_c 12.000000
_cell_angle_alpha 130.000000
_cell_angle_beta 150.000000
_cell_angle_gamma 30.000000
_cell_volume 731.734496
_symmetry_space_group_name_H-M "P -1"
_symmetry_group_IT_number 2
_symmetry_cell_setting 'triclinic'
loop_
_space_group_symop_operation_xyz
x,y,z
-x,-y,-z
loop_
_atom_site_type_symbol
_atom_site_label
_atom_site_fract_x
_atom_site_fract_y
_atom_site_fract_z
Si Si1 0.310489 0.290649 0.727610
Si Si2 0.899407 0.494397 0.993857
Si Si3 0.720253 0.229359 0.802295
Si Si4 0.693166 0.608805 0.432229
Si Si5 0.444953 0.639945 0.793306
Si Si6 0.996442 0.194142 0.512570
Si Si7 0.735232 0.840833 0.963472
Si Si8 0.634678 0.230492 0.433397
O O1 0.394839 0.272055 0.697363
O O2 0.000000 0.500000 0.500000
O O3 0.435768 0.310320 0.983889
O O4 0.460684 0.073180 0.772274
O O5 0.665353 0.591041 0.832189
O O6 0.054754 0.295933 0.971823
O O7 0.752489 0.690428 0.890973
O O8 0.102872 0.435895 0.282038
O O9 0.520102 0.289012 0.671529
O O10 0.656811 0.404845 0.887149
O O11 0.666956 0.250783 0.618187
O O12 0.000000 0.000000 0.000000
O O13 0.842641 0.397126 0.419362
O O14 0.222406 0.750764 0.680232
O O15 0.304554 0.728390 0.561649
O O16 0.145666 0.163385 0.782323
O O17 0.198078 0.991946 0.543373
#
# Coordination Sequence:
#
# PCOD9074131 Si02
#       8
#     2   2   2   2   2   2   2   2
#     4  12  27  42  70 101 136 175 224 273 337 397
#     4  10  22  42  69  95 133 175 222 274 328 385
#     4  11  27  43  67 100 135 179 217 265 342 403
#     4  10  25  44  64 100 139 175 220 273 334 398
#     4  11  25  45  64  99 136 169 224 281 327 387
#     4  10  23  41  70  98 127 177 224 275 334 382
#     4  10  22  43  67  97 133 168 224 274 329 393
#     4  12  23  41  72  99 127 174 227 276 322 402
#
# _framework density 21.865853999999999
#
# number of rings (size 3 to 8) (size 9 to 14) (size 15 to 20)
#    0.000    1.250    1.250    4.500    5.250    4.500 
#    0.000    0.000    0.000    0.000    0.000    0.000 
#    0.000    0.000    0.000    0.000    0.000    0.000 
#
# Total GULP energy -89324.447801 kJ/mol
# GULP energy per Si atom -5582.777988 kJ/mol
# Density = 2.181609 g / cm^3
# Si number density = 21.865854 Si / 1000 Ang^3
#
#
#
# Elastic Constant Matrix: (Units=GPa)
#
#
# Indices 1 2 3 4 5 6 
#
# 1 52.4570 6.0219 13.6902 3.5667 -18.6305 -6.5790
# 2 6.0219 145.6528 24.4854 -21.1204 -2.3949 -18.8956
# 3 13.6902 24.4854 59.8633 -10.6274 -3.7636 -0.6340
# 4 3.5667 -21.1204 -10.6274 38.8576 -1.5683 -4.2204
# 5 -18.6305 -2.3949 -3.7636 -1.5683 29.4841 -8.7103
# 6 -6.5790 -18.8956 -0.6340 -4.2204 -8.7103 39.0725
#
#
#
# Elastic Compliance Matrix: (Units=1/GPa)
#
#
# Indices 1 2 3 4 5 6 
#
# 1 0.029148 0.001152 -0.006067 -0.001822 0.020519 0.009744
# 2 0.001152 0.008714 -0.002768 0.004592 0.002957 0.005518
# 3 -0.006067 -0.002768 0.019826 0.004180 -0.001900 -0.002011
# 4 -0.001822 0.004592 0.004180 0.030314 0.003126 0.005953
# 5 0.020519 0.002957 -0.001900 0.003126 0.052005 0.016785
# 6 0.009744 0.005518 -0.002011 0.005953 0.016785 0.034255
#
#
# Mechanical properties :
#
#
# Convention : Reuss Voigt Hill
#
# Bulk Modulus (GPa) = 23.62909 38.48536 31.05722
# Shear Modulus (GPa) = 24.54176 35.73454 30.13815
#
# Velocity S-wave (km/s) = 3.35383 4.04699 3.71660
# Velocity P-wave (km/s) = 5.08206 6.28302 5.71418
#
# Compressibility (1/GPa) = 0.04232072
#
# Stress axis : x y z
#
# Youngs Moduli (GPa) = 34.30798 114.76158 50.43953
#
# Poissons Ratio (x) = -0.13222 0.30603
# Poissons Ratio (y) = -0.03953 0.13962
# Poissons Ratio (z) = 0.20816 0.31766
#
# Static dielectric constant tensor:
#      x y z
#    x 1.921970 0.005970 0.013740 
#    y 0.005970 1.786730 0.013610 
#    z 0.013740 0.013610 1.814550 
# 
# From -- ./inp_files/466132.got.cif
#   From: 2010.05.17/outbox.ucp.g08.bks.cvg/sg2_234_cif.got.tgz:466132.got - 2010.06.11 11:32:03.
