data_PCOD9074711
_publ_section_title
;
Structure prediction by ZEFSAII (Michael W. Deem and Ramdas Pophale) SiO2 
 PCOD9074711
Probable space group: P -1
;
_chemical_formula_sum "Si O2"
_cell_formula_units_Z 16
_cell_length_a 12.000000
_cell_length_b 18.000000
_cell_length_c 6.000000
_cell_angle_alpha 60.000000
_cell_angle_beta 90.000000
_cell_angle_gamma 130.000000
_cell_volume 752.153660
_symmetry_space_group_name_H-M "P -1"
_symmetry_group_IT_number 2
_symmetry_cell_setting 'triclinic'
loop_
_space_group_symop_operation_xyz
x,y,z
-x,-y,-z
loop_
_atom_site_type_symbol
_atom_site_label
_atom_site_fract_x
_atom_site_fract_y
_atom_site_fract_z
Si Si1 0.362178 0.944703 0.391038
Si Si2 0.409550 0.330594 0.858974
Si Si3 0.326743 0.461998 0.830556
Si Si4 0.943390 0.212482 0.072904
Si Si5 0.157321 0.641475 0.200453
Si Si6 0.376889 0.654967 0.855513
Si Si7 0.033254 0.070003 0.143712
Si Si8 0.432028 0.823010 0.277085
O O1 0.189240 0.876841 0.595399
O O2 0.352191 0.853150 0.381109
O O3 0.500000 0.000000 0.500000
O O4 0.430063 0.055065 0.058568
O O5 0.383353 0.393360 0.947566
O O6 0.542885 0.433258 0.515825
O O7 0.496412 0.301037 0.021813
O O8 0.230588 0.203482 0.951188
O O9 0.323516 0.535114 0.911010
O O10 0.135303 0.341894 0.933997
O O11 0.949648 0.120880 0.082856
O O12 0.877955 0.274423 0.917805
O O13 0.296813 0.708260 0.284547
O O14 0.000000 0.500000 0.500000
O O15 0.230526 0.632694 0.993895
O O16 0.480733 0.774175 0.510141
O O17 0.000000 0.000000 0.500000
O O18 0.000000 0.000000 0.000000
#
# Coordination Sequence:
#
# PCOD9074711 Si02
#       8
#     2   2   2   2   2   2   2   2
#     4  11  23  46  68 100 144 195 246 301 380 459
#     4  10  24  50  74 108 151 189 260 309 388 445
#     4  10  24  45  76 107 137 203 248 319 381 450
#     4  11  24  50  75 108 152 192 259 319 389 455
#     4  12  26  44  68 111 151 191 243 309 386 464
#     4  12  23  42  71 108 148 189 250 307 381 460
#     4  11  29  55  81 117 152 207 265 324 385 456
#     4  11  24  41  67 102 146 198 245 298 385 456
#
# _framework density 21.272248999999999
#
# number of rings (size 3 to 8) (size 9 to 14) (size 15 to 20)
#    0.000    1.000    2.500    2.625    3.500    5.000 
#   11.250    0.000    0.000    0.000    0.000    0.000 
#    0.000    0.000    0.000    0.000    0.000    0.000 
#
# Total GULP energy -89077.114363 kJ/mol
# GULP energy per Si atom -5567.319648 kJ/mol
# Density = 2.122383 g / cm^3
# Si number density = 21.272249 Si / 1000 Ang^3
#
#
#
# Elastic Constant Matrix: (Units=GPa)
#
#
# Indices 1 2 3 4 5 6 
#
# 1 122.4045 32.3097 66.7274 -0.9279 -0.2807 -10.3246
# 2 32.3097 129.3288 45.1512 -2.2505 -12.6918 -29.5337
# 3 66.7274 45.1512 120.1795 -12.8227 -8.9440 -4.6695
# 4 -0.9279 -2.2505 -12.8227 28.8245 -3.0630 -8.3659
# 5 -0.2807 -12.6918 -8.9440 -3.0630 51.3986 -2.8380
# 6 -10.3246 -29.5337 -4.6695 -8.3659 -2.8380 34.5192
#
#
#
# Elastic Compliance Matrix: (Units=1/GPa)
#
#
# Indices 1 2 3 4 5 6 
#
# 1 0.012143 -0.000423 -0.006864 -0.002348 -0.001280 0.001667
# 2 -0.000423 0.011677 -0.003224 0.002795 0.003059 0.010357
# 3 -0.006864 -0.003224 0.014019 0.005550 0.001858 -0.001417
# 4 -0.002348 0.002795 0.005550 0.041565 0.004833 0.012910
# 5 -0.001280 0.003059 0.001858 0.004833 0.021113 0.005392
# 6 0.001667 0.010357 -0.001417 0.012910 0.005392 0.041710
#
#
# Mechanical properties :
#
#
# Convention : Reuss Voigt Hill
#
# Bulk Modulus (GPa) = 59.46518 73.36549 66.41534
# Shear Modulus (GPa) = 29.61103 38.13009 33.87056
#
# Velocity S-wave (km/s) = 3.73500 4.23836 3.99462
# Velocity P-wave (km/s) = 6.82754 7.64953 7.25020
#
# Compressibility (1/GPa) = 0.01681656
#
# Stress axis : x y z
#
# Youngs Moduli (GPa) = 82.35035 85.63513 71.33239
#
# Poissons Ratio (x) = 0.03622 0.48966
# Poissons Ratio (y) = 0.03483 0.22998
# Poissons Ratio (z) = 0.56529 0.27610
#
# Static dielectric constant tensor:
#      x y z
#    x 1.802860 -0.028710 0.036410 
#    y -0.028710 1.799190 0.023280 
#    z 0.036410 0.023280 1.824730 
# 
# From -- ./inp_files/81240.got.cif
#   From: 2010.05.17/outbox.ucp.g08.bks.cvg/sg2_41_cif.got.tgz:81240.got - 2010.06.11 11:32:03.
