data_PCOD9074113
_publ_section_title
;
Structure prediction by ZEFSAII (Michael W. Deem and Ramdas Pophale) SiO2 
 PCOD9074113
Probable space group: P -1
;
_chemical_formula_sum "Si O2"
_cell_formula_units_Z 10
_cell_length_a 15.000000
_cell_length_b 15.000000
_cell_length_c 6.000000
_cell_angle_alpha 70.000000
_cell_angle_beta 70.000000
_cell_angle_gamma 20.000000
_cell_volume 432.987182
_symmetry_space_group_name_H-M "P -1"
_symmetry_group_IT_number 2
_symmetry_cell_setting 'triclinic'
loop_
_space_group_symop_operation_xyz
x,y,z
-x,-y,-z
loop_
_atom_site_type_symbol
_atom_site_label
_atom_site_fract_x
_atom_site_fract_y
_atom_site_fract_z
Si Si1 0.745440 0.450562 0.667577
Si Si2 0.106757 0.828344 0.870945
Si Si3 0.773256 0.099262 0.532797
Si Si4 0.780200 0.786740 0.942972
Si Si5 0.066258 0.326338 0.592311
O O1 0.504196 0.678120 0.509293
O O2 0.819452 0.486382 0.653552
O O3 0.711635 0.415248 0.945765
O O4 0.996238 0.168768 0.572118
O O5 0.236747 0.778695 0.624704
O O6 0.869028 0.001595 0.789662
O O7 0.000000 0.000000 0.000000
O O8 0.803987 0.811827 0.650280
O O9 0.809380 0.808320 0.148973
O O10 0.000000 0.500000 0.000000
O O11 0.500000 0.000000 0.000000
O O12 0.000000 0.500000 0.500000
#
# Coordination Sequence:
#
# PCOD9074113 Si02
#       5
#     2   2   2   2   2
#     4  11  24  40  65  96 133 174 224 275 339 401
#     4   9  21  42  65  96 129 174 218 276 340 405
#     4  10  23  41  65  95 133 170 223 277 338 405
#     4  10  22  42  67  91 127 173 225 275 334 392
#     4  10  24  45  67 102 136 183 227 284 338 407
#
# _framework density 23.095372000000001
#
# number of rings (size 3 to 8) (size 9 to 14) (size 15 to 20)
#    0.000    2.000    0.000    1.200    2.800   16.800 
#    0.000    0.000    0.000    0.000    0.000    0.000 
#    0.000    0.000    0.000    0.000    0.000    0.000 
#
# Total GULP energy -55792.045447 kJ/mol
# GULP energy per Si atom -5579.204545 kJ/mol
# Density = 2.304281 g / cm^3
# Si number density = 23.095372 Si / 1000 Ang^3
#
#
#
# Elastic Constant Matrix: (Units=GPa)
#
#
# Indices 1 2 3 4 5 6 
#
# 1 141.3861 33.3953 27.0720 -21.6459 23.4102 -28.0852
# 2 33.3953 108.9564 4.4605 -7.4294 12.1774 -22.5815
# 3 27.0720 4.4605 124.4960 -2.0513 50.1467 -5.2474
# 4 -21.6459 -7.4294 -2.0513 24.9146 -11.4118 6.5608
# 5 23.4102 12.1774 50.1467 -11.4118 49.3880 -21.5714
# 6 -28.0852 -22.5815 -5.2474 6.5608 -21.5714 38.4110
#
#
#
# Elastic Compliance Matrix: (Units=1/GPa)
#
#
# Indices 1 2 3 4 5 6 
#
# 1 0.009937 -0.001398 -0.003115 0.007815 0.003510 0.006654
# 2 -0.001398 0.010738 -0.000160 0.000879 0.000817 0.005577
# 3 -0.003115 -0.000160 0.017498 -0.008974 -0.023382 -0.011580
# 4 0.007815 0.000879 -0.008974 0.054073 0.020984 0.007554
# 5 0.003510 0.000817 -0.023382 0.020984 0.060079 0.030008
# 6 0.006654 0.005577 -0.011580 0.007554 0.030008 0.048158
#
#
# Mechanical properties :
#
#
# Convention : Reuss Voigt Hill
#
# Bulk Modulus (GPa) = 34.69268 56.07712 45.38490
# Shear Modulus (GPa) = 22.78550 43.20342 32.99446
#
# Velocity S-wave (km/s) = 3.14440 4.32980 3.78381
# Velocity P-wave (km/s) = 5.31386 7.02350 6.22763
#
# Compressibility (1/GPa) = 0.02882453
#
# Stress axis : x y z
#
# Youngs Moduli (GPa) = 100.63688 93.13062 57.15037
#
# Poissons Ratio (x) = 0.13023 0.17804
# Poissons Ratio (y) = 0.14073 0.00915
# Poissons Ratio (z) = 0.31351 0.01491
#
# Static dielectric constant tensor:
#      x y z
#    x 1.890550 -0.016280 -0.020770 
#    y -0.016280 1.837960 0.043130 
#    z -0.020770 0.043130 1.980930 
# 
# From -- ./inp_files/2296.got.cif
#   From: 2010.05.17/outbox.ucp.g08.bks.cvg/sg2_2_cif.got.tgz:2296.got - 2010.06.11 11:32:03.
