data_PCOD9074820
_publ_section_title
;
Structure prediction by ZEFSAII (Michael W. Deem and Ramdas Pophale) SiO2 
 PCOD9074820
Probable space group: P -1
;
_chemical_formula_sum "Si O2"
_cell_formula_units_Z 16
_cell_length_a 12.000000
_cell_length_b 9.000000
_cell_length_c 9.000000
_cell_angle_alpha 60.000000
_cell_angle_beta 70.000000
_cell_angle_gamma 60.000000
_cell_volume 723.492119
_symmetry_space_group_name_H-M "P -1"
_symmetry_group_IT_number 2
_symmetry_cell_setting 'triclinic'
loop_
_space_group_symop_operation_xyz
x,y,z
-x,-y,-z
loop_
_atom_site_type_symbol
_atom_site_label
_atom_site_fract_x
_atom_site_fract_y
_atom_site_fract_z
Si Si1 0.606224 0.431692 0.355265
Si Si2 0.523281 0.847034 0.197110
Si Si3 0.476778 0.693501 0.832573
Si Si4 0.312461 0.123742 0.343476
Si Si5 0.082915 0.800944 0.643282
Si Si6 0.991346 0.821396 0.018939
Si Si7 0.727404 0.915694 0.262998
Si Si8 0.060925 0.429524 0.172893
O O1 0.500000 0.500000 0.500000
O O2 0.583544 0.640177 0.200934
O O3 0.547897 0.336849 0.310894
O O4 0.758990 0.295563 0.379149
O O5 0.629374 0.836066 0.277710
O O6 0.389944 0.929983 0.313834
O O7 0.500000 0.000000 0.000000
O O8 0.588380 0.772468 0.750644
O O9 0.342511 0.863194 0.855533
O O10 0.500000 0.500000 0.000000
O O11 0.268926 0.107027 0.544687
O O12 0.192834 0.249628 0.230803
O O13 0.042655 0.639798 0.673105
O O14 0.000000 0.000000 0.500000
O O15 0.025767 0.833310 0.822935
O O16 0.855110 0.832287 0.144065
O O17 0.082738 0.609286 0.131858
O O18 0.000000 0.000000 0.000000
O O19 0.000000 0.500000 0.000000
#
# Coordination Sequence:
#
# PCOD9074820 Si02
#       8
#     2   2   2   2   2   2   2   2
#     4  12  25  45  73 107 142 182 243 303 363 440
#     4  11  25  41  74 105 137 189 246 301 363 440
#     4  11  25  42  72 106 146 188 234 312 368 438
#     4  11  25  47  73 104 148 197 245 309 384 441
#     4  11  28  48  76 107 154 196 245 311 381 451
#     4  11  26  46  71 102 143 192 247 302 367 450
#     4  11  24  46  68 101 146 189 247 300 372 450
#     4  10  26  47  75  99 150 198 250 300 386 451
#
# _framework density 22.114961000000001
#
# number of rings (size 3 to 8) (size 9 to 14) (size 15 to 20)
#    0.000    1.000    0.000    6.000   17.500    1.500 
#    2.250    0.000    0.000    0.000    0.000    0.000 
#    0.000    0.000    0.000    0.000    0.000    0.000 
#
# Total GULP energy -89185.528031 kJ/mol
# GULP energy per Si atom -5574.095502 kJ/mol
# Density = 2.206463 g / cm^3
# Si number density = 22.114961 Si / 1000 Ang^3
#
#
#
# Elastic Constant Matrix: (Units=GPa)
#
#
# Indices 1 2 3 4 5 6 
#
# 1 102.9218 37.2100 27.9264 -2.2850 2.4322 -23.1711
# 2 37.2100 119.7564 36.2249 -10.1742 -1.3807 -16.1379
# 3 27.9264 36.2249 128.8186 -5.8762 -6.6376 -27.9051
# 4 -2.2850 -10.1742 -5.8762 54.7187 -1.9155 -5.0118
# 5 2.4322 -1.3807 -6.6376 -1.9155 31.7638 -1.1165
# 6 -23.1711 -16.1379 -27.9051 -5.0118 -1.1165 53.3099
#
#
#
# Elastic Compliance Matrix: (Units=1/GPa)
#
#
# Indices 1 2 3 4 5 6 
#
# 1 0.011911 -0.002889 -0.001003 0.000159 -0.001105 0.003769
# 2 -0.002889 0.010101 -0.001909 0.001655 0.000395 0.000967
# 3 -0.001003 -0.001909 0.009579 0.001089 0.002207 0.004149
# 4 0.000159 0.001655 0.001089 0.019032 0.001539 0.002962
# 5 -0.001105 0.000395 0.002207 0.001539 0.032195 0.001614
# 6 0.003769 0.000967 0.004149 0.002962 0.001614 0.023173
#
#
# Mechanical properties :
#
#
# Convention : Reuss Voigt Hill
#
# Bulk Modulus (GPa) = 50.02588 61.57994 55.80291
# Shear Modulus (GPa) = 40.23972 44.63418 42.43695
#
# Velocity S-wave (km/s) = 4.27027 4.49740 4.38531
# Velocity P-wave (km/s) = 6.85445 7.40774 7.13646
#
# Compressibility (1/GPa) = 0.01998965
#
# Stress axis : x y z
#
# Youngs Moduli (GPa) = 83.95665 99.00299 104.39198
#
# Poissons Ratio (x) = 0.28600 0.10470
# Poissons Ratio (y) = 0.24253 0.19927
# Poissons Ratio (z) = 0.08420 0.18899
#
# Static dielectric constant tensor:
#      x y z
#    x 1.886500 0.069040 -0.034250 
#    y 0.069040 1.948200 -0.017620 
#    z -0.034250 -0.017620 1.877620 
# 
# From -- ./inp_files/242512.got.cif
#   From: 2010.05.17/outbox.ucp.g08.bks.cvg/sg2_122_cif.got.tgz:242512.got - 2010.06.11 11:32:03.
