data_PCOD9074517
_publ_section_title
;
Structure prediction by ZEFSAII (Michael W. Deem and Ramdas Pophale) SiO2 
 PCOD9074517
Probable space group: P -1
;
_chemical_formula_sum "Si O2"
_cell_formula_units_Z 16
_cell_length_a 12.000000
_cell_length_b 12.000000
_cell_length_c 9.000000
_cell_angle_alpha 130.000000
_cell_angle_beta 60.000000
_cell_angle_gamma 90.000000
_cell_volume 752.153660
_symmetry_space_group_name_H-M "P -1"
_symmetry_group_IT_number 2
_symmetry_cell_setting 'triclinic'
loop_
_space_group_symop_operation_xyz
x,y,z
-x,-y,-z
loop_
_atom_site_type_symbol
_atom_site_label
_atom_site_fract_x
_atom_site_fract_y
_atom_site_fract_z
Si Si1 0.343872 0.286856 0.022092
Si Si2 0.204026 0.122756 0.169212
Si Si3 0.447528 0.259205 0.589705
Si Si4 0.875794 0.320835 0.548028
Si Si5 0.385383 0.987486 0.237845
Si Si6 0.771053 0.206726 0.256449
Si Si7 0.830822 0.123863 0.670430
Si Si8 0.663050 0.424208 0.257079
O O1 0.256716 0.191248 0.053337
O O2 0.234229 0.486892 0.259640
O O3 0.408049 0.250108 0.780077
O O4 0.480646 0.200056 0.974977
O O5 0.321890 0.055121 0.170707
O O6 0.041720 0.274574 0.443185
O O7 0.182206 0.966468 0.005333
O O8 0.434580 0.113295 0.385949
O O9 0.608625 0.247253 0.461009
O O10 0.340816 0.431955 0.721982
O O11 0.874605 0.207751 0.316523
O O12 0.821457 0.250235 0.658460
O O13 0.245561 0.988014 0.411391
O O14 0.759839 0.351804 0.278058
O O15 0.725305 0.253343 0.976741
O O16 0.000000 0.000000 0.500000
O O17 0.500000 0.500000 0.500000
#
# Coordination Sequence:
#
# PCOD9074517 Si02
#       8
#     2   2   2   2   2   2   2   2
#     4  12  27  45  72 107 143 185 245 296 358 428
#     4  12  26  48  68 106 149 193 234 291 369 435
#     4  11  25  46  69 107 139 182 239 305 359 421
#     4  12  27  46  72 106 146 190 238 298 361 427
#     4  12  26  44  77 102 142 192 239 298 364 431
#     4  11  24  44  73 103 141 184 244 293 360 422
#     4  12  24  48  74 104 145 190 241 297 365 433
#     4  10  23  44  72 106 146 181 244 304 351 429
#
# _framework density 21.272248999999999
#
# number of rings (size 3 to 8) (size 9 to 14) (size 15 to 20)
#    0.000    0.500    5.000    2.250    7.000    1.000 
#    0.000    1.250    0.000    0.000    0.000    0.000 
#    0.000    0.000    0.000    0.000    0.000    0.000 
#
# Total GULP energy -89234.155803 kJ/mol
# GULP energy per Si atom -5577.134738 kJ/mol
# Density = 2.122383 g / cm^3
# Si number density = 21.272249 Si / 1000 Ang^3
#
#
#
# Elastic Constant Matrix: (Units=GPa)
#
#
# Indices 1 2 3 4 5 6 
#
# 1 85.9132 38.8766 29.3906 8.5955 -9.5194 -24.9137
# 2 38.8766 189.5846 32.6814 8.5883 -8.3188 -26.3288
# 3 29.3906 32.6814 79.2518 14.6468 -1.2776 -25.1306
# 4 8.5955 8.5883 14.6468 43.8565 -4.9611 -1.1183
# 5 -9.5194 -8.3188 -1.2776 -4.9611 27.3795 -0.4242
# 6 -24.9137 -26.3288 -25.1306 -1.1183 -0.4242 36.4557
#
#
#
# Elastic Compliance Matrix: (Units=1/GPa)
#
#
# Indices 1 2 3 4 5 6 
#
# 1 0.016253 -0.001470 -0.002443 -0.001304 0.004984 0.008380
# 2 -0.001470 0.006215 -0.001055 -0.000358 0.001306 0.002761
# 3 -0.002443 -0.001055 0.018016 -0.005208 -0.001121 0.009815
# 4 -0.001304 -0.000358 -0.005208 0.025185 0.003697 -0.003925
# 5 0.004984 0.001306 -0.001121 0.003697 0.039335 0.004147
# 6 0.008380 0.002761 0.009815 -0.003925 0.004147 0.041845
#
#
# Mechanical properties :
#
#
# Convention : Reuss Voigt Hill
#
# Bulk Modulus (GPa) = 32.73510 61.84966 47.29238
# Shear Modulus (GPa) = 29.94596 38.45840 34.20218
#
# Velocity S-wave (km/s) = 3.75607 4.25657 4.01413
# Velocity P-wave (km/s) = 5.85088 7.30043 6.61548
#
# Compressibility (1/GPa) = 0.03054825
#
# Stress axis : x y z
#
# Youngs Moduli (GPa) = 61.52573 160.90155 55.50734
#
# Poissons Ratio (x) = 0.23658 0.13558
# Poissons Ratio (y) = 0.09046 0.05855
# Poissons Ratio (z) = 0.15028 0.16973
#
# Static dielectric constant tensor:
#      x y z
#    x 1.778390 -0.016410 -0.024770 
#    y -0.016410 1.767850 -0.015760 
#    z -0.024770 -0.015760 1.862040 
# 
# From -- ./inp_files/263321.got.cif
#   From: 2010.05.17/outbox.ucp.g08.bks.cvg/sg2_132_cif.got.tgz:263321.got - 2010.06.11 11:32:03.
