data_PCOD9074366
_publ_section_title
;
Structure prediction by ZEFSAII (Michael W. Deem and Ramdas Pophale) SiO2 
 PCOD9074366
Probable space group: P -1
;
_chemical_formula_sum "Si O2"
_cell_formula_units_Z 10
_cell_length_a 15.000000
_cell_length_b 15.000000
_cell_length_c 12.000000
_cell_angle_alpha 30.000000
_cell_angle_beta 150.000000
_cell_angle_gamma 160.000000
_cell_volume 439.666707
_symmetry_space_group_name_H-M "P -1"
_symmetry_group_IT_number 2
_symmetry_cell_setting 'triclinic'
loop_
_space_group_symop_operation_xyz
x,y,z
-x,-y,-z
loop_
_atom_site_type_symbol
_atom_site_label
_atom_site_fract_x
_atom_site_fract_y
_atom_site_fract_z
Si Si1 0.895062 0.518929 0.728727
Si Si2 0.657753 0.455494 0.847627
Si Si3 0.315366 0.113195 0.654739
Si Si4 0.695740 0.355072 0.222240
Si Si5 0.318884 0.731036 0.461950
O O1 0.615030 0.280353 0.752521
O O2 0.765892 0.448721 0.541974
O O3 0.080859 0.814147 0.667930
O O4 0.093128 0.495687 0.957635
O O5 0.387164 0.172790 0.799508
O O6 0.723337 0.705721 0.609216
O O7 0.605965 0.423608 0.957356
O O8 0.604365 0.314951 0.292946
O O9 0.026992 0.604500 0.310009
O O10 0.556741 0.061002 0.349263
#
# Coordination Sequence:
#
# PCOD9074366 Si02
#       5
#     2   2   2   2   2
#     4  11  22  40  61  86 119 156 193 244 292 340
#     4  10  23  41  61  86 122 157 192 243 291 344
#     4  11  25  38  60  91 118 154 201 235 288 356
#     4   9  18  34  58  83 112 153 190 234 292 339
#     4   9  18  34  58  85 111 148 196 235 285 349
#
# _framework density 22.744501
#
# number of rings (size 3 to 8) (size 9 to 14) (size 15 to 20)
#    0.000    2.000    0.000    3.600    0.000   11.200 
#    0.000    2.000    0.000    0.000    0.000    0.000 
#    0.000    0.000    0.000    0.000    0.000    0.000 
#
# Total GULP energy -55829.300495 kJ/mol
# GULP energy per Si atom -5582.930050 kJ/mol
# Density = 2.269273 g / cm^3
# Si number density = 22.744501 Si / 1000 Ang^3
#
#
#
# Elastic Constant Matrix: (Units=GPa)
#
#
# Indices 1 2 3 4 5 6 
#
# 1 66.3008 16.9204 51.8928 16.9038 -33.7463 -28.8402
# 2 16.9204 155.7391 21.3334 5.1626 -10.0846 -23.4174
# 3 51.8928 21.3334 96.3679 10.1672 -13.6271 -20.9626
# 4 16.9038 5.1626 10.1672 23.9889 -16.4470 -5.2380
# 5 -33.7463 -10.0846 -13.6271 -16.4470 44.3431 15.2269
# 6 -28.8402 -23.4174 -20.9626 -5.2380 15.2269 49.2857
#
#
#
# Elastic Compliance Matrix: (Units=1/GPa)
#
#
# Indices 1 2 3 4 5 6 
#
# 1 0.052272 0.001143 -0.021026 -0.007205 0.026346 0.013283
# 2 0.001143 0.007019 -0.001318 -0.000534 0.000783 0.003144
# 3 -0.021026 -0.001318 0.020381 -0.000534 -0.009792 -0.001293
# 4 -0.007205 -0.000534 -0.000534 0.057951 0.017030 -0.003800
# 5 0.026346 0.000783 -0.009792 0.017030 0.046396 -0.000900
# 6 0.013283 0.003144 -0.001293 -0.003800 -0.000900 0.028881
#
#
# Mechanical properties :
#
#
# Convention : Reuss Voigt Hill
#
# Bulk Modulus (GPa) = 26.83120 55.41123 41.12121
# Shear Modulus (GPa) = 18.67585 38.74093 28.70839
#
# Velocity S-wave (km/s) = 2.86862 4.13159 3.55662
# Velocity P-wave (km/s) = 4.77434 6.86844 5.91480
#
# Compressibility (1/GPa) = 0.03727005
#
# Stress axis : x y z
#
# Youngs Moduli (GPa) = 19.13057 142.47912 49.06428
#
# Poissons Ratio (x) = -0.16286 1.03162
# Poissons Ratio (y) = -0.02187 0.06468
# Poissons Ratio (z) = 0.40224 0.18782
#
# Static dielectric constant tensor:
#      x y z
#    x 1.950250 0.023760 -0.086320 
#    y 0.023760 1.804870 0.002470 
#    z -0.086320 0.002470 1.903180 
# 
# From -- ./inp_files/19465.got.cif
#   From: 2010.05.17/outbox.ucp.g08.bks.cvg/sg2_10_cif.got.tgz:19465.got - 2010.06.11 11:32:03.
