data_PCOD9074508
_publ_section_title
;
Structure prediction by ZEFSAII (Michael W. Deem and Ramdas Pophale) SiO2 
 PCOD9074508
Probable space group: P -1
;
_chemical_formula_sum "Si O2"
_cell_formula_units_Z 16
_cell_length_a 12.000000
_cell_length_b 9.000000
_cell_length_c 18.000000
_cell_angle_alpha 130.000000
_cell_angle_beta 40.000000
_cell_angle_gamma 100.000000
_cell_volume 729.599496
_symmetry_space_group_name_H-M "P -1"
_symmetry_group_IT_number 2
_symmetry_cell_setting 'triclinic'
loop_
_space_group_symop_operation_xyz
x,y,z
-x,-y,-z
loop_
_atom_site_type_symbol
_atom_site_label
_atom_site_fract_x
_atom_site_fract_y
_atom_site_fract_z
Si Si1 0.396561 0.843578 0.162259
Si Si2 0.811386 0.680992 0.088075
Si Si3 0.911843 0.501310 0.806547
Si Si4 0.317414 0.790952 0.714565
Si Si5 0.038845 0.828766 0.617075
Si Si6 0.917980 0.916501 0.869443
Si Si7 0.558337 0.730432 0.726726
Si Si8 0.692206 0.097443 0.607287
O O1 0.422975 0.055490 0.227086
O O2 0.305619 0.839069 0.287269
O O3 0.664396 0.583564 0.938843
O O4 0.211193 0.970381 0.230398
O O5 0.721559 0.969168 0.225605
O O6 0.569287 0.744030 0.234287
O O7 0.904396 0.566892 0.919655
O O8 0.000000 0.500000 0.000000
O O9 0.927979 0.677986 0.802021
O O10 0.136428 0.211028 0.585167
O O11 0.500000 0.500000 0.500000
O O12 0.432756 0.744134 0.720786
O O13 0.067885 0.883554 0.851824
O O14 0.196086 0.522456 0.452671
O O15 0.023853 0.911090 0.736314
O O16 0.196621 0.834070 0.483626
O O17 0.651049 0.158894 0.075339
#
# Coordination Sequence:
#
# PCOD9074508 Si02
#       8
#     2   2   2   2   2   2   2   2
#     4  10  23  47  66  94 133 180 226 278 342 388
#     4  11  26  44  69 101 140 180 225 282 340 411
#     4  10  23  44  70  94 137 180 220 274 345 406
#     4  12  22  43  72  97 135 178 221 281 339 402
#     4  12  26  39  68 102 132 172 230 284 325 409
#     4  11  24  40  65  99 131 170 227 270 339 399
#     4  11  23  43  67  96 133 176 220 279 335 402
#     4  11  24  44  66  98 134 177 226 277 346 400
#
# _framework density 21.929839999999999
#
# number of rings (size 3 to 8) (size 9 to 14) (size 15 to 20)
#    0.000    1.000    5.000    2.625    3.500    5.000 
#    0.000    0.000    0.000    0.000    0.000    0.000 
#    0.000    0.000    0.000    0.000    0.000    0.000 
#
# Total GULP energy -89141.886700 kJ/mol
# GULP energy per Si atom -5571.367919 kJ/mol
# Density = 2.187993 g / cm^3
# Si number density = 21.929840 Si / 1000 Ang^3
#
#
#
# Elastic Constant Matrix: (Units=GPa)
#
#
# Indices 1 2 3 4 5 6 
#
# 1 120.9688 37.4467 64.9591 -2.3833 -14.2117 -32.1111
# 2 37.4467 71.3481 17.8076 -3.0796 4.6662 -20.6559
# 3 64.9591 17.8076 59.2198 13.0603 -24.1923 -8.0506
# 4 -2.3833 -3.0796 13.0603 41.9362 -7.4159 -10.0479
# 5 -14.2117 4.6662 -24.1923 -7.4159 35.7841 12.6191
# 6 -32.1111 -20.6559 -8.0506 -10.0479 12.6191 35.6377
#
#
#
# Elastic Compliance Matrix: (Units=1/GPa)
#
#
# Indices 1 2 3 4 5 6 
#
# 1 3.173857 1.151430 -5.135716 2.274938 -3.372243 4.202500
# 2 1.151430 0.442327 -1.876847 0.832937 -1.241200 1.544228
# 3 -5.135716 -1.876847 8.342181 -3.690523 5.482564 -6.812704
# 4 2.274938 0.832937 -3.690523 1.659951 -2.422827 3.024828
# 5 -3.372243 -1.241200 5.482564 -2.422827 3.638676 -4.490971
# 6 4.202500 1.544228 -6.812704 3.024828 -4.490971 5.613810
#
#
# Mechanical properties :
#
#
# Convention : Reuss Voigt Hill
#
# Bulk Modulus (GPa) = 4.23553 54.66262 29.44907
# Shear Modulus (GPa) = 0.14421 31.42649 15.78535
#
# Velocity S-wave (km/s) = 0.25671 3.78967 2.68584
# Velocity P-wave (km/s) = 1.42248 6.64297 4.80377
#
# Compressibility (1/GPa) = 0.23609807
#
# Stress axis : x y z
#
# Youngs Moduli (GPa) = 0.31507 2.26077 0.11987
#
# Poissons Ratio (x) = -2.60312 0.61563
# Poissons Ratio (y) = -0.36279 0.22498
# Poissons Ratio (z) = 1.61813 4.24312
#
# Static dielectric constant tensor:
#      x y z
#    x 1.828930 0.035830 0.036280 
#    y 0.035830 1.870400 0.005540 
#    z 0.036280 0.005540 1.910720 
# 
# From -- ./inp_files/333417.got.cif
#   From: 2010.05.17/outbox.ucp.g08.bks.cvg/sg2_167_cif.got.tgz:333417.got - 2010.06.11 11:32:03.
