data_PCOD9074721
_publ_section_title
;
Structure prediction by ZEFSAII (Michael W. Deem and Ramdas Pophale) SiO2 
 PCOD9074721
Probable space group: P -1
;
_chemical_formula_sum "Si O2"
_cell_formula_units_Z 14
_cell_length_a 6.000000
_cell_length_b 12.000000
_cell_length_c 12.000000
_cell_angle_alpha 50.000000
_cell_angle_beta 70.000000
_cell_angle_gamma 70.000000
_cell_volume 612.923978
_symmetry_space_group_name_H-M "P -1"
_symmetry_group_IT_number 2
_symmetry_cell_setting 'triclinic'
loop_
_space_group_symop_operation_xyz
x,y,z
-x,-y,-z
loop_
_atom_site_type_symbol
_atom_site_label
_atom_site_fract_x
_atom_site_fract_y
_atom_site_fract_z
Si Si1 0.236777 0.542825 0.354805
Si Si2 0.985381 0.785802 0.952308
Si Si3 0.309241 0.699311 0.617148
Si Si4 0.118385 0.476363 0.159309
Si Si5 0.535128 0.829737 0.154809
Si Si6 0.468600 0.787212 0.776887
Si Si7 0.688414 0.031824 0.686612
O O1 0.463946 0.406926 0.412368
O O2 0.181089 0.532104 0.237995
O O3 0.353041 0.701693 0.251098
O O4 0.000000 0.500000 0.500000
O O5 0.262509 0.810479 0.893706
O O6 0.858283 0.914445 0.810214
O O7 0.799905 0.774850 0.092884
O O8 0.038591 0.619371 0.005119
O O9 0.377342 0.764367 0.682468
O O10 0.197050 0.840051 0.472024
O O11 0.106108 0.603326 0.733331
O O12 0.338595 0.361975 0.144400
O O13 0.513023 0.873894 0.259699
O O14 0.500000 0.000000 0.000000
O O15 0.588366 0.931824 0.676372
#
# Coordination Sequence:
#
# PCOD9074721 Si02
#       7
#     2   2   2   2   2   2   2
#     4  11  25  45  75 108 140 190 246 291 359 429
#     4  11  25  45  70 104 143 184 236 292 359 420
#     4  11  25  47  72 104 141 189 241 295 351 426
#     4  11  25  45  75 101 143 184 242 297 349 422
#     4  10  24  46  70 107 145 183 234 293 368 422
#     4  11  26  43  72 106 140 191 243 288 355 423
#     4  11  26  45  71 103 148 186 234 298 357 427
#
# _framework density 22.841332000000001
#
# number of rings (size 3 to 8) (size 9 to 14) (size 15 to 20)
#    0.000    1.143    1.429    2.571    6.000   10.857 
#    0.000    0.000    0.000    0.000    0.000    0.000 
#    0.000    0.000    0.000    0.000    0.000    0.000 
#
# Total GULP energy -77986.631195 kJ/mol
# GULP energy per Si atom -5570.473657 kJ/mol
# Density = 2.278934 g / cm^3
# Si number density = 22.841332 Si / 1000 Ang^3
#
#
#
# Elastic Constant Matrix: (Units=GPa)
#
#
# Indices 1 2 3 4 5 6 
#
# 1 72.1927 49.5211 19.2679 -9.5660 -11.9915 -27.3585
# 2 49.5211 130.7399 26.4833 -13.9433 -2.5306 2.2134
# 3 19.2679 26.4833 109.9291 -35.8950 -6.9749 -19.2035
# 4 -9.5660 -13.9433 -35.8950 51.1477 -0.1540 -7.7955
# 5 -11.9915 -2.5306 -6.9749 -0.1540 39.3660 4.9662
# 6 -27.3585 2.2134 -19.2035 -7.7955 4.9662 43.3040
#
#
#
# Elastic Compliance Matrix: (Units=1/GPa)
#
#
# Indices 1 2 3 4 5 6 
#
# 1 0.033448 -0.012967 0.005578 0.010519 0.007188 0.025337
# 2 -0.012967 0.013165 -0.004082 -0.003386 -0.002452 -0.011004
# 3 0.005578 -0.004082 0.015703 0.012897 0.002666 0.012713
# 4 0.010519 -0.003386 0.012897 0.032401 0.003126 0.018012
# 5 0.007188 -0.002452 0.002666 0.003126 0.027508 0.003257
# 6 0.025337 -0.011004 0.012713 0.018012 0.003257 0.048169
#
#
# Mechanical properties :
#
#
# Convention : Reuss Voigt Hill
#
# Bulk Modulus (GPa) = 25.39738 55.93403 40.66571
# Shear Modulus (GPa) = 24.21771 41.26951 32.74361
#
# Velocity S-wave (km/s) = 3.25969 4.25525 3.79030
# Velocity P-wave (km/s) = 5.03097 6.97740 6.08255
#
# Compressibility (1/GPa) = 0.03937414
#
# Stress axis : x y z
#
# Youngs Moduli (GPa) = 29.89757 75.95866 63.68030
#
# Poissons Ratio (x) = 0.98496 -0.35522
# Poissons Ratio (y) = 0.38768 0.25995
# Poissons Ratio (z) = -0.16678 0.31007
#
# Static dielectric constant tensor:
#      x y z
#    x 1.918960 -0.011200 0.004220 
#    y -0.011200 1.875120 0.007510 
#    z 0.004220 0.007510 1.910340 
# 
# From -- ./inp_files/363612.got.cif
#   From: 2010.05.17/outbox.ucp.g08.bks.cvg/sg2_182_cif.got.tgz:363612.got - 2010.06.11 11:32:03.
