data_PCOD9074864
_publ_section_title
;
Structure prediction by ZEFSAII (Michael W. Deem and Ramdas Pophale) SiO2 
 PCOD9074864
Probable space group: P -1
;
_chemical_formula_sum "Si O2"
_cell_formula_units_Z 14
_cell_length_a 12.000000
_cell_length_b 30.000000
_cell_length_c 30.000000
_cell_angle_alpha 170.000000
_cell_angle_beta 20.000000
_cell_angle_gamma 160.000000
_cell_volume 622.618477
_symmetry_space_group_name_H-M "P -1"
_symmetry_group_IT_number 2
_symmetry_cell_setting 'triclinic'
loop_
_space_group_symop_operation_xyz
x,y,z
-x,-y,-z
loop_
_atom_site_type_symbol
_atom_site_label
_atom_site_fract_x
_atom_site_fract_y
_atom_site_fract_z
Si Si1 0.859838 0.433330 0.411621
Si Si2 0.721435 0.971664 0.158118
Si Si3 0.083663 0.462961 0.755344
Si Si4 0.995354 0.362444 0.939932
Si Si5 0.134178 0.035888 0.712441
Si Si6 0.475405 0.756189 0.735813
Si Si7 0.572492 0.063506 0.665904
O O1 0.482424 0.452274 0.588800
O O2 0.825090 0.363629 0.303078
O O3 0.118076 0.714381 0.601851
O O4 0.022236 0.184941 0.116616
O O5 0.657271 0.971281 0.236634
O O6 0.360498 0.814913 0.119223
O O7 0.041727 0.563603 0.920800
O O8 0.847975 0.173315 0.541909
O O9 0.954908 0.689066 0.998433
O O10 0.147438 0.661383 0.158995
O O11 0.255162 0.181351 0.650544
O O12 0.378830 0.087220 0.714839
O O13 0.794601 0.860453 0.688064
O O14 0.500000 0.500000 0.500000
O O15 0.500000 0.000000 0.000000
#
# Coordination Sequence:
#
# PCOD9074864 Si02
#       7
#     2   2   2   2   2   2   2
#     4  11  23  40  66  96 132 166 211 269 326 392
#     4  12  25  44  68  97 128 172 221 271 326 375
#     4  11  25  44  65 100 132 171 215 260 332 392
#     4  12  27  45  67  91 133 177 223 271 306 384
#     4  11  23  40  65  96 134 167 212 267 324 394
#     4  11  20  35  60  94 130 165 203 258 324 386
#     4  12  25  44  68  97 128 172 220 271 327 376
#
# _framework density 22.485679999999999
#
# number of rings (size 3 to 8) (size 9 to 14) (size 15 to 20)
#    0.000    0.571    0.000   10.286    0.000    4.571 
#    0.000    0.000    0.000    0.000    0.000    0.000 
#    0.000    0.000    0.000    0.000    0.000    0.000 
#
# Total GULP energy -78060.850259 kJ/mol
# GULP energy per Si atom -5575.775019 kJ/mol
# Density = 2.243450 g / cm^3
# Si number density = 22.485680 Si / 1000 Ang^3
#
#
#
# Elastic Constant Matrix: (Units=GPa)
#
#
# Indices 1 2 3 4 5 6 
#
# 1 73.2837 8.9628 19.1275 -3.9520 33.0827 10.2149
# 2 8.9628 45.0515 30.8499 19.3205 16.4303 13.4866
# 3 19.1275 30.8499 200.7368 7.2714 27.9081 4.2235
# 4 -3.9520 19.3205 7.2714 50.2631 10.5573 12.5436
# 5 33.0827 16.4303 27.9081 10.5573 45.3625 7.0809
# 6 10.2149 13.4866 4.2235 12.5436 7.0809 41.7727
#
#
#
# Elastic Compliance Matrix: (Units=1/GPa)
#
#
# Indices 1 2 3 4 5 6 
#
# 1 0.022350 0.000461 0.000067 0.006345 -0.017266 -0.004599
# 2 0.000461 0.032963 -0.003688 -0.009031 -0.006889 -0.006502
# 3 0.000067 -0.003688 0.005861 0.000946 -0.002656 0.000748
# 4 0.006345 -0.009031 0.000946 0.026628 -0.007278 -0.005494
# 5 -0.017266 -0.006889 -0.002656 -0.007278 0.040133 0.002098
# 6 -0.004599 -0.006502 0.000748 -0.005494 0.002098 0.028382
#
#
# Mechanical properties :
#
#
# Convention : Reuss Voigt Hill
#
# Bulk Modulus (GPa) = 18.23060 48.55023 33.39042
# Shear Modulus (GPa) = 27.63634 44.82179 36.22906
#
# Velocity S-wave (km/s) = 3.50960 4.46954 4.01834
# Velocity P-wave (km/s) = 4.95463 6.94796 6.03417
#
# Compressibility (1/GPa) = 0.05485283
#
# Stress axis : x y z
#
# Youngs Moduli (GPa) = 44.74347 30.33743 170.61078
#
# Poissons Ratio (x) = -0.01397 -0.01144
# Poissons Ratio (y) = -0.02061 0.62920
# Poissons Ratio (z) = -0.00300 0.11188
#
# Static dielectric constant tensor:
#      x y z
#    x 1.904770 -0.017340 -0.024690 
#    y -0.017340 1.868730 -0.057680 
#    z -0.024690 -0.057680 1.867970 
# 
# From -- ./inp_files/623252.got.cif
#   From: 2010.05.17/outbox.ucp.g08.bks.cvg/sg2_312_cif.got.tgz:623252.got - 2010.06.11 11:32:03.
