data_PCOD9074453
_publ_section_title
;
Structure prediction by ZEFSAII (Michael W. Deem and Ramdas Pophale) SiO2 
 PCOD9074453
Probable space group: P -1
;
_chemical_formula_sum "Si O2"
_cell_formula_units_Z 16
_cell_length_a 9.000000
_cell_length_b 15.000000
_cell_length_c 30.000000
_cell_angle_alpha 20.000000
_cell_angle_beta 140.000000
_cell_angle_gamma 130.000000
_cell_volume 833.890543
_symmetry_space_group_name_H-M "P -1"
_symmetry_group_IT_number 2
_symmetry_cell_setting 'triclinic'
loop_
_space_group_symop_operation_xyz
x,y,z
-x,-y,-z
loop_
_atom_site_type_symbol
_atom_site_label
_atom_site_fract_x
_atom_site_fract_y
_atom_site_fract_z
Si Si1 0.416605 0.431222 0.257380
Si Si2 0.177531 0.007063 0.383189
Si Si3 0.355686 0.821221 0.334955
Si Si4 0.452163 0.187898 0.040233
Si Si5 0.635908 0.272041 0.177873
Si Si6 0.025436 0.799066 0.356915
Si Si7 0.047713 0.038393 0.076137
Si Si8 0.665019 0.783906 0.102188
O O1 0.263684 0.269255 0.273392
O O2 0.596418 0.519759 0.224550
O O3 0.603807 0.224569 0.431708
O O4 0.202145 0.688656 0.110891
O O5 0.916738 0.114321 0.299522
O O6 0.152780 0.874900 0.393058
O O7 0.500000 0.500000 0.500000
O O8 0.194794 0.803160 0.350474
O O9 0.521608 0.027288 0.278162
O O10 0.157043 0.987953 0.174231
O O11 0.264040 0.070026 0.079661
O O12 0.744363 0.020101 0.191622
O O13 0.384069 0.510211 0.888588
O O14 0.417028 0.147357 0.999275
O O15 0.500000 0.500000 0.000000
O O16 0.000000 0.500000 0.500000
O O17 0.943066 0.785865 0.164682
O O18 0.500000 0.000000 0.000000
#
# Coordination Sequence:
#
# PCOD9074453 Si02
#       8
#     2   2   2   2   2   2   2   2
#     4  10  23  43  67  95 136 184 226 283 342 412
#     4  11  23  44  68  97 142 179 230 284 348 413
#     4  12  27  47  72 105 142 181 233 297 355 416
#     4  12  24  44  73 102 135 184 236 285 354 420
#     4  12  23  46  72 104 141 186 230 293 351 419
#     4  12  27  42  71 103 140 180 233 291 356 417
#     4  11  22  45  69  98 137 182 231 281 354 410
#     4  10  24  41  67  95 134 177 233 283 335 414
#
# _framework density 19.187169999999998
#
# number of rings (size 3 to 8) (size 9 to 14) (size 15 to 20)
#    0.000    0.750    3.750    3.375    8.750    0.500 
#    2.250    0.625    0.000    0.000    0.000    0.000 
#    0.000    0.000    0.000    0.000    0.000    0.000 
#
# Total GULP energy -89160.861529 kJ/mol
# GULP energy per Si atom -5572.553846 kJ/mol
# Density = 1.914350 g / cm^3
# Si number density = 19.187170 Si / 1000 Ang^3
#
#
#
# Elastic Constant Matrix: (Units=GPa)
#
#
# Indices 1 2 3 4 5 6 
#
# 1 160.0322 78.0381 57.9645 -21.9989 -8.0874 14.3700
# 2 78.0381 137.9762 29.2832 -10.1921 -14.1895 15.1694
# 3 57.9645 29.2832 79.5125 -7.7771 14.4799 4.1898
# 4 -21.9989 -10.1921 -7.7771 29.4557 6.6511 -8.8094
# 5 -8.0874 -14.1895 14.4799 6.6511 38.2973 -6.7430
# 6 14.3700 15.1694 4.1898 -8.8094 -6.7430 52.2482
#
#
#
# Elastic Compliance Matrix: (Units=1/GPa)
#
#
# Indices 1 2 3 4 5 6 
#
# 1 0.011766 -0.004557 -0.006884 0.004752 0.002533 -0.000233
# 2 -0.004557 0.010490 -0.001198 -0.001287 0.003340 -0.001482
# 3 -0.006884 -0.001198 0.020028 0.001860 -0.009850 -0.000323
# 4 0.004752 -0.001287 0.001860 0.040446 -0.006335 0.004919
# 5 0.002533 0.003340 -0.009850 -0.006335 0.033118 0.002330
# 6 -0.000233 -0.001482 -0.000323 0.004919 0.002330 0.020790
#
#
# Mechanical properties :
#
#
# Convention : Reuss Voigt Hill
#
# Bulk Modulus (GPa) = 58.79118 78.67695 68.73407
# Shear Modulus (GPa) = 29.83569 38.14924 33.99246
#
# Velocity S-wave (km/s) = 3.94760 4.46384 4.21363
# Velocity P-wave (km/s) = 7.17534 8.22568 7.71840
#
# Compressibility (1/GPa) = 0.01700935
#
# Stress axis : x y z
#
# Youngs Moduli (GPa) = 84.98902 95.32458 49.92904
#
# Poissons Ratio (x) = 0.43438 0.34369
# Poissons Ratio (y) = 0.38728 0.05979
# Poissons Ratio (z) = 0.58502 0.11415
#
# Static dielectric constant tensor:
#      x y z
#    x 1.767030 0.038720 -0.120070 
#    y 0.038720 1.761830 -0.016170 
#    z -0.120070 -0.016170 1.795600 
# 
# From -- ./inp_files/622619.got.cif
#   From: 2010.05.17/outbox.ucp.g08.bks.cvg/sg2_312_cif.got.tgz:622619.got - 2010.06.11 11:32:03.
