data_PCOD9074008
_publ_section_title
;
Structure prediction by ZEFSAII (Michael W. Deem and Ramdas Pophale) SiO2 
 PCOD9074008
Probable space group: P -1
;
_chemical_formula_sum "Si O2"
_cell_formula_units_Z 13
_cell_length_a 9.000000
_cell_length_b 12.000000
_cell_length_c 9.000000
_cell_angle_alpha 110.000000
_cell_angle_beta 100.000000
_cell_angle_gamma 40.000000
_cell_volume 580.795013
_symmetry_space_group_name_H-M "P -1"
_symmetry_group_IT_number 2
_symmetry_cell_setting 'triclinic'
loop_
_space_group_symop_operation_xyz
x,y,z
-x,-y,-z
loop_
_atom_site_type_symbol
_atom_site_label
_atom_site_fract_x
_atom_site_fract_y
_atom_site_fract_z
Si Si1 0.390544 0.593478 0.184426
Si Si2 0.009460 0.011829 0.328658
Si Si3 0.783583 0.971110 0.043060
Si Si4 0.885149 0.314398 0.273782
Si Si5 0.907536 0.452716 0.768206
Si Si6 0.332942 0.207679 0.912878
Si Si7 0.000000 0.500000 0.500000
O O1 0.605147 0.479571 0.284451
O O2 0.213310 0.595856 0.213296
O O3 0.251148 0.800042 0.238677
O O4 0.500000 0.500000 0.000000
O O5 0.826979 0.050390 0.204776
O O6 0.976142 0.168712 0.349509
O O7 0.000000 0.000000 0.500000
O O8 0.693442 0.911434 0.090820
O O9 0.017414 0.797648 0.916329
O O10 0.595236 0.095953 0.933507
O O11 0.984871 0.386977 0.342280
O O12 0.869799 0.503268 0.613274
O O13 0.189350 0.290465 0.771766
O O14 0.802608 0.621834 0.924385
#
# Coordination Sequence:
#
# PCOD9074008 Si02
#       7
#     2   2   2   2   2   2   1
#     4  12  26  48  82 112 150 206 259 314 382 462
#     4  12  27  47  74 113 154 195 256 318 386 450
#     4  11  22  46  70 110 142 196 255 308 378 459
#     4  12  27  49  74 110 152 203 254 317 385 464
#     4  11  23  45  72 111 148 197 251 313 378 451
#     4  10  22  40  76 101 143 194 253 307 369 455
#     4  12  28  48  72 110 160 192 252 320 388 446
#
# _framework density 22.383112000000001
#
# number of rings (size 3 to 8) (size 9 to 14) (size 15 to 20)
#    0.000    0.615    4.615    2.308    4.308    3.692 
#    0.000    1.538    0.000    0.000    0.000    0.000 
#    0.000    0.000    0.000    0.000    0.000    0.000 
#
# Total GULP energy -72373.914794 kJ/mol
# GULP energy per Si atom -5567.224215 kJ/mol
# Density = 2.233217 g / cm^3
# Si number density = 22.383112 Si / 1000 Ang^3
#
#
#
# Elastic Constant Matrix: (Units=GPa)
#
#
# Indices 1 2 3 4 5 6 
#
# 1 110.9554 53.6712 31.7738 -10.9390 13.2917 13.9095
# 2 53.6712 112.7282 10.6486 3.3497 4.6122 -6.1239
# 3 31.7738 10.6486 54.2616 -5.6526 0.0748 9.6138
# 4 -10.9390 3.3497 -5.6526 18.5667 8.3303 0.7249
# 5 13.2917 4.6122 0.0748 8.3303 34.5690 -1.5571
# 6 13.9095 -6.1239 9.6138 0.7249 -1.5571 48.0791
#
#
#
# Elastic Compliance Matrix: (Units=1/GPa)
#
#
# Indices 1 2 3 4 5 6 
#
# 1 0.018302 -0.008450 -0.006497 0.014921 -0.009744 -0.005613
# 2 -0.008450 0.013173 0.000661 -0.009053 0.003863 0.004252
# 3 -0.006497 0.000661 0.022802 0.002342 0.001680 -0.002577
# 4 0.014921 -0.009053 0.002342 0.075677 -0.023123 -0.007828
# 5 -0.009744 0.003863 0.001680 -0.023123 0.037932 0.004552
# 6 -0.005613 0.004252 -0.002577 -0.007828 0.004552 0.023745
#
#
# Mechanical properties :
#
#
# Convention : Reuss Voigt Hill
#
# Bulk Modulus (GPa) = 38.90078 52.23693 45.56885
# Shear Modulus (GPa) = 21.85577 32.36641 27.11109
#
# Velocity S-wave (km/s) = 3.12819 3.80678 3.48405
# Velocity P-wave (km/s) = 5.51949 6.53532 6.04877
#
# Compressibility (1/GPa) = 0.02570643
#
# Stress axis : x y z
#
# Youngs Moduli (GPa) = 54.63779 75.91020 43.85583
#
# Poissons Ratio (x) = 0.64143 0.28492
# Poissons Ratio (y) = 0.46168 -0.02899
# Poissons Ratio (z) = 0.35497 -0.05018
#
# Static dielectric constant tensor:
#      x y z
#    x 1.813780 -0.059910 0.008200 
#    y -0.059910 1.955750 -0.034460 
#    z 0.008200 -0.034460 1.811050 
# 
# From -- ./inp_files/181599.got.cif
#   From: 2010.05.17/outbox.ucp.g08.bks.cvg/sg2_91_cif.got.tgz:181599.got - 2010.06.11 11:32:03.
