data_PCOD9074807
_publ_section_title
;
Structure prediction by ZEFSAII (Michael W. Deem and Ramdas Pophale) SiO2 
 PCOD9074807
Probable space group: P -1
;
_chemical_formula_sum "Si O2"
_cell_formula_units_Z 16
_cell_length_a 6.000000
_cell_length_b 9.000000
_cell_length_c 15.000000
_cell_angle_alpha 110.000000
_cell_angle_beta 80.000000
_cell_angle_gamma 80.000000
_cell_volume 725.431091
_symmetry_space_group_name_H-M "P -1"
_symmetry_group_IT_number 2
_symmetry_cell_setting 'triclinic'
loop_
_space_group_symop_operation_xyz
x,y,z
-x,-y,-z
loop_
_atom_site_type_symbol
_atom_site_label
_atom_site_fract_x
_atom_site_fract_y
_atom_site_fract_z
Si Si1 0.567768 0.619561 0.592795
Si Si2 0.423503 0.686666 0.923442
Si Si3 0.047723 0.822451 0.118760
Si Si4 0.140512 0.625446 0.328947
Si Si5 0.285215 0.897389 0.289182
Si Si6 0.610310 0.101670 0.205056
Si Si7 0.726255 0.876510 0.507375
Si Si8 0.017714 0.486078 0.127556
O O1 0.500000 0.500000 0.500000
O O2 0.741645 0.502275 0.627877
O O3 0.382919 0.753234 0.694031
O O4 0.664808 0.738625 0.545887
O O5 0.473452 0.793598 0.857718
O O6 0.693161 0.598723 0.920840
O O7 0.207922 0.595392 0.890045
O O8 0.281614 0.789644 0.036405
O O9 0.099471 0.884340 0.224932
O O10 0.977140 0.651087 0.104022
O O11 0.842615 0.970491 0.129306
O O12 0.335691 0.712273 0.289696
O O13 0.028159 0.537279 0.241062
O O14 0.928852 0.772515 0.409116
O O15 0.465929 0.985077 0.242939
O O16 0.189947 0.011411 0.402832
O O17 0.500000 0.000000 0.500000
#
# Coordination Sequence:
#
# PCOD9074807 Si02
#       8
#     2   2   2   2   2   2   2   2
#     4  11  25  43  70 103 150 194 251 304 377 444
#     4  12  27  51  76 112 149 199 254 314 377 446
#     4  11  27  45  78 104 147 200 243 320 369 452
#     4  11  24  45  72 106 144 202 239 316 366 457
#     4  10  26  44  71 103 149 180 256 292 384 436
#     4  11  27  45  71 110 146 198 244 315 370 453
#     4  11  25  42  71 106 143 192 244 306 377 452
#     4  11  28  47  80 110 151 195 257 308 378 449
#
# _framework density 22.055851000000001
#
# number of rings (size 3 to 8) (size 9 to 14) (size 15 to 20)
#    0.000    1.000    1.250    2.625   17.500    0.500 
#    0.000    0.000    0.000    0.000    0.000    0.000 
#    0.000    0.000    0.000    0.000    0.000    0.000 
#
# Total GULP energy -89137.642143 kJ/mol
# GULP energy per Si atom -5571.102634 kJ/mol
# Density = 2.200565 g / cm^3
# Si number density = 22.055851 Si / 1000 Ang^3
#
#
#
# Elastic Constant Matrix: (Units=GPa)
#
#
# Indices 1 2 3 4 5 6 
#
# 1 80.5676 39.2749 20.5092 17.8166 -5.8161 -7.9857
# 2 39.2749 141.4826 12.9416 -7.7725 2.6024 -9.0152
# 3 20.5092 12.9416 83.0198 1.4081 -0.4330 -14.3932
# 4 17.8166 -7.7725 1.4081 42.9908 -0.5740 -8.3981
# 5 -5.8161 2.6024 -0.4330 -0.5740 43.9904 6.2940
# 6 -7.9857 -9.0152 -14.3932 -8.3981 6.2940 40.4540
#
#
#
# Elastic Compliance Matrix: (Units=1/GPa)
#
#
# Indices 1 2 3 4 5 6 
#
# 1 0.017799 -0.005188 -0.003620 -0.008372 0.002670 -0.001084
# 2 -0.005188 0.008880 0.000185 0.004142 -0.001457 0.002107
# 3 -0.003620 0.000185 0.013699 0.002004 -0.001012 0.004774
# 4 -0.008372 0.004142 0.002004 0.028602 -0.001847 0.006208
# 5 0.002670 -0.001457 -0.001012 -0.001847 0.023743 -0.004235
# 6 -0.001084 0.002107 0.004774 0.006208 -0.004235 0.028621
#
#
# Mechanical properties :
#
#
# Convention : Reuss Voigt Hill
#
# Bulk Modulus (GPa) = 43.23145 50.05792 46.64469
# Shear Modulus (GPa) = 34.17581 40.97665 37.57623
#
# Velocity S-wave (km/s) = 3.94065 4.31496 4.13205
# Velocity P-wave (km/s) = 6.35204 6.89714 6.63019
#
# Compressibility (1/GPa) = 0.02313131
#
# Stress axis : x y z
#
# Youngs Moduli (GPa) = 56.18209 112.61482 72.99630
#
# Poissons Ratio (x) = 0.58424 0.26428
# Poissons Ratio (y) = 0.29147 -0.01349
# Poissons Ratio (z) = 0.20340 -0.02082
#
# Static dielectric constant tensor:
#      x y z
#    x 1.859030 0.042680 -0.006560 
#    y 0.042680 1.859310 0.020590 
#    z -0.006560 0.020590 1.850880 
# 
# From -- ./inp_files/289149.got.cif
#   From: 2010.05.17/outbox.ucp.g08.bks.cvg/sg2_145_cif.got.tgz:289149.got - 2010.06.11 11:32:03.
