data_PCOD9074579
_publ_section_title
;
Structure prediction by ZEFSAII (Michael W. Deem and Ramdas Pophale) SiO2 
 PCOD9074579
Probable space group: P -1
;
_chemical_formula_sum "Si O2"
_cell_formula_units_Z 16
_cell_length_a 5.134778
_cell_length_b 13.016847
_cell_length_c 21.873082
_cell_angle_alpha 31.261658
_cell_angle_beta 73.413560
_cell_angle_gamma 64.407022
_cell_volume 673.190136
_symmetry_space_group_name_H-M "P -1"
_symmetry_group_IT_number 2
_symmetry_cell_setting 'triclinic'
loop_
_space_group_symop_operation_xyz
x,y,z
-x,-y,-z
loop_
_atom_site_type_symbol
_atom_site_label
_atom_site_fract_x
_atom_site_fract_y
_atom_site_fract_z
Si Si1 0.082975 0.300753 0.333807
Si Si2 0.411300 0.395242 0.369450
Si Si3 0.277583 0.547063 0.435181
Si Si4 0.640598 0.870520 0.724177
Si Si5 0.201791 0.862595 0.110396
Si Si6 0.810429 0.719466 0.074569
Si Si7 0.014553 0.985045 0.748224
Si Si8 0.920248 0.424452 0.981402
O O1 0.266073 0.265766 0.402300
O O2 0.227583 0.143615 0.346430
O O3 0.746626 0.329253 0.356092
O O4 0.057018 0.534698 0.190191
O O5 0.416256 0.406665 0.437029
O O6 0.188260 0.645778 0.246033
O O7 0.500000 0.500000 0.500000
O O8 0.000000 0.500000 0.500000
O O9 0.163995 0.804509 0.307805
O O10 0.296679 0.004760 0.686461
O O11 0.819124 0.940975 0.728974
O O12 0.676683 0.625969 0.862957
O O13 0.526553 0.779300 0.103638
O O14 0.156962 0.060306 0.056688
O O15 0.000000 0.000000 0.000000
O O16 0.803866 0.620408 0.059866
O O17 0.130732 0.786139 0.888691
O O18 0.000000 0.500000 0.000000
#
# Coordination Sequence:
#
# PCOD9074579 Si02
#       8
#     2   2   2   2   2   2   2   2
#     4  10  20  36  61  92 126 163 196 251 318 388
#     4  11  22  39  63  91 122 164 211 260 331 377
#     4  12  27  48  70  93 124 171 225 285 324 367
#     4  10  21  38  65  97 137 169 205 252 320 399
#     4  10  18  32  51  86 120 161 198 251 308 377
#     4   9  18  32  48  78 127 161 201 244 294 376
#     4  11  22  42  64  93 126 175 219 265 319 378
#     4   9  19  36  55  91 128 172 206 245 305 392
#
# _framework density 23.767430999999998
#
# number of rings (size 3 to 8) (size 9 to 14) (size 15 to 20)
#    0.000    1.750    1.250    3.375    0.000    1.000 
#   11.250    0.000    0.000   15.000    0.000    0.000 
#    0.000    0.000    0.000    0.000    0.000    0.000 
#
# Total GULP energy -89145.197360 kJ/mol
# GULP energy per Si atom -5571.574835 kJ/mol
# Density = 2.371334 g / cm^3
# Si number density = 23.767431 Si / 1000 Ang^3
#
#
#
# Elastic Constant Matrix: (Units=GPa)
#
#
# Indices 1 2 3 4 5 6 
#
# 1 105.1498 32.9206 0.8074 11.3841 6.5001 9.3615
# 2 32.9206 155.9053 1.8396 30.5367 0.2673 11.6356
# 3 0.8074 1.8396 67.7996 -1.8159 2.6676 6.5385
# 4 11.3841 30.5367 -1.8159 34.0160 5.7532 6.4924
# 5 6.5001 0.2673 2.6676 5.7532 18.9179 2.9287
# 6 9.3615 11.6356 6.5385 6.4924 2.9287 28.8003
#
#
#
# Elastic Compliance Matrix: (Units=1/GPa)
#
#
# Indices 1 2 3 4 5 6 
#
# 1 0.010582 -0.001891 0.000234 -0.000896 -0.003026 -0.002219
# 2 -0.001891 0.008301 -0.000377 -0.007078 0.002948 -0.001357
# 3 0.000234 -0.000377 0.015257 0.002162 -0.002321 -0.003639
# 4 -0.000896 -0.007078 0.002162 0.038980 -0.010976 -0.005011
# 5 -0.003026 0.002948 -0.002321 -0.010976 0.058004 -0.003105
# 6 -0.002219 -0.001357 -0.003639 -0.005011 -0.003105 0.038263
#
#
# Mechanical properties :
#
#
# Convention : Reuss Voigt Hill
#
# Bulk Modulus (GPa) = 33.25385 44.44333 38.84859
# Shear Modulus (GPa) = 27.25113 35.89932 31.57523
#
# Velocity S-wave (km/s) = 3.38978 3.89066 3.64882
# Velocity P-wave (km/s) = 5.41688 6.23881 5.84232
#
# Compressibility (1/GPa) = 0.03007171
#
# Stress axis : x y z
#
# Youngs Moduli (GPa) = 94.49894 120.47367 65.54400
#
# Poissons Ratio (x) = 0.22781 -0.01536
# Poissons Ratio (y) = 0.17869 0.02474
# Poissons Ratio (z) = -0.02215 0.04547
#
# Static dielectric constant tensor:
#      x y z
#    x 1.937010 -0.081330 0.101090 
#    y -0.081330 2.667370 -0.499660 
#    z 0.101090 -0.499660 2.355550 
# 
# From -- ./inp_files/583257.got.cif
#   From: 2010.05.17/outbox.cif.g08.bks.cpg/sg2_292_cif.got.tgz:583257.got - 2010.06.03 11:33:40.
