data_PCOD9074750
_publ_section_title
;
Structure prediction by ZEFSAII (Michael W. Deem and Ramdas Pophale) SiO2 
 PCOD9074750
Probable space group: P -1
;
_chemical_formula_sum "Si O2"
_cell_formula_units_Z 16
_cell_length_a 18.000000
_cell_length_b 6.000000
_cell_length_c 9.000000
_cell_angle_alpha 120.000000
_cell_angle_beta 120.000000
_cell_angle_gamma 70.000000
_cell_volume 723.492119
_symmetry_space_group_name_H-M "P -1"
_symmetry_group_IT_number 2
_symmetry_cell_setting 'triclinic'
loop_
_space_group_symop_operation_xyz
x,y,z
-x,-y,-z
loop_
_atom_site_type_symbol
_atom_site_label
_atom_site_fract_x
_atom_site_fract_y
_atom_site_fract_z
Si Si1 0.599858 0.864735 0.540077
Si Si2 0.910803 0.379618 0.409062
Si Si3 0.787967 0.684230 0.194472
Si Si4 0.126136 0.539656 0.258282
Si Si5 0.069221 0.196926 0.859721
Si Si6 0.610570 0.837719 0.895697
Si Si7 0.724406 0.106857 0.520450
Si Si8 0.430302 0.677188 0.778729
O O1 0.621146 0.809515 0.718457
O O2 0.587749 0.621143 0.337501
O O3 0.500000 0.000000 0.500000
O O4 0.678430 0.000611 0.586836
O O5 0.824723 0.432085 0.238588
O O6 0.877394 0.462170 0.567509
O O7 0.000000 0.500000 0.500000
O O8 0.937727 0.081276 0.306865
O O9 0.868886 0.697650 0.168418
O O10 0.774594 0.897756 0.385641
O O11 0.698351 0.713424 0.024445
O O12 0.206808 0.681488 0.326116
O O13 0.031417 0.693403 0.178928
O O14 0.119402 0.261079 0.082102
O O15 0.527075 0.706464 0.826689
O O16 0.589923 0.138282 0.035043
O O17 0.638835 0.212593 0.377664
#
# Coordination Sequence:
#
# PCOD9074750 Si02
#       8
#     2   2   2   2   2   2   2   2
#     4  12  26  46  74 107 137 195 242 288 366 423
#     4  12  24  47  77 103 144 194 234 294 360 422
#     4  11  25  46  71 109 141 189 238 289 362 421
#     4  11  25  48  73 104 150 184 236 303 345 429
#     4  11  25  49  70 108 145 184 238 290 362 420
#     4  10  24  49  71 103 151 180 235 308 348 426
#     4  11  25  47  72 105 144 189 241 291 354 427
#     4  10  24  49  70 102 146 186 234 298 359 422
#
# _framework density 22.114961000000001
#
# number of rings (size 3 to 8) (size 9 to 14) (size 15 to 20)
#    0.000    1.000    3.750    1.500    3.500    1.000 
#    9.000    0.000    0.000    0.000    0.000    0.000 
#    0.000    0.000    0.000    0.000    0.000    0.000 
#
# Total GULP energy -89234.189591 kJ/mol
# GULP energy per Si atom -5577.136849 kJ/mol
# Density = 2.206463 g / cm^3
# Si number density = 22.114961 Si / 1000 Ang^3
#
#
#
# Elastic Constant Matrix: (Units=GPa)
#
#
# Indices 1 2 3 4 5 6 
#
# 1 142.1260 5.2289 47.6695 -3.9040 15.0007 22.7236
# 2 5.2289 13.6776 26.5424 -9.6599 6.2653 3.0556
# 3 47.6695 26.5424 132.4762 -5.0038 2.1970 14.7423
# 4 -3.9040 -9.6599 -5.0038 22.8910 -10.3961 8.3845
# 5 15.0007 6.2653 2.1970 -10.3961 48.0773 -2.8609
# 6 22.7236 3.0556 14.7423 8.3845 -2.8609 31.0958
#
#
#
# Elastic Compliance Matrix: (Units=1/GPa)
#
#
# Indices 1 2 3 4 5 6 
#
# 1 0.010671 0.019176 -0.006114 0.010463 -0.003879 -0.009962
# 2 0.019176 0.256143 -0.048469 0.110934 -0.015992 -0.047587
# 3 -0.006114 -0.048469 0.018066 -0.017936 0.003869 0.005857
# 4 0.010463 0.110934 -0.017936 0.103653 0.003269 -0.037691
# 5 -0.003879 -0.015992 0.003869 0.003269 0.024861 0.003978
# 6 -0.009962 -0.047587 0.005857 -0.037691 0.003978 0.051866
#
#
# Mechanical properties :
#
#
# Convention : Reuss Voigt Hill
#
# Bulk Modulus (GPa) = 4.67144 49.68459 27.17801
# Shear Modulus (GPa) = 8.23144 34.33544 21.28344
#
# Velocity S-wave (km/s) = 1.93137 3.94456 3.10562
# Velocity P-wave (km/s) = 2.66280 6.57734 5.01757
#
# Compressibility (1/GPa) = 0.21406677
#
# Stress axis : x y z
#
# Youngs Moduli (GPa) = 93.71568 3.90407 55.35243
#
# Poissons Ratio (x) = -0.07487 0.33841
# Poissons Ratio (y) = -1.79714 2.68288
# Poissons Ratio (z) = 0.57295 0.18923
#
# Static dielectric constant tensor:
#      x y z
#    x 1.677800 -0.082020 -0.057470 
#    y -0.082020 1.910800 -0.012740 
#    z -0.057470 -0.012740 1.820000 
# 
# From -- ./inp_files/324158.got.cif
#   From: 2010.05.17/outbox.ucp.g08.bks.cvg/sg2_163_cif.got.tgz:324158.got - 2010.06.11 11:32:03.
