data_PCOD9074744
_publ_section_title
;
Structure prediction by ZEFSAII (Michael W. Deem and Ramdas Pophale) SiO2 
 PCOD9074744
Probable space group: P -1
;
_chemical_formula_sum "Si O2"
_cell_formula_units_Z 16
_cell_length_a 9.000000
_cell_length_b 15.000000
_cell_length_c 9.000000
_cell_angle_alpha 110.000000
_cell_angle_beta 140.000000
_cell_angle_gamma 70.000000
_cell_volume 727.419504
_symmetry_space_group_name_H-M "P -1"
_symmetry_group_IT_number 2
_symmetry_cell_setting 'triclinic'
loop_
_space_group_symop_operation_xyz
x,y,z
-x,-y,-z
loop_
_atom_site_type_symbol
_atom_site_label
_atom_site_fract_x
_atom_site_fract_y
_atom_site_fract_z
Si Si1 0.004427 0.521097 0.187404
Si Si2 0.953575 0.850822 0.395103
Si Si3 0.908307 0.992720 0.178849
Si Si4 0.665515 0.317670 0.497145
Si Si5 0.667071 0.605002 0.452012
Si Si6 0.665521 0.064570 0.745447
Si Si7 0.415169 0.256699 0.780371
Si Si8 0.498569 0.595620 0.866606
O O1 0.157102 0.607057 0.360424
O O2 0.116115 0.424265 0.293439
O O3 0.000000 0.500000 0.000000
O O4 0.758708 0.555736 0.088995
O O5 0.761416 0.787242 0.269934
O O6 0.014414 0.918458 0.617098
O O7 0.187737 0.785403 0.477901
O O8 0.855973 0.917787 0.221273
O O9 0.710225 0.028012 0.928184
O O10 0.109849 0.945380 0.194472
O O11 0.544296 0.344789 0.577558
O O12 0.481813 0.349108 0.243188
O O13 0.722122 0.673519 0.403833
O O14 0.615667 0.501209 0.293662
O O15 0.554873 0.172639 0.744802
O O16 0.500000 0.000000 0.500000
O O17 0.584817 0.321005 0.033446
#
# Coordination Sequence:
#
# PCOD9074744 Si02
#       8
#     2   2   2   2   2   2   2   2
#     4  11  19  40  64  89 125 171 220 261 310 376
#     4  11  23  44  67 101 131 171 218 266 330 394
#     4  10  24  47  71  92 135 172 209 275 334 387
#     4  11  21  40  66  93 125 170 220 260 314 389
#     4  11  24  40  65  94 131 175 215 264 320 377
#     4  11  23  48  71  98 130 169 219 271 331 392
#     4  12  25  43  63 101 131 167 217 268 323 387
#     4  11  22  42  65  90 133 174 214 266 319 375
#
# _framework density 21.995560999999999
#
# number of rings (size 3 to 8) (size 9 to 14) (size 15 to 20)
#    0.000    1.000    5.000    2.625    0.000    1.000 
#   11.250    0.000    0.000    0.000    0.000    0.000 
#    0.000    0.000    0.000    0.000    0.000    0.000 
#
# Total GULP energy -89296.447339 kJ/mol
# GULP energy per Si atom -5581.027959 kJ/mol
# Density = 2.194550 g / cm^3
# Si number density = 21.995561 Si / 1000 Ang^3
#
#
#
# Elastic Constant Matrix: (Units=GPa)
#
#
# Indices 1 2 3 4 5 6 
#
# 1 40.3658 44.4099 32.5953 7.4992 -26.0415 11.0387
# 2 44.4099 134.8498 51.6479 3.4882 -27.8709 0.4181
# 3 32.5953 51.6479 79.5250 -8.5183 -33.8144 7.8520
# 4 7.4992 3.4882 -8.5183 24.1397 -1.7116 -21.0072
# 5 -26.0415 -27.8709 -33.8144 -1.7116 34.1075 -2.6995
# 6 11.0387 0.4181 7.8520 -21.0072 -2.6995 44.8205
#
#
#
# Elastic Compliance Matrix: (Units=1/GPa)
#
#
# Indices 1 2 3 4 5 6 
#
# 1 0.193722 -0.031195 -0.035361 -0.161027 0.070380 -0.112459
# 2 -0.031195 0.015354 -0.000566 0.021552 -0.009392 0.017175
# 3 -0.035361 -0.000566 0.034575 0.045502 0.011051 0.024649
# 4 -0.161027 0.021552 0.045502 0.214411 -0.039206 0.129619
# 5 0.070380 -0.009392 0.011051 -0.039206 0.081787 -0.032632
# 6 -0.112459 0.017175 0.024649 0.129619 -0.032632 0.104316
#
#
# Mechanical properties :
#
#
# Convention : Reuss Voigt Hill
#
# Bulk Modulus (GPa) = 9.14016 56.89408 33.01712
# Shear Modulus (GPa) = 6.13589 29.01935 17.57762
#
# Velocity S-wave (km/s) = 1.67202 3.63620 2.82998
# Velocity P-wave (km/s) = 2.80928 6.59936 5.07166
#
# Compressibility (1/GPa) = 0.10940724
#
# Stress axis : x y z
#
# Youngs Moduli (GPa) = 5.16205 65.12925 28.92259
#
# Poissons Ratio (x) = 2.03168 1.02272
# Poissons Ratio (y) = 0.16103 0.01638
# Poissons Ratio (z) = 0.18253 0.03689
#
# Static dielectric constant tensor:
#      x y z
#    x 1.801500 -0.047980 -0.027840 
#    y -0.047980 1.822120 -0.059740 
#    z -0.027840 -0.059740 1.766630 
# 
# From -- ./inp_files/135467.got.cif
#   From: 2010.05.17/outbox.ucp.g08.bks.cvg/sg2_68_cif.got.tgz:135467.got - 2010.06.11 11:32:03.
