data_PCOD9074327
_publ_section_title
;
Structure prediction by ZEFSAII (Michael W. Deem and Ramdas Pophale) SiO2 
 PCOD9074327
Probable space group: P -1
;
_chemical_formula_sum "Si O2"
_cell_formula_units_Z 16
_cell_length_a 12.000000
_cell_length_b 15.000000
_cell_length_c 15.000000
_cell_angle_alpha 140.000000
_cell_angle_beta 140.000000
_cell_angle_gamma 30.000000
_cell_volume 822.330465
_symmetry_space_group_name_H-M "P -1"
_symmetry_group_IT_number 2
_symmetry_cell_setting 'triclinic'
loop_
_space_group_symop_operation_xyz
x,y,z
-x,-y,-z
loop_
_atom_site_type_symbol
_atom_site_label
_atom_site_fract_x
_atom_site_fract_y
_atom_site_fract_z
Si Si1 0.774514 0.580180 0.981439
Si Si2 0.270182 0.719299 0.521324
Si Si3 0.760602 0.169033 0.208278
Si Si4 0.508197 0.204334 0.435026
Si Si5 0.163023 0.710835 0.078740
Si Si6 0.028239 0.559703 0.732351
Si Si7 0.167773 0.230757 0.684254
Si Si8 0.327568 0.504311 0.711400
O O1 0.516712 0.723103 0.887349
O O2 0.837385 0.393565 0.916148
O O3 0.749785 0.703340 0.141120
O O4 0.000000 0.500000 0.000000
O O5 0.500000 0.500000 0.500000
O O6 0.211294 0.809619 0.653243
O O7 0.335234 0.799151 0.546881
O O8 0.057344 0.727670 0.380294
O O9 0.765278 0.302597 0.246489
O O10 0.963743 0.941911 0.137679
O O11 0.429675 0.352504 0.578348
O O12 0.253509 0.290991 0.311892
O O13 0.649890 0.992441 0.392737
O O14 0.438001 0.606615 0.168236
O O15 0.117445 0.634814 0.908822
O O16 0.109826 0.362078 0.665000
O O17 0.127622 0.543521 0.682248
#
# Coordination Sequence:
#
# PCOD9074327 Si02
#       8
#     2   2   2   2   2   2   2   2
#     4  10  23  38  60  91 128 159 200 246 299 366
#     4  12  22  41  64  88 130 161 197 252 307 365
#     4  11  23  41  63  94 124 162 202 248 306 364
#     4  12  25  40  64  93 122 164 204 248 309 362
#     4  10  24  41  63  92 122 162 204 248 309 358
#     4  11  24  44  63  90 124 160 207 257 299 356
#     4  11  24  41  62  92 125 160 201 252 307 362
#     4  11  24  42  65  90 122 162 209 253 298 359
#
# _framework density 19.456897999999999
#
# number of rings (size 3 to 8) (size 9 to 14) (size 15 to 20)
#    0.000    1.000    2.500    3.375    5.250    2.500 
#    0.000    0.000    0.000    0.000    0.000    0.000 
#    0.000    0.000    0.000    0.000    0.000    0.000 
#
# Total GULP energy -89275.747465 kJ/mol
# GULP energy per Si atom -5579.734217 kJ/mol
# Density = 1.941261 g / cm^3
# Si number density = 19.456898 Si / 1000 Ang^3
#
#
#
# Elastic Constant Matrix: (Units=GPa)
#
#
# Indices 1 2 3 4 5 6 
#
# 1 125.7961 24.6630 2.3619 14.1395 9.6118 9.3169
# 2 24.6630 146.5922 15.8129 35.8474 10.0734 16.3671
# 3 2.3619 15.8129 73.3281 3.6513 2.7919 3.2988
# 4 14.1395 35.8474 3.6513 41.8659 -3.5056 6.6848
# 5 9.6118 10.0734 2.7919 -3.5056 27.6377 1.3251
# 6 9.3169 16.3671 3.2988 6.6848 1.3251 27.1670
#
#
#
# Elastic Compliance Matrix: (Units=1/GPa)
#
#
# Indices 1 2 3 4 5 6 
#
# 1 0.008698 -0.000426 0.000145 -0.002531 -0.003111 -0.001969
# 2 -0.000426 0.009587 -0.001363 -0.007747 -0.004030 -0.003361
# 3 0.000145 -0.001363 0.014003 -0.000042 -0.000931 -0.000873
# 4 -0.002531 -0.007747 -0.000042 0.032499 0.007967 -0.002845
# 5 -0.003111 -0.004030 -0.000931 0.007967 0.039852 -0.000296
# 6 -0.001969 -0.003361 -0.000873 -0.002845 -0.000296 0.040330
#
#
# Mechanical properties :
#
#
# Convention : Reuss Voigt Hill
#
# Bulk Modulus (GPa) = 34.48384 47.93243 41.20813
# Shear Modulus (GPa) = 31.66050 39.52605 35.59328
#
# Velocity S-wave (km/s) = 4.03825 4.51207 4.28172
# Velocity P-wave (km/s) = 6.28529 7.19956 6.75791
#
# Compressibility (1/GPa) = 0.02899909
#
# Stress axis : x y z
#
# Youngs Moduli (GPa) = 114.96473 104.30816 71.41091
#
# Poissons Ratio (x) = 0.04448 -0.01034
# Poissons Ratio (y) = 0.04902 0.09735
# Poissons Ratio (z) = -0.01665 0.14220
#
# Static dielectric constant tensor:
#      x y z
#    x 1.675960 0.013320 0.007430 
#    y 0.013320 1.673030 -0.043510 
#    z 0.007430 -0.043510 1.749610 
# 
# From -- ./inp_files/455291.got.cif
#   From: 2010.05.17/outbox.ucp.g08.bks.cvg/sg2_228_cif.got.tgz:455291.got - 2010.06.11 11:32:03.
