data_PCOD9074997
_publ_section_title
;
Structure prediction by ZEFSAII (Michael W. Deem and Ramdas Pophale) SiO2 
 PCOD9074997
Probable space group: P -1
;
_chemical_formula_sum "Si O2"
_cell_formula_units_Z 14
_cell_length_a 20.829111
_cell_length_b 12.420404
_cell_length_c 9.363396
_cell_angle_alpha 136.147779
_cell_angle_beta 32.468506
_cell_angle_gamma 156.033619
_cell_volume 514.258961
_symmetry_space_group_name_H-M "P -1"
_symmetry_group_IT_number 2
_symmetry_cell_setting 'triclinic'
loop_
_space_group_symop_operation_xyz
x,y,z
-x,-y,-z
loop_
_atom_site_type_symbol
_atom_site_label
_atom_site_fract_x
_atom_site_fract_y
_atom_site_fract_z
Si Si1 0.067171 0.221110 0.210987
Si Si2 0.718913 0.910742 0.884271
Si Si3 0.167803 0.507501 0.587756
Si Si4 0.792318 0.363107 0.817389
Si Si5 0.501682 0.968087 0.216225
Si Si6 0.571943 0.425721 0.630604
Si Si7 0.676749 0.788028 0.368550
O O1 0.133317 0.366480 0.374462
O O2 0.179345 0.424451 0.061420
O O3 0.156154 0.142630 0.963393
O O4 0.825982 0.007364 0.424376
O O5 0.713025 0.733390 0.649541
O O6 0.562823 0.857351 0.041503
O O7 0.619223 0.756032 0.074341
O O8 0.925023 0.237441 0.833473
O O9 0.325288 0.810797 0.522827
O O10 0.290810 0.558964 0.536247
O O11 0.630549 0.149770 0.791662
O O12 0.000000 0.500000 0.500000
O O13 0.726341 0.261387 0.006049
O O14 0.454316 0.254766 0.541993
O O15 0.500000 0.500000 0.500000
#
# Coordination Sequence:
#
# PCOD9074997 Si02
#       7
#     2   2   2   2   2   2   2
#     4  10  22  36  54  84 112 145 185 219 273 334
#     4  10  18  32  53  79 111 139 181 235 275 318
#     4  10  19  33  55  81 110 142 183 233 275 318
#     4  10  19  33  54  80 112 144 181 233 279 317
#     4   9  18  29  48  79 106 134 176 221 271 322
#     4  10  20  32  53  81 107 145 187 222 271 333
#     4  11  23  38  54  78 118 152 177 219 272 332
#
# _framework density 27.22364
#
# number of rings (size 3 to 8) (size 9 to 14) (size 15 to 20)
#    0.000    2.000    0.000    6.429    0.000    5.714 
#    0.000    0.000    0.000    3.429    0.000   17.000 
#    0.000    0.000    0.000    0.000    0.000    0.000 
#
# Total GULP energy -78019.758123 kJ/mol
# GULP energy per Si atom -5572.839866 kJ/mol
# Density = 2.716168 g / cm^3
# Si number density = 27.223640 Si / 1000 Ang^3
#
#
#
# Elastic Constant Matrix: (Units=GPa)
#
#
# Indices 1 2 3 4 5 6 
#
# 1 200.0202 39.5921 49.8532 -18.9689 -7.2670 8.2810
# 2 39.5921 84.4736 33.5160 -17.8906 16.7749 12.8521
# 3 49.8532 33.5160 111.2178 -27.3048 3.5526 4.8562
# 4 -18.9689 -17.8906 -27.3048 41.5071 -0.9374 -3.5460
# 5 -7.2670 16.7749 3.5526 -0.9374 40.9341 -22.4283
# 6 8.2810 12.8521 4.8562 -3.5460 -22.4283 43.3519
#
#
#
# Elastic Compliance Matrix: (Units=1/GPa)
#
#
# Indices 1 2 3 4 5 6 
#
# 1 0.006169 -0.002968 -0.001936 0.000493 0.003444 0.001741
# 2 -0.002968 0.020190 -0.002686 0.004138 -0.015480 -0.012788
# 3 -0.001936 -0.002686 0.012117 0.005954 0.000005 0.000298
# 4 0.000493 0.004138 0.005954 0.029947 -0.001655 -0.000395
# 5 0.003444 -0.015480 0.000005 -0.001655 0.046649 0.027930
# 6 0.001741 -0.012788 0.000298 -0.000395 0.027930 0.040910
#
#
# Mechanical properties :
#
#
# Convention : Reuss Voigt Hill
#
# Bulk Modulus (GPa) = 42.92145 71.29269 57.10707
# Shear Modulus (GPa) = 27.94427 43.34196 35.64312
#
# Velocity S-wave (km/s) = 3.20733 3.99440 3.62231
# Velocity P-wave (km/s) = 5.43291 6.89335 6.20624
#
# Compressibility (1/GPa) = 0.02329838
#
# Stress axis : x y z
#
# Youngs Moduli (GPa) = 162.09277 49.52830 82.52774
#
# Poissons Ratio (x) = 0.14699 0.15977
# Poissons Ratio (y) = 0.48105 0.22163
# Poissons Ratio (z) = 0.31381 0.13301
#
# Static dielectric constant tensor:
#      x y z
#    x 2.016580 0.017400 0.009710 
#    y 0.017400 2.339860 -0.048700 
#    z 0.009710 -0.048700 2.336460 
# 
# From -- ./inp_files/471040.got.cif
#   From: 2010.05.17/outbox.cif.g08.bks.cpg/sg2_236_cif.got.tgz:471040.got - 2010.06.03 11:33:40.
