data_PCOD9074438
_publ_section_title
;
Structure prediction by ZEFSAII (Michael W. Deem and Ramdas Pophale) SiO2 
 PCOD9074438
Probable space group: P -1
;
_chemical_formula_sum "Si O2"
_cell_formula_units_Z 16
_cell_length_a 9.000000
_cell_length_b 9.000000
_cell_length_c 24.000000
_cell_angle_alpha 140.000000
_cell_angle_beta 130.000000
_cell_angle_gamma 80.000000
_cell_volume 729.599496
_symmetry_space_group_name_H-M "P -1"
_symmetry_group_IT_number 2
_symmetry_cell_setting 'triclinic'
loop_
_space_group_symop_operation_xyz
x,y,z
-x,-y,-z
loop_
_atom_site_type_symbol
_atom_site_label
_atom_site_fract_x
_atom_site_fract_y
_atom_site_fract_z
Si Si1 0.941379 0.263905 0.208179
Si Si2 0.332939 0.861130 0.790621
Si Si3 0.885478 0.083054 0.820072
Si Si4 0.715857 0.176015 0.690705
Si Si5 0.413879 0.767140 0.147891
Si Si6 0.140954 0.885204 0.981018
Si Si7 0.780572 0.028661 0.542681
Si Si8 0.055915 0.738563 0.532531
O O1 0.052560 0.611012 0.328408
O O2 0.711640 0.064821 0.139073
O O3 0.848705 0.117586 0.083445
O O4 0.131478 0.205125 0.257044
O O5 0.072649 0.518358 0.619841
O O6 0.421971 0.102744 0.832474
O O7 0.577967 0.890442 0.862304
O O8 0.751747 0.057457 0.722175
O O9 0.740136 0.114580 0.842294
O O10 0.184212 0.401467 0.986334
O O11 0.713224 0.017329 0.588615
O O12 0.967545 0.531842 0.854589
O O13 0.463819 0.138073 0.605862
O O14 0.647082 0.959220 0.304209
O O15 0.000000 0.000000 0.000000
O O16 0.911313 0.875515 0.531197
O O17 0.000000 0.500000 0.500000
#
# Coordination Sequence:
#
# PCOD9074438 Si02
#       8
#     2   2   2   2   2   2   2   2
#     4  11  27  41  69 106 138 181 229 287 343 410
#     4  11  23  44  65 102 135 184 226 284 352 401
#     4  11  24  45  72 100 134 185 235 282 346 406
#     4  10  23  42  74  96 140 180 227 290 337 409
#     4  10  24  44  70 101 135 179 239 285 336 415
#     4  11  22  43  70  99 139 181 227 286 339 412
#     4  10  24  47  64 108 137 178 232 284 347 411
#     4  10  24  44  73  95 138 182 226 281 350 411
#
# _framework density 21.929839999999999
#
# number of rings (size 3 to 8) (size 9 to 14) (size 15 to 20)
#    0.000    1.500    1.250    1.875    7.000    9.500 
#    0.000    0.000    0.000    0.000    0.000    0.000 
#    0.000    0.000    0.000    0.000    0.000    0.000 
#
# Total GULP energy -89167.225433 kJ/mol
# GULP energy per Si atom -5572.951590 kJ/mol
# Density = 2.187993 g / cm^3
# Si number density = 21.929840 Si / 1000 Ang^3
#
#
#
# Elastic Constant Matrix: (Units=GPa)
#
#
# Indices 1 2 3 4 5 6 
#
# 1 56.5977 22.3001 0.0835 9.3112 1.2280 9.1624
# 2 22.3001 116.6586 12.9684 -1.9517 -8.9366 -4.3994
# 3 0.0835 12.9684 92.3359 -15.3654 14.4370 4.8980
# 4 9.3112 -1.9517 -15.3654 33.9592 -7.2186 -4.4034
# 5 1.2280 -8.9366 14.4370 -7.2186 27.1430 -8.6637
# 6 9.1624 -4.3994 4.8980 -4.4034 -8.6637 44.5583
#
#
#
# Elastic Compliance Matrix: (Units=1/GPa)
#
#
# Indices 1 2 3 4 5 6 
#
# 1 0.022748 -0.005530 0.000979 -0.008872 -0.008222 -0.007807
# 2 -0.005530 0.010640 -0.002302 0.003139 0.007133 0.004138
# 3 0.000979 -0.002302 0.013116 0.003475 -0.007828 -0.003049
# 4 -0.008872 0.003139 0.003475 0.037177 0.011947 0.007749
# 5 -0.008222 0.007133 -0.007828 0.011947 0.051516 0.014453
# 6 -0.007807 0.004138 -0.003049 0.007749 0.014453 0.028367
#
#
# Mechanical properties :
#
#
# Convention : Reuss Voigt Hill
#
# Bulk Modulus (GPa) = 30.48848 37.36623 33.92736
# Shear Modulus (GPa) = 26.56727 36.48148 31.52437
#
# Velocity S-wave (km/s) = 3.48439 4.08309 3.79556
# Velocity P-wave (km/s) = 5.48825 6.26936 5.89176
#
# Compressibility (1/GPa) = 0.03279927
#
# Stress axis : x y z
#
# Youngs Moduli (GPa) = 43.96052 93.98521 76.24156
#
# Poissons Ratio (x) = 0.51973 -0.07467
# Poissons Ratio (y) = 0.24310 0.17549
# Poissons Ratio (z) = -0.04305 0.21633
#
# Static dielectric constant tensor:
#      x y z
#    x 1.856800 0.020750 -0.013450 
#    y 0.020750 1.846800 -0.047110 
#    z -0.013450 -0.047110 1.855240 
# 
# From -- ./inp_files/537691.got.cif
#   From: 2010.05.17/outbox.ucp.g08.bks.cvg/sg2_269_cif.got.tgz:537691.got - 2010.06.11 11:32:03.
