data_PCOD9074309
_publ_section_title
;
Structure prediction by ZEFSAII (Michael W. Deem and Ramdas Pophale) SiO2 
 PCOD9074309
Probable space group: P -1
;
_chemical_formula_sum "Si O2"
_cell_formula_units_Z 15
_cell_length_a 15.000000
_cell_length_b 12.000000
_cell_length_c 9.000000
_cell_angle_alpha 90.000000
_cell_angle_beta 80.000000
_cell_angle_gamma 150.000000
_cell_volume 759.581896
_symmetry_space_group_name_H-M "P -1"
_symmetry_group_IT_number 2
_symmetry_cell_setting 'triclinic'
loop_
_space_group_symop_operation_xyz
x,y,z
-x,-y,-z
loop_
_atom_site_type_symbol
_atom_site_label
_atom_site_fract_x
_atom_site_fract_y
_atom_site_fract_z
Si Si1 0.764592 0.450152 0.916034
Si Si2 0.876766 0.746705 0.403757
Si Si3 0.423171 0.087175 0.249908
Si Si4 0.946001 0.071221 0.318866
Si Si5 0.000000 0.500000 0.000000
Si Si6 0.628353 0.212890 0.637657
Si Si7 0.548183 0.765736 0.455906
Si Si8 0.970701 0.607017 0.306658
O O1 0.892730 0.490618 0.947521
O O2 0.684282 0.317848 0.783264
O O3 0.899644 0.701023 0.831626
O O4 0.580251 0.272834 0.074942
O O5 0.653581 0.513414 0.512519
O O6 0.989281 0.846646 0.526209
O O7 0.915950 0.678126 0.295415
O O8 0.933199 0.923159 0.308621
O O9 0.445998 0.203597 0.370429
O O10 0.456744 0.001694 0.313760
O O11 0.198557 0.846991 0.271872
O O12 0.740160 0.908305 0.357108
O O13 0.055783 0.503805 0.822735
O O14 0.482710 0.146916 0.613449
O O15 0.821105 0.414781 0.481903
#
# Coordination Sequence:
#
# PCOD9074309 Si02
#       8
#     2   2   2   2   1   2   2   2
#     4  12  25  42  62 105 139 179 225 280 339 413
#     4  10  22  46  72 101 130 176 240 288 321 402
#     4  12  24  40  63 100 147 174 225 278 344 407
#     4  11  23  43  75  97 135 179 235 284 331 396
#     4  12  28  40  68  96 146 174 224 280 352 390
#     4  11  23  42  67  98 141 180 232 269 343 414
#     4  11  22  41  71 101 130 183 229 280 339 406
#     4  11  23  46  68  98 137 182 227 284 339 405
#
# _framework density 19.747706000000001
#
# number of rings (size 3 to 8) (size 9 to 14) (size 15 to 20)
#    0.000    0.800    5.333    3.200    3.733    0.000 
#    0.000    3.333    0.000    0.000    0.000    0.000 
#    0.000    0.000    0.000    0.000    0.000    0.000 
#
# Total GULP energy -83551.220456 kJ/mol
# GULP energy per Si atom -5570.081364 kJ/mol
# Density = 1.970276 g / cm^3
# Si number density = 19.747706 Si / 1000 Ang^3
#
#
#
# Elastic Constant Matrix: (Units=GPa)
#
#
# Indices 1 2 3 4 5 6 
#
# 1 109.4956 27.6572 46.6008 -32.4951 1.3189 11.4730
# 2 27.6572 55.0607 19.4540 -26.5907 3.7096 7.1797
# 3 46.6008 19.4540 114.4623 -18.3246 -4.2370 1.1706
# 4 -32.4951 -26.5907 -18.3246 28.8784 3.8729 0.7485
# 5 1.3189 3.7096 -4.2370 3.8729 30.4211 3.1682
# 6 11.4730 7.1797 1.1706 0.7485 3.1682 39.1963
#
#
#
# Elastic Compliance Matrix: (Units=1/GPa)
#
#
# Indices 1 2 3 4 5 6 
#
# 1 0.016579 0.003909 -0.004264 0.020200 -0.003786 -0.005521
# 2 0.003909 0.037377 -0.001957 0.039004 -0.009139 -0.007938
# 3 -0.004264 -0.001957 0.010864 0.000021 0.001816 0.001135
# 4 0.020200 0.039004 0.000021 0.095839 -0.016418 -0.013561
# 5 -0.003786 -0.009139 0.001816 -0.016418 0.036484 0.000093
# 6 -0.005521 -0.007938 0.001135 -0.013561 0.000093 0.028800
#
#
# Mechanical properties :
#
#
# Convention : Reuss Voigt Hill
#
# Bulk Modulus (GPa) = 16.61226 51.82696 34.21961
# Shear Modulus (GPa) = 19.94958 32.05294 26.00126
#
# Velocity S-wave (km/s) = 3.18185 4.03317 3.63253
# Velocity P-wave (km/s) = 4.68288 6.92749 5.91268
#
# Compressibility (1/GPa) = 0.06019649
#
# Stress axis : x y z
#
# Youngs Moduli (GPa) = 60.31744 26.75445 92.04690
#
# Poissons Ratio (x) = -0.10459 0.39248
# Poissons Ratio (y) = -0.23579 0.18012
# Poissons Ratio (z) = 0.25719 0.05235
#
# Static dielectric constant tensor:
#      x y z
#    x 1.694740 -0.002130 0.021360 
#    y -0.002130 1.771030 0.021290 
#    z 0.021360 0.021290 1.671310 
# 
# From -- ./inp_files/179790.got.cif
#   From: 2010.05.17/outbox.ucp.g08.bks.cvg/sg2_90_cif.got.tgz:179790.got - 2010.06.11 11:32:03.
