data_PCOD9074250
_publ_section_title
;
Structure prediction by ZEFSAII (Michael W. Deem and Ramdas Pophale) SiO2 
 PCOD9074250
Probable space group: P -1
;
_chemical_formula_sum "Si O2"
_cell_formula_units_Z 14
_cell_length_a 6.000000
_cell_length_b 21.000000
_cell_length_c 9.000000
_cell_angle_alpha 40.000000
_cell_angle_beta 70.000000
_cell_angle_gamma 60.000000
_cell_volume 629.549538
_symmetry_space_group_name_H-M "P -1"
_symmetry_group_IT_number 2
_symmetry_cell_setting 'triclinic'
loop_
_space_group_symop_operation_xyz
x,y,z
-x,-y,-z
loop_
_atom_site_type_symbol
_atom_site_label
_atom_site_fract_x
_atom_site_fract_y
_atom_site_fract_z
Si Si1 0.259544 0.476252 0.885131
Si Si2 0.855407 0.606811 0.249039
Si Si3 0.137419 0.929122 0.451452
Si Si4 0.584253 0.999622 0.306072
Si Si5 0.928164 0.277972 0.520459
Si Si6 0.427594 0.217022 0.759557
Si Si7 0.794509 0.309878 0.162444
O O1 0.234758 0.595804 0.629888
O O2 0.267789 0.415885 0.834611
O O3 0.505125 0.403795 0.060009
O O4 0.000000 0.500000 0.000000
O O5 0.000000 0.500000 0.500000
O O6 0.682499 0.689180 0.262171
O O7 0.058408 0.653366 0.061018
O O8 0.214146 0.802766 0.679812
O O9 0.416815 0.940749 0.362232
O O10 0.000000 0.000000 0.500000
O O11 0.899761 0.963086 0.320926
O O12 0.500000 0.000000 0.500000
O O13 0.484942 0.108855 0.035665
O O14 0.715506 0.220846 0.659078
O O15 0.964631 0.287727 0.315803
O O16 0.193708 0.236557 0.645021
#
# Coordination Sequence:
#
# PCOD9074250 Si02
#       7
#     2   2   2   2   2   2   2
#     4  12  26  47  73 108 157 198 247 296 370 452
#     4  12  26  43  73 111 148 194 252 304 367 439
#     4  10  23  43  72 107 139 182 251 303 355 433
#     4  10  22  44  71 102 144 181 235 311 367 418
#     4  12  27  49  70 109 155 198 245 299 371 450
#     4  12  27  47  76 110 151 192 247 315 364 433
#     4  12  28  45  79 103 150 208 243 298 383 439
#
# _framework density 22.238123000000002
#
# number of rings (size 3 to 8) (size 9 to 14) (size 15 to 20)
#    0.000    0.571    2.857    4.714    8.000    1.143 
#    0.000    4.286    0.000    0.000    0.000    0.000 
#    0.000    0.000    0.000    0.000    0.000    0.000 
#
# Total GULP energy -77950.428306 kJ/mol
# GULP energy per Si atom -5567.887736 kJ/mol
# Density = 2.218751 g / cm^3
# Si number density = 22.238123 Si / 1000 Ang^3
#
#
#
# Elastic Constant Matrix: (Units=GPa)
#
#
# Indices 1 2 3 4 5 6 
#
# 1 174.5905 19.0450 57.3259 -8.1812 20.1650 17.8706
# 2 19.0450 89.7778 30.4208 -3.6695 2.4491 7.6596
# 3 57.3259 30.4208 169.9246 -18.8644 6.1454 9.8757
# 4 -8.1812 -3.6695 -18.8644 48.0120 5.1835 -4.7217
# 5 20.1650 2.4491 6.1454 5.1835 60.5134 -4.3768
# 6 17.8706 7.6596 9.8757 -4.7217 -4.3768 37.8430
#
#
#
# Elastic Compliance Matrix: (Units=1/GPa)
#
#
# Indices 1 2 3 4 5 6 
#
# 1 0.007022 -0.000488 -0.001988 0.000345 -0.002360 -0.002928
# 2 -0.000488 0.012035 -0.001884 -0.000048 -0.000256 -0.001749
# 3 -0.001988 -0.001884 0.007176 0.002331 -0.000210 -0.000286
# 4 0.000345 -0.000048 0.002331 0.022202 -0.002124 0.001763
# 5 -0.002360 -0.000256 -0.000210 -0.002124 0.017743 0.003008
# 6 -0.002928 -0.001749 -0.000286 0.001763 0.003008 0.028804
#
#
# Mechanical properties :
#
#
# Convention : Reuss Voigt Hill
#
# Bulk Modulus (GPa) = 57.10067 71.98626 64.54347
# Shear Modulus (GPa) = 45.64555 51.10709 48.37632
#
# Velocity S-wave (km/s) = 4.53546 4.79913 4.66915
# Velocity P-wave (km/s) = 7.29108 7.94668 7.62593
#
# Compressibility (1/GPa) = 0.01751293
#
# Stress axis : x y z
#
# Youngs Moduli (GPa) = 142.40886 83.09188 139.35361
#
# Poissons Ratio (x) = 0.04053 0.27701
# Poissons Ratio (y) = 0.06946 0.26260
# Poissons Ratio (z) = 0.28308 0.15658
#
# Static dielectric constant tensor:
#      x y z
#    x 1.897140 -0.000270 -0.047350 
#    y -0.000270 1.922750 -0.022150 
#    z -0.047350 -0.022150 1.819110 
# 
# From -- ./inp_files/53020.got.cif
#   From: 2010.05.17/outbox.ucp.g08.bks.cvg/sg2_27_cif.got.tgz:53020.got - 2010.06.11 11:32:03.
