data_PCOD9074793
_publ_section_title
;
Structure prediction by ZEFSAII (Michael W. Deem and Ramdas Pophale) SiO2 
 PCOD9074793
Probable space group: P -1
;
_chemical_formula_sum "Si O2"
_cell_formula_units_Z 16
_cell_length_a 8.612011
_cell_length_b 11.411972
_cell_length_c 20.939356
_cell_angle_alpha 45.886459
_cell_angle_beta 143.120958
_cell_angle_gamma 107.547295
_cell_volume 714.268980
_symmetry_space_group_name_H-M "P -1"
_symmetry_group_IT_number 2
_symmetry_cell_setting 'triclinic'
loop_
_space_group_symop_operation_xyz
x,y,z
-x,-y,-z
loop_
_atom_site_type_symbol
_atom_site_label
_atom_site_fract_x
_atom_site_fract_y
_atom_site_fract_z
Si Si1 0.221042 0.438945 0.806789
Si Si2 0.778419 0.364151 0.446470
Si Si3 0.061754 0.682728 0.040083
Si Si4 0.952113 0.178898 0.152573
Si Si5 0.331556 0.895792 0.280309
Si Si6 0.987948 0.846910 0.511894
Si Si7 0.830787 0.482742 0.549360
Si Si8 0.149283 0.552493 0.875994
O O1 0.033410 0.540669 0.772378
O O2 0.211706 0.621357 0.701388
O O3 0.050502 0.381593 0.722683
O O4 0.586814 0.251125 0.011324
O O5 0.410185 0.531822 0.242729
O O6 0.814200 0.356009 0.536917
O O7 0.903890 0.166024 0.520805
O O8 0.999936 0.426909 0.466113
O O9 0.842229 0.618364 0.016980
O O10 0.066137 0.683413 0.964235
O O11 0.926216 0.915584 0.920653
O O12 0.039734 0.243625 0.220984
O O13 0.181662 0.961059 0.277118
O O14 0.633335 0.905550 0.376775
O O15 0.484202 0.673930 0.387862
O O16 0.000000 0.000000 0.500000
O O17 0.500000 0.500000 0.000000
#
# Coordination Sequence:
#
# PCOD9074793 Si02
#       8
#     2   2   2   2   2   2   2   2
#     4   9  18  35  49  78 100 147 164 214 258 310
#     4   9  18  31  55  77  99 144 166 215 252 308
#     4  10  18  32  52  80 100 133 185 204 260 297
#     4   9  17  32  52  77 101 135 175 207 258 299
#     4   8  18  28  51  78 100 131 163 230 247 292
#     4  10  19  30  51  78 108 129 172 211 266 304
#     4   9  16  35  52  77 107 126 181 210 262 299
#     4  10  21  30  51  74 110 143 169 207 263 321
#
# _framework density 22.400524999999998
#
# number of rings (size 3 to 8) (size 9 to 14) (size 15 to 20)
#    0.750    2.250    2.500    0.375    5.250    0.500 
#    0.000    3.125    0.000    0.000    0.000   15.750 
#    0.000    0.000    0.000    0.000    0.000    0.000 
#
# Total GULP energy -89076.365158 kJ/mol
# GULP energy per Si atom -5567.272822 kJ/mol
# Density = 2.234954 g / cm^3
# Si number density = 22.400525 Si / 1000 Ang^3
#
#
#
# Elastic Constant Matrix: (Units=GPa)
#
#
# Indices 1 2 3 4 5 6 
#
# 1 94.6533 65.5947 28.8709 -3.7542 3.6437 -27.4373
# 2 65.5947 113.7925 32.4277 11.0050 -2.9254 -48.8841
# 3 28.8709 32.4277 47.9562 -1.7004 20.2850 -16.8433
# 4 -3.7542 11.0050 -1.7004 17.9998 -8.0153 -9.9967
# 5 3.6437 -2.9254 20.2850 -8.0153 26.3327 -1.5968
# 6 -27.4373 -48.8841 -16.8433 -9.9967 -1.5968 53.5638
#
#
#
# Elastic Compliance Matrix: (Units=1/GPa)
#
#
# Indices 1 2 3 4 5 6 
#
# 1 0.020595 -0.010542 -0.006381 0.013226 0.005014 0.001540
# 2 -0.010542 0.024085 -0.010470 -0.006018 0.011126 0.012497
# 3 -0.006381 -0.010470 0.048275 -0.008438 -0.040062 -0.000413
# 4 0.013226 -0.006018 -0.008438 0.082968 0.030166 0.015012
# 5 0.005014 0.011126 -0.040062 0.030166 0.079053 0.008111
# 6 0.001540 0.012497 -0.000413 0.015012 0.008111 0.033777
#
#
# Mechanical properties :
#
#
# Convention : Reuss Voigt Hill
#
# Bulk Modulus (GPa) = 26.19932 56.68762 41.44347
# Shear Modulus (GPa) = 14.03463 28.21318 21.12391
#
# Velocity S-wave (km/s) = 2.50578 3.55278 3.07418
# Velocity P-wave (km/s) = 4.48254 6.49546 5.58050
#
# Compressibility (1/GPa) = 0.03816893
#
# Stress axis : x y z
#
# Youngs Moduli (GPa) = 48.55632 41.51973 20.71449
#
# Poissons Ratio (x) = 0.43769 0.13219
# Poissons Ratio (y) = 0.51187 0.21688
# Poissons Ratio (z) = 0.30986 0.43470
#
# Static dielectric constant tensor:
#      x y z
#    x 1.892350 -0.023380 -0.017800 
#    y -0.023380 1.899650 -0.029430 
#    z -0.017800 -0.029430 1.882280 
# 
# From -- ./inp_files/589027.got.cif
#   From: 2010.05.17/outbox.cif.g08.bks.cpg/sg2_295_cif.got.tgz:589027.got - 2010.06.03 11:33:40.
