data_PCOD9074551
_publ_section_title
;
Structure prediction by ZEFSAII (Michael W. Deem and Ramdas Pophale) SiO2 
 PCOD9074551
Probable space group: P -1
;
_chemical_formula_sum "Si O2"
_cell_formula_units_Z 16
_cell_length_a 9.000000
_cell_length_b 15.000000
_cell_length_c 9.000000
_cell_angle_alpha 70.000000
_cell_angle_beta 100.000000
_cell_angle_gamma 50.000000
_cell_volume 732.374747
_symmetry_space_group_name_H-M "P -1"
_symmetry_group_IT_number 2
_symmetry_cell_setting 'triclinic'
loop_
_space_group_symop_operation_xyz
x,y,z
-x,-y,-z
loop_
_atom_site_type_symbol
_atom_site_label
_atom_site_fract_x
_atom_site_fract_y
_atom_site_fract_z
Si Si1 0.063072 0.814896 0.573509
Si Si2 0.506889 0.798211 0.115625
Si Si3 0.626233 0.081206 0.665512
Si Si4 0.874983 0.075719 0.243195
Si Si5 0.093331 0.519376 0.639215
Si Si6 0.187604 0.252955 0.298046
Si Si7 0.227775 0.639759 0.413054
Si Si8 0.175388 0.202003 0.990003
O O1 0.210779 0.795066 0.742362
O O2 0.189365 0.737416 0.480245
O O3 0.933574 0.785758 0.637478
O O4 0.875108 0.983559 0.399916
O O5 0.497014 0.801630 0.290383
O O6 0.665532 0.637727 0.177701
O O7 0.261791 0.892684 0.944165
O O8 0.644105 0.825741 0.065638
O O9 0.452042 0.135873 0.470984
O O10 0.703688 0.950226 0.842190
O O11 0.862677 0.019715 0.696196
O O12 0.142079 0.592784 0.522189
O O13 0.000000 0.500000 0.500000
O O14 0.935962 0.606483 0.706465
O O15 0.145041 0.273694 0.101102
O O16 0.500000 0.500000 0.500000
O O17 0.053238 0.718885 0.193061
#
# Coordination Sequence:
#
# PCOD9074551 Si02
#       8
#     2   2   2   2   2   2   2   2
#     4  10  23  46  64  97 137 171 216 268 339 383
#     4  12  25  43  68  97 135 172 224 272 326 396
#     4  12  24  42  71  97 136 173 217 279 329 391
#     4  11  25  40  70 100 133 171 225 271 328 391
#     4  11  23  48  65  93 130 177 219 268 329 386
#     4  11  24  44  71  95 137 173 221 270 328 398
#     4  11  26  44  71  93 136 175 220 275 329 393
#     4  12  25  43  67 103 128 173 225 269 335 391
#
# _framework density 21.846738999999999
#
# number of rings (size 3 to 8) (size 9 to 14) (size 15 to 20)
#    0.000    0.750    3.750    3.375    7.000    1.500 
#    0.000    2.500    0.000    0.000    0.000    0.000 
#    0.000    0.000    0.000    0.000    0.000    0.000 
#
# Total GULP energy -89240.503645 kJ/mol
# GULP energy per Si atom -5577.531478 kJ/mol
# Density = 2.179701 g / cm^3
# Si number density = 21.846739 Si / 1000 Ang^3
#
#
#
# Elastic Constant Matrix: (Units=GPa)
#
#
# Indices 1 2 3 4 5 6 
#
# 1 6.5732 44.3299 24.2244 34.8218 15.5000 -5.1896
# 2 44.3299 126.6709 28.1619 28.2510 14.5727 -15.0528
# 3 24.2244 28.1619 60.6584 20.5945 15.5359 -13.5940
# 4 34.8218 28.2510 20.5945 37.2863 8.3868 -3.3439
# 5 15.5000 14.5727 15.5359 8.3868 39.9173 1.3422
# 6 -5.1896 -15.0528 -13.5940 -3.3439 1.3422 35.8150
#
#
#
# Elastic Compliance Matrix: (Units=1/GPa)
#
#
# Indices 1 2 3 4 5 6 
#
# 1 -0.033235 0.005128 0.000833 0.025472 0.005363 -0.000167
# 2 0.005128 0.009416 -0.001513 -0.010160 -0.002816 0.003283
# 3 0.000833 -0.001513 0.024062 -0.010599 -0.007174 0.007897
# 4 0.025472 -0.010160 -0.010599 0.017612 -0.005664 -0.002746
# 5 0.005363 -0.002816 -0.007174 -0.005664 0.028138 -0.004713
# 6 -0.000167 0.003283 0.007897 -0.002746 -0.004713 0.032195
#
#
# Mechanical properties :
#
#
# Convention : Reuss Voigt Hill
#
# Bulk Modulus (GPa) = 109.42872 43.03721 76.23296
# Shear Modulus (GPa) = 69.11987 29.08281 49.10134
#
# Velocity S-wave (km/s) = 5.63092 3.65255 4.74596
# Velocity P-wave (km/s) = 9.61636 6.12621 8.06241
#
# Compressibility (1/GPa) = 0.00913837
#
# Stress axis : x y z
#
# Youngs Moduli (GPa) = -30.08885 106.19852 41.56008
#
# Poissons Ratio (x) = -0.54460 -0.03461
# Poissons Ratio (y) = 0.15430 0.06289
# Poissons Ratio (z) = 0.02506 0.16070
#
# Static dielectric constant tensor:
#      x y z
#    x 1.799700 0.081130 0.003860 
#    y 0.081130 1.962260 -0.029910 
#    z 0.003860 -0.029910 1.828660 
# 
# From -- ./inp_files/206409.got.cif
#   From: 2010.05.17/outbox.ucp.g08.bks.cvg/sg2_104_cif.got.tgz:206409.got - 2010.06.11 11:32:03.
