data_PCOD9074502
_publ_section_title
;
Structure prediction by ZEFSAII (Michael W. Deem and Ramdas Pophale) SiO2 
 PCOD9074502
Probable space group: P -1
;
_chemical_formula_sum "Si O2"
_cell_formula_units_Z 16
_cell_length_a 6.000000
_cell_length_b 24.000000
_cell_length_c 12.000000
_cell_angle_alpha 30.000000
_cell_angle_beta 60.000000
_cell_angle_gamma 70.000000
_cell_volume 731.538865
_symmetry_space_group_name_H-M "P -1"
_symmetry_group_IT_number 2
_symmetry_cell_setting 'triclinic'
loop_
_space_group_symop_operation_xyz
x,y,z
-x,-y,-z
loop_
_atom_site_type_symbol
_atom_site_label
_atom_site_fract_x
_atom_site_fract_y
_atom_site_fract_z
Si Si1 0.789736 0.025150 0.100374
Si Si2 0.735691 0.120591 0.416500
Si Si3 0.733179 0.623031 0.846670
Si Si4 0.347729 0.647051 0.698326
Si Si5 0.979465 0.063053 0.238906
Si Si6 0.765614 0.371799 0.901842
Si Si7 0.513861 0.233644 0.773891
Si Si8 0.737187 0.430744 0.551996
O O1 0.914854 0.058494 0.132715
O O2 0.541126 0.923005 0.373950
O O3 0.671473 0.131465 0.902825
O O4 0.000000 0.000000 0.000000
O O5 0.753799 0.079206 0.354753
O O6 0.933879 0.054389 0.544597
O O7 0.812063 0.256562 0.148423
O O8 0.569825 0.672125 0.700648
O O9 0.043522 0.673546 0.717028
O O10 0.717135 0.490422 0.051190
O O11 0.531358 0.621859 0.001513
O O12 0.491021 0.707230 0.447617
O O13 0.229499 0.169550 0.003876
O O14 0.778929 0.375515 0.757568
O O15 0.990139 0.479392 0.699053
O O16 0.656160 0.331978 0.652119
O O17 0.500000 0.500000 0.500000
#
# Coordination Sequence:
#
# PCOD9074502 Si02
#       8
#     2   2   2   2   2   2   2   2
#     4  11  26  43  71 104 139 182 238 302 375 439
#     4  10  23  44  69 102 135 188 235 304 365 437
#     4  10  24  42  65  98 139 190 237 293 356 437
#     4  10  24  42  66  98 139 188 240 290 360 433
#     4  10  23  46  70  99 137 183 247 297 369 438
#     4  11  25  41  69 100 143 185 239 303 359 437
#     4  11  25  42  73  98 142 188 236 302 365 435
#     4  11  25  43  66 105 141 186 245 295 367 434
#
# _framework density 21.871701999999999
#
# number of rings (size 3 to 8) (size 9 to 14) (size 15 to 20)
#    0.000    1.500    0.000    2.625   10.500    8.000 
#    0.000    0.000    0.000    0.000    0.000    0.000 
#    0.000    0.000    0.000    0.000    0.000    0.000 
#
# Total GULP energy -89401.902367 kJ/mol
# GULP energy per Si atom -5587.618898 kJ/mol
# Density = 2.182192 g / cm^3
# Si number density = 21.871702 Si / 1000 Ang^3
#
#
#
# Elastic Constant Matrix: (Units=GPa)
#
#
# Indices 1 2 3 4 5 6 
#
# 1 86.7463 14.5499 44.6878 3.1651 15.7873 -0.4204
# 2 14.5499 87.3268 35.9016 18.8843 5.2211 -7.9488
# 3 44.6878 35.9016 149.7322 6.8216 9.6524 3.9519
# 4 3.1651 18.8843 6.8216 39.6517 2.2676 -2.5134
# 5 15.7873 5.2211 9.6524 2.2676 29.7589 16.4925
# 6 -0.4204 -7.9488 3.9519 -2.5134 16.4925 35.4926
#
#
#
# Elastic Compliance Matrix: (Units=1/GPa)
#
#
# Indices 1 2 3 4 5 6 
#
# 1 0.015449 0.000135 -0.004164 0.000313 -0.009805 0.005255
# 2 0.000135 0.014717 -0.003176 -0.005923 -0.003991 0.005086
# 3 -0.004164 -0.003176 0.008659 0.000142 0.001208 -0.002276
# 4 0.000313 -0.005923 0.000142 0.028230 -0.002276 0.001718
# 5 -0.009805 -0.003991 0.001208 -0.002276 0.053888 -0.026346
# 6 0.005255 0.005086 -0.002276 0.001718 -0.026346 0.041994
#
#
# Mechanical properties :
#
#
# Convention : Reuss Voigt Hill
#
# Bulk Modulus (GPa) = 40.96036 57.12045 49.04040
# Shear Modulus (GPa) = 26.95648 36.22504 31.59076
#
# Velocity S-wave (km/s) = 3.51448 4.07412 3.80461
# Velocity P-wave (km/s) = 5.93607 6.95012 6.46301
#
# Compressibility (1/GPa) = 0.02441385
#
# Stress axis : x y z
#
# Youngs Moduli (GPa) = 64.72976 67.94928 115.49280
#
# Poissons Ratio (x) = -0.00916 0.48090
# Poissons Ratio (y) = -0.00872 0.36681
# Poissons Ratio (z) = 0.26953 0.21581
#
# Static dielectric constant tensor:
#      x y z
#    x 1.832850 -0.003720 -0.008120 
#    y -0.003720 1.827540 -0.001080 
#    z -0.008120 -0.001080 1.771520 
# 
# From -- ./inp_files/370955.got.cif
#   From: 2010.05.17/outbox.ucp.g08.bks.cvg/sg2_186_cif.got.tgz:370955.got - 2010.06.11 11:32:03.
