data_PCOD9074898
_publ_section_title
;
Structure prediction by ZEFSAII (Michael W. Deem and Ramdas Pophale) SiO2 
 PCOD9074898
Probable space group: P -1
;
_chemical_formula_sum "Si O2"
_cell_formula_units_Z 16
_cell_length_a 9.000000
_cell_length_b 15.000000
_cell_length_c 9.000000
_cell_angle_alpha 110.000000
_cell_angle_beta 80.000000
_cell_angle_gamma 50.000000
_cell_volume 732.374747
_symmetry_space_group_name_H-M "P -1"
_symmetry_group_IT_number 2
_symmetry_cell_setting 'triclinic'
loop_
_space_group_symop_operation_xyz
x,y,z
-x,-y,-z
loop_
_atom_site_type_symbol
_atom_site_label
_atom_site_fract_x
_atom_site_fract_y
_atom_site_fract_z
Si Si1 0.291168 0.833047 0.102852
Si Si2 0.735807 0.361566 0.959854
Si Si3 0.473473 0.869997 0.305234
Si Si4 0.124706 0.235995 0.998782
Si Si5 0.332247 0.928117 0.859253
Si Si6 0.804759 0.114209 0.410558
Si Si7 0.878931 0.663032 0.623735
Si Si8 0.995402 0.788435 0.475459
O O1 0.305215 0.718172 0.992878
O O2 0.494200 0.767615 0.137938
O O3 0.291604 0.912891 0.024374
O O4 0.059971 0.951690 0.310177
O O5 0.917028 0.267960 0.739120
O O6 0.862929 0.365490 0.059097
O O7 0.500000 0.500000 0.000000
O O8 0.706777 0.813031 0.193689
O O9 0.388165 0.860494 0.464988
O O10 0.262517 0.041292 0.390855
O O11 0.215134 0.085968 0.938234
O O12 0.131131 0.294968 0.180371
O O13 0.217611 0.900957 0.765699
O O14 0.606334 0.793378 0.703197
O O15 0.828990 0.214194 0.492909
O O16 0.000000 0.500000 0.500000
O O17 0.990860 0.693438 0.518467
#
# Coordination Sequence:
#
# PCOD9074898 Si02
#       8
#     2   2   2   2   2   2   2   2
#     4  11  21  42  65 103 142 178 234 292 347 415
#     4  12  28  45  70 102 144 192 233 289 362 430
#     4  11  20  41  74 104 140 180 237 299 347 415
#     4  12  25  48  74 105 141 190 243 296 354 423
#     4  12  24  42  74 109 142 187 242 294 348 425
#     4  11  22  39  72 112 138 176 235 297 353 407
#     4  12  29  48  67 106 148 189 235 293 366 428
#     4  11  23  45  70 105 146 183 236 293 352 422
#
# _framework density 21.846738999999999
#
# number of rings (size 3 to 8) (size 9 to 14) (size 15 to 20)
#    0.000    0.500    6.250    3.000    5.250    2.000 
#    0.000    2.500    0.000    0.000    0.000    0.000 
#    0.000    0.000    0.000    0.000    0.000    0.000 
#
# Total GULP energy -89206.178377 kJ/mol
# GULP energy per Si atom -5575.386149 kJ/mol
# Density = 2.179701 g / cm^3
# Si number density = 21.846739 Si / 1000 Ang^3
#
#
#
# Elastic Constant Matrix: (Units=GPa)
#
#
# Indices 1 2 3 4 5 6 
#
# 1 103.8006 54.8211 35.0240 10.0576 -1.2953 -1.1521
# 2 54.8211 71.9121 19.1539 3.8068 -9.1040 7.3616
# 3 35.0240 19.1539 53.5713 -6.6214 -1.4343 5.4853
# 4 10.0576 3.8068 -6.6214 20.2224 6.9272 -9.3729
# 5 -1.2953 -9.1040 -1.4343 6.9272 41.0598 -10.4798
# 6 -1.1521 7.3616 5.4853 -9.3729 -10.4798 39.1338
#
#
#
# Elastic Compliance Matrix: (Units=1/GPa)
#
#
# Indices 1 2 3 4 5 6 
#
# 1 0.021106 -0.012919 -0.010692 -0.010566 -0.000294 0.001941
# 2 -0.012919 0.024860 -0.000104 -0.001760 0.004297 -0.004313
# 3 -0.010692 -0.000104 0.027560 0.014520 -0.002169 -0.001262
# 4 -0.010566 -0.001760 0.014520 0.068337 -0.008675 0.012029
# 5 -0.000294 0.004297 -0.002169 -0.008675 0.027934 0.004890
# 6 0.001941 -0.004313 -0.001262 0.012029 0.004890 0.030789
#
#
# Mechanical properties :
#
#
# Convention : Reuss Voigt Hill
#
# Bulk Modulus (GPa) = 38.31787 49.69800 44.00793
# Shear Modulus (GPa) = 19.47682 28.10220 23.78951
#
# Velocity S-wave (km/s) = 2.98907 3.59044 3.30347
# Velocity P-wave (km/s) = 5.43049 6.32347 5.89391
#
# Compressibility (1/GPa) = 0.02609748
#
# Stress axis : x y z
#
# Youngs Moduli (GPa) = 47.37972 40.22457 36.28449
#
# Poissons Ratio (x) = 0.51964 0.38797
# Poissons Ratio (y) = 0.61208 0.00376
# Poissons Ratio (z) = 0.50660 0.00416
#
# Static dielectric constant tensor:
#      x y z
#    x 1.884010 -0.052240 0.010180 
#    y -0.052240 1.800710 -0.011440 
#    z 0.010180 -0.011440 1.809530 
# 
# From -- ./inp_files/208288.got.cif
#   From: 2010.05.17/outbox.ucp.g08.bks.cvg/sg2_105_cif.got.tgz:208288.got - 2010.06.11 11:32:03.
