data_PCOD9074278
_publ_section_title
;
Structure prediction by ZEFSAII (Michael W. Deem and Ramdas Pophale) SiO2 
 PCOD9074278
Probable space group: P -1
;
_chemical_formula_sum "Si O2"
_cell_formula_units_Z 16
_cell_length_a 9.000000
_cell_length_b 9.000000
_cell_length_c 21.000000
_cell_angle_alpha 150.000000
_cell_angle_beta 120.000000
_cell_angle_gamma 60.000000
_cell_volume 727.687525
_symmetry_space_group_name_H-M "P -1"
_symmetry_group_IT_number 2
_symmetry_cell_setting 'triclinic'
loop_
_space_group_symop_operation_xyz
x,y,z
-x,-y,-z
loop_
_atom_site_type_symbol
_atom_site_label
_atom_site_fract_x
_atom_site_fract_y
_atom_site_fract_z
Si Si1 0.355735 0.443781 0.292805
Si Si2 0.025900 0.221912 0.647542
Si Si3 0.289716 0.691640 0.886181
Si Si4 0.911191 0.199515 0.368497
Si Si5 0.336436 0.342749 0.104105
Si Si6 0.659846 0.218235 0.926667
Si Si7 0.840439 0.090413 0.782991
Si Si8 0.591021 0.622977 0.504075
O O1 0.391598 0.415008 0.214603
O O2 0.446398 0.687923 0.441858
O O3 0.150340 0.541454 0.295855
O O4 0.405781 0.104711 0.204142
O O5 0.182364 0.422256 0.744548
O O6 0.043143 0.027197 0.645338
O O7 0.000000 0.000000 0.500000
O O8 0.498573 0.618679 0.891320
O O9 0.248054 0.749560 0.973588
O O10 0.267506 0.021125 0.969743
O O11 0.716178 0.347626 0.395835
O O12 0.000000 0.500000 0.500000
O O13 0.972059 0.063388 0.261644
O O14 0.187061 0.598286 0.144825
O O15 0.786727 0.175935 0.876288
O O16 0.500000 0.500000 0.000000
O O17 0.701785 0.879118 0.646914
O O18 0.500000 0.500000 0.500000
#
# Coordination Sequence:
#
# PCOD9074278 Si02
#       8
#     2   2   2   2   2   2   2   2
#     4  11  25  44  69 107 139 188 245 294 368 433
#     4  12  27  46  74 104 147 188 237 300 374 431
#     4  10  25  45  70 100 145 187 244 291 357 431
#     4  10  25  46  67 106 149 184 235 304 359 431
#     4  10  22  45  70 103 141 186 241 296 354 428
#     4  11  23  41  72  97 141 194 245 289 352 438
#     4  11  22  44  72 101 149 183 245 298 367 421
#     4  11  23  42  75 103 140 188 240 299 358 435
#
# _framework density 21.987459999999999
#
# number of rings (size 3 to 8) (size 9 to 14) (size 15 to 20)
#    0.000    1.250    3.750    0.750    7.000    4.500 
#    0.000    1.875    2.750    0.000    0.000    0.000 
#    0.000    0.000    0.000    0.000    0.000    0.000 
#
# Total GULP energy -89235.827758 kJ/mol
# GULP energy per Si atom -5577.239235 kJ/mol
# Density = 2.193742 g / cm^3
# Si number density = 21.987460 Si / 1000 Ang^3
#
#
#
# Elastic Constant Matrix: (Units=GPa)
#
#
# Indices 1 2 3 4 5 6 
#
# 1 131.3452 29.9773 43.5937 1.5039 -17.6052 17.2929
# 2 29.9773 48.4055 21.3779 10.0839 1.4715 13.4401
# 3 43.5937 21.3779 120.7795 1.1344 4.8273 11.3363
# 4 1.5039 10.0839 1.1344 40.4037 4.8488 -14.8064
# 5 -17.6052 1.4715 4.8273 4.8488 53.3448 -2.9170
# 6 17.2929 13.4401 11.3363 -14.8064 -2.9170 36.8499
#
#
#
# Elastic Compliance Matrix: (Units=1/GPa)
#
#
# Indices 1 2 3 4 5 6 
#
# 1 0.010415 -0.004594 -0.002886 -0.000413 0.003743 -0.002194
# 2 -0.004594 0.030853 -0.002360 -0.012159 -0.001781 -0.013398
# 3 -0.002886 -0.002360 0.009889 0.000334 -0.001858 -0.000840
# 4 -0.000413 -0.012159 0.000334 0.034747 -0.001987 0.018330
# 5 0.003743 -0.001781 -0.001858 -0.001987 0.020394 0.000281
# 6 -0.002194 -0.013398 -0.000840 0.018330 0.000281 0.040699
#
#
# Mechanical properties :
#
#
# Convention : Reuss Voigt Hill
#
# Bulk Modulus (GPa) = 31.76874 54.49201 43.13038
# Shear Modulus (GPa) = 28.22161 39.82509 34.02335
#
# Velocity S-wave (km/s) = 3.58653 4.26051 3.93797
# Velocity P-wave (km/s) = 5.62413 7.00283 6.35100
#
# Compressibility (1/GPa) = 0.03147748
#
# Stress axis : x y z
#
# Youngs Moduli (GPa) = 96.01438 32.41160 101.12402
#
# Poissons Ratio (x) = 0.14890 0.29183
# Poissons Ratio (y) = 0.44109 0.23865
# Poissons Ratio (z) = 0.27708 0.07649
#
# Static dielectric constant tensor:
#      x y z
#    x 1.939860 -0.139000 -0.051350 
#    y -0.139000 1.952340 0.023520 
#    z -0.051350 0.023520 1.851660 
# 
# From -- ./inp_files/588287.got.cif
#   From: 2010.05.17/outbox.ucp.g08.bks.cvg/sg2_295_cif.got.tgz:588287.got - 2010.06.11 11:32:03.
