data_PCOD9074712
_publ_section_title
;
Structure prediction by ZEFSAII (Michael W. Deem and Ramdas Pophale) SiO2 
 PCOD9074712
Probable space group: P -1
;
_chemical_formula_sum "Si O2"
_cell_formula_units_Z 16
_cell_length_a 12.916326
_cell_length_b 12.729471
_cell_length_c 12.260043
_cell_angle_alpha 35.315523
_cell_angle_beta 148.007152
_cell_angle_gamma 143.027713
_cell_volume 578.565247
_symmetry_space_group_name_H-M "P -1"
_symmetry_group_IT_number 2
_symmetry_cell_setting 'triclinic'
loop_
_space_group_symop_operation_xyz
x,y,z
-x,-y,-z
loop_
_atom_site_type_symbol
_atom_site_label
_atom_site_fract_x
_atom_site_fract_y
_atom_site_fract_z
Si Si1 0.250927 0.552714 0.181194
Si Si2 0.393883 0.298336 0.250986
Si Si3 0.955175 0.357845 0.762156
Si Si4 0.158897 0.924929 0.273143
Si Si5 0.502501 0.687099 0.071534
Si Si6 0.233001 0.167858 0.453443
Si Si7 0.773708 0.106231 0.010420
Si Si8 0.142314 0.786960 0.607483
O O1 0.292266 0.357629 0.423429
O O2 0.338780 0.760836 0.143252
O O3 0.343533 0.590482 0.110543
O O4 0.000000 0.500000 0.000000
O O5 0.563510 0.514599 0.218890
O O6 0.184981 0.344411 0.992180
O O7 0.371890 0.226090 0.418187
O O8 0.369944 0.113004 0.312519
O O9 0.863402 0.280648 0.627085
O O10 0.807378 0.191505 0.847632
O O11 0.980058 0.568649 0.653543
O O12 0.084087 0.880240 0.368892
O O13 0.000000 0.000000 0.000000
O O14 0.364813 0.764368 0.801552
O O15 0.668362 0.877184 0.108415
O O16 0.193021 0.938337 0.626326
O O17 0.000443 0.152337 0.224381
#
# Coordination Sequence:
#
# PCOD9074712 Si02
#       8
#     2   2   2   2   2   2   2   2
#     4   9  17  34  56  74  97 136 174 203 240 301
#     4   7  14  29  49  70  95 129 166 200 240 294
#     4   9  17  30  49  73 100 130 168 209 246 289
#     4   9  16  30  54  76  95 130 176 210 240 295
#     4  10  19  32  52  78 104 130 163 209 257 295
#     4   8  16  31  52  72  96 129 168 204 242 293
#     4  10  19  34  51  73 103 138 169 200 246 307
#     4  10  18  32  52  78 102 128 166 215 254 288
#
# _framework density 27.654616999999998
#
# number of rings (size 3 to 8) (size 9 to 14) (size 15 to 20)
#    0.000    3.000    0.000    3.750    0.000    0.000 
#    0.000   11.250    0.000    0.000    0.000    0.000 
#    0.000    0.000    0.000    0.000    0.000    0.000 
#
# Total GULP energy -89325.311530 kJ/mol
# GULP energy per Si atom -5582.831971 kJ/mol
# Density = 2.759167 g / cm^3
# Si number density = 27.654617 Si / 1000 Ang^3
#
#
#
# Elastic Constant Matrix: (Units=GPa)
#
#
# Indices 1 2 3 4 5 6 
#
# 1 58.2297 33.2386 28.8157 -20.2068 18.2740 -33.2015
# 2 33.2386 188.4886 40.9761 -52.0450 25.4623 -39.0079
# 3 28.8157 40.9761 93.0256 -26.8086 22.8015 -5.2013
# 4 -20.2068 -52.0450 -26.8086 65.9983 -17.1277 22.2106
# 5 18.2740 25.4623 22.8015 -17.1277 45.7162 -14.5021
# 6 -33.2015 -39.0079 -5.2013 22.2106 -14.5021 48.5838
#
#
#
# Elastic Compliance Matrix: (Units=1/GPa)
#
#
# Indices 1 2 3 4 5 6 
#
# 1 0.035317 0.000781 -0.009611 -0.001060 -0.002732 0.023402
# 2 0.000781 0.007701 -0.002136 0.003725 -0.000688 0.004580
# 3 -0.009611 -0.002136 0.016477 0.004140 -0.004754 -0.009831
# 4 -0.001060 0.003725 0.004140 0.022379 0.002521 -0.006769
# 5 -0.002732 -0.000688 -0.004754 0.002521 0.028024 0.004285
# 6 0.023402 0.004580 -0.009831 -0.006769 0.004285 0.043574
#
#
# Mechanical properties :
#
#
# Convention : Reuss Voigt Hill
#
# Bulk Modulus (GPa) = 26.62258 60.64498 43.63378
# Shear Modulus (GPa) = 26.60642 47.84054 37.22348
#
# Velocity S-wave (km/s) = 3.10513 4.16375 3.67279
# Velocity P-wave (km/s) = 4.74379 6.71512 5.81362
#
# Compressibility (1/GPa) = 0.03756210
#
# Stress axis : x y z
#
# Youngs Moduli (GPa) = 28.31504 129.84900 60.69220
#
# Poissons Ratio (x) = -0.10142 0.58333
# Poissons Ratio (y) = -0.02212 0.12965
# Poissons Ratio (z) = 0.27214 0.27738
#
# Static dielectric constant tensor:
#      x y z
#    x 2.171010 -0.035430 0.087970 
#    y -0.035430 2.285500 -0.038030 
#    z 0.087970 -0.038030 2.236140 
# 
# From -- ./inp_files/193097.got.cif
#   From: 2010.05.17/outbox.cif.g08.bks.cpg/sg2_97_cif.got.tgz:193097.got - 2010.06.03 11:33:40.
