data_PCOD9074647
_publ_section_title
;
Structure prediction by ZEFSAII (Michael W. Deem and Ramdas Pophale) SiO2 
 PCOD9074647
Probable space group: P -1
;
_chemical_formula_sum "Si O2"
_cell_formula_units_Z 16
_cell_length_a 9.355208
_cell_length_b 11.966024
_cell_length_c 13.373043
_cell_angle_alpha 125.944846
_cell_angle_beta 148.133016
_cell_angle_gamma 71.382896
_cell_volume 580.848167
_symmetry_space_group_name_H-M "P -1"
_symmetry_group_IT_number 2
_symmetry_cell_setting 'triclinic'
loop_
_space_group_symop_operation_xyz
x,y,z
-x,-y,-z
loop_
_atom_site_type_symbol
_atom_site_label
_atom_site_fract_x
_atom_site_fract_y
_atom_site_fract_z
Si Si1 0.637458 0.676475 0.642940
Si Si2 0.902665 0.178183 0.467527
Si Si3 0.479097 0.907471 0.567131
Si Si4 0.456240 0.428520 0.682078
Si Si5 0.366854 0.155886 0.580761
Si Si6 0.422901 0.163388 0.906003
Si Si7 0.223418 0.507561 0.776508
Si Si8 0.175467 0.243549 0.987487
O O1 0.500000 0.500000 0.500000
O O2 0.468710 0.785423 0.577238
O O3 0.716193 0.655738 0.563807
O O4 0.817885 0.761379 0.892002
O O5 0.077066 0.155729 0.460849
O O6 0.126150 0.172397 0.685414
O O7 0.942489 0.355776 0.573718
O O8 0.620172 0.012007 0.220603
O O9 0.687289 0.912479 0.599544
O O10 0.150799 0.845653 0.294359
O O11 0.524096 0.078244 0.704070
O O12 0.577696 0.328459 0.768134
O O13 0.251571 0.465365 0.656527
O O14 0.722134 0.581072 0.887335
O O15 0.394572 0.194383 0.024357
O O16 0.683630 0.310583 0.085289
O O17 0.500000 0.500000 0.000000
#
# Coordination Sequence:
#
# PCOD9074647 Si02
#       8
#     2   2   2   2   2   2   2   2
#     4   9  19  32  48  73 102 132 164 209 255 298
#     4   9  15  27  46  71 103 126 166 220 247 295
#     4  10  19  32  51  72 100 134 164 207 256 302
#     4   8  16  29  46  70 100 128 163 207 250 296
#     4   9  17  30  46  69 100 132 159 202 262 291
#     4   9  16  26  47  76  93 131 176 202 253 310
#     4   8  14  24  42  68  98 126 163 210 251 293
#     4  10  18  32  52  75  99 129 176 205 245 316
#
# _framework density 27.545926000000001
#
# number of rings (size 3 to 8) (size 9 to 14) (size 15 to 20)
#    0.000    3.000    1.250    0.000    0.000    4.500 
#    0.000    5.625    0.000    0.750    0.000    1.750 
#    0.000   36.500    0.000    0.000    0.000    0.000 
#
# Total GULP energy -89130.280706 kJ/mol
# GULP energy per Si atom -5570.642544 kJ/mol
# Density = 2.748323 g / cm^3
# Si number density = 27.545926 Si / 1000 Ang^3
#
#
#
# Elastic Constant Matrix: (Units=GPa)
#
#
# Indices 1 2 3 4 5 6 
#
# 1 73.8762 55.4440 44.0996 4.8295 -19.7250 25.6261
# 2 55.4440 222.8746 73.6157 40.5787 13.8286 26.4595
# 3 44.0996 73.6157 108.6168 23.2948 -18.2909 17.1337
# 4 4.8295 40.5787 23.2948 48.4812 2.0739 -6.9862
# 5 -19.7250 13.8286 -18.2909 2.0739 35.3328 1.4046
# 6 25.6261 26.4595 17.1337 -6.9862 1.4046 44.0074
#
#
#
# Elastic Compliance Matrix: (Units=1/GPa)
#
#
# Indices 1 2 3 4 5 6 
#
# 1 0.028494 -0.005896 -0.002978 0.001028 0.017101 -0.012271
# 2 -0.005896 0.008636 -0.003755 -0.004590 -0.008316 -0.000760
# 3 -0.002978 -0.003755 0.016015 -0.005100 0.008530 -0.003326
# 4 0.001028 -0.004590 -0.005100 0.028166 -0.002268 0.008691
# 5 0.017101 -0.008316 0.008530 -0.002268 0.046054 -0.010109
# 6 -0.012271 -0.000760 -0.003326 0.008691 -0.010109 0.033323
#
#
# Mechanical properties :
#
#
# Convention : Reuss Voigt Hill
#
# Bulk Modulus (GPa) = 35.85860 83.52068 59.68964
# Shear Modulus (GPa) = 25.60917 41.04482 33.32699
#
# Velocity S-wave (km/s) = 3.05239 3.86430 3.48209
# Velocity P-wave (km/s) = 5.04666 7.09202 6.15490
#
# Compressibility (1/GPa) = 0.02788732
#
# Stress axis : x y z
#
# Youngs Moduli (GPa) = 35.09517 115.79524 62.44006
#
# Poissons Ratio (x) = 0.68276 0.18592
# Poissons Ratio (y) = 0.20693 0.23447
# Poissons Ratio (z) = 0.10450 0.43482
#
# Static dielectric constant tensor:
#      x y z
#    x 2.242530 -0.059010 -0.031130 
#    y -0.059010 2.303890 0.104640 
#    z -0.031130 0.104640 2.205470 
# 
# From -- ./inp_files/290117.got.cif
#   From: 2010.05.17/outbox.cif.g08.bks.cpg/sg2_146_cif.got.tgz:290117.got - 2010.06.03 11:33:40.
