data_PCOD9074879
_publ_section_title
;
Structure prediction by ZEFSAII (Michael W. Deem and Ramdas Pophale) SiO2 
 PCOD9074879
Probable space group: P -1
;
_chemical_formula_sum "Si O2"
_cell_formula_units_Z 16
_cell_length_a 21.000000
_cell_length_b 18.000000
_cell_length_c 9.000000
_cell_angle_alpha 40.000000
_cell_angle_beta 40.000000
_cell_angle_gamma 20.000000
_cell_volume 731.217405
_symmetry_space_group_name_H-M "P -1"
_symmetry_group_IT_number 2
_symmetry_cell_setting 'triclinic'
loop_
_space_group_symop_operation_xyz
x,y,z
-x,-y,-z
loop_
_atom_site_type_symbol
_atom_site_label
_atom_site_fract_x
_atom_site_fract_y
_atom_site_fract_z
Si Si1 0.046670 0.177005 0.552065
Si Si2 0.639732 0.606359 0.711064
Si Si3 0.202329 0.281460 0.162913
Si Si4 0.626046 0.109652 0.985843
Si Si5 0.573302 0.322579 0.243825
Si Si6 0.420892 0.088235 0.754608
Si Si7 0.953402 0.300512 0.176406
Si Si8 0.414829 0.473324 0.605780
O O1 0.098534 0.259602 0.373986
O O2 0.847195 0.344805 0.731014
O O3 0.993529 0.227881 0.391148
O O4 0.214693 0.924499 0.698967
O O5 0.510361 0.703861 0.651965
O O6 0.654612 0.728382 0.482780
O O7 0.524026 0.691035 0.934822
O O8 0.364459 0.114119 0.256802
O O9 0.297071 0.197894 0.958073
O O10 0.097319 0.510811 0.023074
O O11 0.562154 0.225764 0.765472
O O12 0.842343 0.921876 0.924860
O O13 0.601879 0.998553 0.177002
O O14 0.449099 0.470678 0.381414
O O15 0.500000 0.500000 0.000000
O O16 0.793710 0.381671 0.252566
O O17 0.500000 0.500000 0.500000
#
# Coordination Sequence:
#
# PCOD9074879 Si02
#       8
#     2   2   2   2   2   2   2   2
#     4  12  23  44  76 108 141 191 244 288 356 439
#     4  12  26  45  69 107 149 187 238 299 361 422
#     4  11  20  38  74 109 140 193 238 288 357 438
#     4  12  26  45  69 107 149 187 238 299 361 422
#     4  12  26  49  74 104 141 185 243 303 358 424
#     4  11  20  39  70 102 151 190 226 299 363 420
#     4  12  23  44  76 108 141 191 244 288 356 439
#     4  12  26  49  74 104 141 185 243 303 358 424
#
# _framework density 21.881316999999999
#
# number of rings (size 3 to 8) (size 9 to 14) (size 15 to 20)
#    0.000    0.250    7.500    2.250    0.000    2.000 
#    0.000    1.250    0.000    0.000    0.000    0.000 
#    0.000    0.000    0.000    0.000    0.000    0.000 
#
# Total GULP energy -89263.608781 kJ/mol
# GULP energy per Si atom -5578.975549 kJ/mol
# Density = 2.183151 g / cm^3
# Si number density = 21.881317 Si / 1000 Ang^3
#
#
#
# Elastic Constant Matrix: (Units=GPa)
#
#
# Indices 1 2 3 4 5 6 
#
# 1 76.9528 -2.4875 7.4370 10.3315 -25.1485 -21.5197
# 2 -2.4875 109.2448 28.4682 3.4009 -13.0505 -34.5773
# 3 7.4370 28.4682 58.8696 -16.4698 -3.5803 1.8600
# 4 10.3315 3.4009 -16.4698 40.3797 3.4594 4.3215
# 5 -25.1485 -13.0505 -3.5803 3.4594 25.9276 -0.5269
# 6 -21.5197 -34.5773 1.8600 4.3215 -0.5269 35.3518
#
#
#
# Elastic Compliance Matrix: (Units=1/GPa)
#
#
# Indices 1 2 3 4 5 6 
#
# 1 -0.046405 -0.048878 0.041268 0.048112 -0.072065 -0.085182
# 2 -0.048878 -0.029647 0.029788 0.039790 -0.064872 -0.066150
# 3 0.041268 0.029788 -0.008753 -0.027986 0.058746 0.059013
# 4 0.048112 0.039790 -0.027986 -0.015769 0.066409 0.072595
# 5 -0.072065 -0.064872 0.058746 0.066409 -0.067161 -0.119529
# 6 -0.085182 -0.066150 0.059013 0.072595 -0.119529 -0.102027
#
#
# Mechanical properties :
#
#
# Convention : Reuss Voigt Hill
#
# Bulk Modulus (GPa) = -24.72179 34.65584 4.96703
# Shear Modulus (GPa) = -15.26255 34.44178 9.58962
#
# Velocity S-wave (km/s) = -2.64392 3.97170 2.09573
# Velocity P-wave (km/s) = 4.54346 6.07495 2.85149
#
# Compressibility (1/GPa) = -0.04045015
#
# Stress axis : x y z
#
# Youngs Moduli (GPa) = -21.54960 -33.72993 -114.24719
#
# Poissons Ratio (x) = -1.64866 4.71470
# Poissons Ratio (y) = -1.05331 3.40321
# Poissons Ratio (z) = 0.88930 1.00475
#
# Static dielectric constant tensor:
#      x y z
#    x 1.812750 0.027190 -0.063150 
#    y 0.027190 1.813520 0.029850 
#    z -0.063150 0.029850 1.878180 
# 
# From -- ./inp_files/348823.got.cif
#   From: 2010.05.17/outbox.ucp.g08.bks.cvg/sg2_175_cif.got.tgz:348823.got - 2010.06.11 11:32:03.
