data_PCOD9074191
_publ_section_title
;
Structure prediction by ZEFSAII (Michael W. Deem and Ramdas Pophale) SiO2 
 PCOD9074191
Probable space group: P -1
;
_chemical_formula_sum "Si O2"
_cell_formula_units_Z 16
_cell_length_a 15.000000
_cell_length_b 15.000000
_cell_length_c 9.000000
_cell_angle_alpha 90.000000
_cell_angle_beta 110.000000
_cell_angle_gamma 150.000000
_cell_volume 738.562284
_symmetry_space_group_name_H-M "P -1"
_symmetry_group_IT_number 2
_symmetry_cell_setting 'triclinic'
loop_
_space_group_symop_operation_xyz
x,y,z
-x,-y,-z
loop_
_atom_site_type_symbol
_atom_site_label
_atom_site_fract_x
_atom_site_fract_y
_atom_site_fract_z
Si Si1 0.427151 0.650594 0.076585
Si Si2 0.109008 0.202230 0.938749
Si Si3 0.711809 0.946506 0.521359
Si Si4 0.737864 0.869733 0.979766
Si Si5 0.032403 0.472098 0.820410
Si Si6 0.364694 0.897942 0.147260
Si Si7 0.885897 0.266178 0.446487
Si Si8 0.417543 0.728900 0.636119
O O1 0.540398 0.755504 0.302462
O O2 0.652978 0.839141 0.088253
O O3 0.285360 0.434581 0.991765
O O4 0.233466 0.565479 0.950992
O O5 0.233991 0.213367 0.998119
O O6 0.880164 0.019112 0.697533
O O7 0.988827 0.113270 0.034920
O O8 0.536384 0.841821 0.541920
O O9 0.869083 0.157862 0.526199
O O10 0.523069 0.726410 0.756784
O O11 0.792205 0.250652 0.787986
O O12 0.945893 0.391937 0.604050
O O13 0.162718 0.679039 0.924995
O O14 0.605543 0.047058 0.248720
O O15 0.461444 0.083733 0.201336
O O16 0.125062 0.470562 0.479606
#
# Coordination Sequence:
#
# PCOD9074191 Si02
#       8
#     2   2   2   2   2   2   2   2
#     4  12  22  42  68  95 129 170 213 267 327 383
#     4  10  22  44  69  95 130 169 209 269 327 385
#     4  11  24  41  66  98 129 168 221 263 328 382
#     4  10  22  43  68  95 131 169 214 265 325 387
#     4  11  22  40  66  92 128 171 214 271 314 382
#     4  11  24  40  64  96 129 174 221 263 325 379
#     4  12  22  42  64  91 132 170 217 271 318 380
#     4  11  23  42  66  94 133 176 216 269 321 385
#
# _framework density 21.663710999999999
#
# number of rings (size 3 to 8) (size 9 to 14) (size 15 to 20)
#    0.000    1.000    5.000    1.875    0.000    2.000 
#    0.000    5.625    0.000    0.000    0.000    0.000 
#    0.000    0.000    0.000    0.000    0.000    0.000 
#
# Total GULP energy -89289.891569 kJ/mol
# GULP energy per Si atom -5580.618223 kJ/mol
# Density = 2.161440 g / cm^3
# Si number density = 21.663711 Si / 1000 Ang^3
#
#
#
# Elastic Constant Matrix: (Units=GPa)
#
#
# Indices 1 2 3 4 5 6 
#
# 1 75.3965 27.0131 -6.4280 5.0114 38.6643 0.3541
# 2 27.0131 85.7683 15.2773 14.4364 29.6002 0.8403
# 3 -6.4280 15.2773 49.8937 14.3095 12.0548 -10.1451
# 4 5.0114 14.4364 14.3095 22.3539 2.7432 14.5245
# 5 38.6643 29.6002 12.0548 2.7432 30.1481 -1.4284
# 6 0.3541 0.8403 -10.1451 14.5245 -1.4284 23.8377
#
#
#
# Elastic Compliance Matrix: (Units=1/GPa)
#
#
# Indices 1 2 3 4 5 6 
#
# 1 -0.034456 -0.024935 -0.075461 0.130516 0.081978 -0.105337
# 2 -0.024935 0.007289 -0.033961 0.044169 0.032519 -0.039304
# 3 -0.075461 -0.033961 -0.073026 0.134566 0.142233 -0.102230
# 4 0.130516 0.044169 0.134566 -0.156763 -0.243912 0.134676
# 5 0.081978 0.032519 0.142233 -0.243912 -0.129141 0.199048
# 6 -0.105337 -0.039304 -0.102230 0.134676 0.199048 -0.068739
#
#
# Mechanical properties :
#
#
# Convention : Reuss Voigt Hill
#
# Bulk Modulus (GPa) = -2.71071 31.42037 14.35483
# Shear Modulus (GPa) = -16.17644 26.94768 5.38562
#
# Velocity S-wave (km/s) = -2.73556 3.53074 1.57842
# Velocity P-wave (km/s) = 3.35137 5.58181 3.15634
#
# Compressibility (1/GPa) = -0.36890682
#
# Stress axis : x y z
#
# Youngs Moduli (GPa) = -29.02217 137.18573 -13.69380
#
# Poissons Ratio (x) = 3.42068 -1.03335
# Poissons Ratio (y) = -0.72366 -0.46505
# Poissons Ratio (z) = -2.19005 4.65896
#
# Static dielectric constant tensor:
#      x y z
#    x 1.788200 0.006570 -0.017910 
#    y 0.006570 1.852570 -0.033040 
#    z -0.017910 -0.033040 1.834560 
# 
# From -- ./inp_files/315333.got.cif
#   From: 2010.05.17/outbox.ucp.g08.bks.cvg/sg2_158_cif.got.tgz:315333.got - 2010.06.11 11:32:03.
