data_PCOD9074594
_publ_section_title
;
Structure prediction by ZEFSAII (Michael W. Deem and Ramdas Pophale) SiO2 
 PCOD9074594
Probable space group: P -1
;
_chemical_formula_sum "Si O2"
_cell_formula_units_Z 13
_cell_length_a 15.000000
_cell_length_b 9.000000
_cell_length_c 9.000000
_cell_angle_alpha 30.000000
_cell_angle_beta 110.000000
_cell_angle_gamma 120.000000
_cell_volume 514.363264
_symmetry_space_group_name_H-M "P -1"
_symmetry_group_IT_number 2
_symmetry_cell_setting 'triclinic'
loop_
_space_group_symop_operation_xyz
x,y,z
-x,-y,-z
loop_
_atom_site_type_symbol
_atom_site_label
_atom_site_fract_x
_atom_site_fract_y
_atom_site_fract_z
Si Si1 0.927943 0.553285 0.632551
Si Si2 0.861312 0.495766 0.302864
Si Si3 0.769943 0.822837 0.745460
Si Si4 0.500000 0.000000 0.000000
Si Si5 0.831863 0.961323 0.316565
Si Si6 0.583389 0.363262 0.196651
Si Si7 0.622305 0.576125 0.357102
O O1 0.880389 0.539609 0.451486
O O2 0.931887 0.886467 0.412396
O O3 0.036338 0.530492 0.684483
O O4 0.859458 0.285086 0.950632
O O5 0.761298 0.144347 0.524571
O O6 0.846337 0.763595 0.959542
O O7 0.806604 0.924976 0.509037
O O8 0.662779 0.488800 0.992088
O O9 0.530264 0.249439 0.655972
O O10 0.418276 0.144563 0.890171
O O11 0.726706 0.684232 0.422225
O O12 0.645299 0.527870 0.241115
O O13 0.500000 0.000000 0.500000
O O14 0.500000 0.500000 0.000000
#
# Coordination Sequence:
#
# PCOD9074594 Si02
#       7
#     2   2   2   1   2   2   2
#     4  11  24  44  73 105 136 192 227 283 342 427
#     4  11  24  46  73 101 144 181 238 276 349 422
#     4  12  27  45  69 105 140 184 229 298 346 414
#     4  10  24  40  70  94 126 178 234 280 344 396
#     4  12  26  43  72 104 145 179 233 285 355 409
#     4  12  27  45  71  99 137 184 236 290 350 416
#     4  11  24  44  69  96 137 183 224 293 338 429
#
# _framework density 25.273966999999999
#
# number of rings (size 3 to 8) (size 9 to 14) (size 15 to 20)
#    0.000    0.615    0.000    7.385    6.462    6.154 
#    0.000    0.000    0.000    0.000    0.000    0.000 
#    0.000    0.000    0.000    0.000    0.000    0.000 
#
# Total GULP energy -72419.367459 kJ/mol
# GULP energy per Si atom -5570.720574 kJ/mol
# Density = 2.521644 g / cm^3
# Si number density = 25.273967 Si / 1000 Ang^3
#
#
#
# Elastic Constant Matrix: (Units=GPa)
#
#
# Indices 1 2 3 4 5 6 
#
# 1 102.2790 24.4491 39.0268 12.6468 -0.0732 -24.9634
# 2 24.4491 110.8297 42.2811 34.6947 -9.7832 -5.1040
# 3 39.0268 42.2811 180.6198 33.2241 -7.0583 -12.6610
# 4 12.6468 34.6947 33.2241 40.2351 -4.2366 -8.2557
# 5 -0.0732 -9.7832 -7.0583 -4.2366 55.3326 1.6816
# 6 -24.9634 -5.1040 -12.6610 -8.2557 1.6816 25.1609
#
#
#
# Elastic Compliance Matrix: (Units=1/GPa)
#
#
# Indices 1 2 3 4 5 6 
#
# 1 0.014079 -0.002429 -0.001929 0.001870 -0.000914 0.013180
# 2 -0.002429 0.013111 -0.000819 -0.010464 0.001522 -0.003698
# 3 -0.001929 -0.000819 0.006969 -0.004408 0.000405 -0.000047
# 4 0.001870 -0.010464 -0.004408 0.039075 0.000268 0.010318
# 5 -0.000914 0.001522 0.000405 0.000268 0.018459 -0.001540
# 6 0.013180 -0.003698 -0.000047 0.010318 -0.001540 0.055535
#
#
# Mechanical properties :
#
#
# Convention : Reuss Voigt Hill
#
# Bulk Modulus (GPa) = 42.01112 67.24917 54.63015
# Shear Modulus (GPa) = 30.20838 43.34383 36.77611
#
# Velocity S-wave (km/s) = 3.46097 4.14570 3.81871
# Velocity P-wave (km/s) = 5.71222 7.04142 6.41136
#
# Compressibility (1/GPa) = 0.02380322
#
# Stress axis : x y z
#
# Youngs Moduli (GPa) = 71.02865 76.27177 143.50131
#
# Poissons Ratio (x) = 0.18527 0.27686
# Poissons Ratio (y) = 0.17253 0.11756
# Poissons Ratio (z) = 0.13704 0.06248
#
# Static dielectric constant tensor:
#      x y z
#    x 2.036780 0.016400 0.033970 
#    y 0.016400 2.033450 -0.054960 
#    z 0.033970 -0.054960 1.993110 
# 
# From -- ./inp_files/297222.got.cif
#   From: 2010.05.17/outbox.ucp.g08.bks.cvg/sg2_149_cif.got.tgz:297222.got - 2010.06.11 11:32:03.
