data_PCOD9074469
_publ_section_title
;
Structure prediction by ZEFSAII (Michael W. Deem and Ramdas Pophale) SiO2 
 PCOD9074469
Probable space group: P -1
;
_chemical_formula_sum "Si O2"
_cell_formula_units_Z 10
_cell_length_a 15.000000
_cell_length_b 15.000000
_cell_length_c 9.000000
_cell_angle_alpha 130.000000
_cell_angle_beta 140.000000
_cell_angle_gamma 20.000000
_cell_volume 416.945272
_symmetry_space_group_name_H-M "P -1"
_symmetry_group_IT_number 2
_symmetry_cell_setting 'triclinic'
loop_
_space_group_symop_operation_xyz
x,y,z
-x,-y,-z
loop_
_atom_site_type_symbol
_atom_site_label
_atom_site_fract_x
_atom_site_fract_y
_atom_site_fract_z
Si Si1 0.383357 0.144265 0.253637
Si Si2 0.852891 0.936590 0.806162
Si Si3 0.211943 0.786921 0.857548
Si Si4 0.390147 0.242435 0.040497
Si Si5 0.492535 0.591719 0.724559
O O1 0.456792 0.151732 0.197502
O O2 0.642829 0.988472 0.540999
O O3 0.010833 0.457187 0.162932
O O4 0.434186 0.973104 0.086984
O O5 0.904374 0.977096 0.765678
O O6 0.185579 0.658708 0.024726
O O7 0.684070 0.158132 0.934991
O O8 0.198866 0.775565 0.655636
O O9 0.500000 0.500000 0.000000
O O10 0.508914 0.280204 0.204639
O O11 0.500000 0.500000 0.500000
#
# Coordination Sequence:
#
# PCOD9074469 Si02
#       5
#     2   2   2   2   2
#     4  10  24  46  70  95 138 183 228 272 342 413
#     4  10  23  43  69  97 130 186 222 278 342 405
#     4   9  22  41  64 100 131 176 225 272 345 402
#     4  10  25  44  68 102 134 180 226 283 337 401
#     4  11  26  42  66 103 137 173 226 289 338 396
#
# _framework density 23.983962999999999
#
# number of rings (size 3 to 8) (size 9 to 14) (size 15 to 20)
#    0.000    2.000    0.000    0.000   16.800    5.600 
#    0.000    0.000    0.000    0.000    0.000    0.000 
#    0.000    0.000    0.000    0.000    0.000    0.000 
#
# Total GULP energy -55809.264302 kJ/mol
# GULP energy per Si atom -5580.926430 kJ/mol
# Density = 2.392937 g / cm^3
# Si number density = 23.983963 Si / 1000 Ang^3
#
#
#
# Elastic Constant Matrix: (Units=GPa)
#
#
# Indices 1 2 3 4 5 6 
#
# 1 99.3381 17.0345 26.8736 22.5256 -9.2139 16.3145
# 2 17.0345 60.4371 32.3011 21.9464 -10.0071 22.5703
# 3 26.8736 32.3011 149.6279 -0.9253 -16.6884 17.1004
# 4 22.5256 21.9464 -0.9253 26.7790 -3.2852 2.4911
# 5 -9.2139 -10.0071 -16.6884 -3.2852 10.8616 20.4009
# 6 16.3145 22.5703 17.1004 2.4911 20.4009 31.3035
#
#
#
# Elastic Compliance Matrix: (Units=1/GPa)
#
#
# Indices 1 2 3 4 5 6 
#
# 1 0.011670 -0.001676 -0.003875 -0.010658 -0.012327 0.006125
# 2 -0.001676 0.018074 -0.008819 -0.018848 -0.031013 0.014371
# 3 -0.003875 -0.008819 0.008853 0.010359 -0.000985 0.003359
# 4 -0.010658 -0.018848 0.010359 0.066183 0.026375 -0.008970
# 5 -0.012327 -0.031013 -0.000985 0.026375 -0.037337 0.051558
# 6 0.006125 0.014371 0.003359 -0.008970 0.051558 -0.016331
#
#
# Mechanical properties :
#
#
# Convention : Reuss Voigt Hill
#
# Bulk Modulus (GPa) = 101.44549 51.31350 76.37949
# Shear Modulus (GPa) = 60.14083 29.33508 44.73795
#
# Velocity S-wave (km/s) = 5.01297 3.50110 4.32363
# Velocity P-wave (km/s) = 8.71180 6.14695 7.53925
#
# Compressibility (1/GPa) = 0.00985751
#
# Stress axis : x y z
#
# Youngs Moduli (GPa) = 85.69032 55.32777 112.95223
#
# Poissons Ratio (x) = 0.09275 0.43767
# Poissons Ratio (y) = 0.14365 0.99609
# Poissons Ratio (z) = 0.33203 0.48792
#
# Static dielectric constant tensor:
#      x y z
#    x 1.959670 -0.028190 0.002850 
#    y -0.028190 1.980100 -0.062860 
#    z 0.002850 -0.062860 2.011210 
# 
# From -- ./inp_files/15430.got.cif
#   From: 2010.05.17/outbox.ucp.g08.bks.cvg/sg2_8_cif.got.tgz:15430.got - 2010.06.11 11:32:03.
