data_PCOD9074283
_publ_section_title
;
Structure prediction by ZEFSAII (Michael W. Deem and Ramdas Pophale) SiO2 
 PCOD9074283
Probable space group: P -1
;
_chemical_formula_sum "Si O2"
_cell_formula_units_Z 13
_cell_length_a 15.000000
_cell_length_b 6.000000
_cell_length_c 6.000000
_cell_angle_alpha 80.000000
_cell_angle_beta 100.000000
_cell_angle_gamma 90.000000
_cell_volume 523.463817
_symmetry_space_group_name_H-M "P -1"
_symmetry_group_IT_number 2
_symmetry_cell_setting 'triclinic'
loop_
_space_group_symop_operation_xyz
x,y,z
-x,-y,-z
loop_
_atom_site_type_symbol
_atom_site_label
_atom_site_fract_x
_atom_site_fract_y
_atom_site_fract_z
Si Si1 0.447450 0.784978 0.102160
Si Si2 0.297428 0.063182 0.094070
Si Si3 0.843210 0.271047 0.066770
Si Si4 0.000000 0.000000 0.000000
Si Si5 0.218846 0.369937 0.381079
Si Si6 0.914479 0.623971 0.330364
Si Si7 0.624455 0.533484 0.238923
O O1 0.522381 0.607531 0.250628
O O2 0.376773 0.886626 0.229628
O O3 0.390761 0.678699 0.892797
O O4 0.500000 0.000000 0.000000
O O5 0.248816 0.173843 0.261030
O O6 0.339258 0.267943 0.940344
O O7 0.228063 0.924557 0.941005
O O8 0.843853 0.441279 0.241469
O O9 0.824659 0.421151 0.812221
O O10 0.942892 0.164706 0.114360
O O11 0.052162 0.218919 0.877192
O O12 0.143412 0.260216 0.520753
O O13 0.306400 0.461065 0.529538
O O14 0.000000 0.500000 0.500000
#
# Coordination Sequence:
#
# PCOD9074283 Si02
#       7
#     2   2   2   1   2   2   2
#     4   9  20  42  72 105 143 195 242 301 359 440
#     4  11  24  44  70 104 145 191 246 302 365 440
#     4  12  27  46  71 105 144 185 251 309 366 449
#     4  12  26  50  76 100 142 188 248 310 362 444
#     4  12  25  44  71 106 145 193 242 306 370 438
#     4  12  28  51  75 106 147 191 250 308 377 438
#     4  10  22  45  72 102 149 191 244 303 365 433
#
# _framework density 24.834572000000001
#
# number of rings (size 3 to 8) (size 9 to 14) (size 15 to 20)
#    0.000    0.923    1.538    5.077    2.154    6.154 
#    2.769   10.769    0.000    0.000    0.000    0.000 
#    0.000    0.000    0.000    0.000    0.000    0.000 
#
# Total GULP energy -72428.981832 kJ/mol
# GULP energy per Si atom -5571.460141 kJ/mol
# Density = 2.477805 g / cm^3
# Si number density = 24.834572 Si / 1000 Ang^3
#
#
#
# Elastic Constant Matrix: (Units=GPa)
#
#
# Indices 1 2 3 4 5 6 
#
# 1 82.2766 52.8187 37.3596 1.0454 -13.1919 17.4252
# 2 52.8187 122.8463 27.0226 14.9251 -15.8595 27.2151
# 3 37.3596 27.0226 45.6792 13.7584 8.6253 17.8761
# 4 1.0454 14.9251 13.7584 1.4773 7.6485 11.5280
# 5 -13.1919 -15.8595 8.6253 7.6485 36.0480 9.1215
# 6 17.4252 27.2151 17.8761 11.5280 9.1215 38.2034
#
#
#
# Elastic Compliance Matrix: (Units=1/GPa)
#
#
# Indices 1 2 3 4 5 6 
#
# 1 0.018362 -0.000433 -0.007958 -0.035861 0.015329 0.002818
# 2 -0.000433 0.011130 -0.008422 0.017083 0.005739 -0.010315
# 3 -0.007958 -0.008422 0.027112 0.051494 -0.020568 -0.013684
# 4 -0.035861 0.017083 0.051494 -0.136847 0.006061 0.019939
# 5 0.015329 0.005739 -0.020568 0.006061 0.042936 -0.013537
# 6 0.002818 -0.010315 -0.013684 0.019939 -0.013537 0.035857
#
#
# Mechanical properties :
#
#
# Convention : Reuss Voigt Hill
#
# Bulk Modulus (GPa) = 43.52026 53.91154 48.71590
# Shear Modulus (GPa) = 125.51753 24.05249 74.78501
#
# Velocity S-wave (km/s) = 7.11696 3.11546 5.49351
# Velocity P-wave (km/s) = 9.22480 5.89040 7.73931
#
# Compressibility (1/GPa) = 0.02297781
#
# Stress axis : x y z
#
# Youngs Moduli (GPa) = 54.45976 89.85020 36.88441
#
# Poissons Ratio (x) = 0.03889 0.29352
# Poissons Ratio (y) = 0.02357 0.31065
# Poissons Ratio (z) = 0.43338 0.75673
#
# Static dielectric constant tensor:
#      x y z
#    x 2.022310 -0.073180 0.043230 
#    y -0.073180 1.964490 -0.022940 
#    z 0.043230 -0.022940 1.932310 
# 
# From -- ./inp_files/4368.got.cif
#   From: 2010.05.17/outbox.ucp.g08.bks.cvg/sg2_3_cif.got.tgz:4368.got - 2010.06.11 11:32:03.
