data_PCOD9074419
_publ_section_title
;
Structure prediction by ZEFSAII (Michael W. Deem and Ramdas Pophale) SiO2 
 PCOD9074419
Probable space group: P -1
;
_chemical_formula_sum "Si O2"
_cell_formula_units_Z 12
_cell_length_a 9.000000
_cell_length_b 9.000000
_cell_length_c 15.000000
_cell_angle_alpha 120.000000
_cell_angle_beta 70.000000
_cell_angle_gamma 150.000000
_cell_volume 514.363264
_symmetry_space_group_name_H-M "P -1"
_symmetry_group_IT_number 2
_symmetry_cell_setting 'triclinic'
loop_
_space_group_symop_operation_xyz
x,y,z
-x,-y,-z
loop_
_atom_site_type_symbol
_atom_site_label
_atom_site_fract_x
_atom_site_fract_y
_atom_site_fract_z
Si Si1 0.999564 0.588356 0.751969
Si Si2 0.003837 0.666880 0.483850
Si Si3 0.399171 0.575304 0.363126
Si Si4 0.860831 0.280896 0.873257
Si Si5 0.710867 0.846890 0.029573
Si Si6 0.430197 0.623310 0.827248
O O1 0.768216 0.478064 0.700247
O O2 0.869820 0.401345 0.817672
O O3 0.077840 0.494155 0.644116
O O4 0.232576 0.951544 0.848915
O O5 0.802647 0.621549 0.564524
O O6 0.000000 0.500000 0.500000
O O7 0.331843 0.056573 0.543004
O O8 0.493063 0.479360 0.272293
O O9 0.073416 0.311379 0.823470
O O10 0.532186 0.894000 0.839481
O O11 0.000000 0.500000 0.000000
O O12 0.500000 0.500000 0.000000
O O13 0.591213 0.793591 0.941609
O O14 0.000000 0.000000 0.000000
#
# Coordination Sequence:
#
# PCOD9074419 Si02
#       6
#     2   2   2   2   2   2
#     4  11  25  45  73 101 138 180 230 281 337 406
#     4  10  23  42  69 104 131 174 230 289 333 387
#     4  11  24  45  72 100 133 176 235 282 333 397
#     4  12  27  46  65 102 144 181 220 273 347 413
#     4  12  26  40  70 106 134 175 231 283 339 396
#     4  12  26  46  67 100 143 178 221 284 340 404
#
# _framework density 23.329815
#
# number of rings (size 3 to 8) (size 9 to 14) (size 15 to 20)
#    0.000    0.667    3.333    4.500    4.667    5.333 
#    0.000    5.000    0.000    0.000    0.000    0.000 
#    0.000    0.000    0.000    0.000    0.000    0.000 
#
# Total GULP energy -67003.138441 kJ/mol
# GULP energy per Si atom -5583.594870 kJ/mol
# Density = 2.327672 g / cm^3
# Si number density = 23.329815 Si / 1000 Ang^3
#
#
#
# Elastic Constant Matrix: (Units=GPa)
#
#
# Indices 1 2 3 4 5 6 
#
# 1 78.2726 23.0743 43.5942 -7.1715 -15.9276 6.9552
# 2 23.0743 103.6212 47.3539 5.0369 7.0893 -3.7522
# 3 43.5942 47.3539 245.3108 1.1582 -15.2700 -8.7838
# 4 -7.1715 5.0369 1.1582 41.0319 -2.1365 -4.2204
# 5 -15.9276 7.0893 -15.2700 -2.1365 45.6313 -10.0537
# 6 6.9552 -3.7522 -8.7838 -4.2204 -10.0537 44.2356
#
#
#
# Elastic Compliance Matrix: (Units=1/GPa)
#
#
# Indices 1 2 3 4 5 6 
#
# 1 0.016445 -0.003334 -0.002023 0.003443 0.005363 -0.001723
# 2 -0.003334 0.011602 -0.001862 -0.002135 -0.003667 0.000102
# 3 -0.002023 -0.001862 0.004947 -0.000029 0.001567 0.001496
# 4 0.003443 -0.002135 -0.000029 0.025659 0.003267 0.002462
# 5 0.005363 -0.003667 0.001567 0.003267 0.026230 0.005430
# 6 -0.001723 0.000102 0.001496 0.002462 0.005430 0.024652
#
#
# Mechanical properties :
#
#
# Convention : Reuss Voigt Hill
#
# Bulk Modulus (GPa) = 53.89014 72.80547 63.34781
# Shear Modulus (GPa) = 38.41489 47.05859 42.73674
#
# Velocity S-wave (km/s) = 4.06223 4.49609 4.28466
# Velocity P-wave (km/s) = 6.71950 7.63072 7.18956
#
# Compressibility (1/GPa) = 0.01855627
#
# Stress axis : x y z
#
# Youngs Moduli (GPa) = 60.80778 86.19164 202.16149
#
# Poissons Ratio (x) = 0.28738 0.40897
# Poissons Ratio (y) = 0.20274 0.37635
# Poissons Ratio (z) = 0.12301 0.16046
#
# Static dielectric constant tensor:
#      x y z
#    x 1.939410 0.130080 0.014210 
#    y 0.130080 2.031230 -0.017410 
#    z 0.014210 -0.017410 1.813500 
# 
# From -- ./inp_files/58999.got.cif
#   From: 2010.05.17/outbox.ucp.g08.bks.cvg/sg2_30_cif.got.tgz:58999.got - 2010.06.11 11:32:03.
