data_PCOD9074379
_publ_section_title
;
Structure prediction by ZEFSAII (Michael W. Deem and Ramdas Pophale) SiO2 
 PCOD9074379
Probable space group: P -1
;
_chemical_formula_sum "Si O2"
_cell_formula_units_Z 16
_cell_length_a 12.000000
_cell_length_b 12.000000
_cell_length_c 15.000000
_cell_angle_alpha 80.000000
_cell_angle_beta 160.000000
_cell_angle_gamma 100.000000
_cell_volume 727.188304
_symmetry_space_group_name_H-M "P -1"
_symmetry_group_IT_number 2
_symmetry_cell_setting 'triclinic'
loop_
_space_group_symop_operation_xyz
x,y,z
-x,-y,-z
loop_
_atom_site_type_symbol
_atom_site_label
_atom_site_fract_x
_atom_site_fract_y
_atom_site_fract_z
Si Si1 0.278175 0.995401 0.130665
Si Si2 0.251799 0.449316 0.499566
Si Si3 0.423774 0.357296 0.455022
Si Si4 0.192916 0.399320 0.068070
Si Si5 0.079859 0.126821 0.291768
Si Si6 0.446379 0.766489 0.768198
Si Si7 0.734985 0.267293 0.162167
Si Si8 0.108267 0.400090 0.663070
O O1 0.617499 0.940440 0.427359
O O2 0.402514 0.119848 0.175878
O O3 0.110987 0.935500 0.925549
O O4 0.000000 0.000000 0.000000
O O5 0.268751 0.434861 0.406847
O O6 0.615514 0.477390 0.807358
O O7 0.083381 0.334450 0.426773
O O8 0.020800 0.549158 0.347094
O O9 0.316874 0.371374 0.268006
O O10 0.273822 0.234792 0.381985
O O11 0.808673 0.370330 0.770058
O O12 0.349832 0.330421 0.114297
O O13 0.822093 0.173716 0.165812
O O14 0.417946 0.775931 0.852890
O O15 0.084355 0.719710 0.477694
O O16 0.481713 0.367021 0.935164
O O17 0.000000 0.500000 0.500000
#
# Coordination Sequence:
#
# PCOD9074379 Si02
#       8
#     2   2   2   2   2   2   2   2
#     4  12  27  51  77 111 142 190 244 304 369 430
#     4  10  23  41  67 100 140 187 234 297 355 426
#     4  11  23  45  66 103 140 187 240 297 358 428
#     4  11  25  41  69 102 143 188 238 294 361 425
#     4  11  27  47  78 104 148 188 243 308 363 427
#     4  11  27  44  74 102 146 192 242 301 363 438
#     4  11  26  46  70 106 147 193 245 294 367 434
#     4  11  24  43  71 106 147 194 242 293 362 438
#
# _framework density 22.002554
#
# number of rings (size 3 to 8) (size 9 to 14) (size 15 to 20)
#    0.000    1.000    1.250    3.750    7.000    4.000 
#    0.000    0.000    0.000    0.000    0.000    0.000 
#    0.000    0.000    0.000    0.000    0.000    0.000 
#
# Total GULP energy -89254.427903 kJ/mol
# GULP energy per Si atom -5578.401744 kJ/mol
# Density = 2.195248 g / cm^3
# Si number density = 22.002554 Si / 1000 Ang^3
#
#
#
# Elastic Constant Matrix: (Units=GPa)
#
#
# Indices 1 2 3 4 5 6 
#
# 1 193.6123 40.3640 61.7479 0.4651 6.2937 -16.1811
# 2 40.3640 87.7991 46.8934 33.5874 -8.3440 -3.1568
# 3 61.7479 46.8934 143.5854 15.8862 -0.6370 -4.7909
# 4 0.4651 33.5874 15.8862 44.4498 -4.4605 5.4484
# 5 6.2937 -8.3440 -0.6370 -4.4605 39.9022 3.2315
# 6 -16.1811 -3.1568 -4.7909 5.4484 3.2315 51.9471
#
#
#
# Elastic Compliance Matrix: (Units=1/GPa)
#
#
# Indices 1 2 3 4 5 6 
#
# 1 0.006639 -0.003020 -0.002116 0.002629 -0.001541 0.001510
# 2 -0.003020 0.020459 -0.003789 -0.013919 0.003039 0.001224
# 3 -0.002116 -0.003789 0.009158 -0.000427 -0.000362 0.000023
# 4 0.002629 -0.013919 -0.000427 0.033659 0.000725 -0.003642
# 5 -0.001541 0.003039 -0.000362 0.000725 0.026180 -0.002033
# 6 0.001510 0.001224 0.000023 -0.003642 -0.002033 0.020305
#
#
# Mechanical properties :
#
#
# Convention : Reuss Voigt Hill
#
# Bulk Modulus (GPa) = 54.32780 80.33416 67.33098
# Shear Modulus (GPa) = 35.61598 45.65926 40.63762
#
# Velocity S-wave (km/s) = 4.02770 4.56036 4.30228
# Velocity P-wave (km/s) = 6.80992 8.01996 7.43958
#
# Compressibility (1/GPa) = 0.01840678
#
# Stress axis : x y z
#
# Youngs Moduli (GPa) = 150.61502 48.87845 109.18991
#
# Poissons Ratio (x) = 0.14761 0.23108
# Poissons Ratio (y) = 0.45486 0.41368
# Poissons Ratio (z) = 0.31875 0.18518
#
# Static dielectric constant tensor:
#      x y z
#    x 1.859970 0.025450 -0.017500 
#    y 0.025450 1.855160 -0.025670 
#    z -0.017500 -0.025670 1.867580 
# 
# From -- ./inp_files/519691.got.cif
#   From: 2010.05.17/outbox.ucp.g08.bks.cvg/sg2_260_cif.got.tgz:519691.got - 2010.06.11 11:32:03.
