data_PCOD9074791
_publ_section_title
;
Structure prediction by ZEFSAII (Michael W. Deem and Ramdas Pophale) SiO2 
 PCOD9074791
Probable space group: P -1
;
_chemical_formula_sum "Si O2"
_cell_formula_units_Z 16
_cell_length_a 12.000000
_cell_length_b 21.000000
_cell_length_c 9.000000
_cell_angle_alpha 130.000000
_cell_angle_beta 30.000000
_cell_angle_gamma 140.000000
_cell_volume 727.418465
_symmetry_space_group_name_H-M "P -1"
_symmetry_group_IT_number 2
_symmetry_cell_setting 'triclinic'
loop_
_space_group_symop_operation_xyz
x,y,z
-x,-y,-z
loop_
_atom_site_type_symbol
_atom_site_label
_atom_site_fract_x
_atom_site_fract_y
_atom_site_fract_z
Si Si1 0.663458 0.602102 0.552553
Si Si2 0.219109 0.741357 0.239506
Si Si3 0.202860 0.920616 0.662626
Si Si4 0.905482 0.970687 0.307646
Si Si5 0.165435 0.620934 0.680986
Si Si6 0.732422 0.395959 0.805064
Si Si7 0.293640 0.129307 0.339151
Si Si8 0.257878 0.299996 0.685712
O O1 0.500000 0.500000 0.500000
O O2 0.659102 0.672999 0.541324
O O3 0.965293 0.647834 0.313773
O O4 0.521953 0.598125 0.862520
O O5 0.164319 0.818177 0.499776
O O6 0.309847 0.695859 0.191031
O O7 0.429692 0.798586 0.952635
O O8 0.500000 0.000000 0.500000
O O9 0.152836 0.968219 0.648609
O O10 0.000792 0.912139 0.010408
O O11 0.664888 0.904619 0.599465
O O12 0.131214 0.044752 0.276111
O O13 0.228961 0.622881 0.436409
O O14 0.455663 0.658170 0.487790
O O15 0.970771 0.502012 0.754973
O O16 0.962453 0.665822 0.989043
O O17 0.137667 0.182474 0.645124
#
# Coordination Sequence:
#
# PCOD9074791 Si02
#       8
#     2   2   2   2   2   2   2   2
#     4  12  25  45  74 102 149 195 246 304 374 436
#     4  12  26  44  75 110 142 196 253 307 366 456
#     4  11  24  46  73 103 141 187 244 300 375 440
#     4  10  25  48  70 101 148 187 237 309 378 446
#     4  11  28  47  72 106 154 196 249 307 375 439
#     4  11  27  45  71 104 148 197 244 305 371 443
#     4  11  24  46  71 108 142 189 245 305 376 441
#     4  12  25  46  72 110 144 193 250 305 367 449
#
# _framework density 21.995591999999998
#
# number of rings (size 3 to 8) (size 9 to 14) (size 15 to 20)
#    0.000    0.750    3.750    2.250    3.500    3.500 
#    2.250    0.000    0.000    0.000    0.000    0.000 
#    0.000    0.000    0.000    0.000    0.000    0.000 
#
# Total GULP energy -89114.282041 kJ/mol
# GULP energy per Si atom -5569.642628 kJ/mol
# Density = 2.194553 g / cm^3
# Si number density = 21.995592 Si / 1000 Ang^3
#
#
#
# Elastic Constant Matrix: (Units=GPa)
#
#
# Indices 1 2 3 4 5 6 
#
# 1 77.2942 1.0049 33.7959 -3.0461 15.1453 -3.6079
# 2 1.0049 38.7095 27.9695 10.3378 15.9759 -13.4985
# 3 33.7959 27.9695 130.5469 9.4330 18.3846 -10.6285
# 4 -3.0461 10.3378 9.4330 44.7209 -0.6879 -0.1036
# 5 15.1453 15.9759 18.3846 -0.6879 36.8125 -7.4915
# 6 -3.6079 -13.4985 -10.6285 -0.1036 -7.4915 31.0498
#
#
#
# Elastic Compliance Matrix: (Units=1/GPa)
#
#
# Indices 1 2 3 4 5 6 
#
# 1 0.016202 0.005851 -0.004440 0.000587 -0.006714 0.001288
# 2 0.005851 0.044240 -0.007084 -0.008539 -0.015433 0.013736
# 3 -0.004440 -0.007084 0.010430 -0.000870 -0.000347 -0.000112
# 4 0.000587 -0.008539 -0.000870 0.024609 0.003758 -0.002953
# 5 -0.006714 -0.015433 -0.000347 0.003758 0.037146 0.001367
# 6 0.001288 0.013736 -0.000112 -0.002953 0.001367 0.038609
#
#
# Mechanical properties :
#
#
# Convention : Reuss Voigt Hill
#
# Bulk Modulus (GPa) = 16.79967 41.34347 29.07157
# Shear Modulus (GPa) = 24.70061 34.76868 29.73464
#
# Velocity S-wave (km/s) = 3.35472 3.98013 3.68073
# Velocity P-wave (km/s) = 4.76024 6.32131 5.59548
#
# Compressibility (1/GPa) = 0.05952499
#
# Stress axis : x y z
#
# Youngs Moduli (GPa) = 61.72200 22.60399 95.87839
#
# Poissons Ratio (x) = -0.13225 0.42568
# Poissons Ratio (y) = -0.36113 0.67924
# Poissons Ratio (z) = 0.27403 0.16014
#
# Static dielectric constant tensor:
#      x y z
#    x 1.756900 0.020690 -0.037990 
#    y 0.020690 1.821530 -0.009590 
#    z -0.037990 -0.009590 1.853500 
# 
# From -- ./inp_files/134913.got.cif
#   From: 2010.05.17/outbox.ucp.g08.bks.cvg/sg2_68_cif.got.tgz:134913.got - 2010.06.11 11:32:03.
