data_PCOD9074971
_publ_section_title
;
Structure prediction by ZEFSAII (Michael W. Deem and Ramdas Pophale) SiO2 
 PCOD9074971
Probable space group: P -1
;
_chemical_formula_sum "Si O2"
_cell_formula_units_Z 16
_cell_length_a 12.000000
_cell_length_b 9.000000
_cell_length_c 21.000000
_cell_angle_alpha 150.000000
_cell_angle_beta 40.000000
_cell_angle_gamma 130.000000
_cell_volume 727.418465
_symmetry_space_group_name_H-M "P -1"
_symmetry_group_IT_number 2
_symmetry_cell_setting 'triclinic'
loop_
_space_group_symop_operation_xyz
x,y,z
-x,-y,-z
loop_
_atom_site_type_symbol
_atom_site_label
_atom_site_fract_x
_atom_site_fract_y
_atom_site_fract_z
Si Si1 0.053029 0.332778 0.761190
Si Si2 0.562353 0.661832 0.357880
Si Si3 0.936281 0.757604 0.070459
Si Si4 0.558603 0.593584 0.192840
Si Si5 0.064065 0.354148 0.294035
Si Si6 0.785732 0.037528 0.564823
Si Si7 0.729628 0.017846 0.836286
Si Si8 0.711600 0.679401 0.591468
O O1 0.239230 0.338057 0.712590
O O2 0.920948 0.128319 0.778255
O O3 0.100935 0.177407 0.614066
O O4 0.971758 0.653739 0.942784
O O5 0.544574 0.500354 0.238014
O O6 0.451907 0.520557 0.408969
O O7 0.500000 0.000000 0.500000
O O8 0.729979 0.779035 0.178857
O O9 0.020564 0.067367 0.164725
O O10 0.000000 0.500000 0.000000
O O11 0.394123 0.815735 0.330807
O O12 0.605768 0.292408 0.019330
O O13 0.117388 0.659151 0.350666
O O14 0.885869 0.467596 0.450018
O O15 0.221689 0.238117 0.228189
O O16 0.740199 0.852786 0.578332
O O17 0.676028 0.905079 0.749155
#
# Coordination Sequence:
#
# PCOD9074971 Si02
#       8
#     2   2   2   2   2   2   2   2
#     4  11  22  42  70 101 137 175 230 284 345 405
#     4  12  22  40  71 101 129 173 233 289 340 390
#     4  11  21  43  73 107 137 169 233 296 345 394
#     4  11  23  44  71 106 140 172 231 293 349 401
#     4  12  23  44  74 102 135 180 240 287 342 402
#     4  12  28  45  68 101 147 189 226 273 352 428
#     4  11  23  43  74 102 131 180 236 292 338 397
#     4  12  28  44  68 102 145 185 228 283 345 422
#
# _framework density 21.995591999999998
#
# number of rings (size 3 to 8) (size 9 to 14) (size 15 to 20)
#    0.000    0.500    6.250    3.000    0.000    4.000 
#    0.000    0.625    0.000    0.000    0.000    0.000 
#    0.000    0.000    0.000    0.000    0.000    0.000 
#
# Total GULP energy -89308.336163 kJ/mol
# GULP energy per Si atom -5581.771010 kJ/mol
# Density = 2.194553 g / cm^3
# Si number density = 21.995592 Si / 1000 Ang^3
#
#
#
# Elastic Constant Matrix: (Units=GPa)
#
#
# Indices 1 2 3 4 5 6 
#
# 1 68.7813 38.4992 32.0632 -0.7370 4.4627 -0.5688
# 2 38.4992 123.7513 56.9348 -13.7828 23.1857 0.7425
# 3 32.0632 56.9348 132.1837 -7.0547 34.5395 -12.6017
# 4 -0.7370 -13.7828 -7.0547 30.2489 17.4686 0.4175
# 5 4.4627 23.1857 34.5395 17.4686 38.2646 -12.3828
# 6 -0.5688 0.7425 -12.6017 0.4175 -12.3828 36.7065
#
#
#
# Elastic Compliance Matrix: (Units=1/GPa)
#
#
# Indices 1 2 3 4 5 6 
#
# 1 0.020660 -0.008037 -0.005789 -0.013149 0.014874 0.003663
# 2 -0.008037 0.016476 0.000735 0.019845 -0.021225 -0.007592
# 3 -0.005789 0.000735 0.014802 0.015885 -0.021138 -0.002335
# 4 -0.013149 0.019845 0.015885 0.086710 -0.070906 -0.020058
# 5 0.014874 -0.021225 -0.021138 -0.070906 0.097478 0.027093
# 6 0.003663 -0.007592 -0.002335 -0.020058 0.027093 0.036020
#
#
# Mechanical properties :
#
#
# Convention : Reuss Voigt Hill
#
# Bulk Modulus (GPa) = 38.82800 64.41228 51.62014
# Shear Modulus (GPa) = 16.29122 34.19193 25.24157
#
# Velocity S-wave (km/s) = 2.72446 3.94698 3.39126
# Velocity P-wave (km/s) = 5.25241 7.07950 6.23326
#
# Compressibility (1/GPa) = 0.02575461
#
# Stress axis : x y z
#
# Youngs Moduli (GPa) = 48.40157 60.69576 67.56063
#
# Poissons Ratio (x) = 0.48784 0.39109
# Poissons Ratio (y) = 0.38902 -0.04963
# Poissons Ratio (z) = 0.28018 -0.04459
#
# Static dielectric constant tensor:
#      x y z
#    x 1.866440 0.050410 0.046720 
#    y 0.050410 1.827350 0.026720 
#    z 0.046720 0.026720 1.802070 
# 
# From -- ./inp_files/594300.got.cif
#   From: 2010.05.17/outbox.ucp.g08.bks.cvg/sg2_298_cif.got.tgz:594300.got - 2010.06.11 11:32:03.
