data_PCOD9074580
_publ_section_title
;
Structure prediction by ZEFSAII (Michael W. Deem and Ramdas Pophale) SiO2 
 PCOD9074580
Probable space group: P -1
;
_chemical_formula_sum "Si O2"
_cell_formula_units_Z 14
_cell_length_a 12.000000
_cell_length_b 12.000000
_cell_length_c 6.000000
_cell_angle_alpha 80.000000
_cell_angle_beta 90.000000
_cell_angle_gamma 50.000000
_cell_volume 644.633405
_symmetry_space_group_name_H-M "P -1"
_symmetry_group_IT_number 2
_symmetry_cell_setting 'triclinic'
loop_
_space_group_symop_operation_xyz
x,y,z
-x,-y,-z
loop_
_atom_site_type_symbol
_atom_site_label
_atom_site_fract_x
_atom_site_fract_y
_atom_site_fract_z
Si Si1 0.189252 0.453160 0.573447
Si Si2 0.582585 0.123205 0.039755
Si Si3 0.712930 0.798326 0.031359
Si Si4 0.018118 0.891778 0.846907
Si Si5 0.765188 0.099784 0.424231
Si Si6 0.950677 0.389225 0.979932
Si Si7 0.501313 0.632778 0.396182
O O1 0.252636 0.284883 0.696833
O O2 0.117954 0.536710 0.793129
O O3 0.332350 0.436259 0.554016
O O4 0.105297 0.524154 0.301859
O O5 0.710470 0.052366 0.247905
O O6 0.643700 0.970717 0.964495
O O7 0.415301 0.195657 0.078988
O O8 0.558964 0.259959 0.864820
O O9 0.876464 0.694072 0.965865
O O10 0.146608 0.854614 0.701427
O O11 0.056575 0.742877 0.993946
O O12 0.872363 0.982379 0.659111
O O13 0.000000 0.000000 0.000000
O O14 0.611129 0.241749 0.471121
O O15 0.500000 0.500000 0.500000
#
# Coordination Sequence:
#
# PCOD9074580 Si02
#       7
#     2   2   2   2   2   2   2
#     4  11  28  46  74 108 146 200 243 301 364 430
#     4  10  24  47  72 106 138 192 244 302 366 432
#     4  10  23  49  73 102 149 188 249 302 360 433
#     4  11  26  44  73 107 145 187 243 302 367 439
#     4  11  24  44  74 103 139 192 240 299 368 434
#     4  12  26  48  73 109 148 194 248 300 366 432
#     4  11  25  44  68 105 147 187 238 301 365 436
#
# _framework density 21.717770000000002
#
# number of rings (size 3 to 8) (size 9 to 14) (size 15 to 20)
#    0.000    1.143    0.000    4.286   14.000    0.571 
#    5.143    2.857    0.000    0.000    0.000    0.000 
#    0.000    0.000    0.000    0.000    0.000    0.000 
#
# Total GULP energy -77986.974520 kJ/mol
# GULP energy per Si atom -5570.498180 kJ/mol
# Density = 2.166834 g / cm^3
# Si number density = 21.717770 Si / 1000 Ang^3
#
#
#
# Elastic Constant Matrix: (Units=GPa)
#
#
# Indices 1 2 3 4 5 6 
#
# 1 141.2602 35.9059 36.5704 -1.4346 -4.0661 -19.8616
# 2 35.9059 76.4059 31.7430 -12.1039 -6.0824 0.6850
# 3 36.5704 31.7430 119.5824 -19.4625 9.2788 5.0534
# 4 -1.4346 -12.1039 -19.4625 42.8102 -4.2407 -11.0955
# 5 -4.0661 -6.0824 9.2788 -4.2407 46.5456 -2.0914
# 6 -19.8616 0.6850 5.0534 -11.0955 -2.0914 55.1328
#
#
#
# Elastic Compliance Matrix: (Units=1/GPa)
#
#
# Indices 1 2 3 4 5 6 
#
# 1 0.008997 -0.003396 -0.002171 -0.000685 0.000864 0.003377
# 2 -0.003396 0.016714 -0.003044 0.003411 0.002789 -0.000360
# 3 -0.002171 -0.003044 0.010619 0.003357 -0.002449 -0.001135
# 4 -0.000685 0.003411 0.003357 0.027364 0.002435 0.005003
# 5 0.000864 0.002789 -0.002449 0.002435 0.022718 0.001853
# 6 0.003377 -0.000360 -0.001135 0.005003 0.001853 0.020540
#
#
# Mechanical properties :
#
#
# Convention : Reuss Voigt Hill
#
# Bulk Modulus (GPa) = 52.33597 60.63188 56.48392
# Shear Modulus (GPa) = 38.30092 44.43301 41.36696
#
# Velocity S-wave (km/s) = 4.20405 4.52810 4.36908
# Velocity P-wave (km/s) = 6.90767 7.43754 7.17750
#
# Compressibility (1/GPa) = 0.01910732
#
# Stress axis : x y z
#
# Youngs Moduli (GPa) = 111.14472 59.82923 94.17078
#
# Poissons Ratio (x) = 0.20318 0.20447
# Poissons Ratio (y) = 0.37745 0.28668
# Poissons Ratio (z) = 0.24133 0.18214
#
# Static dielectric constant tensor:
#      x y z
#    x 1.861140 0.087590 0.054490 
#    y 0.087590 1.963310 0.137330 
#    z 0.054490 0.137330 1.963900 
# 
# From -- ./inp_files/69817.got.cif
#   From: 2010.05.17/outbox.ucp.g08.bks.cvg/sg2_35_cif.got.tgz:69817.got - 2010.06.11 11:32:03.
