data_PCOD9074724
_publ_section_title
;
Structure prediction by ZEFSAII (Michael W. Deem and Ramdas Pophale) SiO2 
 PCOD9074724
Probable space group: P -1
;
_chemical_formula_sum "Si O2"
_cell_formula_units_Z 16
_cell_length_a 9.000000
_cell_length_b 12.000000
_cell_length_c 15.000000
_cell_angle_alpha 150.000000
_cell_angle_beta 80.000000
_cell_angle_gamma 110.000000
_cell_volume 734.803614
_symmetry_space_group_name_H-M "P -1"
_symmetry_group_IT_number 2
_symmetry_cell_setting 'triclinic'
loop_
_space_group_symop_operation_xyz
x,y,z
-x,-y,-z
loop_
_atom_site_type_symbol
_atom_site_label
_atom_site_fract_x
_atom_site_fract_y
_atom_site_fract_z
Si Si1 0.663542 0.958844 0.974668
Si Si2 0.381192 0.051988 0.361368
Si Si3 0.796510 0.079745 0.229274
Si Si4 0.187226 0.192781 0.624095
Si Si5 0.729515 0.492128 0.608729
Si Si6 0.023772 0.238456 0.070639
Si Si7 0.891669 0.367998 0.004910
Si Si8 0.406054 0.217839 0.789846
O O1 0.681694 0.727091 0.764682
O O2 0.500000 0.000000 0.000000
O O3 0.664144 0.955800 0.080012
O O4 0.839797 0.170694 0.079571
O O5 0.276043 0.163530 0.506192
O O6 0.549894 0.274248 0.475259
O O7 0.257842 0.880024 0.180626
O O8 0.450045 0.884128 0.296040
O O9 0.818965 0.357007 0.441614
O O10 0.722599 0.925902 0.219160
O O11 0.943190 0.007557 0.123974
O O12 0.296975 0.165223 0.675737
O O13 0.182731 0.453296 0.820460
O O14 0.000000 0.000000 0.500000
O O15 0.840758 0.580528 0.749885
O O16 0.017490 0.341316 0.045164
O O17 0.000000 0.500000 0.000000
O O18 0.500000 0.500000 0.000000
#
# Coordination Sequence:
#
# PCOD9074724 Si02
#       8
#     2   2   2   2   2   2   2   2
#     4  11  27  48  73 106 141 178 234 301 359 413
#     4  11  26  42  68 102 142 183 241 279 355 410
#     4  10  24  46  71 100 140 182 240 280 354 412
#     4  12  26  41  67  99 147 186 235 282 345 415
#     4  10  25  47  74 104 134 186 239 288 351 427
#     4  11  27  45  76  99 141 186 234 291 354 415
#     4  12  26  44  67 107 147 179 230 292 347 412
#     4  11  24  42  69 100 141 190 225 289 346 415
#
# _framework density 21.774525000000001
#
# number of rings (size 3 to 8) (size 9 to 14) (size 15 to 20)
#    0.000    1.000    2.500    2.625   12.250    2.500 
#    0.000    0.000    0.000    0.000    0.000    0.000 
#    0.000    0.000    0.000    0.000    0.000    0.000 
#
# Total GULP energy -89261.992340 kJ/mol
# GULP energy per Si atom -5578.874521 kJ/mol
# Density = 2.172497 g / cm^3
# Si number density = 21.774525 Si / 1000 Ang^3
#
#
#
# Elastic Constant Matrix: (Units=GPa)
#
#
# Indices 1 2 3 4 5 6 
#
# 1 125.1968 -0.0174 27.9688 -5.9493 -5.2931 13.5035
# 2 -0.0174 24.8296 -2.6899 0.9476 1.5108 7.4985
# 3 27.9688 -2.6899 148.9206 -11.7844 -11.7823 15.3137
# 4 -5.9493 0.9476 -11.7844 28.4163 7.6216 1.8357
# 5 -5.2931 1.5108 -11.7823 7.6216 56.9330 3.0634
# 6 13.5035 7.4985 15.3137 1.8357 3.0634 44.5200
#
#
#
# Elastic Compliance Matrix: (Units=1/GPa)
#
#
# Indices 1 2 3 4 5 6 
#
# 1 0.008597 0.000507 -0.001222 0.001298 0.000486 -0.002360
# 2 0.000507 0.042824 0.001446 -0.000121 -0.000352 -0.007835
# 3 -0.001222 0.001446 0.007551 0.002679 0.001195 -0.002663
# 4 0.001298 -0.000121 0.002679 0.037885 -0.004255 -0.002564
# 5 0.000486 -0.000352 0.001195 -0.004255 0.018522 -0.001598
# 6 -0.002360 -0.007835 -0.002663 -0.002564 -0.001598 0.025629
#
#
# Mechanical properties :
#
#
# Convention : Reuss Voigt Hill
#
# Bulk Modulus (GPa) = 16.54640 38.83000 27.68820
# Shear Modulus (GPa) = 31.31085 44.21957 37.76521
#
# Velocity S-wave (km/s) = 3.79616 4.51132 4.16910
# Velocity P-wave (km/s) = 5.17976 6.70876 5.99322
#
# Compressibility (1/GPa) = 0.06043610
#
# Stress axis : x y z
#
# Youngs Moduli (GPa) = 116.31717 23.35151 132.43352
#
# Poissons Ratio (x) = -0.01184 0.16178
# Poissons Ratio (y) = -0.05900 -0.19156
# Poissons Ratio (z) = 0.14209 -0.03378
#
# Static dielectric constant tensor:
#      x y z
#    x 1.890550 -0.019650 -0.012260 
#    y -0.019650 1.903240 0.020020 
#    z -0.012260 0.020020 1.778840 
# 
# From -- ./inp_files/501163.got.cif
#   From: 2010.05.17/outbox.ucp.g08.bks.cvg/sg2_251_cif.got.tgz:501163.got - 2010.06.11 11:32:03.
