data_PCOD9074913
_publ_section_title
;
Structure prediction by ZEFSAII (Michael W. Deem and Ramdas Pophale) SiO2 
 PCOD9074913
Probable space group: P -1
;
_chemical_formula_sum "Si O2"
_cell_formula_units_Z 16
_cell_length_a 21.620257
_cell_length_b 7.846392
_cell_length_c 10.298633
_cell_angle_alpha 53.694702
_cell_angle_beta 126.411823
_cell_angle_gamma 147.918509
_cell_volume 730.335478
_symmetry_space_group_name_H-M "P -1"
_symmetry_group_IT_number 2
_symmetry_cell_setting 'triclinic'
loop_
_space_group_symop_operation_xyz
x,y,z
-x,-y,-z
loop_
_atom_site_type_symbol
_atom_site_label
_atom_site_fract_x
_atom_site_fract_y
_atom_site_fract_z
Si Si1 0.984548 0.252068 0.678381
Si Si2 0.303068 0.428974 0.701319
Si Si3 0.896375 0.229012 0.838801
Si Si4 0.242453 0.666655 0.933936
Si Si5 0.380803 0.608735 0.012095
Si Si6 0.167510 0.802231 0.965984
Si Si7 0.103282 0.265551 0.405518
Si Si8 0.462765 0.423481 0.834825
O O1 0.894811 0.122274 0.743292
O O2 0.000000 0.500000 0.500000
O O3 0.113992 0.446672 0.807731
O O4 0.932536 0.950769 0.665211
O O5 0.346623 0.576559 0.833061
O O6 0.231271 0.458485 0.528108
O O7 0.409787 0.547344 0.698690
O O8 0.204142 0.038527 0.789233
O O9 0.894032 0.477788 0.715977
O O10 0.030272 0.451122 0.948029
O O11 0.815207 0.032239 0.954640
O O12 0.286455 0.522738 0.029313
O O13 0.236578 0.734061 0.046024
O O14 0.347078 0.033829 0.840990
O O15 0.429193 0.468077 0.150725
O O16 0.500000 0.000000 0.000000
O O17 0.000000 0.000000 0.500000
O O18 0.500000 0.500000 0.000000
#
# Coordination Sequence:
#
# PCOD9074913 Si02
#       8
#     2   2   2   2   2   2   2   2
#     4  11  20  32  50  75 112 142 171 210 254 312
#     4  10  18  32  53  77 106 137 170 213 268 312
#     4  10  21  35  49  73 112 146 178 208 246 309
#     4   9  17  29  47  73 102 132 167 215 260 305
#     4   9  17  29  49  81 104 121 172 228 269 304
#     4   9  18  35  49  70 108 146 170 210 256 302
#     4  12  20  33  53  78 107 144 175 208 258 310
#     4   8  15  28  46  70 100 123 162 218 269 297
#
# _framework density 21.907737999999998
#
# number of rings (size 3 to 8) (size 9 to 14) (size 15 to 20)
#    0.000    2.250    2.500    2.250    0.000    0.000 
#    2.250    1.875    0.000    0.000    0.000   33.250 
#    0.000    0.000    0.000    0.000    0.000    0.000 
#
# Total GULP energy -89087.279693 kJ/mol
# GULP energy per Si atom -5567.954981 kJ/mol
# Density = 2.185787 g / cm^3
# Si number density = 21.907738 Si / 1000 Ang^3
#
#
#
# Elastic Constant Matrix: (Units=GPa)
#
#
# Indices 1 2 3 4 5 6 
#
# 1 236.3998 22.7223 49.8335 11.4595 -0.8530 -1.6338
# 2 22.7223 34.8816 15.3954 20.5049 -0.4583 -1.5554
# 3 49.8335 15.3954 50.2913 14.4665 5.5086 3.5612
# 4 11.4595 20.5049 14.4665 31.4935 0.1563 -1.3185
# 5 -0.8530 -0.4583 5.5086 0.1563 40.6224 14.9328
# 6 -1.6338 -1.5554 3.5612 -1.3185 14.9328 36.4714
#
#
#
# Elastic Compliance Matrix: (Units=1/GPa)
#
#
# Indices 1 2 3 4 5 6 
#
# 1 0.005508 -0.002365 -0.005427 0.002046 0.000637 0.000489
# 2 -0.002365 0.049443 -0.004561 -0.029196 0.000856 0.001042
# 3 -0.005427 -0.004561 0.029710 -0.008783 -0.003315 -0.002299
# 4 0.002046 -0.029196 -0.008783 0.054119 0.000101 0.001619
# 5 0.000637 0.000856 -0.003315 0.000101 0.029365 -0.011631
# 6 0.000489 0.001042 -0.002299 0.001619 -0.011631 0.032530
#
#
# Mechanical properties :
#
#
# Convention : Reuss Voigt Hill
#
# Bulk Modulus (GPa) = 16.67927 55.27501 35.97714
# Shear Modulus (GPa) = 20.37781 37.29223 28.83502
#
# Velocity S-wave (km/s) = 3.05317 4.13030 3.63189
# Velocity P-wave (km/s) = 4.47874 6.93047 5.83483
#
# Compressibility (1/GPa) = 0.05995466
#
# Stress axis : x y z
#
# Youngs Moduli (GPa) = 181.55696 20.22547 33.65877
#
# Poissons Ratio (x) = 0.04784 0.18265
# Poissons Ratio (y) = 0.42943 0.15352
# Poissons Ratio (z) = 0.98524 0.09225
#
# Static dielectric constant tensor:
#      x y z
#    x 1.911560 0.037390 -0.037270 
#    y 0.037390 1.947100 -0.011140 
#    z -0.037270 -0.011140 1.818710 
# 
# From -- ./inp_files/342630.got.cif
#   From: 2010.05.17/outbox.cif.g08.bks.cpg/sg2_172_cif.got.tgz:342630.got - 2010.06.03 11:33:40.
