data_PCOD9074360
_publ_section_title
;
Structure prediction by ZEFSAII (Michael W. Deem and Ramdas Pophale) SiO2 
 PCOD9074360
Probable space group: P -1
;
_chemical_formula_sum "Si O2"
_cell_formula_units_Z 16
_cell_length_a 14.238241
_cell_length_b 7.403544
_cell_length_c 8.278448
_cell_angle_alpha 61.258389
_cell_angle_beta 51.101023
_cell_angle_gamma 66.819647
_cell_volume 590.079917
_symmetry_space_group_name_H-M "P -1"
_symmetry_group_IT_number 2
_symmetry_cell_setting 'triclinic'
loop_
_space_group_symop_operation_xyz
x,y,z
-x,-y,-z
loop_
_atom_site_type_symbol
_atom_site_label
_atom_site_fract_x
_atom_site_fract_y
_atom_site_fract_z
Si Si1 0.364367 0.073948 0.974086
Si Si2 0.329764 0.363584 0.184704
Si Si3 0.104458 0.710780 0.238704
Si Si4 0.034236 0.594632 0.678720
Si Si5 0.370913 0.796396 0.340355
Si Si6 0.193805 0.390889 0.867028
Si Si7 0.516611 0.628672 0.693842
Si Si8 0.731624 0.201267 0.235933
O O1 0.313055 0.194152 0.140524
O O2 0.347439 0.844722 0.153351
O O3 0.504705 0.106494 0.798809
O O4 0.294248 0.188881 0.851739
O O5 0.208281 0.522450 0.259474
O O6 0.387444 0.288492 0.326067
O O7 0.431590 0.488155 0.943762
O O8 0.049093 0.765307 0.451653
O O9 0.008184 0.604846 0.281699
O O10 0.169932 0.860355 0.984860
O O11 0.150167 0.504656 0.699649
O O12 0.927674 0.669492 0.889281
O O13 0.409835 0.547009 0.424409
O O14 0.268056 0.879827 0.545869
O O15 0.241524 0.562382 0.858669
O O16 0.409083 0.793118 0.667749
#
# Coordination Sequence:
#
# PCOD9074360 Si02
#       8
#     2   2   2   2   2   2   2   2
#     4  10  19  35  50  80 114 146 171 218 271 318
#     4   9  16  30  50  77 106 138 173 214 264 318
#     4   9  17  32  50  81 104 131 176 232 270 298
#     4   9  18  30  54  82 100 132 183 238 260 303
#     4  10  20  31  53  79 115 145 173 213 267 326
#     4  10  18  33  54  82 103 134 188 226 260 308
#     4   9  17  29  50  80 106 138 177 214 257 321
#     4  10  18  32  50  82 108 137 181 222 255 319
#
# _framework density 27.114971000000001
#
# number of rings (size 3 to 8) (size 9 to 14) (size 15 to 20)
#    0.000    2.500    5.000    0.375    1.750    0.000 
#    0.000    0.625    0.000   12.000    0.000    0.875 
#    0.000    0.000    0.000    0.000    0.000    0.000 
#
# Total GULP energy -89359.813728 kJ/mol
# GULP energy per Si atom -5584.988358 kJ/mol
# Density = 2.705326 g / cm^3
# Si number density = 27.114971 Si / 1000 Ang^3
#
#
#
# Elastic Constant Matrix: (Units=GPa)
#
#
# Indices 1 2 3 4 5 6 
#
# 1 137.6138 15.0902 2.2300 -8.9624 10.2773 -11.0362
# 2 15.0902 39.5024 2.3038 -3.2031 -0.7820 8.1788
# 3 2.2300 2.3038 163.8019 1.0174 15.8003 0.3329
# 4 -8.9624 -3.2031 1.0174 30.4435 -9.2249 4.9111
# 5 10.2773 -0.7820 15.8003 -9.2249 38.2196 -1.2593
# 6 -11.0362 8.1788 0.3329 4.9111 -1.2593 35.1518
#
#
#
# Elastic Compliance Matrix: (Units=1/GPa)
#
#
# Indices 1 2 3 4 5 6 
#
# 1 0.008142 -0.003757 0.000123 0.000869 -0.002001 0.003236
# 2 -0.003757 0.028902 -0.000611 0.004084 0.002564 -0.008377
# 3 0.000123 -0.000611 0.006405 -0.001171 -0.002970 0.000177
# 4 0.000869 0.004084 -0.001171 0.037235 0.009139 -0.005541
# 5 -0.002001 0.002564 -0.002970 0.009139 0.030143 -0.001393
# 6 0.003236 -0.008377 0.000177 -0.005541 -0.001393 0.032136
#
#
# Mechanical properties :
#
#
# Convention : Reuss Voigt Hill
#
# Bulk Modulus (GPa) = 28.60403 42.24068 35.42235
# Shear Modulus (GPa) = 30.65490 42.18260 36.41875
#
# Velocity S-wave (km/s) = 3.36602 3.94851 3.66884
# Velocity P-wave (km/s) = 5.06743 6.03322 5.57129
#
# Compressibility (1/GPa) = 0.03496011
#
# Stress axis : x y z
#
# Youngs Moduli (GPa) = 122.81650 34.59972 156.12117
#
# Poissons Ratio (x) = 0.12998 -0.01920
# Poissons Ratio (y) = 0.46138 0.09539
# Poissons Ratio (z) = -0.01511 0.02114
#
# Static dielectric constant tensor:
#      x y z
#    x 2.140670 -0.009390 0.026170 
#    y -0.009390 2.235180 -0.013860 
#    z 0.026170 -0.013860 2.233990 
# 
# From -- ./inp_files/302271.got.cif
#   From: 2010.05.17/outbox.cif.g08.bks.cpg/sg2_152_cif.got.tgz:302271.got - 2010.06.03 11:33:40.
