data_PCOD9074345
_publ_section_title
;
Structure prediction by ZEFSAII (Michael W. Deem and Ramdas Pophale) SiO2 
 PCOD9074345
Probable space group: P -1
;
_chemical_formula_sum "Si O2"
_cell_formula_units_Z 16
_cell_length_a 12.000000
_cell_length_b 12.000000
_cell_length_c 9.000000
_cell_angle_alpha 120.000000
_cell_angle_beta 90.000000
_cell_angle_gamma 50.000000
_cell_volume 752.153660
_symmetry_space_group_name_H-M "P -1"
_symmetry_group_IT_number 2
_symmetry_cell_setting 'triclinic'
loop_
_space_group_symop_operation_xyz
x,y,z
-x,-y,-z
loop_
_atom_site_type_symbol
_atom_site_label
_atom_site_fract_x
_atom_site_fract_y
_atom_site_fract_z
Si Si1 0.396724 0.011884 0.380887
Si Si2 0.651802 0.674999 0.912602
Si Si3 0.684903 0.378886 0.870632
Si Si4 0.715844 0.114360 0.492995
Si Si5 0.993426 0.895669 0.129965
Si Si6 0.548223 0.611715 0.571677
Si Si7 0.078640 0.753076 0.723027
Si Si8 0.014333 0.394782 0.571587
O O1 0.211028 0.237235 0.514752
O O2 0.500000 0.000000 0.500000
O O3 0.345882 0.919125 0.393257
O O4 0.518831 0.879153 0.145706
O O5 0.690325 0.521959 0.917801
O O6 0.562097 0.682244 0.773047
O O7 0.839957 0.562535 0.782216
O O8 0.729998 0.247071 0.644922
O O9 0.817723 0.245040 0.911998
O O10 0.500000 0.500000 0.000000
O O11 0.582616 0.217515 0.429305
O O12 0.889967 0.929061 0.290989
O O13 0.989562 0.818265 0.926150
O O14 0.920034 0.098297 0.223045
O O15 0.500000 0.500000 0.500000
O O16 0.733381 0.456353 0.402477
O O17 0.998253 0.739375 0.582995
O O18 0.000000 0.500000 0.500000
#
# Coordination Sequence:
#
# PCOD9074345 Si02
#       8
#     2   2   2   2   2   2   2   2
#     4  12  30  48  72 103 137 185 243 292 348 414
#     4  11  26  46  73 104 143 179 234 289 347 422
#     4  12  22  38  67 100 138 182 214 283 359 416
#     4  12  23  41  67 101 142 176 225 288 346 423
#     4  11  23  36  66 102 138 177 218 283 356 414
#     4  11  21  40  67 104 137 178 223 272 351 420
#     4  10  23  40  63 100 136 173 229 282 339 423
#     4  11  27  50  73  98 137 186 239 296 344 410
#
# _framework density 21.272248999999999
#
# number of rings (size 3 to 8) (size 9 to 14) (size 15 to 20)
#    0.000    0.750    3.750    3.375    5.250    2.000 
#    0.000    0.000    0.000    0.000    0.000    0.000 
#    0.000    0.000    0.000    0.000    0.000    0.000 
#
# Total GULP energy -89316.675646 kJ/mol
# GULP energy per Si atom -5582.292228 kJ/mol
# Density = 2.122383 g / cm^3
# Si number density = 21.272249 Si / 1000 Ang^3
#
#
#
# Elastic Constant Matrix: (Units=GPa)
#
#
# Indices 1 2 3 4 5 6 
#
# 1 72.8367 16.3328 22.8648 5.2547 -24.5833 -17.0194
# 2 16.3328 84.8142 9.6975 6.7910 -12.3879 -26.4424
# 3 22.8648 9.6975 134.4067 -10.6230 -23.0570 -10.3822
# 4 5.2547 6.7910 -10.6230 25.3851 -4.9563 -3.6450
# 5 -24.5833 -12.3879 -23.0570 -4.9563 48.4178 -5.8134
# 6 -17.0194 -26.4424 -10.3822 -3.6450 -5.8134 46.4258
#
#
#
# Elastic Compliance Matrix: (Units=1/GPa)
#
#
# Indices 1 2 3 4 5 6 
#
# 1 0.019526 0.000647 -0.001024 -0.001379 0.010471 0.008500
# 2 0.000647 0.015603 0.000320 -0.001707 0.005469 0.009747
# 3 -0.001024 0.000320 0.009038 0.005241 0.004742 0.002833
# 4 -0.001379 -0.001707 0.005241 0.044137 0.006352 0.003955
# 5 0.010471 0.005469 0.004742 0.006352 0.031778 0.012492
# 6 0.008500 0.009747 0.002833 0.003955 0.012492 0.032716
#
#
# Mechanical properties :
#
#
# Convention : Reuss Voigt Hill
#
# Bulk Modulus (GPa) = 22.70019 43.31643 33.00831
# Shear Modulus (GPa) = 29.83376 40.25659 35.04517
#
# Velocity S-wave (km/s) = 3.74902 4.35495 4.06329
# Velocity P-wave (km/s) = 5.42537 6.75977 6.12899
#
# Compressibility (1/GPa) = 0.04405249
#
# Stress axis : x y z
#
# Youngs Moduli (GPa) = 51.21485 64.08863 110.64480
#
# Poissons Ratio (x) = -0.04146 0.11335
# Poissons Ratio (y) = -0.03313 -0.03544
# Poissons Ratio (z) = 0.05247 -0.02053
#
# Static dielectric constant tensor:
#      x y z
#    x 1.797350 0.011490 -0.010170 
#    y 0.011490 1.793430 0.004820 
#    z -0.010170 0.004820 1.795280 
# 
# From -- ./inp_files/209231.got.cif
#   From: 2010.05.17/outbox.ucp.g08.bks.cvg/sg2_105_cif.got.tgz:209231.got - 2010.06.11 11:32:03.
