data_PCOD9074412
_publ_section_title
;
Structure prediction by ZEFSAII (Michael W. Deem and Ramdas Pophale) SiO2 
 PCOD9074412
Probable space group: P -1
;
_chemical_formula_sum "Si O2"
_cell_formula_units_Z 16
_cell_length_a 12.000000
_cell_length_b 21.000000
_cell_length_c 9.000000
_cell_angle_alpha 30.000000
_cell_angle_beta 50.000000
_cell_angle_gamma 40.000000
_cell_volume 727.418465
_symmetry_space_group_name_H-M "P -1"
_symmetry_group_IT_number 2
_symmetry_cell_setting 'triclinic'
loop_
_space_group_symop_operation_xyz
x,y,z
-x,-y,-z
loop_
_atom_site_type_symbol
_atom_site_label
_atom_site_fract_x
_atom_site_fract_y
_atom_site_fract_z
Si Si1 0.597816 0.836164 0.167357
Si Si2 0.468932 0.310268 0.729409
Si Si3 0.372177 0.828668 0.600633
Si Si4 0.422512 0.151099 0.355853
Si Si5 0.799574 0.349519 0.823306
Si Si6 0.073968 0.155858 0.197229
Si Si7 0.919657 0.838090 0.284180
Si Si8 0.858950 0.170221 0.634245
O O1 0.524313 0.822238 0.104457
O O2 0.532803 0.752534 0.500876
O O3 0.790699 0.792166 0.051498
O O4 0.500000 0.000000 0.000000
O O5 0.312153 0.474956 0.477241
O O6 0.651164 0.292562 0.571438
O O7 0.427090 0.277430 0.996437
O O8 0.442048 0.885637 0.555316
O O9 0.194048 0.980487 0.384109
O O10 0.321105 0.718077 0.935995
O O11 0.236480 0.186465 0.501668
O O12 0.500000 0.000000 0.500000
O O13 0.970128 0.250588 0.775078
O O14 0.892319 0.298048 0.005857
O O15 0.000573 0.131525 0.462312
O O16 0.063530 0.776642 0.412641
O O17 0.863420 0.014186 0.970444
#
# Coordination Sequence:
#
# PCOD9074412 Si02
#       8
#     2   2   2   2   2   2   2   2
#     4  10  23  42  68 101 132 175 224 277 335 395
#     4  12  27  44  68 101 139 180 218 281 345 400
#     4  11  23  41  69 100 133 182 225 275 336 397
#     4  12  23  43  72 101 134 173 232 282 333 395
#     4  12  27  44  65 100 144 178 222 277 341 401
#     4  11  23  42  69  99 134 180 226 279 325 404
#     4  11  24  42  69 103 131 177 225 280 330 398
#     4  11  23  41  70 100 133 173 232 273 330 399
#
# _framework density 21.995591999999998
#
# number of rings (size 3 to 8) (size 9 to 14) (size 15 to 20)
#    0.000    0.750    2.500    5.625    3.500    5.000 
#    0.000    2.500    0.000    0.000    0.000    0.000 
#    0.000    0.000    0.000    0.000    0.000    0.000 
#
# Total GULP energy -89131.006841 kJ/mol
# GULP energy per Si atom -5570.687928 kJ/mol
# Density = 2.194553 g / cm^3
# Si number density = 21.995592 Si / 1000 Ang^3
#
#
#
# Elastic Constant Matrix: (Units=GPa)
#
#
# Indices 1 2 3 4 5 6 
#
# 1 97.8921 9.7244 18.8425 3.6079 -10.3933 -24.5146
# 2 9.7244 28.0611 15.9429 22.0118 -14.9494 -17.0214
# 3 18.8425 15.9429 84.0125 13.0990 -8.2289 -9.9440
# 4 3.6079 22.0118 13.0990 42.0492 -20.2563 0.0958
# 5 -10.3933 -14.9494 -8.2289 -20.2563 22.3263 15.1629
# 6 -24.5146 -17.0214 -9.9440 0.0958 15.1629 22.8064
#
#
#
# Elastic Compliance Matrix: (Units=1/GPa)
#
#
# Indices 1 2 3 4 5 6 
#
# 1 0.009240 -0.016800 -0.001950 0.019844 0.023232 -0.018986
# 2 -0.016800 -0.022419 -0.006127 0.078156 0.130336 -0.124445
# 3 -0.001950 -0.006127 0.013720 -0.002251 -0.002799 0.001184
# 4 0.019844 0.078156 -0.002251 -0.059956 -0.086174 0.136225
# 5 0.023232 0.130336 -0.002799 -0.086174 -0.034243 0.144155
# 6 -0.018986 -0.124445 0.001184 0.136225 0.144155 -0.165338
#
#
# Mechanical properties :
#
#
# Convention : Reuss Voigt Hill
#
# Bulk Modulus (GPa) = -20.31967 33.22058 6.45045
# Shear Modulus (GPa) = -22.15881 28.46680 3.15399
#
# Velocity S-wave (km/s) = -3.17743 3.60141 1.19876
# Velocity P-wave (km/s) = 4.76650 5.69470 2.20341
#
# Compressibility (1/GPa) = -0.04921339
#
# Stress axis : x y z
#
# Youngs Moduli (GPa) = 108.22292 -44.60595 72.88692
#
# Poissons Ratio (x) = -0.74939 0.14213
# Poissons Ratio (y) = 1.81818 0.44659
# Poissons Ratio (z) = 0.21103 -0.27331
#
# Static dielectric constant tensor:
#      x y z
#    x 1.876590 0.038100 0.053150 
#    y 0.038100 1.829800 0.082940 
#    z 0.053150 0.082940 1.900400 
# 
# From -- ./inp_files/216343.got.cif
#   From: 2010.05.17/outbox.ucp.g08.bks.cvg/sg2_109_cif.got.tgz:216343.got - 2010.06.11 11:32:03.
