data_PCOD9074248
_publ_section_title
;
Structure prediction by ZEFSAII (Michael W. Deem and Ramdas Pophale) SiO2 
 PCOD9074248
Probable space group: P -1
;
_chemical_formula_sum "Si O2"
_cell_formula_units_Z 16
_cell_length_a 7.470562
_cell_length_b 19.480698
_cell_length_c 11.506337
_cell_angle_alpha 32.589740
_cell_angle_beta 116.464413
_cell_angle_gamma 122.444426
_cell_volume 761.082798
_symmetry_space_group_name_H-M "P -1"
_symmetry_group_IT_number 2
_symmetry_cell_setting 'triclinic'
loop_
_space_group_symop_operation_xyz
x,y,z
-x,-y,-z
loop_
_atom_site_type_symbol
_atom_site_label
_atom_site_fract_x
_atom_site_fract_y
_atom_site_fract_z
Si Si1 0.261589 0.677467 0.889281
Si Si2 0.084926 0.087197 0.187080
Si Si3 0.990341 0.194272 0.783226
Si Si4 0.363226 0.089352 0.946421
Si Si5 0.347645 0.194730 0.308907
Si Si6 0.288606 0.198611 0.547752
Si Si7 0.542116 0.077581 0.247100
Si Si8 0.946710 0.620192 0.667223
O O1 0.497221 0.693769 0.889543
O O2 0.291191 0.806393 0.795401
O O3 0.135449 0.673960 0.738558
O O4 0.147259 0.540475 0.120217
O O5 0.123846 0.139130 0.256264
O O6 0.308068 0.072827 0.228696
O O7 0.024882 0.190320 0.936726
O O8 0.911089 0.940050 0.330397
O O9 0.192950 0.158116 0.843762
O O10 0.988307 0.322064 0.525296
O O11 0.781960 0.067520 0.875015
O O12 0.429499 0.150745 0.750257
O O13 0.544462 0.109278 0.065565
O O14 0.359766 0.243527 0.374211
O O15 0.428652 0.065574 0.522144
O O16 0.222394 0.315048 0.423690
#
# Coordination Sequence:
#
# PCOD9074248 Si02
#       8
#     2   2   2   2   2   2   2   2
#     4  10  21  33  51  72  92 127 165 197 235 279
#     4   9  17  31  50  73  97 125 161 194 235 282
#     4   8  14  28  50  70  92 122 160 200 229 271
#     4   8  15  28  48  73  96 122 156 193 238 282
#     4  11  20  30  49  76 102 124 153 200 243 276
#     4  10  19  31  50  75 101 128 153 188 242 292
#     4  10  18  32  50  71  99 122 159 207 236 267
#     4  10  19  35  52  68  94 128 164 195 233 287
#
# _framework density 21.022680000000001
#
# number of rings (size 3 to 8) (size 9 to 14) (size 15 to 20)
#    0.000    2.500    0.000    6.375    0.000    1.000 
#    0.000   10.000    0.000    0.000    0.000    7.000 
#    0.000    0.000    0.000    0.000    0.000    0.000 
#
# Total GULP energy -89282.769796 kJ/mol
# GULP energy per Si atom -5580.173112 kJ/mol
# Density = 2.097483 g / cm^3
# Si number density = 21.022680 Si / 1000 Ang^3
#
#
#
# Elastic Constant Matrix: (Units=GPa)
#
#
# Indices 1 2 3 4 5 6 
#
# 1 19.4993 -0.8985 -6.1417 2.5976 -1.8649 -5.6414
# 2 -0.8985 64.4664 8.7785 19.0656 0.1609 1.1743
# 3 -6.1417 8.7785 49.3791 22.1728 3.1953 5.9675
# 4 2.5976 19.0656 22.1728 34.4634 -4.9211 -7.8547
# 5 -1.8649 0.1609 3.1953 -4.9211 11.2432 7.0086
# 6 -5.6414 1.1743 5.9675 -7.8547 7.0086 17.5831
#
#
#
# Elastic Compliance Matrix: (Units=1/GPa)
#
#
# Indices 1 2 3 4 5 6 
#
# 1 0.059233 0.002200 0.010327 -0.010160 -0.005761 0.013110
# 2 0.002200 0.020172 0.006050 -0.017842 -0.003731 -0.009177
# 3 0.010327 0.006050 0.040692 -0.037204 -0.012064 -0.022712
# 4 -0.010160 -0.017842 -0.037204 0.074587 0.019211 0.036220
# 5 -0.005761 -0.003731 -0.012064 0.019211 0.123712 -0.038235
# 6 0.013110 -0.009177 -0.022712 0.036220 -0.038235 0.100820
#
#
# Mechanical properties :
#
#
# Convention : Reuss Voigt Hill
#
# Bulk Modulus (GPa) = 6.35931 15.20237 10.78084
# Shear Modulus (GPa) = 11.50801 21.43170 16.46985
#
# Velocity S-wave (km/s) = 2.34222 3.19636 2.80202
# Velocity P-wave (km/s) = 3.21655 4.56830 3.95067
#
# Compressibility (1/GPa) = 0.15724972
#
# Stress axis : x y z
#
# Youngs Moduli (GPa) = 16.88238 49.57384 24.57504
#
# Poissons Ratio (x) = -0.10905 -0.25379
# Poissons Ratio (y) = -0.03714 -0.14867
# Poissons Ratio (z) = -0.17435 -0.29990
#
# Static dielectric constant tensor:
#      x y z
#    x 1.852700 -0.003220 -0.028020 
#    y -0.003220 1.797170 0.067770 
#    z -0.028020 0.067770 1.765800 
# 
# From -- ./inp_files/252029.got.cif
#   From: 2010.05.17/outbox.cif.g08.bks.cpg/sg2_127_cif.got.tgz:252029.got - 2010.06.03 11:33:40.
