data_PCOD9074318
_publ_section_title
;
Structure prediction by ZEFSAII (Michael W. Deem and Ramdas Pophale) SiO2 
 PCOD9074318
Probable space group: P -1
;
_chemical_formula_sum "Si O2"
_cell_formula_units_Z 16
_cell_length_a 21.000000
_cell_length_b 12.000000
_cell_length_c 9.000000
_cell_angle_alpha 130.000000
_cell_angle_beta 140.000000
_cell_angle_gamma 30.000000
_cell_volume 727.418465
_symmetry_space_group_name_H-M "P -1"
_symmetry_group_IT_number 2
_symmetry_cell_setting 'triclinic'
loop_
_space_group_symop_operation_xyz
x,y,z
-x,-y,-z
loop_
_atom_site_type_symbol
_atom_site_label
_atom_site_fract_x
_atom_site_fract_y
_atom_site_fract_z
Si Si1 0.142280 0.282981 0.482799
Si Si2 0.170124 0.997258 0.511676
Si Si3 0.348938 0.234892 0.994841
Si Si4 0.922941 0.233327 0.521363
Si Si5 0.079129 0.280253 0.031592
Si Si6 0.345221 0.000212 0.039959
Si Si7 0.573969 0.571130 0.244349
Si Si8 0.610178 0.485691 0.584867
O O1 0.178527 0.091961 0.465829
O O2 0.111024 0.281142 0.257362
O O3 0.000000 0.500000 0.500000
O O4 0.248578 0.298386 0.729230
O O5 0.015017 0.182090 0.492124
O O6 0.228071 0.775387 0.376082
O O7 0.303408 0.915047 0.782138
O O8 0.316742 0.177451 0.041473
O O9 0.363063 0.389552 0.181013
O O10 0.500000 0.000000 0.000000
O O11 0.746478 0.394092 0.345111
O O12 0.000000 0.000000 0.500000
O O13 0.965314 0.280973 0.782455
O O14 0.233818 0.096147 0.060468
O O15 0.000000 0.500000 0.000000
O O16 0.502656 0.791019 0.221379
O O17 0.555883 0.586973 0.405857
O O18 0.500000 0.500000 0.000000
O O19 0.500000 0.500000 0.500000
#
# Coordination Sequence:
#
# PCOD9074318 Si02
#       8
#     2   2   2   2   2   2   2   2
#     4  11  25  47  72 103 145 194 239 296 373 434
#     4  10  22  47  71 106 146 190 240 305 366 444
#     4  11  27  48  71 103 150 191 241 302 365 441
#     4  11  23  46  72 102 147 185 240 303 361 437
#     4  11  25  46  72 104 144 187 240 305 363 437
#     4  10  23  44  72 108 143 187 248 303 369 436
#     4  12  25  45  76 109 146 194 243 303 375 434
#     4  12  26  47  73 103 153 191 242 301 372 433
#
# _framework density 21.995591999999998
#
# number of rings (size 3 to 8) (size 9 to 14) (size 15 to 20)
#    0.000    1.000    2.500    4.500    7.000    2.500 
#    0.000    1.250    0.000    0.000    0.000    0.000 
#    0.000    0.000    0.000    0.000    0.000    0.000 
#
# Total GULP energy -89093.982958 kJ/mol
# GULP energy per Si atom -5568.373935 kJ/mol
# Density = 2.194553 g / cm^3
# Si number density = 21.995592 Si / 1000 Ang^3
#
#
#
# Elastic Constant Matrix: (Units=GPa)
#
#
# Indices 1 2 3 4 5 6 
#
# 1 80.3264 -6.0285 42.9165 8.6397 -14.5360 12.7853
# 2 -6.0285 82.6636 51.3243 6.9394 3.3137 9.0519
# 3 42.9165 51.3243 139.2135 27.9892 0.3844 8.4135
# 4 8.6397 6.9394 27.9892 41.5549 0.8179 10.6458
# 5 -14.5360 3.3137 0.3844 0.8179 48.3756 -6.1684
# 6 12.7853 9.0519 8.4135 10.6458 -6.1684 41.8437
#
#
#
# Elastic Compliance Matrix: (Units=1/GPa)
#
#
# Indices 1 2 3 4 5 6 
#
# 1 0.018960 0.006875 -0.008447 0.001889 0.004574 -0.005389
# 2 0.006875 0.018663 -0.009300 0.002997 0.000173 -0.005005
# 3 -0.008447 -0.009300 0.014480 -0.007263 -0.001471 0.003312
# 4 0.001889 0.002997 -0.007263 0.030020 -0.001051 -0.007558
# 5 0.004574 0.000173 -0.001471 -0.001051 0.022373 0.002426
# 6 -0.005389 -0.005005 0.003312 -0.007558 0.002426 0.028242
#
#
# Mechanical properties :
#
#
# Convention : Reuss Voigt Hill
#
# Bulk Modulus (GPa) = 32.93892 53.18090 43.05991
# Shear Modulus (GPa) = 30.37632 40.62095 35.49863
#
# Velocity S-wave (km/s) = 3.72024 4.30208 4.02169
# Velocity P-wave (km/s) = 5.78457 6.99340 6.41751
#
# Compressibility (1/GPa) = 0.03035923
#
# Stress axis : x y z
#
# Youngs Moduli (GPa) = 52.74209 53.58307 69.06026
#
# Poissons Ratio (x) = -0.36839 0.58332
# Poissons Ratio (y) = -0.36261 0.64229
# Poissons Ratio (z) = 0.44549 0.49835
#
# Static dielectric constant tensor:
#      x y z
#    x 1.771260 0.010610 0.012170 
#    y 0.010610 1.865400 -0.023040 
#    z 0.012170 -0.023040 1.802280 
# 
# From -- ./inp_files/244025.got.cif
#   From: 2010.05.17/outbox.ucp.g08.bks.cvg/sg2_123_cif.got.tgz:244025.got - 2010.06.11 11:32:03.
