data_PCOD9074116
_publ_section_title
;
Structure prediction by ZEFSAII (Michael W. Deem and Ramdas Pophale) SiO2 
 PCOD9074116
Probable space group: P -1
;
_chemical_formula_sum "Si O2"
_cell_formula_units_Z 16
_cell_length_a 9.000000
_cell_length_b 18.000000
_cell_length_c 15.000000
_cell_angle_alpha 30.000000
_cell_angle_beta 40.000000
_cell_angle_gamma 40.000000
_cell_volume 740.097418
_symmetry_space_group_name_H-M "P -1"
_symmetry_group_IT_number 2
_symmetry_cell_setting 'triclinic'
loop_
_space_group_symop_operation_xyz
x,y,z
-x,-y,-z
loop_
_atom_site_type_symbol
_atom_site_label
_atom_site_fract_x
_atom_site_fract_y
_atom_site_fract_z
Si Si1 0.416682 0.255989 0.920337
Si Si2 0.674600 0.747124 0.387105
Si Si3 0.819995 0.594009 0.300240
Si Si4 0.851205 0.991574 0.665948
Si Si5 0.274227 0.467573 0.087893
Si Si6 0.091242 0.748199 0.330750
Si Si7 0.678704 0.441770 0.228992
Si Si8 0.052258 0.209553 0.441924
O O1 0.384164 0.320885 0.766196
O O2 0.709661 0.174381 0.876113
O O3 0.361585 0.392373 0.877343
O O4 0.223983 0.162393 0.119663
O O5 0.812910 0.704212 0.273423
O O6 0.566269 0.608598 0.611385
O O7 0.856261 0.777181 0.345496
O O8 0.422311 0.885845 0.343369
O O9 0.786146 0.440912 0.520957
O O10 0.054576 0.537778 0.186445
O O11 0.000000 0.000000 0.500000
O O12 0.029296 0.040661 0.601662
O O13 0.271732 0.287240 0.260498
O O14 0.500000 0.500000 0.000000
O O15 0.239866 0.546300 0.923168
O O16 0.021825 0.785502 0.426264
O O17 0.865575 0.321589 0.337575
#
# Coordination Sequence:
#
# PCOD9074116 Si02
#       8
#     2   2   2   2   2   2   2   2
#     4  12  23  39  72  96 137 178 234 271 337 402
#     4  11  25  43  71  97 144 174 222 284 346 395
#     4  11  23  41  65 110 134 171 224 289 332 404
#     4  11  27  47  66  96 136 187 229 273 334 414
#     4  11  23  36  65 105 137 168 225 283 342 391
#     4  11  22  41  70 107 133 172 224 295 338 391
#     4  11  20  38  69  98 127 180 224 277 331 398
#     4  10  22  42  67  93 135 171 228 277 332 395
#
# _framework density 21.618776
#
# number of rings (size 3 to 8) (size 9 to 14) (size 15 to 20)
#    0.000    1.000    3.750    4.875    5.250    2.500 
#    0.000    0.625    0.000    0.000    0.000    0.000 
#    0.000    0.000    0.000    0.000    0.000    0.000 
#
# Total GULP energy -89185.077117 kJ/mol
# GULP energy per Si atom -5574.067320 kJ/mol
# Density = 2.156957 g / cm^3
# Si number density = 21.618776 Si / 1000 Ang^3
#
#
#
# Elastic Constant Matrix: (Units=GPa)
#
#
# Indices 1 2 3 4 5 6 
#
# 1 111.2678 22.0008 12.4715 10.7465 -18.3701 13.8783
# 2 22.0008 45.1352 20.2523 14.0213 5.3121 27.5149
# 3 12.4715 20.2523 68.1932 15.5975 -18.8896 -3.5228
# 4 10.7465 14.0213 15.5975 33.2376 7.0569 5.0367
# 5 -18.3701 5.3121 -18.8896 7.0569 50.8496 13.4294
# 6 13.8783 27.5149 -3.5228 5.0367 13.4294 25.5590
#
#
#
# Elastic Compliance Matrix: (Units=1/GPa)
#
#
# Indices 1 2 3 4 5 6 
#
# 1 0.011771 0.001867 -0.000184 -0.004377 0.007657 -0.011588
# 2 0.001867 0.159624 -0.047299 -0.021624 0.018202 -0.184676
# 3 -0.000184 -0.047299 0.033681 -0.004851 0.003608 0.054721
# 4 -0.004377 -0.021624 -0.004851 0.042125 -0.013210 0.023627
# 5 0.007657 0.018202 0.003608 -0.013210 0.033856 -0.038441
# 6 -0.011588 -0.184676 0.054721 0.023627 -0.038441 0.267310
#
#
# Mechanical properties :
#
#
# Convention : Reuss Voigt Hill
#
# Bulk Modulus (GPa) = 8.78394 37.11617 22.95006
# Shear Modulus (GPa) = 7.37957 33.25403 20.31680
#
# Velocity S-wave (km/s) = 1.84957 3.92625 3.06890
# Velocity P-wave (km/s) = 2.93822 6.14489 4.81626
#
# Compressibility (1/GPa) = 0.11384407
#
# Stress axis : x y z
#
# Youngs Moduli (GPa) = 84.95570 6.26471 29.69054
#
# Poissons Ratio (x) = -0.01170 0.00546
# Poissons Ratio (y) = -0.15864 1.40434
# Poissons Ratio (z) = 0.01562 0.29632
#
# Static dielectric constant tensor:
#      x y z
#    x 1.794270 0.003420 -0.037490 
#    y 0.003420 1.895650 -0.063000 
#    z -0.037490 -0.063000 1.836050 
# 
# From -- ./inp_files/381056.got.cif
#   From: 2010.05.17/outbox.ucp.g08.bks.cvg/sg2_191_cif.got.tgz:381056.got - 2010.06.11 11:32:03.
