data_PCOD9074454
_publ_section_title
;
Structure prediction by ZEFSAII (Michael W. Deem and Ramdas Pophale) SiO2 
 PCOD9074454
Probable space group: P -1
;
_chemical_formula_sum "Si O2"
_cell_formula_units_Z 14
_cell_length_a 9.000000
_cell_length_b 18.000000
_cell_length_c 9.000000
_cell_angle_alpha 150.000000
_cell_angle_beta 120.000000
_cell_angle_gamma 70.000000
_cell_volume 617.235917
_symmetry_space_group_name_H-M "P -1"
_symmetry_group_IT_number 2
_symmetry_cell_setting 'triclinic'
loop_
_space_group_symop_operation_xyz
x,y,z
-x,-y,-z
loop_
_atom_site_type_symbol
_atom_site_label
_atom_site_fract_x
_atom_site_fract_y
_atom_site_fract_z
Si Si1 0.450361 0.054192 0.230250
Si Si2 0.598406 0.645071 0.883629
Si Si3 0.955764 0.817998 0.336976
Si Si4 0.191006 0.889156 0.319880
Si Si5 0.985455 0.350051 0.641430
Si Si6 0.310846 0.803905 0.936389
Si Si7 0.354180 0.366652 0.761187
O O1 0.616358 0.060884 0.430889
O O2 0.391798 0.210620 0.449090
O O3 0.500000 0.000000 0.000000
O O4 0.309273 0.947067 0.078807
O O5 0.500000 0.500000 0.500000
O O6 0.499065 0.780426 0.036225
O O7 0.788690 0.692467 0.994958
O O8 0.614012 0.629408 0.039310
O O9 0.001565 0.786152 0.473122
O O10 0.099834 0.800768 0.262029
O O11 0.903437 0.977884 0.552969
O O12 0.202502 0.797190 0.019559
O O13 0.149680 0.369096 0.645298
O O14 0.793441 0.330386 0.445589
O O15 0.000000 0.500000 0.000000
O O16 0.500000 0.500000 0.000000
#
# Coordination Sequence:
#
# PCOD9074454 Si02
#       7
#     2   2   2   2   2   2   2
#     4  12  26  43  73 103 142 184 231 293 345 410
#     4  11  23  43  68  96 137 186 224 282 342 414
#     4  10  23  43  67  95 139 172 228 274 352 406
#     4  11  23  42  71 100 130 173 229 296 331 410
#     4  11  26  45  67 100 144 183 223 287 350 417
#     4  12  23  43  72  98 136 175 237 283 346 396
#     4  11  27  46  69 102 142 183 233 281 348 418
#
# _framework density 22.681764999999999
#
# number of rings (size 3 to 8) (size 9 to 14) (size 15 to 20)
#    0.000    0.857    2.857    4.714    6.000    5.714 
#    0.000    2.143    0.000    0.000    0.000    0.000 
#    0.000    0.000    0.000    0.000    0.000    0.000 
#
# Total GULP energy -77988.178546 kJ/mol
# GULP energy per Si atom -5570.584182 kJ/mol
# Density = 2.263014 g / cm^3
# Si number density = 22.681765 Si / 1000 Ang^3
#
#
#
# Elastic Constant Matrix: (Units=GPa)
#
#
# Indices 1 2 3 4 5 6 
#
# 1 78.5236 -4.0144 27.9434 14.6371 19.9328 -7.3689
# 2 -4.0144 5.3153 6.1123 10.3422 27.8564 -40.7740
# 3 27.9434 6.1123 33.6863 -11.0887 -3.5078 19.0981
# 4 14.6371 10.3422 -11.0887 28.6436 -6.6345 7.0999
# 5 19.9328 27.8564 -3.5078 -6.6345 28.1075 16.1889
# 6 -7.3689 -40.7740 19.0981 7.0999 16.1889 -10.0213
#
#
#
# Elastic Compliance Matrix: (Units=1/GPa)
#
#
# Indices 1 2 3 4 5 6 
#
# 1 0.017785 -0.008956 -0.011453 -0.008737 -0.002355 -0.008461
# 2 -0.008956 0.015766 0.016250 0.009530 0.003332 -0.014459
# 3 -0.011453 0.016250 0.034899 0.010402 -0.005436 0.007402
# 4 -0.008737 0.009530 0.010402 0.036712 -0.000544 0.012602
# 5 -0.002355 0.003332 -0.005436 -0.000544 0.023900 0.016042
# 6 -0.008461 -0.014459 0.007402 0.012602 0.016042 0.014214
#
#
# Mechanical properties :
#
#
# Convention : Reuss Voigt Hill
#
# Bulk Modulus (GPa) = 16.62999 19.73421 18.18210
# Shear Modulus (GPa) = 29.13108 15.17821 22.15465
#
# Velocity S-wave (km/s) = 3.58766 2.58966 3.12871
# Velocity P-wave (km/s) = 4.95071 4.20252 4.59188
#
# Compressibility (1/GPa) = 0.06013232
#
# Stress axis : x y z
#
# Youngs Moduli (GPa) = 56.22611 63.42870 28.65425
#
# Poissons Ratio (x) = 0.56805 0.32817
# Poissons Ratio (y) = 0.50355 -0.46563
# Poissons Ratio (z) = 0.64395 -1.03070
#
# Static dielectric constant tensor:
#      x y z
#    x 2.060840 0.088840 0.127240 
#    y 0.088840 1.876370 0.068840 
#    z 0.127240 0.068840 1.894060 
# 
# From -- ./inp_files/156629.got.cif
#   From: 2010.05.17/outbox.ucp.g08.bks.cvg/sg2_79_cif.got.tgz:156629.got - 2010.06.11 11:32:03.
