data_PCOD9074675
_publ_section_title
;
Structure prediction by ZEFSAII (Michael W. Deem and Ramdas Pophale) SiO2 
 PCOD9074675
Probable space group: P -1
;
_chemical_formula_sum "Si O2"
_cell_formula_units_Z 13
_cell_length_a 15.000000
_cell_length_b 9.000000
_cell_length_c 9.000000
_cell_angle_alpha 70.000000
_cell_angle_beta 40.000000
_cell_angle_gamma 50.000000
_cell_volume 569.686422
_symmetry_space_group_name_H-M "P -1"
_symmetry_group_IT_number 2
_symmetry_cell_setting 'triclinic'
loop_
_space_group_symop_operation_xyz
x,y,z
-x,-y,-z
loop_
_atom_site_type_symbol
_atom_site_label
_atom_site_fract_x
_atom_site_fract_y
_atom_site_fract_z
Si Si1 0.985054 0.500572 0.697921
Si Si2 0.693421 0.278403 0.829461
Si Si3 0.289000 0.078130 0.920618
Si Si4 0.307689 0.096126 0.538496
Si Si5 0.817880 0.130008 0.389144
Si Si6 0.500000 0.500000 0.500000
Si Si7 0.180708 0.715650 0.048061
O O1 0.886996 0.402630 0.887615
O O2 0.000000 0.500000 0.500000
O O3 0.184418 0.331389 0.565372
O O4 0.866428 0.717304 0.860393
O O5 0.782882 0.183067 0.588940
O O6 0.811484 0.304036 0.776453
O O7 0.500000 0.500000 0.000000
O O8 0.689215 0.111679 0.974262
O O9 0.263626 0.094492 0.768528
O O10 0.481716 0.025157 0.709126
O O11 0.263331 0.977453 0.531808
O O12 0.693285 0.347922 0.393400
O O13 0.027050 0.959872 0.140037
O O14 0.380675 0.603478 0.771924
#
# Coordination Sequence:
#
# PCOD9074675 Si02
#       7
#     2   2   2   2   2   1   2
#     4  11  25  45  74 103 138 181 230 286 346 417
#     4  12  26  45  69 103 140 187 233 289 350 414
#     4  11  24  45  70  99 141 179 232 287 340 415
#     4  10  24  44  71 103 133 183 232 284 347 406
#     4  11  24  44  69  99 140 182 233 286 345 415
#     4  12  22  40  68  98 142 178 224 278 344 414
#     4  11  25  46  67 105 138 183 232 282 355 409
#
# _framework density 22.819571
#
# number of rings (size 3 to 8) (size 9 to 14) (size 15 to 20)
#    0.000    0.923    1.538    5.077    2.154    3.692 
#    0.000    0.000    0.000    0.000    0.000    0.000 
#    0.000    0.000    0.000    0.000    0.000    0.000 
#
# Total GULP energy -72460.739274 kJ/mol
# GULP energy per Si atom -5573.903021 kJ/mol
# Density = 2.276763 g / cm^3
# Si number density = 22.819571 Si / 1000 Ang^3
#
#
#
# Elastic Constant Matrix: (Units=GPa)
#
#
# Indices 1 2 3 4 5 6 
#
# 1 69.3312 41.4265 0.8905 11.3627 11.2469 -1.7733
# 2 41.4265 90.4594 68.6064 28.1195 17.7300 -23.6479
# 3 0.8905 68.6064 98.6709 32.6312 14.3515 4.9188
# 4 11.3627 28.1195 32.6312 48.2767 -6.1759 4.5741
# 5 11.2469 17.7300 14.3515 -6.1759 50.4764 4.8128
# 6 -1.7733 -23.6479 4.9188 4.5741 4.8128 43.8413
#
#
#
# Elastic Compliance Matrix: (Units=1/GPa)
#
#
# Indices 1 2 3 4 5 6 
#
# 1 0.123929 -0.196666 0.137676 0.005395 0.014295 -0.118647
# 2 -0.196666 0.359600 -0.246780 -0.021800 -0.035962 0.219923
# 3 0.137676 -0.246780 0.184151 0.003492 0.018434 -0.150593
# 4 0.005395 -0.021800 0.003492 0.032765 0.011051 -0.016564
# 5 0.014295 -0.035962 0.018434 0.011051 0.027761 -0.025089
# 6 -0.118647 0.219923 -0.150593 -0.016564 -0.025089 0.158014
#
#
# Mechanical properties :
#
#
# Convention : Reuss Voigt Hill
#
# Bulk Modulus (GPa) = 17.81297 53.36760 35.59028
# Shear Modulus (GPa) = 3.29712 38.35476 20.82594
#
# Velocity S-wave (km/s) = 1.20333 4.10418 3.02426
# Velocity P-wave (km/s) = 3.12308 6.77471 5.27495
#
# Compressibility (1/GPa) = 0.05613888
#
# Stress axis : x y z
#
# Youngs Moduli (GPa) = 8.06916 2.78087 5.43034
#
# Poissons Ratio (x) = 0.54690 -0.74762
# Poissons Ratio (y) = 1.58693 1.34010
# Poissons Ratio (z) = -1.11093 0.68626
#
# Static dielectric constant tensor:
#      x y z
#    x 1.919860 -0.025370 -0.004450 
#    y -0.025370 1.885520 -0.058150 
#    z -0.004450 -0.058150 1.830270 
# 
# From -- ./inp_files/173859.got.cif
#   From: 2010.05.17/outbox.ucp.g08.bks.cvg/sg2_87_cif.got.tgz:173859.got - 2010.06.11 11:32:03.
