data_PCOD9074437
_publ_section_title
;
Structure prediction by ZEFSAII (Michael W. Deem and Ramdas Pophale) SiO2 
 PCOD9074437
Probable space group: P -1
;
_chemical_formula_sum "Si O2"
_cell_formula_units_Z 16
_cell_length_a 12.000000
_cell_length_b 18.000000
_cell_length_c 9.000000
_cell_angle_alpha 40.000000
_cell_angle_beta 100.000000
_cell_angle_gamma 130.000000
_cell_volume 729.599496
_symmetry_space_group_name_H-M "P -1"
_symmetry_group_IT_number 2
_symmetry_cell_setting 'triclinic'
loop_
_space_group_symop_operation_xyz
x,y,z
-x,-y,-z
loop_
_atom_site_type_symbol
_atom_site_label
_atom_site_fract_x
_atom_site_fract_y
_atom_site_fract_z
Si Si1 0.319238 0.926640 0.124315
Si Si2 0.977377 0.486944 0.835783
Si Si3 0.135765 0.986191 0.795076
Si Si4 0.289220 0.365703 0.191018
Si Si5 0.268644 0.303704 0.718310
Si Si6 0.702459 0.923885 0.854150
Si Si7 0.326168 0.567020 0.134962
Si Si8 0.038458 0.795871 0.774993
O O1 0.149416 0.697884 0.474832
O O2 0.372561 0.036992 0.118815
O O3 0.236718 0.965977 0.945000
O O4 0.500000 0.000000 0.000000
O O5 0.791967 0.415779 0.881109
O O6 0.000000 0.500000 0.000000
O O7 0.967373 0.347245 0.986809
O O8 0.165352 0.964253 0.668321
O O9 0.205171 0.176900 0.532335
O O10 0.906763 0.805801 0.046802
O O11 0.313468 0.512620 0.048162
O O12 0.158937 0.295751 0.130373
O O13 0.500000 0.500000 0.000000
O O14 0.500000 0.500000 0.500000
O O15 0.240744 0.380094 0.473914
O O16 0.241809 0.144347 0.935195
O O17 0.537560 0.754968 0.959118
O O18 0.880244 0.114340 0.508655
#
# Coordination Sequence:
#
# PCOD9074437 Si02
#       8
#     2   2   2   2   2   2   2   2
#     4  12  29  48  71 105 146 192 244 300 355 427
#     4  12  25  48  71 101 141 190 244 291 352 426
#     4  12  27  47  74 108 145 188 240 301 360 422
#     4  12  26  43  72 109 148 180 234 297 363 424
#     4  10  23  42  73 104 140 175 239 293 360 421
#     4  11  24  47  74 103 140 190 240 290 363 433
#     4  11  24  44  74 103 137 188 235 293 357 426
#     4  12  27  45  75 102 146 190 237 294 359 433
#
# _framework density 21.929839999999999
#
# number of rings (size 3 to 8) (size 9 to 14) (size 15 to 20)
#    0.000    0.500    5.000    1.875    7.000    5.000 
#    0.000    0.000    0.000    0.000    0.000    0.000 
#    0.000    0.000    0.000    0.000    0.000    0.000 
#
# Total GULP energy -89190.349247 kJ/mol
# GULP energy per Si atom -5574.396828 kJ/mol
# Density = 2.187993 g / cm^3
# Si number density = 21.929840 Si / 1000 Ang^3
#
#
#
# Elastic Constant Matrix: (Units=GPa)
#
#
# Indices 1 2 3 4 5 6 
#
# 1 167.5351 27.7947 51.3769 -9.0976 13.3325 11.9899
# 2 27.7947 68.8245 17.4612 -8.8735 0.0849 -0.7035
# 3 51.3769 17.4612 72.7348 -18.2076 13.0635 4.0995
# 4 -9.0976 -8.8735 -18.2076 16.1285 -2.2029 6.5966
# 5 13.3325 0.0849 13.0635 -2.2029 49.9853 -2.3430
# 6 11.9899 -0.7035 4.0995 6.5966 -2.3430 36.4211
#
#
#
# Elastic Compliance Matrix: (Units=1/GPa)
#
#
# Indices 1 2 3 4 5 6 
#
# 1 0.008089 -0.002180 -0.005495 -0.002252 -0.000898 -0.001736
# 2 -0.002180 0.016537 -0.000843 0.007100 0.001082 -0.000084
# 3 -0.005495 -0.000843 0.025926 0.027736 -0.004388 -0.006431
# 4 -0.002252 0.007100 0.027736 0.104252 -0.003065 -0.021322
# 5 -0.000898 0.001082 -0.004388 -0.003065 0.021384 0.002741
# 6 -0.001736 -0.000084 -0.006431 -0.021322 0.002741 0.032789
#
#
# Mechanical properties :
#
#
# Convention : Reuss Voigt Hill
#
# Bulk Modulus (GPa) = 29.83562 55.81776 42.82669
# Shear Modulus (GPa) = 21.08071 34.67109 27.87590
#
# Velocity S-wave (km/s) = 3.10381 3.98049 3.56917
# Velocity P-wave (km/s) = 5.14582 6.82890 6.04621
#
# Compressibility (1/GPa) = 0.03351698
#
# Stress axis : x y z
#
# Youngs Moduli (GPa) = 123.62261 60.47069 38.57122
#
# Poissons Ratio (x) = 0.13181 0.21196
# Poissons Ratio (y) = 0.26946 0.03250
# Poissons Ratio (z) = 0.67933 0.05096
#
# Static dielectric constant tensor:
#      x y z
#    x 1.764910 0.024110 -0.028480 
#    y 0.024110 1.909630 0.036900 
#    z -0.028480 0.036900 1.820950 
# 
# From -- ./inp_files/278817.got.cif
#   From: 2010.05.17/outbox.ucp.g08.bks.cvg/sg2_140_cif.got.tgz:278817.got - 2010.06.11 11:32:03.
