data_PCOD9074472
_publ_section_title
;
Structure prediction by ZEFSAII (Michael W. Deem and Ramdas Pophale) SiO2 
 PCOD9074472
Probable space group: P -1
;
_chemical_formula_sum "Si O2"
_cell_formula_units_Z 16
_cell_length_a 9.000000
_cell_length_b 9.000000
_cell_length_c 12.000000
_cell_angle_alpha 90.000000
_cell_angle_beta 80.000000
_cell_angle_gamma 50.000000
_cell_volume 725.212580
_symmetry_space_group_name_H-M "P -1"
_symmetry_group_IT_number 2
_symmetry_cell_setting 'triclinic'
loop_
_space_group_symop_operation_xyz
x,y,z
-x,-y,-z
loop_
_atom_site_type_symbol
_atom_site_label
_atom_site_fract_x
_atom_site_fract_y
_atom_site_fract_z
Si Si1 0.933372 0.184788 0.693215
Si Si2 0.872559 0.118804 0.130280
Si Si3 0.827160 0.449730 0.281441
Si Si4 0.339072 0.322304 0.473728
Si Si5 0.246460 0.039343 0.478549
Si Si6 0.511614 0.313858 0.024782
Si Si7 0.807152 0.573826 0.761312
Si Si8 0.587035 0.199680 0.761342
O O1 0.947385 0.341412 0.734673
O O2 0.703543 0.279235 0.720142
O O3 0.035008 0.026397 0.777747
O O4 0.047217 0.104523 0.561207
O O5 0.843651 0.298412 0.194231
O O6 0.662416 0.203583 0.108535
O O7 0.000000 0.000000 0.000000
O O8 0.764075 0.496580 0.423588
O O9 0.639335 0.658243 0.252117
O O10 0.043702 0.384545 0.251213
O O11 0.569767 0.157992 0.480181
O O12 0.307776 0.363705 0.344390
O O13 0.251886 0.211940 0.502793
O O14 0.288654 0.985761 0.340891
O O15 0.316875 0.368714 0.108138
O O16 0.500000 0.500000 0.000000
O O17 0.578587 0.194768 0.898073
#
# Coordination Sequence:
#
# PCOD9074472 Si02
#       8
#     2   2   2   2   2   2   2   2
#     4  12  24  43  72 105 137 182 231 286 346 400
#     4  12  25  46  69 100 141 179 230 287 337 402
#     4  11  25  45  72 101 137 186 229 280 349 414
#     4  10  23  45  69 102 148 171 227 292 351 399
#     4  10  23  43  70 109 136 177 229 295 337 409
#     4  12  23  49  68  98 140 185 229 283 341 415
#     4  12  25  44  75 102 136 189 229 279 348 418
#     4  11  24  44  71  97 144 181 225 284 345 404
#
# _framework density 22.062495999999999
#
# number of rings (size 3 to 8) (size 9 to 14) (size 15 to 20)
#    0.000    0.750    5.000    1.500    1.750    1.500 
#    0.000    4.375    0.000    0.000    0.000    0.000 
#    0.000    0.000    0.000    0.000    0.000    0.000 
#
# Total GULP energy -89204.236884 kJ/mol
# GULP energy per Si atom -5575.264805 kJ/mol
# Density = 2.201228 g / cm^3
# Si number density = 22.062496 Si / 1000 Ang^3
#
#
#
# Elastic Constant Matrix: (Units=GPa)
#
#
# Indices 1 2 3 4 5 6 
#
# 1 66.3820 12.8716 57.9480 4.8074 4.4135 -16.8904
# 2 12.8716 45.8902 22.3966 12.2049 -6.8841 2.4836
# 3 57.9480 22.3966 188.0686 40.0671 -2.0985 -1.6397
# 4 4.8074 12.2049 40.0671 42.4504 -0.1695 11.4268
# 5 4.4135 -6.8841 -2.0985 -0.1695 49.9542 9.7647
# 6 -16.8904 2.4836 -1.6397 11.4268 9.7647 17.1319
#
#
#
# Elastic Compliance Matrix: (Units=1/GPa)
#
#
# Indices 1 2 3 4 5 6 
#
# 1 0.041195 -0.010318 -0.009498 -0.007804 -0.016384 0.055745
# 2 -0.010318 0.027262 0.000389 -0.002418 0.008007 -0.017039
# 3 -0.009498 0.000389 0.009586 -0.006615 0.002333 -0.005421
# 4 -0.007804 -0.002418 -0.006615 0.042443 0.008233 -0.040978
# 5 -0.016384 0.008007 0.002333 0.008233 0.030508 -0.039970
# 6 0.055745 -0.017039 -0.005421 -0.040978 -0.039970 0.165396
#
#
# Mechanical properties :
#
#
# Convention : Reuss Voigt Hill
#
# Bulk Modulus (GPa) = 25.51884 54.08593 39.80238
# Shear Modulus (GPa) = 13.57559 35.71560 24.64559
#
# Velocity S-wave (km/s) = 2.48326 4.02784 3.34590
# Velocity P-wave (km/s) = 4.45128 6.79702 5.74514
#
# Compressibility (1/GPa) = 0.03918674
#
# Stress axis : x y z
#
# Youngs Moduli (GPa) = 24.27471 36.68104 104.32213
#
# Poissons Ratio (x) = 0.37848 0.99090
# Poissons Ratio (y) = 0.25047 -0.04053
# Poissons Ratio (z) = 0.23057 -0.01425
#
# Static dielectric constant tensor:
#      x y z
#    x 1.854120 0.007560 -0.036540 
#    y 0.007560 1.892710 0.005890 
#    z -0.036540 0.005890 1.811260 
# 
# From -- ./inp_files/382263.got.cif
#   From: 2010.05.17/outbox.ucp.g08.bks.cvg/sg2_192_cif.got.tgz:382263.got - 2010.06.11 11:32:03.
