data_PCOD9074958
_publ_section_title
;
Structure prediction by ZEFSAII (Michael W. Deem and Ramdas Pophale) SiO2 
 PCOD9074958
Probable space group: P -1
;
_chemical_formula_sum "Si O2"
_cell_formula_units_Z 16
_cell_length_a 9.000000
_cell_length_b 12.000000
_cell_length_c 9.000000
_cell_angle_alpha 110.000000
_cell_angle_beta 70.000000
_cell_angle_gamma 70.000000
_cell_volume 733.231569
_symmetry_space_group_name_H-M "P -1"
_symmetry_group_IT_number 2
_symmetry_cell_setting 'triclinic'
loop_
_space_group_symop_operation_xyz
x,y,z
-x,-y,-z
loop_
_atom_site_type_symbol
_atom_site_label
_atom_site_fract_x
_atom_site_fract_y
_atom_site_fract_z
Si Si1 0.371142 0.817938 0.119907
Si Si2 0.632108 0.519523 0.339439
Si Si3 0.518231 0.163662 0.443886
Si Si4 0.326789 0.007639 0.980063
Si Si5 0.297193 0.023209 0.469800
Si Si6 0.070557 0.748807 0.261749
Si Si7 0.951818 0.709954 0.960419
Si Si8 0.282707 0.438426 0.012878
O O1 0.229086 0.783516 0.225075
O O2 0.558388 0.669155 0.978353
O O3 0.270430 0.919674 0.063874
O O4 0.416579 0.909807 0.254457
O O5 0.500000 0.500000 0.500000
O O6 0.580512 0.674375 0.461622
O O7 0.631538 0.534768 0.158049
O O8 0.846073 0.396958 0.228519
O O9 0.377348 0.119102 0.533270
O O10 0.695063 0.077818 0.450203
O O11 0.585014 0.092015 0.233641
O O12 0.173167 0.160369 0.046494
O O13 0.500000 0.000000 0.000000
O O14 0.096155 0.134929 0.531732
O O15 0.156175 0.588646 0.197838
O O16 0.992100 0.761886 0.125982
O O17 0.844852 0.628540 0.000779
#
# Coordination Sequence:
#
# PCOD9074958 Si02
#       8
#     2   2   2   2   2   2   2   2
#     4  12  25  42  67 100 140 170 221 285 344 386
#     4  11  25  42  67 103 139 173 223 286 336 399
#     4  11  22  41  72  93 131 178 228 268 337 403
#     4  12  24  44  69 100 132 175 228 283 328 401
#     4  11  21  42  67  99 126 176 228 276 326 406
#     4  11  24  39  67 101 131 172 223 281 336 398
#     4  11  23  46  73  98 131 186 234 269 333 414
#     4  11  22  46  71  95 134 184 232 266 332 416
#
# _framework density 21.821210000000001
#
# number of rings (size 3 to 8) (size 9 to 14) (size 15 to 20)
#    0.000    0.750    5.000    3.750    3.500    1.500 
#    2.250    0.625    0.000    0.000    0.000    0.000 
#    0.000    0.000    0.000    0.000    0.000    0.000 
#
# Total GULP energy -89080.506888 kJ/mol
# GULP energy per Si atom -5567.531680 kJ/mol
# Density = 2.177154 g / cm^3
# Si number density = 21.821210 Si / 1000 Ang^3
#
#
#
# Elastic Constant Matrix: (Units=GPa)
#
#
# Indices 1 2 3 4 5 6 
#
# 1 34.6560 40.0634 -0.3127 17.8133 -15.2929 25.9436
# 2 40.0634 144.4350 41.9165 34.0055 -0.9760 -49.5551
# 3 -0.3127 41.9165 77.5211 21.3037 -5.2347 -10.6947
# 4 17.8133 34.0055 21.3037 38.0532 -7.7377 -20.8254
# 5 -15.2929 -0.9760 -5.2347 -7.7377 29.6178 10.1504
# 6 25.9436 -49.5551 -10.6947 -20.8254 10.1504 -15.4323
#
#
#
# Elastic Compliance Matrix: (Units=1/GPa)
#
#
# Indices 1 2 3 4 5 6 
#
# 1 0.014155 0.001403 0.001496 0.001351 0.001911 0.017687
# 2 0.001403 0.007156 -0.002177 -0.009259 0.000346 -0.006390
# 3 0.001496 -0.002177 0.016170 -0.004861 0.000508 0.005195
# 4 0.001351 -0.009259 -0.004861 0.035718 0.010822 -0.005710
# 5 0.001911 0.000346 0.000508 0.010822 0.034343 0.009733
# 6 0.017687 -0.006390 0.005195 -0.005710 0.009733 -0.004039
#
#
# Mechanical properties :
#
#
# Convention : Reuss Voigt Hill
#
# Bulk Modulus (GPa) = 25.69062 46.66072 36.17567
# Shear Modulus (GPa) = 43.46570 22.11072 32.78821
#
# Velocity S-wave (km/s) = 4.46791 3.18664 3.88052
# Velocity P-wave (km/s) = 6.19799 5.91347 6.05741
#
# Compressibility (1/GPa) = 0.03892471
#
# Stress axis : x y z
#
# Youngs Moduli (GPa) = 70.64840 139.73573 61.84310
#
# Poissons Ratio (x) = -0.19603 -0.09255
# Poissons Ratio (y) = -0.09911 0.13466
# Poissons Ratio (z) = -0.10572 0.30427
#
# Static dielectric constant tensor:
#      x y z
#    x 1.917500 -0.045230 0.005190 
#    y -0.045230 2.025210 -0.127430 
#    z 0.005190 -0.127430 1.886530 
# 
# From -- ./inp_files/184925.got.cif
#   From: 2010.05.17/outbox.ucp.g08.bks.cvg/sg2_93_cif.got.tgz:184925.got - 2010.06.11 11:32:03.
