data_PCOD9074650
_publ_section_title
;
Structure prediction by ZEFSAII (Michael W. Deem and Ramdas Pophale) SiO2 
 PCOD9074650
Probable space group: P -1
;
_chemical_formula_sum "Si O2"
_cell_formula_units_Z 16
_cell_length_a 15.000000
_cell_length_b 12.000000
_cell_length_c 9.000000
_cell_angle_alpha 110.000000
_cell_angle_beta 50.000000
_cell_angle_gamma 140.000000
_cell_volume 759.581896
_symmetry_space_group_name_H-M "P -1"
_symmetry_group_IT_number 2
_symmetry_cell_setting 'triclinic'
loop_
_space_group_symop_operation_xyz
x,y,z
-x,-y,-z
loop_
_atom_site_type_symbol
_atom_site_label
_atom_site_fract_x
_atom_site_fract_y
_atom_site_fract_z
Si Si1 0.746714 0.099745 0.695117
Si Si2 0.098216 0.970779 0.290842
Si Si3 0.630086 0.257494 0.928006
Si Si4 0.196782 0.975450 0.699827
Si Si5 0.250293 0.268465 0.600831
Si Si6 0.432973 0.180641 0.823717
Si Si7 0.485207 0.519043 0.195183
Si Si8 0.783332 0.622236 0.051074
O O1 0.874396 0.114467 0.661918
O O2 0.759646 0.245682 0.796943
O O3 0.780952 0.104519 0.488747
O O4 0.543995 0.901011 0.856770
O O5 0.948912 0.841127 0.268396
O O6 0.000000 0.000000 0.500000
O O7 0.285352 0.122171 0.070642
O O8 0.552652 0.196896 0.814825
O O9 0.719041 0.450258 0.967434
O O10 0.992380 0.806632 0.895356
O O11 0.239146 0.134408 0.640342
O O12 0.323276 0.049851 0.740138
O O13 0.360750 0.350775 0.365772
O O14 0.310928 0.425815 0.710171
O O15 0.561456 0.379747 0.706914
O O16 0.500000 0.500000 0.000000
O O17 0.689754 0.658454 0.084076
#
# Coordination Sequence:
#
# PCOD9074650 Si02
#       8
#     2   2   2   2   2   2   2   2
#     4  10  24  43  71  92 127 179 226 260 329 389
#     4  11  21  39  67  96 130 170 214 268 329 392
#     4  10  24  47  67  91 130 180 224 267 315 396
#     4  12  24  40  67  98 133 171 214 274 331 387
#     4  12  24  39  63 102 137 169 212 275 337 382
#     4  11  23  41  64  97 131 168 219 268 328 389
#     4  12  24  37  63  99 134 170 218 273 324 388
#     4  12  24  41  64  97 137 172 215 272 324 390
#
# _framework density 21.064219999999999
#
# number of rings (size 3 to 8) (size 9 to 14) (size 15 to 20)
#    0.000    0.750    5.000    3.000    3.500    1.000 
#    0.000    0.625    0.000    0.000    0.000    0.000 
#    0.000    0.000    0.000    0.000    0.000    0.000 
#
# Total GULP energy -89082.161219 kJ/mol
# GULP energy per Si atom -5567.635076 kJ/mol
# Density = 2.101628 g / cm^3
# Si number density = 21.064220 Si / 1000 Ang^3
#
#
#
# Elastic Constant Matrix: (Units=GPa)
#
#
# Indices 1 2 3 4 5 6 
#
# 1 76.4697 9.1977 22.0223 17.0183 -4.6293 -6.6681
# 2 9.1977 34.9374 15.6993 -3.3826 6.6232 -1.4590
# 3 22.0223 15.6993 79.4812 19.4865 15.2479 -7.7004
# 4 17.0183 -3.3826 19.4865 25.2504 0.4899 3.3513
# 5 -4.6293 6.6232 15.2479 0.4899 34.6246 6.2829
# 6 -6.6681 -1.4590 -7.7004 3.3513 6.2829 23.5322
#
#
#
# Elastic Compliance Matrix: (Units=1/GPa)
#
#
# Indices 1 2 3 4 5 6 
#
# 1 0.017479 -0.005945 -0.000511 -0.012968 0.002886 0.005494
# 2 -0.005945 0.036496 -0.009490 0.016824 -0.003091 -0.004098
# 3 -0.000511 -0.009490 0.022560 -0.019756 -0.010115 0.012163
# 4 -0.012968 0.016824 -0.019756 0.068449 0.006514 -0.020583
# 5 0.002886 -0.003091 -0.010115 0.006514 0.036652 -0.013397
# 6 0.005494 -0.004098 0.012163 -0.020583 -0.013397 0.054286
#
#
# Mechanical properties :
#
#
# Convention : Reuss Voigt Hill
#
# Bulk Modulus (GPa) = 22.40005 31.63634 27.01819
# Shear Modulus (GPa) = 17.68690 26.27936 21.98313
#
# Velocity S-wave (km/s) = 2.90084 3.53595 3.23402
# Velocity P-wave (km/s) = 4.67730 5.63224 5.17684
#
# Compressibility (1/GPa) = 0.04464276
#
# Stress axis : x y z
#
# Youngs Moduli (GPa) = 57.21159 27.40020 44.32598
#
# Poissons Ratio (x) = 0.16290 0.02264
# Poissons Ratio (y) = 0.34014 0.42066
# Poissons Ratio (z) = 0.02922 0.26003
#
# Static dielectric constant tensor:
#      x y z
#    x 2.092010 0.427110 0.085760 
#    y 0.427110 2.294100 0.125910 
#    z 0.085760 0.125910 1.766430 
# 
# From -- ./inp_files/307922.got.cif
#   From: 2010.05.17/outbox.ucp.g08.bks.cvg/sg2_154_cif.got.tgz:307922.got - 2010.06.11 11:32:03.
