data_PCOD9074608
_publ_section_title
;
Structure prediction by ZEFSAII (Michael W. Deem and Ramdas Pophale) SiO2 
 PCOD9074608
Probable space group: P -1
;
_chemical_formula_sum "Si O2"
_cell_formula_units_Z 16
_cell_length_a 12.000000
_cell_length_b 9.000000
_cell_length_c 15.000000
_cell_angle_alpha 70.000000
_cell_angle_beta 120.000000
_cell_angle_gamma 60.000000
_cell_volume 745.925389
_symmetry_space_group_name_H-M "P -1"
_symmetry_group_IT_number 2
_symmetry_cell_setting 'triclinic'
loop_
_space_group_symop_operation_xyz
x,y,z
-x,-y,-z
loop_
_atom_site_type_symbol
_atom_site_label
_atom_site_fract_x
_atom_site_fract_y
_atom_site_fract_z
Si Si1 0.153574 0.671432 0.885779
Si Si2 0.778008 0.219259 0.924746
Si Si3 0.611070 0.047821 0.247847
Si Si4 0.421645 0.264836 0.319392
Si Si5 0.814150 0.693776 0.247395
Si Si6 0.148347 0.297167 0.301669
Si Si7 0.546791 0.219642 0.935078
Si Si8 0.835983 0.145393 0.320832
O O1 0.081597 0.857651 0.736901
O O2 0.995613 0.678482 0.819259
O O3 0.155018 0.774413 0.953778
O O4 0.403074 0.335863 0.048807
O O5 0.607302 0.519810 0.752117
O O6 0.675403 0.148686 0.912265
O O7 0.000000 0.000000 0.000000
O O8 0.497814 0.121176 0.282252
O O9 0.788255 0.009820 0.333413
O O10 0.756983 0.766683 0.314541
O O11 0.202664 0.399764 0.246117
O O12 0.618164 0.026814 0.515957
O O13 0.645307 0.719476 0.154645
O O14 0.028414 0.443831 0.320457
O O15 0.734361 0.947293 0.127600
O O16 0.408394 0.519299 0.838958
O O17 0.000000 0.000000 0.500000
#
# Coordination Sequence:
#
# PCOD9074608 Si02
#       8
#     2   2   2   2   2   2   2   2
#     4  11  21  38  67  91 122 171 213 260 324 383
#     4  11  24  41  67  93 126 171 222 266 314 390
#     4  11  22  39  65  96 127 166 220 264 315 386
#     4  10  24  42  61  89 133 172 210 263 327 391
#     4  11  22  37  67  95 127 165 217 269 315 371
#     4  11  23  42  63  91 131 172 212 263 333 381
#     4  11  21  39  61  95 127 162 209 270 316 375
#     4  12  22  39  66  95 129 169 207 264 332 382
#
# _framework density 21.449866
#
# number of rings (size 3 to 8) (size 9 to 14) (size 15 to 20)
#    0.000    1.000    5.000    3.375    0.000    3.500 
#    0.000    0.625    0.000    0.000    0.000    0.000 
#    0.000    0.000    0.000    0.000    0.000    0.000 
#
# Total GULP energy -89094.357248 kJ/mol
# GULP energy per Si atom -5568.397328 kJ/mol
# Density = 2.140105 g / cm^3
# Si number density = 21.449866 Si / 1000 Ang^3
#
#
#
# Elastic Constant Matrix: (Units=GPa)
#
#
# Indices 1 2 3 4 5 6 
#
# 1 130.8875 15.6675 14.9060 0.9258 6.4067 -14.9005
# 2 15.6675 64.0726 11.4986 -0.0215 12.9175 -3.8233
# 3 14.9060 11.4986 67.5942 7.8559 -0.6975 -0.6921
# 4 0.9258 -0.0215 7.8559 19.6744 2.7296 7.0459
# 5 6.4067 12.9175 -0.6975 2.7296 30.0396 5.2110
# 6 -14.9005 -3.8233 -0.6921 7.0459 5.2110 14.8124
#
#
#
# Elastic Compliance Matrix: (Units=1/GPa)
#
#
# Indices 1 2 3 4 5 6 
#
# 1 0.009494 -0.000592 -0.001461 -0.003808 -0.003611 0.012411
# 2 -0.000592 0.018592 -0.003041 -0.000090 -0.009205 0.007342
# 3 -0.001461 -0.003041 0.016515 -0.007268 0.002472 0.001105
# 4 -0.003808 -0.000090 -0.007268 0.066774 0.000907 -0.036275
# 5 -0.003611 -0.009205 0.002472 0.000907 0.041630 -0.020970
# 6 0.012411 0.007342 0.001105 -0.036275 -0.020970 0.106575
#
#
# Mechanical properties :
#
#
# Convention : Reuss Voigt Hill
#
# Bulk Modulus (GPa) = 29.05916 38.52205 33.79061
# Shear Modulus (GPa) = 17.77848 27.60407 22.69127
#
# Velocity S-wave (km/s) = 2.88208 3.59125 3.25603
# Velocity P-wave (km/s) = 4.96508 5.93247 5.47020
#
# Compressibility (1/GPa) = 0.03441256
#
# Stress axis : x y z
#
# Youngs Moduli (GPa) = 105.33034 53.78750 60.55055
#
# Poissons Ratio (x) = 0.03185 0.08844
# Poissons Ratio (y) = 0.06236 0.18416
# Poissons Ratio (z) = 0.15384 0.16359
#
# Static dielectric constant tensor:
#      x y z
#    x 1.951840 0.037660 -0.015940 
#    y 0.037660 1.895870 0.007450 
#    z -0.015940 0.007450 1.850960 
# 
# From -- ./inp_files/515398.got.cif
#   From: 2010.05.17/outbox.ucp.g08.bks.cvg/sg2_258_cif.got.tgz:515398.got - 2010.06.11 11:32:03.
