data_PCOD9074801
_publ_section_title
;
Structure prediction by ZEFSAII (Michael W. Deem and Ramdas Pophale) SiO2 
 PCOD9074801
Probable space group: P -1
;
_chemical_formula_sum "Si O2"
_cell_formula_units_Z 13
_cell_length_a 9.000000
_cell_length_b 15.000000
_cell_length_c 15.000000
_cell_angle_alpha 20.000000
_cell_angle_beta 50.000000
_cell_angle_gamma 50.000000
_cell_volume 524.716012
_symmetry_space_group_name_H-M "P -1"
_symmetry_group_IT_number 2
_symmetry_cell_setting 'triclinic'
loop_
_space_group_symop_operation_xyz
x,y,z
-x,-y,-z
loop_
_atom_site_type_symbol
_atom_site_label
_atom_site_fract_x
_atom_site_fract_y
_atom_site_fract_z
Si Si1 0.701723 0.681447 0.875960
Si Si2 0.580675 0.258237 0.436197
Si Si3 0.912574 0.456911 0.223384
Si Si4 0.500000 0.000000 0.500000
Si Si5 0.693095 0.973303 0.016376
Si Si6 0.228417 0.491083 0.440111
Si Si7 0.956940 0.013140 0.261421
O O1 0.614567 0.765438 0.735218
O O2 0.934070 0.674568 0.785997
O O3 0.627106 0.943346 0.716782
O O4 0.647514 0.397496 0.190548
O O5 0.698998 0.403159 0.327067
O O6 0.351277 0.349553 0.444076
O O7 0.964802 0.279693 0.456692
O O8 0.961434 0.752493 0.933667
O O9 0.278446 0.952565 0.677796
O O10 0.702145 0.705387 0.320299
O O11 0.909707 0.961530 0.900260
O O12 0.500000 0.000000 0.000000
O O13 0.694509 0.231541 0.834228
O O14 0.000000 0.500000 0.500000
#
# Coordination Sequence:
#
# PCOD9074801 Si02
#       7
#     2   2   2   1   2   2   2
#     4  11  24  40  67  95 132 177 219 271 341 399
#     4  12  24  42  69  93 138 174 221 276 342 400
#     4  11  22  43  64 105 128 173 223 279 330 410
#     4  10  26  42  62  96 130 168 222 262 334 404
#     4  12  25  48  75 103 139 192 241 291 345 415
#     4  12  28  45  70 107 145 182 241 288 356 415
#     4  11  24  41  71  94 139 171 224 277 337 399
#
# _framework density 24.775306
#
# number of rings (size 3 to 8) (size 9 to 14) (size 15 to 20)
#    0.000    0.615    0.000    8.308    4.308    5.538 
#    0.000    0.000    0.000    0.000    0.000    0.000 
#    0.000    0.000    0.000    0.000    0.000    0.000 
#
# Total GULP energy -72406.776235 kJ/mol
# GULP energy per Si atom -5569.752018 kJ/mol
# Density = 2.471892 g / cm^3
# Si number density = 24.775306 Si / 1000 Ang^3
#
#
#
# Elastic Constant Matrix: (Units=GPa)
#
#
# Indices 1 2 3 4 5 6 
#
# 1 80.1653 4.3638 -0.4342 -2.1817 0.4611 -20.0051
# 2 4.3638 97.6633 17.6472 -2.1742 -32.9573 -25.1873
# 3 -0.4342 17.6472 65.0206 11.7365 29.8146 -1.2707
# 4 -2.1817 -2.1742 11.7365 49.4980 1.2168 -11.4137
# 5 0.4611 -32.9573 29.8146 1.2168 28.6427 5.6708
# 6 -20.0051 -25.1873 -1.2707 -11.4137 5.6708 35.1752
#
#
#
# Elastic Compliance Matrix: (Units=1/GPa)
#
#
# Indices 1 2 3 4 5 6 
#
# 1 0.015105 -0.000974 0.003270 0.002287 -0.006815 0.009852
# 2 -0.000974 -0.033482 0.053013 -0.014816 -0.090522 -0.012828
# 3 0.003270 0.053013 -0.051545 0.018093 0.108621 0.026317
# 4 0.002287 -0.014816 0.018093 0.016931 -0.037198 0.002836
# 5 -0.006815 -0.090522 0.108621 -0.037198 -0.170861 -0.049296
# 6 0.009852 -0.012828 0.026317 0.002836 -0.049296 0.034665
#
#
# Mechanical properties :
#
#
# Convention : Reuss Voigt Hill
#
# Bulk Modulus (GPa) = 24.57265 31.77808 28.17537
# Shear Modulus (GPa) = -17.46792 37.41467 9.97338
#
# Velocity S-wave (km/s) = -2.65817 3.89029 2.00855
# Velocity P-wave (km/s) = 0.72015 5.74748 4.09586
#
# Compressibility (1/GPa) = 0.04069564
#
# Stress axis : x y z
#
# Youngs Moduli (GPa) = 66.20324 -29.86690 -19.40043
#
# Poissons Ratio (x) = -0.02909 0.06344
# Poissons Ratio (y) = 0.06448 1.02847
# Poissons Ratio (z) = -0.21649 1.58333
#
# Static dielectric constant tensor:
#      x y z
#    x 1.930970 0.083750 0.161080 
#    y 0.083750 2.175060 0.090880 
#    z 0.161080 0.090880 1.788750 
# 
# From -- ./inp_files/63928.got.cif
#   From: 2010.05.17/outbox.ucp.g08.bks.cvg/sg2_32_cif.got.tgz:63928.got - 2010.06.11 11:32:03.
