data_PCOD9074652
_publ_section_title
;
Structure prediction by ZEFSAII (Michael W. Deem and Ramdas Pophale) SiO2 
 PCOD9074652
Probable space group: P -1
;
_chemical_formula_sum "Si O2"
_cell_formula_units_Z 16
_cell_length_a 10.420463
_cell_length_b 21.479018
_cell_length_c 13.162222
_cell_angle_alpha 148.187007
_cell_angle_beta 37.032183
_cell_angle_gamma 131.675087
_cell_volume 934.456709
_symmetry_space_group_name_H-M "P -1"
_symmetry_group_IT_number 2
_symmetry_cell_setting 'triclinic'
loop_
_space_group_symop_operation_xyz
x,y,z
-x,-y,-z
loop_
_atom_site_type_symbol
_atom_site_label
_atom_site_fract_x
_atom_site_fract_y
_atom_site_fract_z
Si Si1 0.981920 0.456142 0.725656
Si Si2 0.399789 0.385419 0.723082
Si Si3 0.288869 0.310402 0.468627
Si Si4 0.043637 0.824916 0.014500
Si Si5 0.142299 0.167520 0.645503
Si Si6 0.741050 0.951173 0.787578
Si Si7 0.254059 0.687470 0.865015
Si Si8 0.899397 0.386029 0.455593
O O1 0.945768 0.391311 0.552799
O O2 0.086456 0.369997 0.623951
O O3 0.148711 0.561058 0.749318
O O4 0.760064 0.518616 0.989641
O O5 0.349827 0.384363 0.632973
O O6 0.325383 0.258333 0.632971
O O7 0.645666 0.397178 0.610815
O O8 0.249522 0.177005 0.344290
O O9 0.497972 0.314691 0.270251
O O10 0.230494 0.755006 0.865015
O O11 0.001288 0.732759 0.825177
O O12 0.871167 0.847386 0.245016
O O13 0.125439 0.950535 0.104430
O O14 0.177524 0.060763 0.397379
O O15 0.914707 0.234087 0.852899
O O16 0.500000 0.000000 0.000000
O O17 0.000000 0.500000 0.500000
#
# Coordination Sequence:
#
# PCOD9074652 Si02
#       8
#     2   2   2   2   2   2   2   2
#     4  11  22  32  52  81 112 138 171 217 265 311
#     4  10  18  35  54  77 106 137 174 216 258 316
#     4  11  20  34  52  81 109 139 171 218 269 304
#     4  10  18  32  52  76 100 135 179 216 250 297
#     4   8  17  31  53  82  98 126 175 224 257 293
#     4  11  18  31  54  78 105 135 176 218 258 308
#     4   9  17  34  52  77 104 135 173 213 261 298
#     4  12  20  36  54  78 104 141 179 212 257 315
#
# _framework density 17.122249
#
# number of rings (size 3 to 8) (size 9 to 14) (size 15 to 20)
#    0.750    1.000    3.750    2.250    0.000    0.000 
#    0.000    0.625    0.000    0.000    0.000    3.500 
#    0.000    0.000    0.000    0.000    0.000    0.000 
#
# Total GULP energy -89094.369216 kJ/mol
# GULP energy per Si atom -5568.398076 kJ/mol
# Density = 1.708328 g / cm^3
# Si number density = 17.122249 Si / 1000 Ang^3
#
#
#
# Elastic Constant Matrix: (Units=GPa)
#
#
# Indices 1 2 3 4 5 6 
#
# 1 57.7015 21.7143 20.7771 1.8996 10.7116 -6.4617
# 2 21.7143 85.0911 34.1001 1.4458 4.3264 13.0027
# 3 20.7771 34.1001 104.0032 5.0092 25.1096 0.3202
# 4 1.8996 1.4458 5.0092 24.1855 -0.2359 -3.5400
# 5 10.7116 4.3264 25.1096 -0.2359 19.9593 0.7460
# 6 -6.4617 13.0027 0.3202 -3.5400 0.7460 16.3769
#
#
#
# Elastic Compliance Matrix: (Units=1/GPa)
#
#
# Indices 1 2 3 4 5 6 
#
# 1 0.024608 -0.008691 0.001049 0.000781 -0.013282 0.017364
# 2 -0.008691 0.019166 -0.006741 -0.001804 0.009693 -0.019346
# 3 0.001049 -0.006741 0.016602 -0.002462 -0.020234 0.005831
# 4 0.000781 -0.001804 -0.002462 0.043553 0.003170 0.011059
# 5 -0.013282 0.009693 -0.020234 0.003170 0.081204 -0.015554
# 6 0.017364 -0.019346 0.005831 0.011059 -0.015554 0.086257
#
#
# Mechanical properties :
#
#
# Convention : Reuss Voigt Hill
#
# Bulk Modulus (GPa) = 31.63711 44.44208 38.03960
# Shear Modulus (GPa) = 16.09309 23.45128 19.77218
#
# Velocity S-wave (km/s) = 3.06909 3.70488 3.40187
# Velocity P-wave (km/s) = 5.57462 6.65684 6.13963
#
# Compressibility (1/GPa) = 0.03160845
#
# Stress axis : x y z
#
# Youngs Moduli (GPa) = 40.63722 52.17649 60.23530
#
# Poissons Ratio (x) = 0.45349 -0.06321
# Poissons Ratio (y) = 0.35320 0.40606
# Poissons Ratio (z) = -0.04264 0.35174
#
# Static dielectric constant tensor:
#      x y z
#    x 1.552340 0.002190 0.013550 
#    y 0.002190 1.615680 -0.016460 
#    z 0.013550 -0.016460 1.623700 
# 
# From -- ./inp_files/405665.got.cif
#   From: 2010.05.17/outbox.cif.g08.bks.cpg/sg2_203_cif.got.tgz:405665.got - 2010.06.03 11:33:40.
