data_PCOD9074500
_publ_section_title
;
Structure prediction by ZEFSAII (Michael W. Deem and Ramdas Pophale) SiO2 
 PCOD9074500
Probable space group: P -1
;
_chemical_formula_sum "Si O2"
_cell_formula_units_Z 14
_cell_length_a 12.000000
_cell_length_b 24.000000
_cell_length_c 21.000000
_cell_angle_alpha 160.000000
_cell_angle_beta 30.000000
_cell_angle_gamma 160.000000
_cell_volume 699.973605
_symmetry_space_group_name_H-M "P -1"
_symmetry_group_IT_number 2
_symmetry_cell_setting 'triclinic'
loop_
_space_group_symop_operation_xyz
x,y,z
-x,-y,-z
loop_
_atom_site_type_symbol
_atom_site_label
_atom_site_fract_x
_atom_site_fract_y
_atom_site_fract_z
Si Si1 0.798885 0.950576 0.723090
Si Si2 0.369920 0.251293 0.271557
Si Si3 0.048265 0.621677 0.954375
Si Si4 0.804880 0.050241 0.239111
Si Si5 0.179440 0.825417 0.365533
Si Si6 0.288287 0.483832 0.857613
Si Si7 0.252486 0.520224 0.433842
O O1 0.691695 0.885200 0.780051
O O2 0.485758 0.741622 0.607049
O O3 0.037636 0.920176 0.562969
O O4 0.955373 0.210143 0.903882
O O5 0.500000 0.500000 0.500000
O O6 0.615045 0.285291 0.138337
O O7 0.041353 0.106788 0.237821
O O8 0.823592 0.333257 0.755388
O O9 0.944784 0.631074 0.087378
O O10 0.039990 0.267773 0.305605
O O11 0.546127 0.037912 0.384740
O O12 0.558895 0.776340 0.040040
O O13 0.937310 0.640531 0.228060
O O14 0.506199 0.438330 0.691836
O O15 0.000000 0.500000 0.500000
#
# Coordination Sequence:
#
# PCOD9074500 Si02
#       7
#     2   2   2   2   2   2   2
#     4  11  25  44  68  98 133 180 215 274 334 381
#     4  12  23  47  66  93 135 177 231 263 327 392
#     4  11  23  42  70  93 130 178 219 271 326 389
#     4  11  23  41  71  95 129 182 214 271 329 392
#     4  10  23  44  68  99 138 171 212 277 332 400
#     4  10  24  43  65 101 132 175 214 267 346 387
#     4  11  25  38  67 104 136 163 219 278 326 401
#
# _framework density 20.000754000000001
#
# number of rings (size 3 to 8) (size 9 to 14) (size 15 to 20)
#    0.000    1.143    2.857    3.429    8.000    1.714 
#    0.000    2.857    0.000    0.000    0.000    0.000 
#    0.000    0.000    0.000    0.000    0.000    0.000 
#
# Total GULP energy -78074.475490 kJ/mol
# GULP energy per Si atom -5576.748249 kJ/mol
# Density = 1.995523 g / cm^3
# Si number density = 20.000754 Si / 1000 Ang^3
#
#
#
# Elastic Constant Matrix: (Units=GPa)
#
#
# Indices 1 2 3 4 5 6 
#
# 1 94.5283 39.3694 30.3208 -9.9421 -16.7068 -8.2747
# 2 39.3694 123.9795 33.7151 -34.6063 -0.1476 -8.0031
# 3 30.3208 33.7151 82.0760 -11.0729 -19.0020 -2.1069
# 4 -9.9421 -34.6063 -11.0729 44.3353 -4.3815 -6.8230
# 5 -16.7068 -0.1476 -19.0020 -4.3815 36.5500 4.2091
# 6 -8.2747 -8.0031 -2.1069 -6.8230 4.2091 41.4319
#
#
#
# Elastic Compliance Matrix: (Units=1/GPa)
#
#
# Indices 1 2 3 4 5 6 
#
# 1 0.013881 -0.003499 -0.002439 0.000500 0.004944 0.001552
# 2 -0.003499 0.012650 -0.003275 0.008514 -0.002604 0.003245
# 3 -0.002439 -0.003275 0.016410 0.001633 0.007691 -0.000798
# 4 0.000500 0.008514 0.001633 0.031131 0.004091 0.006539
# 5 0.004944 -0.002604 0.007691 0.004091 0.034321 -0.001938
# 6 0.001552 0.003245 -0.000798 0.006539 -0.001938 0.026306
#
#
# Mechanical properties :
#
#
# Convention : Reuss Voigt Hill
#
# Bulk Modulus (GPa) = 40.78870 56.37715 48.58292
# Shear Modulus (GPa) = 30.99877 37.60867 34.30372
#
# Velocity S-wave (km/s) = 3.94112 4.34102 4.14590
# Velocity P-wave (km/s) = 6.41465 7.30579 6.87468
#
# Compressibility (1/GPa) = 0.02451659
#
# Stress axis : x y z
#
# Youngs Moduli (GPa) = 72.04321 79.04962 60.93685
#
# Poissons Ratio (x) = 0.27659 0.14860
# Poissons Ratio (y) = 0.25207 0.19956
# Poissons Ratio (z) = 0.17569 0.25887
#
# Static dielectric constant tensor:
#      x y z
#    x 1.710320 -0.010690 -0.011390 
#    y -0.010690 1.728420 -0.024150 
#    z -0.011390 -0.024150 1.731330 
# 
# From -- ./inp_files/427093.got.cif
#   From: 2010.05.17/outbox.ucp.g08.bks.cvg/sg2_214_cif.got.tgz:427093.got - 2010.06.11 11:32:03.
