data_PCOD9074473
_publ_section_title
;
Structure prediction by ZEFSAII (Michael W. Deem and Ramdas Pophale) SiO2 
 PCOD9074473
Probable space group: P -1
;
_chemical_formula_sum "Si O2"
_cell_formula_units_Z 14
_cell_length_a 12.000000
_cell_length_b 15.000000
_cell_length_c 21.000000
_cell_angle_alpha 160.000000
_cell_angle_beta 30.000000
_cell_angle_gamma 150.000000
_cell_volume 615.533390
_symmetry_space_group_name_H-M "P -1"
_symmetry_group_IT_number 2
_symmetry_cell_setting 'triclinic'
loop_
_space_group_symop_operation_xyz
x,y,z
-x,-y,-z
loop_
_atom_site_type_symbol
_atom_site_label
_atom_site_fract_x
_atom_site_fract_y
_atom_site_fract_z
Si Si1 0.618944 0.574804 0.727869
Si Si2 0.522619 0.406385 0.519817
Si Si3 0.162065 0.867151 0.667246
Si Si4 0.817445 0.300325 0.907815
Si Si5 0.290565 0.518075 0.054104
Si Si6 0.747695 0.984041 0.141200
Si Si7 0.100322 0.274597 0.545667
O O1 0.503306 0.474358 0.648849
O O2 0.673375 0.311802 0.559840
O O3 0.889462 0.768830 0.715797
O O4 0.444287 0.718643 0.945717
O O5 0.291820 0.401867 0.591907
O O6 0.762819 0.604017 0.505038
O O7 0.567560 0.118735 0.287733
O O8 0.174263 0.818353 0.704010
O O9 0.254039 0.194812 0.845368
O O10 0.801698 0.418997 0.926137
O O11 0.914199 0.042338 0.670741
O O12 0.000000 0.500000 0.000000
O O13 0.567890 0.680569 0.035381
O O14 0.128043 0.631563 0.260656
O O15 0.000000 0.000000 0.000000
#
# Coordination Sequence:
#
# PCOD9074473 Si02
#       7
#     2   2   2   2   2   2   2
#     4  10  24  47  66  97 139 175 222 274 338 392
#     4  10  23  43  70  94 135 177 221 275 325 405
#     4  10  24  42  69  97 130 178 221 278 330 392
#     4  12  27  42  67  98 139 178 216 276 335 398
#     4  12  25  43  71  99 136 172 227 279 326 399
#     4  11  22  42  67  98 130 175 223 276 331 387
#     4  11  25  43  68 102 129 179 226 270 332 393
#
# _framework density 22.744501
#
# number of rings (size 3 to 8) (size 9 to 14) (size 15 to 20)
#    0.000    1.143    1.429    3.429   10.000    1.143 
#    0.000    0.000    0.000    0.000    0.000    0.000 
#    0.000    0.000    0.000    0.000    0.000    0.000 
#
# Total GULP energy -77963.413268 kJ/mol
# GULP energy per Si atom -5568.815233 kJ/mol
# Density = 2.269273 g / cm^3
# Si number density = 22.744501 Si / 1000 Ang^3
#
#
#
# Elastic Constant Matrix: (Units=GPa)
#
#
# Indices 1 2 3 4 5 6 
#
# 1 58.1746 20.1658 13.0528 2.4199 2.8421 15.1026
# 2 20.1658 95.1746 45.5993 -5.2956 -6.3125 26.3878
# 3 13.0528 45.5993 117.5861 -5.2337 -0.7300 3.7037
# 4 2.4199 -5.2956 -5.2337 56.1732 6.4748 -3.1234
# 5 2.8421 -6.3125 -0.7300 6.4748 32.4446 -3.3184
# 6 15.1026 26.3878 3.7037 -3.1234 -3.3184 38.1256
#
#
#
# Elastic Compliance Matrix: (Units=1/GPa)
#
#
# Indices 1 2 3 4 5 6 
#
# 1 0.020120 -0.001991 -0.001320 -0.001253 -0.002624 -0.006795
# 2 -0.001991 0.016688 -0.005909 0.000299 0.002209 -0.009971
# 3 -0.001320 -0.005909 0.010861 0.000777 -0.000580 0.003571
# 4 -0.001253 0.000299 0.000777 0.018422 -0.003344 0.001432
# 5 -0.002624 0.002209 -0.000580 -0.003344 0.032352 0.002109
# 6 -0.006795 -0.009971 0.003571 0.001432 0.002109 0.035776
#
#
# Mechanical properties :
#
#
# Convention : Reuss Voigt Hill
#
# Bulk Modulus (GPa) = 34.21167 47.61902 40.91535
# Shear Modulus (GPa) = 30.78820 38.15651 34.47235
#
# Velocity S-wave (km/s) = 3.68320 4.10031 3.89734
# Velocity P-wave (km/s) = 5.75867 6.58777 6.18712
#
# Compressibility (1/GPa) = 0.02922979
#
# Stress axis : x y z
#
# Youngs Moduli (GPa) = 49.70137 59.92495 92.07274
#
# Poissons Ratio (x) = 0.11929 0.12149
# Poissons Ratio (y) = 0.09894 0.54408
# Poissons Ratio (z) = 0.06558 0.35411
#
# Static dielectric constant tensor:
#      x y z
#    x 1.969780 -0.139950 -0.170060 
#    y -0.139950 2.041070 0.202690 
#    z -0.170060 0.202690 2.097400 
# 
# From -- ./inp_files/383321.got.cif
#   From: 2010.05.17/outbox.ucp.g08.bks.cvg/sg2_192_cif.got.tgz:383321.got - 2010.06.11 11:32:03.
