data_PCOD9074237
_publ_section_title
;
Structure prediction by ZEFSAII (Michael W. Deem and Ramdas Pophale) SiO2 
 PCOD9074237
Probable space group: P -1
;
_chemical_formula_sum "Si O2"
_cell_formula_units_Z 16
_cell_length_a 15.000000
_cell_length_b 9.000000
_cell_length_c 30.000000
_cell_angle_alpha 140.000000
_cell_angle_beta 160.000000
_cell_angle_gamma 50.000000
_cell_volume 833.890543
_symmetry_space_group_name_H-M "P -1"
_symmetry_group_IT_number 2
_symmetry_cell_setting 'triclinic'
loop_
_space_group_symop_operation_xyz
x,y,z
-x,-y,-z
loop_
_atom_site_type_symbol
_atom_site_label
_atom_site_fract_x
_atom_site_fract_y
_atom_site_fract_z
Si Si1 0.669708 0.849325 0.764640
Si Si2 0.667771 0.962564 0.892808
Si Si3 0.770650 0.035421 0.473971
Si Si4 0.178653 0.521045 0.731889
Si Si5 0.623021 0.496118 0.007366
Si Si6 0.255354 0.527786 0.661112
Si Si7 0.689309 0.716893 0.540310
Si Si8 0.774410 0.115718 0.599041
O O1 0.595982 0.894004 0.791298
O O2 0.509222 0.955588 0.677957
O O3 0.542250 0.554306 0.634110
O O4 0.996490 0.962750 0.932869
O O5 0.507196 0.747127 0.804045
O O6 0.602156 0.212567 0.926705
O O7 0.813111 0.123587 0.565694
O O8 0.005535 0.232624 0.598192
O O9 0.742926 0.750809 0.399045
O O10 0.447968 0.575574 0.903972
O O11 0.233059 0.571889 0.715171
O O12 0.967185 0.670526 0.677735
O O13 0.500000 0.500000 0.000000
O O14 0.948509 0.675338 0.202410
O O15 0.000000 0.500000 0.500000
O O16 0.523475 0.854400 0.523574
O O17 0.755380 0.863074 0.557788
#
# Coordination Sequence:
#
# PCOD9074237 Si02
#       8
#     2   2   2   2   2   2   2   2
#     4  10  22  44  69  92 127 168 221 268 319 382
#     4  11  24  43  67  94 130 171 211 270 330 372
#     4  11  22  41  67  95 124 172 216 266 318 385
#     4  11  24  41  68  96 130 168 218 265 325 378
#     4  12  25  44  65  96 136 172 210 266 324 391
#     4  12  24  42  67  97 131 164 218 269 324 382
#     4  10  23  44  64  98 122 176 217 265 314 385
#     4  11  23  43  68  92 134 173 216 261 322 385
#
# _framework density 19.187169999999998
#
# number of rings (size 3 to 8) (size 9 to 14) (size 15 to 20)
#    0.000    1.000    2.500    4.875    1.750    4.000 
#    4.500    0.000    0.000    0.000    0.000    0.000 
#    0.000    0.000    0.000    0.000    0.000    0.000 
#
# Total GULP energy -89193.920546 kJ/mol
# GULP energy per Si atom -5574.620034 kJ/mol
# Density = 1.914350 g / cm^3
# Si number density = 19.187170 Si / 1000 Ang^3
#
#
#
# Elastic Constant Matrix: (Units=GPa)
#
#
# Indices 1 2 3 4 5 6 
#
# 1 133.6624 48.2330 41.3057 -12.6185 5.4293 26.8735
# 2 48.2330 153.7282 48.8429 -4.9684 -0.7925 23.8560
# 3 41.3057 48.8429 96.0094 -21.2614 3.8188 17.4077
# 4 -12.6185 -4.9684 -21.2614 32.3497 13.6043 3.7781
# 5 5.4293 -0.7925 3.8188 13.6043 37.1911 4.7473
# 6 26.8735 23.8560 17.4077 3.7781 4.7473 42.2836
#
#
#
# Elastic Compliance Matrix: (Units=1/GPa)
#
#
# Indices 1 2 3 4 5 6 
#
# 1 0.010065 -0.001795 -0.001520 0.004169 -0.002254 -0.004878
# 2 -0.001795 0.008540 -0.003827 -0.002509 0.002023 -0.002105
# 3 -0.001520 -0.003827 0.016866 0.012818 -0.005729 -0.004321
# 4 0.004169 -0.002509 0.012818 0.049595 -0.018995 -0.008810
# 5 -0.002254 0.002023 -0.005729 -0.018995 0.034740 0.000446
# 6 -0.004878 -0.002105 -0.004321 -0.008810 0.000446 0.030454
#
#
# Mechanical properties :
#
#
# Convention : Reuss Voigt Hill
#
# Bulk Modulus (GPa) = 47.19593 73.35146 60.27370
# Shear Modulus (GPa) = 29.13673 38.69943 33.91808
#
# Velocity S-wave (km/s) = 3.90109 4.49591 4.20902
# Velocity P-wave (km/s) = 6.70391 8.07858 7.42313
#
# Compressibility (1/GPa) = 0.02118827
#
# Stress axis : x y z
#
# Youngs Moduli (GPa) = 99.35710 117.09611 59.29032
#
# Poissons Ratio (x) = 0.21018 0.09010
# Poissons Ratio (y) = 0.17834 0.22688
# Poissons Ratio (z) = 0.15099 0.44809
#
# Static dielectric constant tensor:
#      x y z
#    x 1.686440 -0.057040 -0.007010 
#    y -0.057040 1.688430 -0.000750 
#    z -0.007010 -0.000750 1.697760 
# 
# From -- ./inp_files/623442.got.cif
#   From: 2010.05.17/outbox.ucp.g08.bks.cvg/sg2_312_cif.got.tgz:623442.got - 2010.06.11 11:32:03.
