data_PCOD9074088
_publ_section_title
;
Structure prediction by ZEFSAII (Michael W. Deem and Ramdas Pophale) SiO2 
 PCOD9074088
Probable space group: P -1
;
_chemical_formula_sum "Si O2"
_cell_formula_units_Z 12
_cell_length_a 9.000000
_cell_length_b 9.000000
_cell_length_c 12.000000
_cell_angle_alpha 70.000000
_cell_angle_beta 90.000000
_cell_angle_gamma 140.000000
_cell_volume 529.002133
_symmetry_space_group_name_H-M "P -1"
_symmetry_group_IT_number 2
_symmetry_cell_setting 'triclinic'
loop_
_space_group_symop_operation_xyz
x,y,z
-x,-y,-z
loop_
_atom_site_type_symbol
_atom_site_label
_atom_site_fract_x
_atom_site_fract_y
_atom_site_fract_z
Si Si1 0.096455 0.231640 0.083757
Si Si2 0.884749 0.253600 0.488831
Si Si3 0.651777 0.229240 0.287171
Si Si4 0.618642 0.033298 0.104836
Si Si5 0.725446 0.628302 0.188127
Si Si6 0.740457 0.576252 0.707324
O O1 0.155665 0.321762 0.190087
O O2 0.304502 0.398033 0.940910
O O3 0.890418 0.182100 0.052429
O O4 0.946073 0.936435 0.149250
O O5 0.764283 0.202907 0.382036
O O6 0.000000 0.500000 0.500000
O O7 0.075525 0.282742 0.436268
O O8 0.643579 0.990709 0.628483
O O9 0.800660 0.516752 0.243531
O O10 0.659379 0.185234 0.170028
O O11 0.419230 0.725530 0.220541
O O12 0.500000 0.000000 0.000000
O O13 0.466145 0.463039 0.287956
#
# Coordination Sequence:
#
# PCOD9074088 Si02
#       6
#     2   2   2   2   2   2
#     4  10  22  42  61  93 137 170 199 264 322 378
#     4  11  24  43  68  89 127 172 216 266 310 366
#     4  11  24  42  64  97 125 166 219 264 309 375
#     4  11  23  37  67  99 125 164 217 260 321 381
#     4  10  24  39  64  95 130 167 209 260 321 383
#     4  11  22  42  64  91 129 171 210 258 320 378
#
# _framework density 22.684218999999999
#
# number of rings (size 3 to 8) (size 9 to 14) (size 15 to 20)
#    0.000    1.333    3.333    1.500    2.333    6.000 
#    0.000    1.667    0.000    0.000    0.000    0.000 
#    0.000    0.000    0.000    0.000    0.000    0.000 
#
# Total GULP energy -66976.472054 kJ/mol
# GULP energy per Si atom -5581.372671 kJ/mol
# Density = 2.263259 g / cm^3
# Si number density = 22.684219 Si / 1000 Ang^3
#
#
#
# Elastic Constant Matrix: (Units=GPa)
#
#
# Indices 1 2 3 4 5 6 
#
# 1 56.8136 16.1327 19.0218 -7.6281 -22.6135 -33.5284
# 2 16.1327 87.0452 6.7146 11.3946 -7.8939 -30.3675
# 3 19.0218 6.7146 46.4587 3.4281 -33.9954 -17.1494
# 4 -7.6281 11.3946 3.4281 33.4730 -4.6479 -1.3596
# 5 -22.6135 -7.8939 -33.9954 -4.6479 45.2640 7.4358
# 6 -33.5284 -30.3675 -17.1494 -1.3596 7.4358 33.9296
#
#
#
# Elastic Compliance Matrix: (Units=1/GPa)
#
#
# Indices 1 2 3 4 5 6 
#
# 1 0.175314 0.054158 0.119723 0.040257 0.149848 0.250999
# 2 0.054158 0.036146 0.047836 0.006608 0.053781 0.098525
# 3 0.119723 0.047836 0.147223 0.024727 0.147729 0.204149
# 4 0.040257 0.006608 0.024727 0.041315 0.035525 0.052063
# 5 0.149848 0.053781 0.147729 0.035525 0.182781 0.232245
# 6 0.250999 0.098525 0.204149 0.052063 0.232245 0.420060
#
#
# Mechanical properties :
#
#
# Convention : Reuss Voigt Hill
#
# Bulk Modulus (GPa) = 1.24670 30.45066 15.84868
# Shear Modulus (GPa) = 6.04759 32.42987 19.23873
#
# Velocity S-wave (km/s) = 1.63456 3.78514 2.91539
# Velocity P-wave (km/s) = 2.02809 5.70578 4.28188
#
# Compressibility (1/GPa) = 0.80211712
#
# Stress axis : x y z
#
# Youngs Moduli (GPa) = 5.70406 27.66593 6.79241
#
# Poissons Ratio (x) = -1.49834 -0.81321
# Poissons Ratio (y) = -0.30892 -0.32492
# Poissons Ratio (z) = -0.68291 -1.32343
#
# Static dielectric constant tensor:
#      x y z
#    x 1.896050 0.011800 0.000420 
#    y 0.011800 1.812000 -0.050670 
#    z 0.000420 -0.050670 1.916120 
# 
# From -- ./inp_files/18737.got.cif
#   From: 2010.05.17/outbox.ucp.g08.bks.cvg/sg2_10_cif.got.tgz:18737.got - 2010.06.11 11:32:03.
