data_PCOD9074849
_publ_section_title
;
Structure prediction by ZEFSAII (Michael W. Deem and Ramdas Pophale) SiO2 
 PCOD9074849
Probable space group: P -1
;
_chemical_formula_sum "Si O2"
_cell_formula_units_Z 16
_cell_length_a 15.000000
_cell_length_b 15.000000
_cell_length_c 15.000000
_cell_angle_alpha 40.000000
_cell_angle_beta 140.000000
_cell_angle_gamma 160.000000
_cell_volume 725.414092
_symmetry_space_group_name_H-M "P -1"
_symmetry_group_IT_number 2
_symmetry_cell_setting 'triclinic'
loop_
_space_group_symop_operation_xyz
x,y,z
-x,-y,-z
loop_
_atom_site_type_symbol
_atom_site_label
_atom_site_fract_x
_atom_site_fract_y
_atom_site_fract_z
Si Si1 0.113206 0.380354 0.863529
Si Si2 0.591372 0.917691 0.935962
Si Si3 0.789627 0.824637 0.835533
Si Si4 0.290649 0.574854 0.447785
Si Si5 0.266993 0.087032 0.760004
Si Si6 0.739610 0.109021 0.272146
Si Si7 0.800492 0.570306 0.307298
Si Si8 0.692066 0.664267 0.681265
O O1 0.106504 0.419098 0.723997
O O2 0.845139 0.186395 0.864302
O O3 0.387331 0.662793 0.907099
O O4 0.120026 0.218375 0.995595
O O5 0.382112 0.845117 0.876393
O O6 0.721357 0.958391 0.093046
O O7 0.503382 0.642458 0.781281
O O8 0.742976 0.711256 0.790586
O O9 0.006612 0.132075 0.757254
O O10 0.518485 0.871498 0.357693
O O11 0.216412 0.520375 0.538652
O O12 0.456369 0.574730 0.559503
O O13 0.024606 0.354252 0.352702
O O14 0.986810 0.934142 0.658679
O O15 0.255695 0.974771 0.751968
O O16 0.548625 0.408083 0.726040
#
# Coordination Sequence:
#
# PCOD9074849 Si02
#       8
#     2   2   2   2   2   2   2   2
#     4  12  23  40  67  99 128 170 215 264 328 384
#     4  12  25  45  65  97 133 167 223 273 314 376
#     4  11  19  38  63  99 136 163 199 264 338 387
#     4  11  25  45  64  96 136 170 219 259 319 391
#     4  12  23  43  68  98 127 164 221 272 335 373
#     4  12  27  45  67  89 130 186 219 263 314 381
#     4  11  23  39  66  96 133 170 208 259 327 394
#     4  11  22  39  70  98 133 164 202 278 331 383
#
# _framework density 22.056367999999999
#
# number of rings (size 3 to 8) (size 9 to 14) (size 15 to 20)
#    0.000    0.500    2.500    7.875    0.000    3.000 
#    0.000    7.500    0.000    0.000    0.000    0.000 
#    0.000    0.000    0.000    0.000    0.000    0.000 
#
# Total GULP energy -89327.681196 kJ/mol
# GULP energy per Si atom -5582.980075 kJ/mol
# Density = 2.200617 g / cm^3
# Si number density = 22.056368 Si / 1000 Ang^3
#
#
#
# Elastic Constant Matrix: (Units=GPa)
#
#
# Indices 1 2 3 4 5 6 
#
# 1 61.9621 13.0145 11.1093 11.6670 -4.9687 19.9389
# 2 13.0145 140.0716 16.3925 15.4377 -0.2389 32.1687
# 3 11.1093 16.3925 31.1802 27.1317 0.2569 12.0078
# 4 11.6670 15.4377 27.1317 32.9651 5.7131 1.3501
# 5 -4.9687 -0.2389 0.2569 5.7131 27.2837 1.6714
# 6 19.9389 32.1687 12.0078 1.3501 1.6714 26.3369
#
#
#
# Elastic Compliance Matrix: (Units=1/GPa)
#
#
# Indices 1 2 3 4 5 6 
#
# 1 -0.147683 -0.098925 -0.658748 0.652676 -0.189563 0.511552
# 2 -0.098925 -0.050326 -0.392525 0.389143 -0.114786 0.302664
# 3 -0.658748 -0.392525 -2.491945 2.514851 -0.751083 2.033063
# 4 0.652676 0.389143 2.514851 -2.498749 0.746498 -2.035313
# 5 -0.189563 -0.114786 -0.751083 0.746498 -0.184849 0.599621
# 6 0.511552 0.302664 2.033063 -2.035313 0.599621 -1.579648
#
#
# Mechanical properties :
#
#
# Convention : Reuss Voigt Hill
#
# Bulk Modulus (GPa) = -0.20039 34.91626 17.35794
# Shear Modulus (GPa) = -0.79161 30.16365 14.68602
#
# Velocity S-wave (km/s) = -0.59973 3.70208 2.58319
# Velocity P-wave (km/s) = 0.75540 5.84283 4.09683
#
# Compressibility (1/GPa) = -4.99035038
#
# Stress axis : x y z
#
# Youngs Moduli (GPa) = -6.77127 -19.87030 -0.40129
#
# Poissons Ratio (x) = -1.96567 -0.26435
# Poissons Ratio (y) = -0.66985 -0.15752
# Poissons Ratio (z) = -4.46056 -7.79960
#
# Static dielectric constant tensor:
#      x y z
#    x 1.839410 -0.034100 0.073200 
#    y -0.034100 1.779240 -0.072780 
#    z 0.073200 -0.072780 1.950000 
# 
# From -- ./inp_files/534267.got.cif
#   From: 2010.05.17/outbox.ucp.g08.bks.cvg/sg2_268_cif.got.tgz:534267.got - 2010.06.11 11:32:03.
