data_PCOD9074083
_publ_section_title
;
Structure prediction by ZEFSAII (Michael W. Deem and Ramdas Pophale) SiO2 
 PCOD9074083
Probable space group: P -1
;
_chemical_formula_sum "Si O2"
_cell_formula_units_Z 16
_cell_length_a 21.000000
_cell_length_b 12.000000
_cell_length_c 9.000000
_cell_angle_alpha 50.000000
_cell_angle_beta 40.000000
_cell_angle_gamma 30.000000
_cell_volume 727.418465
_symmetry_space_group_name_H-M "P -1"
_symmetry_group_IT_number 2
_symmetry_cell_setting 'triclinic'
loop_
_space_group_symop_operation_xyz
x,y,z
-x,-y,-z
loop_
_atom_site_type_symbol
_atom_site_label
_atom_site_fract_x
_atom_site_fract_y
_atom_site_fract_z
Si Si1 0.462938 0.596406 0.320460
Si Si2 0.142806 0.098710 0.477301
Si Si3 0.377443 0.826171 0.794780
Si Si4 0.897421 0.587452 0.899815
Si Si5 0.753258 0.742857 0.347579
Si Si6 0.059218 0.136421 0.936705
Si Si7 0.605614 0.607472 0.830649
Si Si8 0.067815 0.867549 0.338380
O O1 0.500000 0.500000 0.500000
O O2 0.520234 0.399597 0.285459
O O3 0.289089 0.836380 0.410216
O O4 0.558372 0.631210 0.064885
O O5 0.166053 0.240599 0.264997
O O6 0.108747 0.117825 0.696835
O O7 0.010095 0.195315 0.518934
O O8 0.454517 0.737221 0.895444
O O9 0.376313 0.995598 0.603381
O O10 0.198354 0.001831 0.923418
O O11 0.079068 0.421216 0.738878
O O12 0.913360 0.398283 0.003945
O O13 0.798009 0.715069 0.117389
O O14 0.676508 0.678205 0.586701
O O15 0.024381 0.010610 0.148137
O O16 0.752088 0.341064 0.777750
O O17 0.000000 0.000000 0.500000
#
# Coordination Sequence:
#
# PCOD9074083 Si02
#       8
#     2   2   2   2   2   2   2   2
#     4  12  25  44  65  98 135 177 216 267 332 397
#     4  12  24  44  68  95 135 176 217 269 334 389
#     4  11  23  41  68  93 131 176 219 268 325 389
#     4  10  22  41  71  96 132 167 220 274 335 388
#     4  10  22  42  66 102 129 167 220 281 326 384
#     4  11  24  43  66  97 134 175 219 271 331 395
#     4  12  23  42  68  97 132 171 223 271 329 390
#     4  12  25  40  67 102 130 169 226 278 324 386
#
# _framework density 21.995591999999998
#
# number of rings (size 3 to 8) (size 9 to 14) (size 15 to 20)
#    0.000    0.750    3.750    3.750    5.250    0.000 
#    0.000    0.625    0.000    0.000    0.000    0.000 
#    0.000    0.000    0.000    0.000    0.000    0.000 
#
# Total GULP energy -89166.525898 kJ/mol
# GULP energy per Si atom -5572.907869 kJ/mol
# Density = 2.194553 g / cm^3
# Si number density = 21.995592 Si / 1000 Ang^3
#
#
#
# Elastic Constant Matrix: (Units=GPa)
#
#
# Indices 1 2 3 4 5 6 
#
# 1 23.8448 7.3588 10.0089 -3.2553 -4.3392 -15.3001
# 2 7.3588 151.6209 25.0051 -23.7528 1.2442 -0.6720
# 3 10.0089 25.0051 82.7330 -17.7413 11.1343 -6.6592
# 4 -3.2553 -23.7528 -17.7413 45.4610 -6.2901 -4.0806
# 5 -4.3392 1.2442 11.1343 -6.2901 13.0338 -4.1114
# 6 -15.3001 -0.6720 -6.6592 -4.0806 -4.1114 28.7812
#
#
#
# Elastic Compliance Matrix: (Units=1/GPa)
#
#
# Indices 1 2 3 4 5 6 
#
# 1 0.109363 -0.000287 -0.014156 0.019366 0.079634 0.068977
# 2 -0.000287 0.007441 -0.001753 0.003584 0.002576 0.000492
# 3 -0.014156 -0.001753 0.016817 0.001246 -0.020330 -0.006403
# 4 0.019366 0.003584 0.001246 0.031015 0.025929 0.018768
# 5 0.079634 0.002576 -0.020330 0.025929 0.152804 0.063194
# 6 0.068977 0.000492 -0.006403 0.018768 0.063194 0.081631
#
#
# Mechanical properties :
#
#
# Convention : Reuss Voigt Hill
#
# Bulk Modulus (GPa) = 9.87853 38.10490 23.99172
# Shear Modulus (GPa) = 10.74790 31.84358 21.29574
#
# Velocity S-wave (km/s) = 2.21292 3.80903 3.11494
# Velocity P-wave (km/s) = 3.32118 6.05858 4.88552
#
# Compressibility (1/GPa) = 0.10122961
#
# Stress axis : x y z
#
# Youngs Moduli (GPa) = 9.14382 134.39296 59.46261
#
# Poissons Ratio (x) = 0.03858 0.84176
# Poissons Ratio (y) = 0.00262 0.10423
# Poissons Ratio (z) = 0.12944 0.23557
#
# Static dielectric constant tensor:
#      x y z
#    x 1.894530 0.063790 -0.086450 
#    y 0.063790 1.847600 -0.063740 
#    z -0.086450 -0.063740 1.860240 
# 
# From -- ./inp_files/188589.got.cif
#   From: 2010.05.17/outbox.ucp.g08.bks.cvg/sg2_95_cif.got.tgz:188589.got - 2010.06.11 11:32:03.
