data_PCOD9074649
_publ_section_title
;
Structure prediction by ZEFSAII (Michael W. Deem and Ramdas Pophale) SiO2 
 PCOD9074649
Probable space group: P -1
;
_chemical_formula_sum "Si O2"
_cell_formula_units_Z 16
_cell_length_a 12.000000
_cell_length_b 9.000000
_cell_length_c 18.000000
_cell_angle_alpha 60.000000
_cell_angle_beta 150.000000
_cell_angle_gamma 130.000000
_cell_volume 736.400153
_symmetry_space_group_name_H-M "P -1"
_symmetry_group_IT_number 2
_symmetry_cell_setting 'triclinic'
loop_
_space_group_symop_operation_xyz
x,y,z
-x,-y,-z
loop_
_atom_site_type_symbol
_atom_site_label
_atom_site_fract_x
_atom_site_fract_y
_atom_site_fract_z
Si Si1 0.279902 0.520540 0.665098
Si Si2 0.023842 0.904733 0.418856
Si Si3 0.498599 0.133727 0.534885
Si Si4 0.376738 0.854364 0.746556
Si Si5 0.949565 0.139525 0.990893
Si Si6 0.735453 0.144066 0.153679
Si Si7 0.668695 0.637032 0.724061
Si Si8 0.892269 0.435622 0.805315
O O1 0.399792 0.686933 0.754824
O O2 0.447707 0.573862 0.674138
O O3 0.000000 0.500000 0.500000
O O4 0.202508 0.297982 0.692850
O O5 0.135066 0.873640 0.569646
O O6 0.278546 0.980360 0.498815
O O7 0.911164 0.050790 0.306274
O O8 0.411398 0.278569 0.412487
O O9 0.736520 0.277158 0.689458
O O10 0.500000 0.000000 0.500000
O O11 0.357037 0.811230 0.833022
O O12 0.646009 0.049831 0.843183
O O13 0.055217 0.351256 0.961609
O O14 0.085126 0.186538 0.137297
O O15 0.000000 0.000000 0.000000
O O16 0.921477 0.349023 0.171148
O O17 0.500000 0.000000 0.000000
O O18 0.722753 0.470351 0.761821
#
# Coordination Sequence:
#
# PCOD9074649 Si02
#       8
#     2   2   2   2   2   2   2   2
#     4  10  24  43  71 107 140 190 241 294 354 425
#     4  11  25  46  70 104 143 191 239 295 358 428
#     4  12  25  45  73 107 143 186 246 298 356 426
#     4  11  24  47  73 103 141 194 243 287 361 433
#     4  12  25  48  74 105 141 188 243 301 361 433
#     4  12  29  48  69 110 151 186 238 297 363 427
#     4  12  25  45  74 103 146 186 244 302 355 426
#     4  12  28  47  72 107 143 191 241 300 366 425
#
# _framework density 21.727318
#
# number of rings (size 3 to 8) (size 9 to 14) (size 15 to 20)
#    0.000    0.500    3.750    4.125    8.750    0.000 
#    0.000    1.250    0.000    0.000    0.000    0.000 
#    0.000    0.000    0.000    0.000    0.000    0.000 
#
# Total GULP energy -89324.961429 kJ/mol
# GULP energy per Si atom -5582.810089 kJ/mol
# Density = 2.167787 g / cm^3
# Si number density = 21.727318 Si / 1000 Ang^3
#
#
#
# Elastic Constant Matrix: (Units=GPa)
#
#
# Indices 1 2 3 4 5 6 
#
# 1 129.5719 37.0988 21.7527 8.8832 -14.4068 -9.7444
# 2 37.0988 86.4059 -6.0010 8.2636 12.2843 13.2185
# 3 21.7527 -6.0010 73.4041 14.8957 -6.4882 8.5758
# 4 8.8832 8.2636 14.8957 46.6892 -5.7630 3.1064
# 5 -14.4068 12.2843 -6.4882 -5.7630 27.6574 -3.1666
# 6 -9.7444 13.2185 8.5758 3.1064 -3.1666 26.7521
#
#
#
# Elastic Compliance Matrix: (Units=1/GPa)
#
#
# Indices 1 2 3 4 5 6 
#
# 1 0.013886 -0.010300 -0.005753 0.001655 0.012321 0.013258
# 2 -0.010300 0.022069 0.006487 -0.004874 -0.016739 -0.018151
# 3 -0.005753 0.006487 0.017893 -0.005542 -0.004080 -0.010876
# 4 0.001655 -0.004874 -0.005542 0.024429 0.007137 0.002796
# 5 0.012321 -0.016739 -0.004080 0.007137 0.052771 0.019485
# 6 0.013258 -0.018151 -0.010876 0.002796 0.019485 0.056646
#
#
# Mechanical properties :
#
#
# Convention : Reuss Voigt Hill
#
# Bulk Modulus (GPa) = 28.80527 43.89808 36.35168
# Shear Modulus (GPa) = 22.89410 35.98850 29.44130
#
# Velocity S-wave (km/s) = 3.24960 4.07427 3.68507
# Velocity P-wave (km/s) = 5.23128 6.51006 5.90538
#
# Compressibility (1/GPa) = 0.03471587
#
# Stress axis : x y z
#
# Youngs Moduli (GPa) = 72.01501 45.31308 55.88809
#
# Poissons Ratio (x) = 0.46671 0.32151
# Poissons Ratio (y) = 0.74173 -0.36252
# Poissons Ratio (z) = 0.41428 -0.29392
#
# Static dielectric constant tensor:
#      x y z
#    x 1.811630 0.001720 0.017160 
#    y 0.001720 1.865470 -0.020790 
#    z 0.017160 -0.020790 1.787860 
# 
# From -- ./inp_files/283480.got.cif
#   From: 2010.05.17/outbox.ucp.g08.bks.cvg/sg2_142_cif.got.tgz:283480.got - 2010.06.11 11:32:03.
