data_PCOD9074465
_publ_section_title
;
Structure prediction by ZEFSAII (Michael W. Deem and Ramdas Pophale) SiO2 
 PCOD9074465
Probable space group: P -1
;
_chemical_formula_sum "Si O2"
_cell_formula_units_Z 16
_cell_length_a 12.644083
_cell_length_b 15.765668
_cell_length_c 7.809197
_cell_angle_alpha 54.653863
_cell_angle_beta 118.610444
_cell_angle_gamma 151.082259
_cell_volume 612.499299
_symmetry_space_group_name_H-M "P -1"
_symmetry_group_IT_number 2
_symmetry_cell_setting 'triclinic'
loop_
_space_group_symop_operation_xyz
x,y,z
-x,-y,-z
loop_
_atom_site_type_symbol
_atom_site_label
_atom_site_fract_x
_atom_site_fract_y
_atom_site_fract_z
Si Si1 0.526380 0.420448 0.237601
Si Si2 0.941830 0.226192 0.464213
Si Si3 0.211148 0.674164 0.622510
Si Si4 0.263195 0.062552 0.817951
Si Si5 0.390657 0.157376 0.157181
Si Si6 0.941352 0.661198 0.139199
Si Si7 0.173146 0.275993 0.314735
Si Si8 0.471871 0.066735 0.756627
O O1 0.436971 0.262027 0.236670
O O2 0.785011 0.585682 0.262490
O O3 0.374778 0.342822 0.369907
O O4 0.500000 0.500000 0.000000
O O5 0.932378 0.334601 0.409769
O O6 0.769616 0.117037 0.298397
O O7 0.134441 0.298909 0.441241
O O8 0.812500 0.056642 0.687050
O O9 0.400891 0.769456 0.788570
O O10 0.065355 0.466879 0.721737
O O11 0.358573 0.810694 0.412120
O O12 0.168417 0.884522 0.032853
O O13 0.333687 0.172463 0.916131
O O14 0.461294 0.171250 0.722605
O O15 0.046188 0.936449 0.690459
O O16 0.809619 0.610925 0.929720
O O17 0.500000 0.000000 0.000000
#
# Coordination Sequence:
#
# PCOD9074465 Si02
#       8
#     2   2   2   2   2   2   2   2
#     4   9  17  35  57  77 103 142 178 221 271 315
#     4  10  19  32  52  81 107 140 184 219 254 319
#     4  10  19  33  57  78 109 146 179 213 266 314
#     4   9  18  33  53  79 112 134 180 217 265 314
#     4  10  19  32  56  82 104 143 179 218 260 328
#     4   8  18  35  55  78 107 142 176 221 266 316
#     4   8  18  33  53  78 107 138 180 220 263 310
#     4  10  18  32  51  76 108 144 176 216 260 320
#
# _framework density 26.122478999999998
#
# number of rings (size 3 to 8) (size 9 to 14) (size 15 to 20)
#    0.750    2.000    0.000    3.000    0.000    1.500 
#    0.000    2.500    8.250    0.750    0.000    0.000 
#    0.000    0.000    0.000    0.000    0.000    0.000 
#
# Total GULP energy -89342.190516 kJ/mol
# GULP energy per Si atom -5583.886907 kJ/mol
# Density = 2.606302 g / cm^3
# Si number density = 26.122479 Si / 1000 Ang^3
#
#
#
# Elastic Constant Matrix: (Units=GPa)
#
#
# Indices 1 2 3 4 5 6 
#
# 1 176.7915 33.8729 24.9337 16.2035 -16.1066 8.7305
# 2 33.8729 67.4771 1.6687 1.4079 -6.1631 0.1309
# 3 24.9337 1.6687 80.4075 15.3435 -1.8784 -14.7523
# 4 16.2035 1.4079 15.3435 24.5187 -12.2228 -4.6075
# 5 -16.1066 -6.1631 -1.8784 -12.2228 46.3878 -0.6215
# 6 8.7305 0.1309 -14.7523 -4.6075 -0.6215 30.4797
#
#
#
# Elastic Compliance Matrix: (Units=1/GPa)
#
#
# Indices 1 2 3 4 5 6 
#
# 1 0.007186 -0.003384 -0.002146 -0.003374 0.001022 -0.003571
# 2 -0.003384 0.016604 0.000651 0.001960 0.001595 0.001542
# 3 -0.002146 0.000651 0.015912 -0.008311 -0.002110 0.007014
# 4 -0.003374 0.001960 -0.008311 0.055930 0.013566 0.005667
# 5 0.001022 0.001595 -0.002110 0.013566 0.025630 0.001252
# 6 -0.003571 0.001542 0.007014 0.005667 0.001252 0.038102
#
#
# Mechanical properties :
#
#
# Convention : Reuss Voigt Hill
#
# Bulk Modulus (GPa) = 33.39483 49.51407 41.45445
# Shear Modulus (GPa) = 27.91694 37.89064 32.90379
#
# Velocity S-wave (km/s) = 3.27264 3.81267 3.55293
# Velocity P-wave (km/s) = 5.20499 6.19497 5.72143
#
# Compressibility (1/GPa) = 0.02994476
#
# Stress axis : x y z
#
# Youngs Moduli (GPa) = 139.16042 60.22633 62.84593
#
# Poissons Ratio (x) = 0.20378 0.13485
# Poissons Ratio (y) = 0.47086 -0.04089
# Poissons Ratio (z) = 0.29860 -0.03919
#
# Static dielectric constant tensor:
#      x y z
#    x 2.106130 -0.034410 -0.042630 
#    y -0.034410 2.160890 0.025300 
#    z -0.042630 0.025300 2.112110 
# 
# From -- ./inp_files/270027.got.cif
#   From: 2010.05.17/outbox.cif.g08.bks.cpg/sg2_136_cif.got.tgz:270027.got - 2010.06.03 11:33:40.
