data_PCOD9074263
_publ_section_title
;
Structure prediction by ZEFSAII (Michael W. Deem and Ramdas Pophale) SiO2 
 PCOD9074263
Probable space group: P -1
;
_chemical_formula_sum "Si O2"
_cell_formula_units_Z 16
_cell_length_a 6.000000
_cell_length_b 15.000000
_cell_length_c 9.000000
_cell_angle_alpha 70.000000
_cell_angle_beta 80.000000
_cell_angle_gamma 100.000000
_cell_volume 725.431091
_symmetry_space_group_name_H-M "P -1"
_symmetry_group_IT_number 2
_symmetry_cell_setting 'triclinic'
loop_
_space_group_symop_operation_xyz
x,y,z
-x,-y,-z
loop_
_atom_site_type_symbol
_atom_site_label
_atom_site_fract_x
_atom_site_fract_y
_atom_site_fract_z
Si Si1 0.248237 0.427309 0.103725
Si Si2 0.349985 0.227937 0.307452
Si Si3 0.011076 0.875969 0.369462
Si Si4 0.076880 0.459999 0.796556
Si Si5 0.031593 0.673223 0.388370
Si Si6 0.461456 0.632993 0.547197
Si Si7 0.749012 0.944289 0.122676
Si Si8 0.581419 0.928161 0.834170
O O1 0.282406 0.321415 0.193204
O O2 0.104386 0.470967 0.219110
O O3 0.500000 0.500000 0.000000
O O4 0.088671 0.419622 0.981763
O O5 0.529806 0.279577 0.385289
O O6 0.447569 0.162646 0.218496
O O7 0.113810 0.157378 0.442242
O O8 0.112421 0.789112 0.343590
O O9 0.797241 0.874244 0.282843
O O10 0.195690 0.981158 0.285625
O O11 0.989248 0.370915 0.747335
O O12 0.337163 0.526400 0.690950
O O13 0.743396 0.644328 0.479580
O O14 0.253485 0.637902 0.452110
O O15 0.632902 0.022564 0.166992
O O16 0.609427 0.898804 0.018971
O O17 0.000000 0.000000 0.000000
#
# Coordination Sequence:
#
# PCOD9074263 Si02
#       8
#     2   2   2   2   2   2   2   2
#     4  11  25  47  66 102 146 185 246 297 348 439
#     4  11  24  45  71 103 140 189 232 299 360 422
#     4  10  23  43  67 107 139 179 239 294 340 437
#     4  11  24  45  70  99 141 193 235 297 361 419
#     4  11  26  42  76 105 143 189 235 297 365 419
#     4  11  24  46  68 109 142 181 246 296 349 438
#     4   9  21  45  63  99 140 174 241 291 341 427
#     4  10  22  44  73  98 140 187 229 291 363 418
#
# _framework density 22.055851000000001
#
# number of rings (size 3 to 8) (size 9 to 14) (size 15 to 20)
#    0.000    1.500    1.250    2.625    7.000    0.500 
#   20.250    0.000    0.000    0.000    0.000    0.000 
#    0.000    0.000    0.000    0.000    0.000    0.000 
#
# Total GULP energy -89197.733289 kJ/mol
# GULP energy per Si atom -5574.858331 kJ/mol
# Density = 2.200565 g / cm^3
# Si number density = 22.055851 Si / 1000 Ang^3
#
#
#
# Elastic Constant Matrix: (Units=GPa)
#
#
# Indices 1 2 3 4 5 6 
#
# 1 69.9114 -27.9223 34.5308 1.7240 4.2546 -4.7688
# 2 -27.9223 27.7198 37.3817 34.5879 -4.4270 -2.4540
# 3 34.5308 37.3817 64.4286 0.3538 10.7004 -19.5961
# 4 1.7240 34.5879 0.3538 30.6746 -2.3818 -14.4138
# 5 4.2546 -4.4270 10.7004 -2.3818 22.0671 -6.5618
# 6 -4.7688 -2.4540 -19.5961 -14.4138 -6.5618 6.7028
#
#
#
# Elastic Compliance Matrix: (Units=1/GPa)
#
#
# Indices 1 2 3 4 5 6 
#
# 1 0.027766 0.019425 -0.003808 0.021104 0.029399 0.089894
# 2 0.019425 0.037247 0.003229 0.027419 0.047434 0.142297
# 3 -0.003808 0.003229 0.008754 -0.019116 -0.014097 -0.030844
# 4 0.021104 0.027419 -0.019116 0.021841 0.025188 0.040791
# 5 0.029399 0.047434 -0.014097 0.025188 0.104321 0.153359
# 6 0.089894 0.142297 -0.030844 0.040791 0.153359 0.412921
#
#
# Mechanical properties :
#
#
# Convention : Reuss Voigt Hill
#
# Bulk Modulus (GPa) = 8.97196 27.78226 18.37711
# Shear Modulus (GPa) = 8.16580 19.76021 13.96300
#
# Velocity S-wave (km/s) = 1.92623 2.99643 2.51883
# Velocity P-wave (km/s) = 3.00397 4.95935 4.09994
#
# Compressibility (1/GPa) = 0.11145833
#
# Stress axis : x y z
#
# Youngs Moduli (GPa) = 36.01591 26.84747 114.23763
#
# Poissons Ratio (x) = -0.52151 0.43507
# Poissons Ratio (y) = -0.69961 -0.36891
# Poissons Ratio (z) = 0.13717 -0.08670
#
# Static dielectric constant tensor:
#      x y z
#    x 1.827570 -0.023150 0.028820 
#    y -0.023150 1.757960 -0.006000 
#    z 0.028820 -0.006000 1.911130 
# 
# From -- ./inp_files/134938.got.cif
#   From: 2010.05.17/outbox.ucp.g08.bks.cvg/sg2_68_cif.got.tgz:134938.got - 2010.06.11 11:32:03.
