data_PCOD9074224
_publ_section_title
;
Structure prediction by ZEFSAII (Michael W. Deem and Ramdas Pophale) SiO2 
 PCOD9074224
Probable space group: P -1
;
_chemical_formula_sum "Si O2"
_cell_formula_units_Z 16
_cell_length_a 15.000000
_cell_length_b 12.000000
_cell_length_c 12.000000
_cell_angle_alpha 100.000000
_cell_angle_beta 60.000000
_cell_angle_gamma 150.000000
_cell_volume 748.962810
_symmetry_space_group_name_H-M "P -1"
_symmetry_group_IT_number 2
_symmetry_cell_setting 'triclinic'
loop_
_space_group_symop_operation_xyz
x,y,z
-x,-y,-z
loop_
_atom_site_type_symbol
_atom_site_label
_atom_site_fract_x
_atom_site_fract_y
_atom_site_fract_z
Si Si1 0.878653 0.577865 0.285479
Si Si2 0.400284 0.743628 0.239592
Si Si3 0.302784 0.861412 0.182185
Si Si4 0.240194 0.322719 0.012470
Si Si5 0.543119 0.304469 0.251361
Si Si6 0.718712 0.868406 0.952203
Si Si7 0.579505 0.955934 0.402163
Si Si8 0.912706 0.133101 0.366217
O O1 0.738379 0.428679 0.227881
O O2 0.652625 0.359680 0.475795
O O3 0.055830 0.653730 0.231840
O O4 0.037842 0.851800 0.221621
O O5 0.284115 0.744221 0.265717
O O6 0.569406 0.944717 0.274906
O O7 0.152029 0.413104 0.340197
O O8 0.598516 0.866545 0.067274
O O9 0.410705 0.082784 0.211632
O O10 0.500000 0.000000 0.000000
O O11 0.216400 0.161597 0.000631
O O12 0.027255 0.161526 0.204011
O O13 0.296896 0.444875 0.880951
O O14 0.506161 0.608397 0.958354
O O15 0.323030 0.129648 0.445738
O O16 0.500000 0.000000 0.500000
O O17 0.815543 0.141089 0.352389
#
# Coordination Sequence:
#
# PCOD9074224 Si02
#       8
#     2   2   2   2   2   2   2   2
#     4  11  23  41  62  96 131 163 217 267 316 389
#     4  11  22  40  66  91 130 173 208 266 330 380
#     4  12  22  39  64  96 130 169 214 262 324 391
#     4  10  22  45  71  89 135 171 216 279 316 383
#     4  11  24  41  66  97 129 171 215 264 330 386
#     4  10  22  44  65  98 125 169 223 267 323 381
#     4  11  24  41  61  97 135 168 213 266 320 392
#     4  10  23  43  63  97 128 171 221 260 326 387
#
# _framework density 21.362876
#
# number of rings (size 3 to 8) (size 9 to 14) (size 15 to 20)
#    0.000    1.250    2.500    3.750    1.750    2.500 
#    2.250    3.125    0.000    0.000    0.000    0.000 
#    0.000    0.000    0.000    0.000    0.000    0.000 
#
# Total GULP energy -89156.694681 kJ/mol
# GULP energy per Si atom -5572.293418 kJ/mol
# Density = 2.131425 g / cm^3
# Si number density = 21.362876 Si / 1000 Ang^3
#
#
#
# Elastic Constant Matrix: (Units=GPa)
#
#
# Indices 1 2 3 4 5 6 
#
# 1 110.1193 14.6475 11.1959 -3.5303 10.4272 -1.1862
# 2 14.6475 57.2887 19.1891 -1.9637 -0.4148 11.0744
# 3 11.1959 19.1891 69.3244 -10.0917 6.1420 -7.0924
# 4 -3.5303 -1.9637 -10.0917 15.7755 7.6415 8.3501
# 5 10.4272 -0.4148 6.1420 7.6415 31.5651 -6.3335
# 6 -1.1862 11.0744 -7.0924 8.3501 -6.3335 38.1608
#
#
#
# Elastic Compliance Matrix: (Units=1/GPa)
#
#
# Indices 1 2 3 4 5 6 
#
# 1 0.009956 -0.002272 0.000017 0.004606 -0.004597 -0.000799
# 2 -0.002272 0.021728 -0.006096 0.002585 -0.000025 -0.008079
# 3 0.000017 -0.006096 0.018898 0.014182 -0.006992 0.001018
# 4 0.004606 0.002585 0.014182 0.104930 -0.035015 -0.026743
# 5 -0.004597 -0.000025 -0.006992 -0.035015 0.045811 0.013830
# 6 -0.000799 -0.008079 0.001018 -0.026743 0.013830 0.036861
#
#
# Mechanical properties :
#
#
# Convention : Reuss Voigt Hill
#
# Bulk Modulus (GPa) = 29.51557 36.31082 32.91319
# Shear Modulus (GPa) = 18.78439 29.88027 24.33233
#
# Velocity S-wave (km/s) = 2.96852 3.74398 3.37857
# Velocity P-wave (km/s) = 5.05922 5.97695 5.53713
#
# Compressibility (1/GPa) = 0.03388043
#
# Stress axis : x y z
#
# Youngs Moduli (GPa) = 100.44263 46.02304 52.91701
#
# Poissons Ratio (x) = 0.10458 -0.00091
# Poissons Ratio (y) = 0.22823 0.32256
# Poissons Ratio (z) = -0.00172 0.28053
#
# Static dielectric constant tensor:
#      x y z
#    x 1.817950 0.004930 0.059920 
#    y 0.004930 1.806960 -0.031400 
#    z 0.059920 -0.031400 1.828360 
# 
# From -- ./inp_files/452472.got.cif
#   From: 2010.05.17/outbox.ucp.g08.bks.cvg/sg2_227_cif.got.tgz:452472.got - 2010.06.11 11:32:03.
