data_PCOD9074714
_publ_section_title
;
Structure prediction by ZEFSAII (Michael W. Deem and Ramdas Pophale) SiO2 
 PCOD9074714
Probable space group: P -1
;
_chemical_formula_sum "Si O2"
_cell_formula_units_Z 12
_cell_length_a 6.000000
_cell_length_b 12.000000
_cell_length_c 9.000000
_cell_angle_alpha 60.000000
_cell_angle_beta 110.000000
_cell_angle_gamma 110.000000
_cell_volume 515.566255
_symmetry_space_group_name_H-M "P -1"
_symmetry_group_IT_number 2
_symmetry_cell_setting 'triclinic'
loop_
_space_group_symop_operation_xyz
x,y,z
-x,-y,-z
loop_
_atom_site_type_symbol
_atom_site_label
_atom_site_fract_x
_atom_site_fract_y
_atom_site_fract_z
Si Si1 0.798381 0.088769 0.370516
Si Si2 0.246386 0.492455 0.248201
Si Si3 0.930032 0.845758 0.105908
Si Si4 0.382880 0.844686 0.393520
Si Si5 0.079732 0.313862 0.069453
Si Si6 0.340747 0.321502 0.602995
O O1 0.727705 0.144537 0.475309
O O2 0.907475 0.205659 0.205416
O O3 0.562566 0.987543 0.321691
O O4 0.000000 0.000000 0.500000
O O5 0.152015 0.394324 0.429829
O O6 0.494222 0.576671 0.315932
O O7 0.260548 0.409212 0.157366
O O8 0.073351 0.591080 0.106467
O O9 0.758440 0.803057 0.234935
O O10 0.181293 0.812930 0.240970
O O11 0.827488 0.768228 0.985775
O O12 0.000000 0.000000 0.000000
O O13 0.529769 0.731361 0.472109
#
# Coordination Sequence:
#
# PCOD9074714 Si02
#       6
#     2   2   2   2   2   2
#     4  11  24  44  71  99 140 178 228 282 343 409
#     4  10  24  46  67  96 138 189 226 279 327 413
#     4  12  26  41  71 103 137 174 229 291 342 400
#     4  11  23  43  69  99 134 184 220 284 346 401
#     4  11  23  45  67 102 136 177 234 279 343 393
#     4  11  24  47  68  99 137 181 234 269 349 405
#
# _framework density 23.275379000000001
#
# number of rings (size 3 to 8) (size 9 to 14) (size 15 to 20)
#    0.000    1.000    1.667    5.000    2.333    4.000 
#   12.000    0.000    0.000    0.000    0.000    0.000 
#    0.000    0.000    0.000    0.000    0.000    0.000 
#
# Total GULP energy -67066.168038 kJ/mol
# GULP energy per Si atom -5588.847336 kJ/mol
# Density = 2.322240 g / cm^3
# Si number density = 23.275379 Si / 1000 Ang^3
#
#
#
# Elastic Constant Matrix: (Units=GPa)
#
#
# Indices 1 2 3 4 5 6 
#
# 1 55.1099 27.6478 35.6490 0.3864 -16.5249 -17.6579
# 2 27.6478 149.8270 51.1644 26.7336 -8.1454 -24.0542
# 3 35.6490 51.1644 138.1658 -4.7001 -10.0547 -23.6422
# 4 0.3864 26.7336 -4.7001 37.2778 6.3077 2.7411
# 5 -16.5249 -8.1454 -10.0547 6.3077 28.5672 6.8111
# 6 -17.6579 -24.0542 -23.6422 2.7411 6.8111 33.2600
#
#
#
# Elastic Compliance Matrix: (Units=1/GPa)
#
#
# Indices 1 2 3 4 5 6 
#
# 1 0.028343 -0.001034 -0.004609 -0.002980 0.013088 0.008589
# 2 -0.001034 0.010256 -0.002788 -0.008409 0.001967 0.005176
# 3 -0.004609 -0.002788 0.009919 0.003332 -0.001322 0.002583
# 4 -0.002980 -0.008409 0.003332 0.035336 -0.009245 -0.006314
# 5 0.013088 0.001967 -0.001322 -0.009245 0.044955 -0.001012
# 6 0.008589 0.005176 0.002583 -0.006314 -0.001012 0.040933
#
#
# Mechanical properties :
#
#
# Convention : Reuss Voigt Hill
#
# Bulk Modulus (GPa) = 31.59111 63.55834 47.57472
# Shear Modulus (GPa) = 25.36058 35.06376 30.21217
#
# Velocity S-wave (km/s) = 3.30447 3.88554 3.60673
# Velocity P-wave (km/s) = 5.30675 6.89176 6.15053
#
# Compressibility (1/GPa) = 0.03165448
#
# Stress axis : x y z
#
# Youngs Moduli (GPa) = 35.28155 97.50592 100.82087
#
# Poissons Ratio (x) = 0.10084 0.46472
# Poissons Ratio (y) = 0.03649 0.28110
# Poissons Ratio (z) = 0.16262 0.27186
#
# Static dielectric constant tensor:
#      x y z
#    x 1.930550 0.020280 0.024780 
#    y 0.020280 1.883510 -0.052060 
#    z 0.024780 -0.052060 1.896410 
# 
# From -- ./inp_files/21673.got.cif
#   From: 2010.05.17/outbox.ucp.g08.bks.cvg/sg2_11_cif.got.tgz:21673.got - 2010.06.11 11:32:03.
