data_PCOD9074753
_publ_section_title
;
Structure prediction by ZEFSAII (Michael W. Deem and Ramdas Pophale) SiO2 
 PCOD9074753
Probable space group: P -1
;
_chemical_formula_sum "Si O2"
_cell_formula_units_Z 16
_cell_length_a 15.000000
_cell_length_b 9.000000
_cell_length_c 15.000000
_cell_angle_alpha 140.000000
_cell_angle_beta 40.000000
_cell_angle_gamma 140.000000
_cell_volume 753.872439
_symmetry_space_group_name_H-M "P -1"
_symmetry_group_IT_number 2
_symmetry_cell_setting 'triclinic'
loop_
_space_group_symop_operation_xyz
x,y,z
-x,-y,-z
loop_
_atom_site_type_symbol
_atom_site_label
_atom_site_fract_x
_atom_site_fract_y
_atom_site_fract_z
Si Si1 0.610891 0.518385 0.540680
Si Si2 0.689130 0.932463 0.795929
Si Si3 0.743920 0.788550 0.971314
Si Si4 0.472921 0.775255 0.051122
Si Si5 0.283391 0.232190 0.608220
Si Si6 0.004740 0.645150 0.153998
Si Si7 0.824867 0.241783 0.249555
Si Si8 0.957307 0.267100 0.356099
O O1 0.718006 0.715369 0.622920
O O2 0.426081 0.392428 0.638710
O O3 0.635728 0.697149 0.516917
O O4 0.675845 0.304658 0.383937
O O5 0.622249 0.064943 0.834006
O O6 0.552539 0.772729 0.895219
O O7 0.834696 0.129202 0.831425
O O8 0.647019 0.494482 0.940981
O O9 0.895606 0.802718 0.807307
O O10 0.623167 0.867083 0.044624
O O11 0.790392 0.968126 0.105953
O O12 0.137029 0.287571 0.725712
O O13 0.196087 0.949156 0.581190
O O14 0.953476 0.443499 0.180194
O O15 0.000000 0.500000 0.000000
O O16 0.897035 0.291434 0.315262
O O17 0.000000 0.500000 0.500000
#
# Coordination Sequence:
#
# PCOD9074753 Si02
#       8
#     2   2   2   2   2   2   2   2
#     4  10  26  44  71 101 141 179 239 288 345 416
#     4  11  24  42  71 104 139 179 239 287 347 413
#     4  11  25  48  68 102 141 183 232 287 352 428
#     4  10  25  41  74  99 138 183 232 289 354 407
#     4  10  25  44  67  99 139 183 227 289 346 414
#     4  11  24  43  72 101 138 184 238 289 347 411
#     4  11  26  45  72 101 142 188 234 287 355 417
#     4  12  28  44  71 103 147 185 234 289 360 416
#
# _framework density 21.223749999999999
#
# number of rings (size 3 to 8) (size 9 to 14) (size 15 to 20)
#    0.000    1.250    0.000    3.375   17.500    2.500 
#    0.000    0.000    0.000    0.000    0.000    0.000 
#    0.000    0.000    0.000    0.000    0.000    0.000 
#
# Total GULP energy -89136.153532 kJ/mol
# GULP energy per Si atom -5571.009596 kJ/mol
# Density = 2.117544 g / cm^3
# Si number density = 21.223750 Si / 1000 Ang^3
#
#
#
# Elastic Constant Matrix: (Units=GPa)
#
#
# Indices 1 2 3 4 5 6 
#
# 1 140.6538 42.5924 52.8561 6.3799 10.8381 16.0920
# 2 42.5924 110.9545 37.2410 -15.5933 9.2561 17.0540
# 3 52.8561 37.2410 87.7262 6.2950 20.3118 16.6587
# 4 6.3799 -15.5933 6.2950 16.0507 16.3489 -2.8595
# 5 10.8381 9.2561 20.3118 16.3489 28.3602 1.8172
# 6 16.0920 17.0540 16.6587 -2.8595 1.8172 37.1747
#
#
#
# Elastic Compliance Matrix: (Units=1/GPa)
#
#
# Indices 1 2 3 4 5 6 
#
# 1 0.012233 -0.009451 -0.005777 -0.036176 0.023550 -0.002304
# 2 -0.009451 0.032891 -0.000324 0.104065 -0.066908 0.000423
# 3 -0.005777 -0.000324 0.019129 0.012313 -0.018223 -0.004085
# 4 -0.036176 0.104065 0.012313 0.500095 -0.318301 0.016430
# 5 0.023550 -0.066908 -0.018223 -0.318301 0.245141 -0.007801
# 6 -0.002304 0.000423 -0.004085 0.016430 -0.007801 0.031179
#
#
# Mechanical properties :
#
#
# Convention : Reuss Voigt Hill
#
# Bulk Modulus (GPa) = 30.16838 67.19038 48.67938
# Shear Modulus (GPa) = 5.66365 30.09346 17.87856
#
# Velocity S-wave (km/s) = 1.63534 3.76961 2.90553
# Velocity P-wave (km/s) = 4.22032 7.11853 5.85169
#
# Compressibility (1/GPa) = 0.03314729
#
# Stress axis : x y z
#
# Youngs Moduli (GPa) = 81.74880 30.40312 52.27655
#
# Poissons Ratio (x) = 0.28735 0.30201
# Poissons Ratio (y) = 0.77262 0.01696
# Poissons Ratio (z) = 0.47228 0.00986
#
# Static dielectric constant tensor:
#      x y z
#    x 1.770200 -0.048700 0.012490 
#    y -0.048700 1.788920 0.047010 
#    z 0.012490 0.047010 1.828460 
# 
# From -- ./inp_files/530223.got.cif
#   From: 2010.05.17/outbox.ucp.g08.bks.cvg/sg2_266_cif.got.tgz:530223.got - 2010.06.11 11:32:03.
