data_PCOD9074441
_publ_section_title
;
Structure prediction by ZEFSAII (Michael W. Deem and Ramdas Pophale) SiO2 
 PCOD9074441
Probable space group: P -1
;
_chemical_formula_sum "Si O2"
_cell_formula_units_Z 16
_cell_length_a 10.113249
_cell_length_b 11.202576
_cell_length_c 11.836153
_cell_angle_alpha 99.522117
_cell_angle_beta 41.073101
_cell_angle_gamma 99.019659
_cell_volume 867.842663
_symmetry_space_group_name_H-M "P -1"
_symmetry_group_IT_number 2
_symmetry_cell_setting 'triclinic'
loop_
_space_group_symop_operation_xyz
x,y,z
-x,-y,-z
loop_
_atom_site_type_symbol
_atom_site_label
_atom_site_fract_x
_atom_site_fract_y
_atom_site_fract_z
Si Si1 0.371198 0.832640 0.646636
Si Si2 0.009838 0.141397 0.982167
Si Si3 0.974315 0.363993 0.536207
Si Si4 0.909208 0.083601 0.786743
Si Si5 0.733214 0.790661 0.555877
Si Si6 0.540748 0.882100 0.309116
Si Si7 0.783336 0.813477 0.779625
Si Si8 0.392282 0.783369 0.159213
O O1 0.536128 0.767476 0.604774
O O2 0.412650 0.825609 0.486326
O O3 0.414829 0.975622 0.671595
O O4 0.146008 0.796991 0.825805
O O5 0.244212 0.180049 0.843034
O O6 0.932789 0.142987 0.903572
O O7 0.000000 0.000000 0.000000
O O8 0.754434 0.327155 0.720570
O O9 0.000000 0.500000 0.500000
O O10 0.135977 0.326320 0.521795
O O11 0.038094 0.273961 0.379758
O O12 0.734064 0.142134 0.837519
O O13 0.117056 0.113321 0.590360
O O14 0.863336 0.939919 0.801316
O O15 0.693455 0.838666 0.715628
O O16 0.436826 0.864787 0.253430
O O17 0.604244 0.755369 0.961679
#
# Coordination Sequence:
#
# PCOD9074441 Si02
#       8
#     2   2   2   2   2   2   2   2
#     4  10  18  32  51  74 115 155 174 209 267 333
#     4  10  20  32  48  75 120 153 176 211 255 340
#     4   9  23  39  55  82 108 140 192 241 278 317
#     4  11  19  34  54  85 122 140 183 220 273 340
#     4   9  19  33  57  80 109 148 184 225 274 324
#     4  10  21  31  48  80 119 142 181 209 266 332
#     4  10  20  32  56  82 113 140 180 225 279 324
#     4  11  22  35  58  85 111 149 176 234 275 331
#
# _framework density 18.436520999999999
#
# number of rings (size 3 to 8) (size 9 to 14) (size 15 to 20)
#    0.750    1.250    1.250    3.750    1.750    1.500 
#    0.000    0.000    0.000    0.750    0.000    1.750 
#    0.000    0.000    0.000    0.000    0.000    0.000 
#
# Total GULP energy -89213.959856 kJ/mol
# GULP energy per Si atom -5575.872491 kJ/mol
# Density = 1.839456 g / cm^3
# Si number density = 18.436521 Si / 1000 Ang^3
#
#
#
# Elastic Constant Matrix: (Units=GPa)
#
#
# Indices 1 2 3 4 5 6 
#
# 1 78.9139 3.5461 29.4523 -2.9948 3.9206 -13.8871
# 2 3.5461 58.2266 24.6445 -17.4660 -15.2546 -4.7443
# 3 29.4523 24.6445 143.1413 -21.0457 -8.2072 -5.1015
# 4 -2.9948 -17.4660 -21.0457 12.3586 1.2937 -0.2960
# 5 3.9206 -15.2546 -8.2072 1.2937 26.2556 1.5985
# 6 -13.8871 -4.7443 -5.1015 -0.2960 1.5985 8.0946
#
#
#
# Elastic Compliance Matrix: (Units=1/GPa)
#
#
# Indices 1 2 3 4 5 6 
#
# 1 0.020493 0.003983 -0.002773 0.007196 -0.004210 0.036839
# 2 0.003983 0.044037 0.004112 0.068828 0.020837 0.033637
# 3 -0.002773 0.004112 0.010632 0.022849 0.004742 0.004253
# 4 0.007196 0.068828 0.022849 0.217230 0.031160 0.068878
# 5 -0.004210 0.020837 0.004742 0.031160 0.050825 -0.000920
# 6 0.036839 0.033637 0.004253 0.068878 -0.000920 0.211837
#
#
# Mechanical properties :
#
#
# Convention : Reuss Voigt Hill
#
# Bulk Modulus (GPa) = 11.65426 43.95195 27.80311
# Shear Modulus (GPa) = 8.72582 24.18436 16.45509
#
# Velocity S-wave (km/s) = 2.17788 3.62576 2.99076
# Velocity P-wave (km/s) = 3.55798 6.43580 5.19994
#
# Compressibility (1/GPa) = 0.08580551
#
# Stress axis : x y z
#
# Youngs Moduli (GPa) = 48.79696 22.70809 94.05911
#
# Poissons Ratio (x) = -0.09044 0.26080
# Poissons Ratio (y) = -0.19435 -0.38675
# Poissons Ratio (z) = 0.13530 -0.09337
#
# Static dielectric constant tensor:
#      x y z
#    x 1.667980 -0.015920 -0.017990 
#    y -0.015920 1.591530 0.004660 
#    z -0.017990 0.004660 1.682020 
# 
# From -- ./inp_files/421421.got.cif
#   From: 2010.05.17/outbox.cif.g08.bks.cpg/sg2_211_cif.got.tgz:421421.got - 2010.06.03 11:33:40.
