data_PCOD9074681
_publ_section_title
;
Structure prediction by ZEFSAII (Michael W. Deem and Ramdas Pophale) SiO2 
 PCOD9074681
Probable space group: P -1
;
_chemical_formula_sum "Si O2"
_cell_formula_units_Z 14
_cell_length_a 21.000000
_cell_length_b 15.000000
_cell_length_c 12.000000
_cell_angle_alpha 140.000000
_cell_angle_beta 20.000000
_cell_angle_gamma 150.000000
_cell_volume 620.704002
_symmetry_space_group_name_H-M "P -1"
_symmetry_group_IT_number 2
_symmetry_cell_setting 'triclinic'
loop_
_space_group_symop_operation_xyz
x,y,z
-x,-y,-z
loop_
_atom_site_type_symbol
_atom_site_label
_atom_site_fract_x
_atom_site_fract_y
_atom_site_fract_z
Si Si1 0.493567 0.229069 0.251553
Si Si2 0.198023 0.853318 0.869621
Si Si3 0.942638 0.484504 0.334506
Si Si4 0.875225 0.650932 0.408066
Si Si5 0.392559 0.322051 0.744315
Si Si6 0.238752 0.526595 0.160329
Si Si7 0.968853 0.930415 0.713435
O O1 0.438449 0.266407 0.499444
O O2 0.559008 0.352131 0.151973
O O3 0.234793 0.032742 0.439274
O O4 0.783866 0.322083 0.890629
O O5 0.070235 0.685582 0.829748
O O6 0.500000 0.000000 0.500000
O O7 0.120048 0.770093 0.042702
O O8 0.056337 0.929488 0.162744
O O9 0.873498 0.517954 0.363648
O O10 0.726270 0.414134 0.711825
O O11 0.638000 0.515460 0.583554
O O12 0.900592 0.788422 0.589661
O O13 0.194399 0.342976 0.059243
O O14 0.251618 0.173214 0.931408
O O15 0.000000 0.500000 0.500000
#
# Coordination Sequence:
#
# PCOD9074681 Si02
#       7
#     2   2   2   2   2   2   2
#     4  11  26  46  72 103 148 186 238 292 356 419
#     4  12  28  44  74 109 146 180 240 300 355 417
#     4  11  25  49  74 105 141 196 235 290 356 431
#     4  12  26  50  76 102 145 191 239 288 363 420
#     4  12  24  48  75 103 144 192 239 285 359 433
#     4  10  24  44  72 103 138 189 240 283 353 423
#     4  12  28  46  71 111 144 186 238 299 350 421
#
# _framework density 22.555033999999999
#
# number of rings (size 3 to 8) (size 9 to 14) (size 15 to 20)
#    0.000    0.571    2.857    3.857   10.000    0.571 
#    0.000    0.000    0.000    0.000    0.000    0.000 
#    0.000    0.000    0.000    0.000    0.000    0.000 
#
# Total GULP energy -77971.970910 kJ/mol
# GULP energy per Si atom -5569.426494 kJ/mol
# Density = 2.250370 g / cm^3
# Si number density = 22.555034 Si / 1000 Ang^3
#
#
#
# Elastic Constant Matrix: (Units=GPa)
#
#
# Indices 1 2 3 4 5 6 
#
# 1 116.5821 23.9781 41.0320 -16.8031 38.1055 12.1493
# 2 23.9781 74.7267 5.9025 -2.1824 5.3428 22.9559
# 3 41.0320 5.9025 27.6230 -9.3179 11.1114 24.6035
# 4 -16.8031 -2.1824 -9.3179 34.9276 11.7516 -6.1190
# 5 38.1055 5.3428 11.1114 11.7516 64.7212 -3.3450
# 6 12.1493 22.9559 24.6035 -6.1190 -3.3450 40.6936
#
#
#
# Elastic Compliance Matrix: (Units=1/GPa)
#
#
# Indices 1 2 3 4 5 6 
#
# 1 -0.325562 0.237215 1.091576 0.047922 -0.059892 -0.694306
# 2 0.237215 -0.152831 -0.772067 -0.029173 0.035645 0.480730
# 3 1.091576 -0.772067 -3.509655 -0.123582 0.161095 2.226248
# 4 0.047922 -0.029173 -0.123582 0.033310 -0.006434 0.081347
# 5 -0.059892 0.035645 0.161095 -0.006434 0.016151 -0.099265
# 6 -0.694306 0.480730 2.226248 0.081347 -0.099265 -1.381250
#
#
# Mechanical properties :
#
#
# Convention : Reuss Voigt Hill
#
# Bulk Modulus (GPa) = -0.34787 40.08411 19.86812
# Shear Modulus (GPa) = -0.67645 37.93641 18.62998
#
# Velocity S-wave (km/s) = -0.54824 4.10561 2.87710
# Velocity P-wave (km/s) = 0.74520 6.34704 4.45700
#
# Compressibility (1/GPa) = -2.87460105
#
# Stress axis : x y z
#
# Youngs Moduli (GPa) = -3.07161 -6.54319 -0.28493
#
# Poissons Ratio (x) = 1.55214 0.31102
# Poissons Ratio (y) = 0.72863 -0.21998
# Poissons Ratio (z) = 3.35290 -5.05178
#
# Static dielectric constant tensor:
#      x y z
#    x 1.886470 -0.022590 0.026070 
#    y -0.022590 1.908400 -0.008970 
#    z 0.026070 -0.008970 1.902440 
# 
# From -- ./inp_files/471948.got.cif
#   From: 2010.05.17/outbox.ucp.g08.bks.cvg/sg2_236_cif.got.tgz:471948.got - 2010.06.11 11:32:03.
