data_PCOD9074261
_publ_section_title
;
Structure prediction by ZEFSAII (Michael W. Deem and Ramdas Pophale) SiO2 
 PCOD9074261
Probable space group: P -1
;
_chemical_formula_sum "Si O2"
_cell_formula_units_Z 16
_cell_length_a 9.000000
_cell_length_b 9.000000
_cell_length_c 15.000000
_cell_angle_alpha 110.000000
_cell_angle_beta 50.000000
_cell_angle_gamma 80.000000
_cell_volume 732.374747
_symmetry_space_group_name_H-M "P -1"
_symmetry_group_IT_number 2
_symmetry_cell_setting 'triclinic'
loop_
_space_group_symop_operation_xyz
x,y,z
-x,-y,-z
loop_
_atom_site_type_symbol
_atom_site_label
_atom_site_fract_x
_atom_site_fract_y
_atom_site_fract_z
Si Si1 0.225685 0.293303 0.348907
Si Si2 0.611751 0.780187 0.920691
Si Si3 0.998299 0.043338 0.405544
Si Si4 0.069335 0.599966 0.824995
Si Si5 0.763085 0.128922 0.178883
Si Si6 0.891870 0.751609 0.124266
Si Si7 0.474867 0.184076 0.595483
Si Si8 0.734037 0.308783 0.900870
O O1 0.257892 0.317653 0.238798
O O2 0.491766 0.213522 0.269071
O O3 0.000000 0.500000 0.500000
O O4 0.137994 0.148530 0.362823
O O5 0.815568 0.691078 0.897475
O O6 0.385470 0.771623 0.010180
O O7 0.500000 0.000000 0.000000
O O8 0.726927 0.155399 0.500399
O O9 0.000000 0.000000 0.500000
O O10 0.131833 0.844803 0.259771
O O11 0.196347 0.709300 0.774339
O O12 0.264622 0.383956 0.676724
O O13 0.005493 0.643564 0.965189
O O14 0.817182 0.968907 0.195678
O O15 0.000000 0.000000 0.000000
O O16 0.648032 0.781345 0.252463
O O17 0.089681 0.660795 0.105534
O O18 0.500000 0.000000 0.500000
O O19 0.500000 0.500000 0.000000
#
# Coordination Sequence:
#
# PCOD9074261 Si02
#       8
#     2   2   2   2   2   2   2   2
#     4  12  27  49  74 107 146 190 236 302 362 428
#     4  12  24  45  75 107 143 181 246 293 361 427
#     4  12  29  47  72 103 146 191 238 296 363 423
#     4  11  25  42  76 106 138 189 236 297 354 428
#     4  10  22  44  73 103 135 183 236 290 356 424
#     4  11  23  46  71 100 141 187 239 293 357 425
#     4  12  26  46  66 102 148 187 239 287 356 428
#     4  12  27  45  73 106 143 190 240 299 355 431
#
# _framework density 21.846738999999999
#
# number of rings (size 3 to 8) (size 9 to 14) (size 15 to 20)
#    0.000    0.500    2.500    6.375    5.250    1.000 
#    0.000    1.875    0.000    0.000    0.000    0.000 
#    0.000    0.000    0.000    0.000    0.000    0.000 
#
# Total GULP energy -89178.369146 kJ/mol
# GULP energy per Si atom -5573.648072 kJ/mol
# Density = 2.179701 g / cm^3
# Si number density = 21.846739 Si / 1000 Ang^3
#
#
#
# Elastic Constant Matrix: (Units=GPa)
#
#
# Indices 1 2 3 4 5 6 
#
# 1 142.3806 17.0541 50.1910 9.8852 -30.3450 -5.5288
# 2 17.0541 67.1853 23.2860 18.7403 -9.0866 2.8361
# 3 50.1910 23.2860 169.8664 19.0627 -11.4985 -6.6552
# 4 9.8852 18.7403 19.0627 55.4056 1.4449 -11.1419
# 5 -30.3450 -9.0866 -11.4985 1.4449 54.3764 -3.0535
# 6 -5.5288 2.8361 -6.6552 -11.1419 -3.0535 40.8661
#
#
#
# Elastic Compliance Matrix: (Units=1/GPa)
#
#
# Indices 1 2 3 4 5 6 
#
# 1 0.008894 -0.000840 -0.002115 -0.000465 0.004451 0.001123
# 2 -0.000840 0.017706 -0.001479 -0.006002 0.002165 -0.003058
# 3 -0.002115 -0.001479 0.006899 -0.001384 0.000100 0.000570
# 4 -0.000465 -0.006002 -0.001384 0.021883 -0.001802 0.005960
# 5 0.004451 0.002165 0.000100 -0.001802 0.021394 0.001575
# 6 0.001123 -0.003058 0.000570 0.005960 0.001575 0.026670
#
#
# Mechanical properties :
#
#
# Convention : Reuss Voigt Hill
#
# Bulk Modulus (GPa) = 40.59939 62.27718 51.43829
# Shear Modulus (GPa) = 41.48519 49.38969 45.43744
#
# Velocity S-wave (km/s) = 4.36239 4.75988 4.56546
# Velocity P-wave (km/s) = 6.63310 7.66661 7.16850
#
# Compressibility (1/GPa) = 0.02463091
#
# Stress axis : x y z
#
# Youngs Moduli (GPa) = 112.43132 56.47839 144.94524
#
# Poissons Ratio (x) = 0.04745 0.30661
# Poissons Ratio (y) = 0.09446 0.21433
# Poissons Ratio (z) = 0.23783 0.08351
#
# Static dielectric constant tensor:
#      x y z
#    x 1.777370 -0.016760 -0.026620 
#    y -0.016760 1.962110 -0.110940 
#    z -0.026620 -0.110940 1.841250 
# 
# From -- ./inp_files/495393.got.cif
#   From: 2010.05.17/outbox.ucp.g08.bks.cvg/sg2_248_cif.got.tgz:495393.got - 2010.06.11 11:32:03.
