data_PCOD9074139
_publ_section_title
;
Structure prediction by ZEFSAII (Michael W. Deem and Ramdas Pophale) SiO2 
 PCOD9074139
Probable space group: P -1
;
_chemical_formula_sum "Si O2"
_cell_formula_units_Z 16
_cell_length_a 9.000000
_cell_length_b 21.000000
_cell_length_c 12.000000
_cell_angle_alpha 40.000000
_cell_angle_beta 50.000000
_cell_angle_gamma 30.000000
_cell_volume 727.418465
_symmetry_space_group_name_H-M "P -1"
_symmetry_group_IT_number 2
_symmetry_cell_setting 'triclinic'
loop_
_space_group_symop_operation_xyz
x,y,z
-x,-y,-z
loop_
_atom_site_type_symbol
_atom_site_label
_atom_site_fract_x
_atom_site_fract_y
_atom_site_fract_z
Si Si1 0.317413 0.753156 0.439615
Si Si2 0.148254 0.177096 0.180427
Si Si3 0.953803 0.566929 0.055072
Si Si4 0.269594 0.597679 0.227792
Si Si5 0.589519 0.355401 0.692791
Si Si6 0.344801 0.975260 0.529189
Si Si7 0.587031 0.291467 0.171451
Si Si8 0.381767 0.157246 0.868903
O O1 0.531446 0.578823 0.610700
O O2 0.256991 0.755746 0.335337
O O3 0.430654 0.822795 0.293556
O O4 0.006329 0.870680 0.493154
O O5 0.377606 0.007199 0.346708
O O6 0.856321 0.229283 0.203831
O O7 0.323083 0.170982 0.009785
O O8 0.071953 0.303626 0.123424
O O9 0.237499 0.438382 0.173192
O O10 0.678966 0.611365 0.180871
O O11 0.000000 0.500000 0.000000
O O12 0.216413 0.688594 0.237924
O O13 0.946206 0.692411 0.218876
O O14 0.398521 0.629333 0.037696
O O15 0.500000 0.500000 0.500000
O O16 0.500000 0.000000 0.500000
O O17 0.388448 0.837334 0.699047
O O18 0.500000 0.000000 0.000000
#
# Coordination Sequence:
#
# PCOD9074139 Si02
#       8
#     2   2   2   2   2   2   2   2
#     4  11  23  46  68 101 139 179 234 283 335 422
#     4  11  25  47  65 103 134 185 235 279 353 417
#     4  12  22  42  74  99 138 181 237 289 337 415
#     4  10  22  42  70 100 134 180 229 280 342 405
#     4  10  23  40  65 102 138 174 232 283 346 398
#     4  12  28  45  70 101 141 185 233 287 353 409
#     4  11  24  43  70  99 138 181 233 290 343 408
#     4  11  24  46  71 101 144 182 223 283 348 417
#
# _framework density 21.995591999999998
#
# number of rings (size 3 to 8) (size 9 to 14) (size 15 to 20)
#    0.000    1.000    2.500    4.125    5.250    2.000 
#    6.750    1.875    0.000    0.000    0.000    0.000 
#    0.000    0.000    0.000    0.000    0.000    0.000 
#
# Total GULP energy -89075.174879 kJ/mol
# GULP energy per Si atom -5567.198430 kJ/mol
# Density = 2.194553 g / cm^3
# Si number density = 21.995592 Si / 1000 Ang^3
#
#
#
# Elastic Constant Matrix: (Units=GPa)
#
#
# Indices 1 2 3 4 5 6 
#
# 1 63.8304 1.8131 64.8005 -3.1030 -37.9994 16.6113
# 2 1.8131 41.6815 17.5412 -14.5265 -7.3477 4.8586
# 3 64.8005 17.5412 123.4296 -16.1326 -29.9970 -9.7163
# 4 -3.1030 -14.5265 -16.1326 37.0401 11.7937 -8.7454
# 5 -37.9994 -7.3477 -29.9970 11.7937 52.3021 -1.7548
# 6 16.6113 4.8586 -9.7163 -8.7454 -1.7548 26.6106
#
#
#
# Elastic Compliance Matrix: (Units=1/GPa)
#
#
# Indices 1 2 3 4 5 6 
#
# 1 -0.135832 -0.032739 0.078432 0.063703 -0.068109 0.135851
# 2 -0.032739 0.021028 0.015735 0.024482 -0.016345 0.029311
# 3 0.078432 0.015735 -0.034609 -0.033638 0.044495 -0.072591
# 4 0.063703 0.024482 -0.033638 0.006160 0.027272 -0.052695
# 5 -0.068109 -0.016345 0.044495 0.027272 -0.010943 0.069988
# 6 0.135851 0.029311 -0.072591 -0.052695 0.069988 -0.091784
#
#
# Mechanical properties :
#
#
# Convention : Reuss Voigt Hill
#
# Bulk Modulus (GPa) = -37.65449 44.13903 3.24227
# Shear Modulus (GPa) = -13.23850 32.84298 9.80224
#
# Velocity S-wave (km/s) = -2.45597 3.86834 2.11332
# Velocity P-wave (km/s) = 5.01982 6.32952 2.72619
#
# Compressibility (1/GPa) = -0.02655725
#
# Stress axis : x y z
#
# Youngs Moduli (GPa) = -7.36205 47.55537 -28.89449
#
# Poissons Ratio (x) = 1.55694 2.26626
# Poissons Ratio (y) = -0.24103 0.45465
# Poissons Ratio (z) = 0.57742 -0.74827
#
# Static dielectric constant tensor:
#      x y z
#    x 1.908540 0.060230 0.081030 
#    y 0.060230 1.953450 0.061150 
#    z 0.081030 0.061150 1.919080 
# 
# From -- ./inp_files/263655.got.cif
#   From: 2010.05.17/outbox.ucp.g08.bks.cvg/sg2_132_cif.got.tgz:263655.got - 2010.06.11 11:32:03.
