data_PCOD9074729
_publ_section_title
;
Structure prediction by ZEFSAII (Michael W. Deem and Ramdas Pophale) SiO2 
 PCOD9074729
Probable space group: P -1
;
_chemical_formula_sum "Si O2"
_cell_formula_units_Z 15
_cell_length_a 9.000000
_cell_length_b 9.000000
_cell_length_c 12.000000
_cell_angle_alpha 140.000000
_cell_angle_beta 100.000000
_cell_angle_gamma 80.000000
_cell_volume 614.029152
_symmetry_space_group_name_H-M "P -1"
_symmetry_group_IT_number 2
_symmetry_cell_setting 'triclinic'
loop_
_space_group_symop_operation_xyz
x,y,z
-x,-y,-z
loop_
_atom_site_type_symbol
_atom_site_label
_atom_site_fract_x
_atom_site_fract_y
_atom_site_fract_z
Si Si1 0.897384 0.180497 0.322252
Si Si2 0.159240 0.351660 0.940690
Si Si3 0.680173 0.302967 0.705961
Si Si4 0.222246 0.171207 0.462296
Si Si5 0.650313 0.506916 0.591595
Si Si6 0.000000 0.000000 0.000000
Si Si7 0.310547 0.989119 0.139428
Si Si8 0.631050 0.526362 0.168698
O O1 0.784717 0.392618 0.468346
O O2 0.054483 0.225821 0.428343
O O3 0.913400 0.155351 0.177341
O O4 0.851262 0.923427 0.207443
O O5 0.261868 0.419201 0.888962
O O6 0.230861 0.471800 0.125130
O O7 0.000000 0.500000 0.000000
O O8 0.636584 0.333046 0.591134
O O9 0.528579 0.326908 0.773097
O O10 0.774423 0.062749 0.598148
O O11 0.322985 0.084321 0.320351
O O12 0.287900 0.376972 0.657080
O O13 0.500000 0.500000 0.500000
O O14 0.669602 0.771774 0.786608
O O15 0.137029 0.931458 0.066038
O O16 0.400008 0.746434 0.986951
#
# Coordination Sequence:
#
# PCOD9074729 Si02
#       8
#     2   2   2   2   2   1   2   2
#     4  11  26  47  78 110 157 199 263 326 375 458
#     4  12  24  47  76 117 147 194 264 320 386 448
#     4  12  26  49  75 114 154 202 253 323 390 457
#     4  11  25  48  77 114 143 200 261 317 393 446
#     4  12  30  48  72 112 160 203 261 309 384 466
#     4  10  24  46  72 108 144 202 244 316 382 444
#     4  11  26  47  72 111 149 197 260 302 387 453
#     4  12  27  44  81 104 161 200 247 326 384 455
#
# _framework density 24.428808
#
# number of rings (size 3 to 8) (size 9 to 14) (size 15 to 20)
#    0.000    0.533    2.667    4.000    9.333    2.667 
#    0.000    0.000    0.000    0.000    0.000    0.000 
#    0.000    0.000    0.000    0.000    0.000    0.000 
#
# Total GULP energy -83678.623576 kJ/mol
# GULP energy per Si atom -5578.574905 kJ/mol
# Density = 2.437321 g / cm^3
# Si number density = 24.428808 Si / 1000 Ang^3
#
#
#
# Elastic Constant Matrix: (Units=GPa)
#
#
# Indices 1 2 3 4 5 6 
#
# 1 100.3313 34.1353 48.2734 -0.2988 -9.3272 -24.5730
# 2 34.1353 107.7827 53.6927 -0.7138 1.2076 -11.8679
# 3 48.2734 53.6927 148.0463 7.9081 2.1826 -15.9730
# 4 -0.2988 -0.7138 7.9081 49.3636 -2.3879 0.9698
# 5 -9.3272 1.2076 2.1826 -2.3879 33.9122 5.7282
# 6 -24.5730 -11.8679 -15.9730 0.9698 5.7282 26.9910
#
#
#
# Elastic Compliance Matrix: (Units=1/GPa)
#
#
# Indices 1 2 3 4 5 6 
#
# 1 0.014916 -0.002096 -0.003061 0.000478 0.002675 0.010262
# 2 -0.002096 0.011847 -0.003479 0.000641 -0.000970 0.001425
# 3 -0.003061 -0.003479 0.009303 -0.001673 -0.001707 0.001611
# 4 0.000478 0.000641 -0.001673 0.020658 0.001911 -0.001421
# 5 0.002675 -0.000970 -0.001707 0.001911 0.031474 -0.005750
# 6 0.010262 0.001425 0.001611 -0.001421 -0.005750 0.049243
#
#
# Mechanical properties :
#
#
# Convention : Reuss Voigt Hill
#
# Bulk Modulus (GPa) = 53.21119 69.81812 61.51465
# Shear Modulus (GPa) = 31.05979 36.72395 33.89187
#
# Velocity S-wave (km/s) = 3.56960 3.88145 3.72879
# Velocity P-wave (km/s) = 6.23047 6.98068 6.61622
#
# Compressibility (1/GPa) = 0.01879304
#
# Stress axis : x y z
#
# Youngs Moduli (GPa) = 67.03990 84.40956 107.49054
#
# Poissons Ratio (x) = 0.17691 0.32908
# Poissons Ratio (y) = 0.14051 0.37401
# Poissons Ratio (z) = 0.20524 0.29370
#
# Static dielectric constant tensor:
#      x y z
#    x 1.978850 0.034600 0.005220 
#    y 0.034600 2.025780 -0.026520 
#    z 0.005220 -0.026520 1.939700 
# 
# From -- ./inp_files/383724.got.cif
#   From: 2010.05.17/outbox.ucp.g08.bks.cvg/sg2_192_cif.got.tgz:383724.got - 2010.06.11 11:32:03.
