data_PCOD9074177
_publ_section_title
;
Structure prediction by ZEFSAII (Michael W. Deem and Ramdas Pophale) SiO2 
 PCOD9074177
Probable space group: P -1
;
_chemical_formula_sum "Si O2"
_cell_formula_units_Z 16
_cell_length_a 12.000000
_cell_length_b 9.000000
_cell_length_c 9.000000
_cell_angle_alpha 90.000000
_cell_angle_beta 90.000000
_cell_angle_gamma 50.000000
_cell_volume 744.595199
_symmetry_space_group_name_H-M "P -1"
_symmetry_group_IT_number 2
_symmetry_cell_setting 'triclinic'
loop_
_space_group_symop_operation_xyz
x,y,z
-x,-y,-z
loop_
_atom_site_type_symbol
_atom_site_label
_atom_site_fract_x
_atom_site_fract_y
_atom_site_fract_z
Si Si1 0.269243 0.066199 0.404361
Si Si2 0.776762 0.800732 0.279009
Si Si3 0.248576 0.417809 0.964552
Si Si4 0.649685 0.340143 0.082359
Si Si5 0.440606 0.164485 0.221632
Si Si6 0.454969 0.677125 0.601329
Si Si7 0.975530 0.237867 0.873178
Si Si8 0.859210 0.020501 0.850348
O O1 0.367553 0.861429 0.491901
O O2 0.170647 0.055869 0.291242
O O3 0.207839 0.216748 0.542229
O O4 0.361563 0.095309 0.299557
O O5 0.799795 0.636913 0.175719
O O6 0.889650 0.825903 0.222551
O O7 0.612109 0.987540 0.237326
O O8 0.277008 0.561498 0.915561
O O9 0.388083 0.234732 0.053522
O O10 0.132008 0.532670 0.098261
O O11 0.631432 0.302529 0.251321
O O12 0.500000 0.500000 0.000000
O O13 0.728900 0.160006 0.968815
O O14 0.417871 0.333255 0.321342
O O15 0.500000 0.500000 0.500000
O O16 0.906027 0.147715 0.807206
O O17 0.024673 0.152382 0.039953
#
# Coordination Sequence:
#
# PCOD9074177 Si02
#       8
#     2   2   2   2   2   2   2   2
#     4  11  25  41  67 100 137 176 214 281 341 389
#     4  11  23  41  64  95 134 174 218 269 339 393
#     4  11  24  41  68  99 129 176 227 278 319 400
#     4  11  22  38  67 100 128 170 227 267 330 382
#     4  11  24  42  65 102 135 177 217 274 339 389
#     4  11  23  38  63  99 142 167 213 276 336 395
#     4  10  23  43  67  92 130 177 232 271 321 397
#     4  10  22  43  66  92 133 176 224 274 326 399
#
# _framework density 21.488185999999999
#
# number of rings (size 3 to 8) (size 9 to 14) (size 15 to 20)
#    0.000    1.250    1.250    5.250    7.000    0.500 
#    0.000    2.500    0.000    0.000    0.000    0.000 
#    0.000    0.000    0.000    0.000    0.000    0.000 
#
# Total GULP energy -89294.603152 kJ/mol
# GULP energy per Si atom -5580.912697 kJ/mol
# Density = 2.143928 g / cm^3
# Si number density = 21.488186 Si / 1000 Ang^3
#
#
#
# Elastic Constant Matrix: (Units=GPa)
#
#
# Indices 1 2 3 4 5 6 
#
# 1 109.1858 28.0480 57.0618 19.7632 4.6337 7.2363
# 2 28.0480 40.4364 9.1369 3.7973 -4.8148 -6.4434
# 3 57.0618 9.1369 112.3118 9.2172 9.8598 14.7607
# 4 19.7632 3.7973 9.2172 30.0273 12.2661 -0.9878
# 5 4.6337 -4.8148 9.8598 12.2661 33.2961 -0.4893
# 6 7.2363 -6.4434 14.7607 -0.9878 -0.4893 19.5056
#
#
#
# Elastic Compliance Matrix: (Units=1/GPa)
#
#
# Indices 1 2 3 4 5 6 
#
# 1 0.017053 -0.010224 -0.006556 -0.008566 0.001170 -0.005147
# 2 -0.010224 0.035237 -0.000369 0.000125 0.006815 0.015889
# 3 -0.006556 -0.000369 0.013519 0.001510 -0.003817 -0.007940
# 4 -0.008566 0.000125 0.001510 0.045033 -0.015769 0.003962
# 5 0.001170 0.006815 -0.003817 -0.015769 0.037867 0.004857
# 6 -0.005147 0.015889 -0.007940 0.003962 0.004857 0.064757
#
#
# Mechanical properties :
#
#
# Convention : Reuss Voigt Hill
#
# Bulk Modulus (GPa) = 31.73382 50.04750 40.89066
# Shear Modulus (GPa) = 19.35982 27.74494 23.55238
#
# Velocity S-wave (km/s) = 3.00484 3.59719 3.31427
# Velocity P-wave (km/s) = 5.18062 6.37136 5.80660
#
# Compressibility (1/GPa) = 0.03151213
#
# Stress axis : x y z
#
# Youngs Moduli (GPa) = 58.64090 28.37944 73.96908
#
# Poissons Ratio (x) = 0.29015 0.48490
# Poissons Ratio (y) = 0.59953 0.02730
# Poissons Ratio (z) = 0.38442 0.01047
#
# Static dielectric constant tensor:
#      x y z
#    x 1.847510 -0.047370 -0.016080 
#    y -0.047370 1.918800 0.033940 
#    z -0.016080 0.033940 1.731080 
# 
# From -- ./inp_files/244038.got.cif
#   From: 2010.05.17/outbox.ucp.g08.bks.cvg/sg2_123_cif.got.tgz:244038.got - 2010.06.11 11:32:03.
