data_PCOD9074405
_publ_section_title
;
Structure prediction by ZEFSAII (Michael W. Deem and Ramdas Pophale) SiO2 
 PCOD9074405
Probable space group: P -1
;
_chemical_formula_sum "Si O2"
_cell_formula_units_Z 14
_cell_length_a 9.000000
_cell_length_b 18.000000
_cell_length_c 9.000000
_cell_angle_alpha 30.000000
_cell_angle_beta 120.000000
_cell_angle_gamma 120.000000
_cell_volume 623.732165
_symmetry_space_group_name_H-M "P -1"
_symmetry_group_IT_number 2
_symmetry_cell_setting 'triclinic'
loop_
_space_group_symop_operation_xyz
x,y,z
-x,-y,-z
loop_
_atom_site_type_symbol
_atom_site_label
_atom_site_fract_x
_atom_site_fract_y
_atom_site_fract_z
Si Si1 0.704689 0.022728 0.575017
Si Si2 0.739338 0.770228 0.490402
Si Si3 0.638240 0.488089 0.718939
Si Si4 0.482959 0.664029 0.778083
Si Si5 0.082898 0.695382 0.932279
Si Si6 0.963109 0.857825 0.848219
Si Si7 0.765839 0.097070 0.821109
O O1 0.766514 0.163712 0.255258
O O2 0.781179 0.065594 0.704949
O O3 0.500000 0.000000 0.500000
O O4 0.781484 0.881074 0.791229
O O5 0.665428 0.644033 0.553160
O O6 0.658559 0.756254 0.639997
O O7 0.934211 0.734279 0.677323
O O8 0.696062 0.927702 0.135491
O O9 0.500000 0.500000 0.500000
O O10 0.562763 0.367464 0.018068
O O11 0.820190 0.444433 0.821262
O O12 0.340623 0.762024 0.474168
O O13 0.500000 0.500000 0.000000
O O14 0.000651 0.713245 0.023155
O O15 0.000000 0.000000 0.500000
O O16 0.082860 0.867482 0.040259
#
# Coordination Sequence:
#
# PCOD9074405 Si02
#       7
#     2   2   2   2   2   2   2
#     4  11  25  41  70 106 148 184 241 299 363 422
#     4  11  25  44  74 103 144 192 243 295 367 428
#     4  11  26  49  72 103 144 194 246 301 362 428
#     4  10  25  45  70 103 146 185 241 290 365 432
#     4  11  24  47  68 101 153 191 236 303 359 443
#     4  10  23  42  66 107 147 181 237 295 363 426
#     4  12  23  43  78 106 142 190 244 296 367 425
#
# _framework density 22.445532
#
# number of rings (size 3 to 8) (size 9 to 14) (size 15 to 20)
#    0.000    1.143    4.286    1.286    8.000    1.143 
#    0.000    0.714    0.000    0.000    0.000    0.000 
#    0.000    0.000    0.000    0.000    0.000    0.000 
#
# Total GULP energy -78012.550656 kJ/mol
# GULP energy per Si atom -5572.325047 kJ/mol
# Density = 2.239444 g / cm^3
# Si number density = 22.445532 Si / 1000 Ang^3
#
#
#
# Elastic Constant Matrix: (Units=GPa)
#
#
# Indices 1 2 3 4 5 6 
#
# 1 144.9131 54.6976 53.7826 19.2795 29.7094 -19.8852
# 2 54.6976 122.7481 37.6854 18.9039 13.4956 -18.5337
# 3 53.7826 37.6854 136.2372 13.2662 32.7791 -1.5184
# 4 19.2795 18.9039 13.2662 41.9494 -3.1604 7.5282
# 5 29.7094 13.4956 32.7791 -3.1604 31.7620 -2.5795
# 6 -19.8852 -18.5337 -1.5184 7.5282 -2.5795 45.5707
#
#
#
# Elastic Compliance Matrix: (Units=1/GPa)
#
#
# Indices 1 2 3 4 5 6 
#
# 1 0.011210 -0.002246 -0.001225 -0.005161 -0.008430 0.004313
# 2 -0.002246 0.010990 -0.001393 -0.004305 -0.001227 0.004085
# 3 -0.001225 -0.001393 0.010829 -0.002823 -0.009786 -0.000828
# 4 -0.005161 -0.004305 -0.002823 0.031494 0.012004 -0.008621
# 5 -0.008430 -0.001227 -0.009786 0.012004 0.050893 -0.003606
# 6 0.004313 0.004085 -0.000828 -0.008621 -0.003606 0.026679
#
#
# Mechanical properties :
#
#
# Convention : Reuss Voigt Hill
#
# Bulk Modulus (GPa) = 42.91746 77.35884 60.13815
# Shear Modulus (GPa) = 31.32989 41.03860 36.18424
#
# Velocity S-wave (km/s) = 3.74012 4.28058 4.01944
# Velocity P-wave (km/s) = 6.14927 7.67926 6.95646
#
# Compressibility (1/GPa) = 0.02330054
#
# Stress axis : x y z
#
# Youngs Moduli (GPa) = 89.20612 90.99019 92.34102
#
# Poissons Ratio (x) = 0.20439 0.11312
# Poissons Ratio (y) = 0.20038 0.12865
# Poissons Ratio (z) = 0.10928 0.12677
#
# Static dielectric constant tensor:
#      x y z
#    x 1.914370 0.040590 -0.017030 
#    y 0.040590 1.895450 -0.040890 
#    z -0.017030 -0.040890 1.833470 
# 
# From -- ./inp_files/159262.got.cif
#   From: 2010.05.17/outbox.ucp.g08.bks.cvg/sg2_80_cif.got.tgz:159262.got - 2010.06.11 11:32:03.
