data_PCOD9074961
_publ_section_title
;
Structure prediction by ZEFSAII (Michael W. Deem and Ramdas Pophale) SiO2 
 PCOD9074961
Probable space group: P -1
;
_chemical_formula_sum "Si O2"
_cell_formula_units_Z 15
_cell_length_a 9.000000
_cell_length_b 15.000000
_cell_length_c 12.000000
_cell_angle_alpha 150.000000
_cell_angle_beta 60.000000
_cell_angle_gamma 130.000000
_cell_volume 613.666794
_symmetry_space_group_name_H-M "P -1"
_symmetry_group_IT_number 2
_symmetry_cell_setting 'triclinic'
loop_
_space_group_symop_operation_xyz
x,y,z
-x,-y,-z
loop_
_atom_site_type_symbol
_atom_site_label
_atom_site_fract_x
_atom_site_fract_y
_atom_site_fract_z
Si Si1 0.086104 0.210857 0.978053
Si Si2 0.796065 0.375253 0.664089
Si Si3 0.358214 0.750392 0.179503
Si Si4 0.165609 0.455597 0.734051
Si Si5 0.108840 0.970936 0.530130
Si Si6 0.750640 0.981917 0.143820
Si Si7 0.342638 0.071279 0.135050
Si Si8 0.500000 0.500000 0.500000
O O1 0.187741 0.171147 0.791225
O O2 0.098327 0.085870 0.942283
O O3 0.203998 0.447976 0.216721
O O4 0.854837 0.100626 0.921799
O O5 0.642516 0.282911 0.723303
O O6 0.809885 0.212592 0.402245
O O7 0.994601 0.493587 0.790317
O O8 0.261268 0.896267 0.359359
O O9 0.564654 0.857371 0.157997
O O10 0.234419 0.552230 0.934746
O O11 0.333024 0.535431 0.665368
O O12 0.046551 0.211814 0.531235
O O13 0.000000 0.000000 0.500000
O O14 0.699532 0.914469 0.964233
O O15 0.435881 0.300589 0.390636
O O16 0.500000 0.000000 0.000000
#
# Coordination Sequence:
#
# PCOD9074961 Si02
#       8
#     2   2   2   2   2   2   2   1
#     4  12  25  45  70 102 140 189 230 283 355 411
#     4  11  24  45  70  99 146 180 234 283 352 415
#     4  11  23  43  69 104 145 183 231 291 345 411
#     4  11  21  42  69 100 138 188 231 289 342 406
#     4  11  22  39  69 102 141 182 235 284 340 418
#     4  12  26  47  70 104 143 185 226 299 352 411
#     4  12  28  47  75 102 140 184 239 290 348 420
#     4  12  22  44  70 102 136 172 240 290 334 408
#
# _framework density 24.443231999999998
#
# number of rings (size 3 to 8) (size 9 to 14) (size 15 to 20)
#    0.000    0.533    5.333    4.800    1.867    2.133 
#    2.400    0.000    0.000    0.000    0.000    0.000 
#    0.000    0.000    0.000    0.000    0.000    0.000 
#
# Total GULP energy -83503.385371 kJ/mol
# GULP energy per Si atom -5566.892358 kJ/mol
# Density = 2.438760 g / cm^3
# Si number density = 24.443232 Si / 1000 Ang^3
#
#
#
# Elastic Constant Matrix: (Units=GPa)
#
#
# Indices 1 2 3 4 5 6 
#
# 1 40.9927 12.8080 -23.9708 3.3335 -8.1516 33.2108
# 2 12.8080 60.7811 -57.3556 3.5855 -21.6590 29.1736
# 3 -23.9708 -57.3556 -63.2860 47.5755 -14.7163 15.0774
# 4 3.3335 3.5855 47.5755 38.2909 -6.0896 -6.9403
# 5 -8.1516 -21.6590 -14.7163 -6.0896 24.5720 -10.8897
# 6 33.2108 29.1736 15.0774 -6.9403 -10.8897 19.3373
#
#
#
# Elastic Compliance Matrix: (Units=1/GPa)
#
#
# Indices 1 2 3 4 5 6 
#
# 1 0.295455 -0.035559 -0.127955 0.018110 -0.212523 -0.467197
# 2 -0.035559 0.017683 0.006909 0.006736 0.031347 0.049076
# 3 -0.127955 0.006909 0.054470 -0.003165 0.091848 0.217450
# 4 0.018110 0.006736 -0.003165 0.023096 0.003002 -0.028817
# 5 -0.212523 0.031347 0.091848 0.003002 0.217364 0.369577
# 6 -0.467197 0.049076 0.217450 -0.028817 0.369577 0.808298
#
#
# Mechanical properties :
#
#
# Convention : Reuss Voigt Hill
#
# Bulk Modulus (GPa) = 18.38267 -10.94989 3.71639
# Shear Modulus (GPa) = 2.86089 23.57379 13.21734
#
# Velocity S-wave (km/s) = 1.08303 3.10890 2.32790
# Velocity P-wave (km/s) = 3.01676 2.89785 2.95790
#
# Compressibility (1/GPa) = 0.05439907
#
# Stress axis : x y z
#
# Youngs Moduli (GPa) = 3.38461 56.55223 18.35861
#
# Poissons Ratio (x) = 2.01092 2.34907
# Poissons Ratio (y) = 0.12035 -0.12684
# Poissons Ratio (z) = 0.43308 -0.39073
#
# Static dielectric constant tensor:
#      x y z
#    x 2.312390 -0.003910 -0.176890 
#    y -0.003910 1.940900 0.093670 
#    z -0.176890 0.093670 2.127750 
# 
# From -- ./inp_files/199246.got.cif
#   From: 2010.05.17/outbox.ucp.g08.bks.cvg/sg2_100_cif.got.tgz:199246.got - 2010.06.11 11:32:03.
