data_PCOD9074668
_publ_section_title
;
Structure prediction by ZEFSAII (Michael W. Deem and Ramdas Pophale) SiO2 
 PCOD9074668
Probable space group: P -1
;
_chemical_formula_sum "Si O2"
_cell_formula_units_Z 15
_cell_length_a 9.000000
_cell_length_b 18.000000
_cell_length_c 6.000000
_cell_angle_alpha 130.000000
_cell_angle_beta 110.000000
_cell_angle_gamma 60.000000
_cell_volume 644.526612
_symmetry_space_group_name_H-M "P -1"
_symmetry_group_IT_number 2
_symmetry_cell_setting 'triclinic'
loop_
_space_group_symop_operation_xyz
x,y,z
-x,-y,-z
loop_
_atom_site_type_symbol
_atom_site_label
_atom_site_fract_x
_atom_site_fract_y
_atom_site_fract_z
Si Si1 0.842915 0.405833 0.250331
Si Si2 0.500000 0.500000 0.000000
Si Si3 0.936353 0.854208 0.642979
Si Si4 0.803887 0.719988 0.998976
Si Si5 0.618521 0.592105 0.810753
Si Si6 0.728397 0.252951 0.157325
Si Si7 0.333149 0.092393 0.997517
Si Si8 0.825805 0.032147 0.615933
O O1 0.756234 0.492501 0.565222
O O2 0.828558 0.301787 0.141094
O O3 0.042247 0.372908 0.228164
O O4 0.710531 0.448945 0.062676
O O5 0.535388 0.564417 0.929631
O O6 0.819778 0.862562 0.814876
O O7 0.138939 0.799526 0.680326
O O8 0.879808 0.972930 0.761998
O O9 0.893423 0.784450 0.303132
O O10 0.710334 0.672781 0.034908
O O11 0.666335 0.803064 0.922258
O O12 0.451285 0.654773 0.688596
O O13 0.717064 0.155031 0.829909
O O14 0.500000 0.000000 0.000000
O O15 0.282267 0.025539 0.661361
O O16 0.000000 0.000000 0.500000
#
# Coordination Sequence:
#
# PCOD9074668 Si02
#       8
#     2   1   2   2   2   2   2   2
#     4  11  24  48  68  98 146 180 240 295 351 408
#     4  10  24  44  70 100 132 182 226 306 338 406
#     4  11  24  43  70 101 143 185 228 292 354 420
#     4  11  26  45  73 106 139 189 234 290 355 428
#     4  11  27  45  71 104 140 183 243 292 352 419
#     4  11  22  44  70  98 141 184 235 291 350 418
#     4  11  26  44  68 102 149 182 228 292 350 423
#     4  11  23  42  66 105 134 183 236 279 349 429
#
# _framework density 23.272894999999998
#
# number of rings (size 3 to 8) (size 9 to 14) (size 15 to 20)
#    0.000    1.067    2.667    3.200    7.467    2.667 
#    2.400    0.000    0.000    0.000    0.000    0.000 
#    0.000    0.000    0.000    0.000    0.000    0.000 
#
# Total GULP energy -83508.014359 kJ/mol
# GULP energy per Si atom -5567.200957 kJ/mol
# Density = 2.321992 g / cm^3
# Si number density = 23.272895 Si / 1000 Ang^3
#
#
#
# Elastic Constant Matrix: (Units=GPa)
#
#
# Indices 1 2 3 4 5 6 
#
# 1 92.0360 48.9269 16.8636 11.8598 -2.8402 2.9933
# 2 48.9269 136.7877 31.6787 9.8092 2.7967 -12.3573
# 3 16.8636 31.6787 44.0521 10.9409 -3.1230 5.3912
# 4 11.8598 9.8092 10.9409 27.2964 -10.2250 4.3930
# 5 -2.8402 2.7967 -3.1230 -10.2250 23.7951 1.4080
# 6 2.9933 -12.3573 5.3912 4.3930 1.4080 44.8105
#
#
#
# Elastic Compliance Matrix: (Units=1/GPa)
#
#
# Indices 1 2 3 4 5 6 
#
# 1 0.014091 -0.004784 -0.000805 -0.003506 0.000741 -0.001843
# 2 -0.004784 0.011126 -0.006640 -0.001310 -0.003575 0.004428
# 3 -0.000805 -0.006640 0.030494 -0.008191 0.001444 -0.004688
# 4 -0.003506 -0.001310 -0.008191 0.050387 0.020592 -0.004728
# 5 0.000741 -0.003575 0.001444 0.020592 0.051860 -0.004857
# 6 -0.001843 0.004428 -0.004688 -0.004728 -0.004857 0.024841
#
#
# Mechanical properties :
#
#
# Convention : Reuss Voigt Hill
#
# Bulk Modulus (GPa) = 31.99621 51.97934 41.98778
# Shear Modulus (GPa) = 22.97022 30.87416 26.92219
#
# Velocity S-wave (km/s) = 3.14505 3.64622 3.40487
# Velocity P-wave (km/s) = 5.19294 6.33323 5.79122
#
# Compressibility (1/GPa) = 0.03125370
#
# Stress axis : x y z
#
# Youngs Moduli (GPa) = 70.96979 89.87601 32.79342
#
# Poissons Ratio (x) = 0.42994 0.02640
# Poissons Ratio (y) = 0.33950 0.21774
# Poissons Ratio (z) = 0.05713 0.59676
#
# Static dielectric constant tensor:
#      x y z
#    x 1.893160 -0.030900 0.014090 
#    y -0.030900 1.913800 -0.032060 
#    z 0.014090 -0.032060 1.922590 
# 
# From -- ./inp_files/49437.got.cif
#   From: 2010.05.17/outbox.ucp.g08.bks.cvg/sg2_25_cif.got.tgz:49437.got - 2010.06.11 11:32:03.
