data_PCOD9074308
_publ_section_title
;
Structure prediction by ZEFSAII (Michael W. Deem and Ramdas Pophale) SiO2 
 PCOD9074308
Probable space group: P -1
;
_chemical_formula_sum "Si O2"
_cell_formula_units_Z 16
_cell_length_a 9.000000
_cell_length_b 12.000000
_cell_length_c 27.000000
_cell_angle_alpha 150.000000
_cell_angle_beta 150.000000
_cell_angle_gamma 40.000000
_cell_volume 727.497153
_symmetry_space_group_name_H-M "P -1"
_symmetry_group_IT_number 2
_symmetry_cell_setting 'triclinic'
loop_
_space_group_symop_operation_xyz
x,y,z
-x,-y,-z
loop_
_atom_site_type_symbol
_atom_site_label
_atom_site_fract_x
_atom_site_fract_y
_atom_site_fract_z
Si Si1 0.949479 0.328150 0.038258
Si Si2 0.614461 0.023890 0.484990
Si Si3 0.476929 0.021487 0.802662
Si Si4 0.958603 0.607848 0.238236
Si Si5 0.796418 0.867339 0.052466
Si Si6 0.301758 0.174806 0.355409
Si Si7 0.536316 0.677547 0.996941
Si Si8 0.197537 0.703122 0.531564
O O1 0.076349 0.427228 0.162141
O O2 0.688348 0.504476 0.013062
O O3 0.807263 0.089715 0.910205
O O4 0.160400 0.309746 0.046717
O O5 0.377814 0.047738 0.380821
O O6 0.778828 0.254760 0.613018
O O7 0.500000 0.000000 0.500000
O O8 0.869483 0.823284 0.476192
O O9 0.248137 0.195207 0.773087
O O10 0.486522 0.090968 0.889702
O O11 0.362507 0.789216 0.662135
O O12 0.755373 0.451612 0.152252
O O13 0.741189 0.725381 0.029862
O O14 0.063012 0.027795 0.202251
O O15 0.500000 0.000000 0.000000
O O16 0.187227 0.435763 0.427973
O O17 0.595059 0.202630 0.416296
#
# Coordination Sequence:
#
# PCOD9074308 Si02
#       8
#     2   2   2   2   2   2   2   2
#     4   9  17  38  63  89 122 162 209 264 322 385
#     4  11  25  44  71 105 135 175 231 285 338 408
#     4   8  15  36  66  92 120 160 213 267 323 386
#     4   8  18  37  65  96 119 159 217 262 327 396
#     4  12  26  41  57  96 137 168 219 275 329 396
#     4  11  26  45  68  99 138 187 227 274 344 404
#     4   9  19  37  66  91 121 167 211 266 327 385
#     4  10  22  46  71  96 139 182 226 280 335 414
#
# _framework density 21.993213000000001
#
# number of rings (size 3 to 8) (size 9 to 14) (size 15 to 20)
#    0.000    2.250    1.250    2.250    5.250    3.500 
#    4.500    1.250    0.000    0.000    0.000    0.000 
#    0.000    0.000    0.000    0.000    0.000    0.000 
#
# Total GULP energy -89087.910410 kJ/mol
# GULP energy per Si atom -5567.994401 kJ/mol
# Density = 2.194316 g / cm^3
# Si number density = 21.993213 Si / 1000 Ang^3
#
#
#
# Elastic Constant Matrix: (Units=GPa)
#
#
# Indices 1 2 3 4 5 6 
#
# 1 54.7171 25.0265 -31.6786 4.5113 19.4639 -42.3803
# 2 25.0265 70.8840 10.5709 -0.7556 1.6070 -14.0143
# 3 -31.6786 10.5709 49.1526 4.0722 4.9987 -31.9519
# 4 4.5113 -0.7556 4.0722 30.3780 7.4653 -7.4030
# 5 19.4639 1.6070 4.9987 7.4653 5.4981 18.9493
# 6 -42.3803 -14.0143 -31.9519 -7.4030 18.9493 -8.1571
#
#
#
# Elastic Compliance Matrix: (Units=1/GPa)
#
#
# Indices 1 2 3 4 5 6 
#
# 1 0.009843 -0.005885 0.000385 -0.006908 0.011203 -0.010241
# 2 -0.005885 0.017957 -0.004328 0.003984 -0.003431 0.005089
# 3 0.000385 -0.004328 0.016156 -0.008515 0.018823 -0.006397
# 4 -0.006908 0.003984 -0.008515 0.037857 -0.012994 -0.002140
# 5 0.011203 -0.003431 0.018823 -0.012994 0.059680 0.024394
# 6 -0.010241 0.005089 -0.006397 -0.002140 0.024394 0.005540
#
#
# Mechanical properties :
#
#
# Convention : Reuss Voigt Hill
#
# Bulk Modulus (GPa) = 41.15011 20.28793 30.71902
# Shear Modulus (GPa) = 28.60591 16.93278 22.76935
#
# Velocity S-wave (km/s) = 3.61039 2.77773 3.22108
# Velocity P-wave (km/s) = 6.01090 4.41955 5.27557
#
# Compressibility (1/GPa) = 0.02430127
#
# Stress axis : x y z
#
# Youngs Moduli (GPa) = 101.59785 55.68833 61.89489
#
# Poissons Ratio (x) = 0.32772 -0.02383
# Poissons Ratio (y) = 0.59789 0.26785
# Poissons Ratio (z) = -0.03911 0.24099
#
# Static dielectric constant tensor:
#      x y z
#    x 1.873160 -0.049120 -0.018220 
#    y -0.049120 1.886030 -0.020030 
#    z -0.018220 -0.020030 1.822000 
# 
# From -- ./inp_files/555080.got.cif
#   From: 2010.05.17/outbox.ucp.g08.bks.cvg/sg2_278_cif.got.tgz:555080.got - 2010.06.11 11:32:03.
