data_PCOD9074240
_publ_section_title
;
Structure prediction by ZEFSAII (Michael W. Deem and Ramdas Pophale) SiO2 
 PCOD9074240
Probable space group: P -1
;
_chemical_formula_sum "Si O2"
_cell_formula_units_Z 16
_cell_length_a 9.000000
_cell_length_b 9.000000
_cell_length_c 21.000000
_cell_angle_alpha 50.000000
_cell_angle_beta 60.000000
_cell_angle_gamma 100.000000
_cell_volume 751.240448
_symmetry_space_group_name_H-M "P -1"
_symmetry_group_IT_number 2
_symmetry_cell_setting 'triclinic'
loop_
_space_group_symop_operation_xyz
x,y,z
-x,-y,-z
loop_
_atom_site_type_symbol
_atom_site_label
_atom_site_fract_x
_atom_site_fract_y
_atom_site_fract_z
Si Si1 0.222777 0.076215 0.391690
Si Si2 0.015554 0.733720 0.405190
Si Si3 0.636438 0.256925 0.527681
Si Si4 0.900115 0.726251 0.236795
Si Si5 0.387724 0.193410 0.086183
Si Si6 0.816322 0.654642 0.131328
Si Si7 0.200644 0.681500 0.979510
Si Si8 0.219852 0.946365 0.791092
O O1 0.513384 0.414481 0.241772
O O2 0.095578 0.947250 0.384649
O O3 0.271553 0.889307 0.449868
O O4 0.000000 0.000000 0.500000
O O5 0.000000 0.500000 0.500000
O O6 0.742332 0.496261 0.493624
O O7 0.211791 0.955957 0.245876
O O8 0.753862 0.448519 0.387806
O O9 0.338971 0.012769 0.677632
O O10 0.838096 0.607084 0.212320
O O11 0.779385 0.835604 0.245353
O O12 0.198841 0.014334 0.115014
O O13 0.624295 0.241860 0.021380
O O14 0.500000 0.500000 0.000000
O O15 0.973273 0.633991 0.061326
O O16 0.000000 0.000000 0.000000
O O17 0.347987 0.915813 0.825757
O O18 0.069785 0.379135 0.062494
#
# Coordination Sequence:
#
# PCOD9074240 Si02
#       8
#     2   2   2   2   2   2   2   2
#     4  11  25  45  68 101 140 185 228 275 343 418
#     4   9  21  40  69  94 128 171 227 281 324 404
#     4  10  22  44  69  99 133 175 232 282 339 398
#     4  11  25  43  67 100 141 174 223 287 344 411
#     4  11  23  41  67 102 133 170 228 286 341 391
#     4  12  27  45  67 100 142 185 226 275 347 422
#     4  11  23  41  71  96 133 184 222 279 338 412
#     4  11  21  41  73  98 130 175 233 278 335 406
#
# _framework density 21.298107999999999
#
# number of rings (size 3 to 8) (size 9 to 14) (size 15 to 20)
#    0.000    1.250    3.750    1.875    5.250    4.000 
#    2.250    0.000    0.000    0.000    0.000    0.000 
#    0.000    0.000    0.000    0.000    0.000    0.000 
#
# Total GULP energy -89077.228541 kJ/mol
# GULP energy per Si atom -5567.326784 kJ/mol
# Density = 2.124963 g / cm^3
# Si number density = 21.298108 Si / 1000 Ang^3
#
#
#
# Elastic Constant Matrix: (Units=GPa)
#
#
# Indices 1 2 3 4 5 6 
#
# 1 53.6602 11.3195 21.5929 -2.5299 -16.4435 3.5479
# 2 11.3195 94.0056 28.8395 0.1582 -13.2742 10.9675
# 3 21.5929 28.8395 98.3700 -18.0505 -5.9399 -4.3679
# 4 -2.5299 0.1582 -18.0505 33.4745 -5.8482 1.7775
# 5 -16.4435 -13.2742 -5.9399 -5.8482 32.1469 -1.0284
# 6 3.5479 10.9675 -4.3679 1.7775 -1.0284 34.2584
#
#
#
# Elastic Compliance Matrix: (Units=1/GPa)
#
#
# Indices 1 2 3 4 5 6 
#
# 1 0.024333 0.000527 -0.004609 0.001609 0.012010 -0.002999
# 2 0.000527 0.012993 -0.004071 -0.001186 0.004521 -0.004536
# 3 -0.004609 -0.004071 0.013770 0.006904 -0.000136 0.003174
# 4 0.001609 -0.001186 0.006904 0.035145 0.007987 -0.000491
# 5 0.012010 0.004521 -0.000136 0.007987 0.040484 -0.001908
# 6 -0.002999 -0.004536 0.003174 -0.000491 -0.001908 0.031326
#
#
# Mechanical properties :
#
#
# Convention : Reuss Voigt Hill
#
# Bulk Modulus (GPa) = 28.74269 41.05996 34.90132
# Shear Modulus (GPa) = 26.88851 32.26155 29.57503
#
# Velocity S-wave (km/s) = 3.55700 3.89622 3.73047
# Velocity P-wave (km/s) = 5.51311 6.28977 5.91420
#
# Compressibility (1/GPa) = 0.03479146
#
# Stress axis : x y z
#
# Youngs Moduli (GPa) = 41.09561 76.96616 72.62005
#
# Poissons Ratio (x) = -0.04055 0.33468
# Poissons Ratio (y) = -0.02165 0.29562
# Poissons Ratio (z) = 0.18939 0.31331
#
# Static dielectric constant tensor:
#      x y z
#    x 1.862100 0.054870 0.003250 
#    y 0.054870 1.786200 0.046660 
#    z 0.003250 0.046660 1.947130 
# 
# From -- ./inp_files/462521.got.cif
#   From: 2010.05.17/outbox.ucp.g08.bks.cvg/sg2_232_cif.got.tgz:462521.got - 2010.06.11 11:32:03.
