data_PCOD9074602
_publ_section_title
;
Structure prediction by ZEFSAII (Michael W. Deem and Ramdas Pophale) SiO2 
 PCOD9074602
Probable space group: P -1
;
_chemical_formula_sum "Si O2"
_cell_formula_units_Z 16
_cell_length_a 12.000000
_cell_length_b 9.000000
_cell_length_c 15.000000
_cell_angle_alpha 130.000000
_cell_angle_beta 70.000000
_cell_angle_gamma 140.000000
_cell_volume 759.581896
_symmetry_space_group_name_H-M "P -1"
_symmetry_group_IT_number 2
_symmetry_cell_setting 'triclinic'
loop_
_space_group_symop_operation_xyz
x,y,z
-x,-y,-z
loop_
_atom_site_type_symbol
_atom_site_label
_atom_site_fract_x
_atom_site_fract_y
_atom_site_fract_z
Si Si1 0.661302 0.706353 0.700548
Si Si2 0.633365 0.702652 0.125448
Si Si3 0.857995 0.657259 0.369095
Si Si4 0.871429 0.250491 0.755455
Si Si5 0.406270 0.678117 0.866153
Si Si6 0.995487 0.777987 0.878267
Si Si7 0.490186 0.766886 0.573245
Si Si8 0.618911 0.322356 0.700252
O O1 0.564982 0.749162 0.803250
O O2 0.528154 0.455725 0.562841
O O3 0.682943 0.537349 0.685167
O O4 0.849076 0.037906 0.744780
O O5 0.654713 0.532745 0.114157
O O6 0.529127 0.733459 0.225821
O O7 0.824026 0.013156 0.151408
O O8 0.500000 0.500000 0.000000
O O9 0.749896 0.516191 0.246128
O O10 0.696319 0.440702 0.401164
O O11 0.995006 0.646904 0.320787
O O12 0.000000 0.000000 0.500000
O O13 0.961928 0.566730 0.880455
O O14 0.662167 0.994381 0.680723
O O15 0.500000 0.000000 0.000000
O O16 0.807076 0.524982 0.779396
O O17 0.000000 0.000000 0.000000
O O18 0.529285 0.000124 0.589223
#
# Coordination Sequence:
#
# PCOD9074602 Si02
#       8
#     2   2   2   2   2   2   2   2
#     4  11  22  44  66 100 134 176 226 286 337 412
#     4  11  24  44  65  92 139 183 226 283 345 415
#     4  12  24  43  73 105 138 186 228 287 350 405
#     4  11  24  39  68 100 130 176 233 275 339 411
#     4  11  28  43  70 105 141 181 235 286 347 412
#     4  11  24  40  64  92 126 177 230 271 338 413
#     4  11  22  44  71  94 140 178 230 280 348 411
#     4  10  24  41  65  97 130 175 228 282 348 400
#
# _framework density 21.064219999999999
#
# number of rings (size 3 to 8) (size 9 to 14) (size 15 to 20)
#    0.000    1.000    3.750    2.250    7.000    0.000 
#    0.000    1.250    0.000    8.250    0.000    0.000 
#    0.000    0.000    0.000    0.000    0.000    0.000 
#
# Total GULP energy -89112.890557 kJ/mol
# GULP energy per Si atom -5569.555660 kJ/mol
# Density = 2.101628 g / cm^3
# Si number density = 21.064220 Si / 1000 Ang^3
#
#
#
# Elastic Constant Matrix: (Units=GPa)
#
#
# Indices 1 2 3 4 5 6 
#
# 1 47.3313 47.7736 19.2960 19.2293 -2.9840 -5.6942
# 2 47.7736 175.6544 49.1800 38.7992 -9.2175 -8.0837
# 3 19.2960 49.1800 112.1059 34.7451 -15.1136 -21.1299
# 4 19.2293 38.7992 34.7451 39.7327 -8.7148 -4.1446
# 5 -2.9840 -9.2175 -15.1136 -8.7148 39.6337 4.3078
# 6 -5.6942 -8.0837 -21.1299 -4.1446 4.3078 52.4056
#
#
#
# Elastic Compliance Matrix: (Units=1/GPa)
#
#
# Indices 1 2 3 4 5 6 
#
# 1 0.031571 -0.006659 0.000602 -0.009362 -0.001218 0.002006
# 2 -0.006659 0.008818 -0.001497 -0.004085 0.000113 -0.000299
# 3 0.000602 -0.001497 0.013642 -0.009806 0.002268 0.004373
# 4 -0.009362 -0.004085 -0.009806 0.042945 0.004327 -0.002560
# 5 -0.001218 0.000113 0.002268 0.004327 0.027100 -0.001086
# 6 0.002006 -0.000299 0.004373 -0.002560 -0.001086 0.020904
#
#
# Mechanical properties :
#
#
# Convention : Reuss Voigt Hill
#
# Bulk Modulus (GPa) = 25.69143 63.06565 44.37854
# Shear Modulus (GPa) = 28.89138 40.94385 34.91762
#
# Velocity S-wave (km/s) = 3.70751 4.41360 4.07587
# Velocity P-wave (km/s) = 5.52727 7.48183 6.57756
#
# Compressibility (1/GPa) = 0.03892348
#
# Stress axis : x y z
#
# Youngs Moduli (GPa) = 31.67450 113.40761 73.30082
#
# Poissons Ratio (x) = 0.75519 -0.04416
# Poissons Ratio (y) = 0.21092 0.10975
# Poissons Ratio (z) = -0.01908 0.16980
#
# Static dielectric constant tensor:
#      x y z
#    x 1.904700 -0.107920 0.011940 
#    y -0.107920 1.788570 -0.036850 
#    z 0.011940 -0.036850 1.772130 
# 
# From -- ./inp_files/258126.got.cif
#   From: 2010.05.17/outbox.ucp.g08.bks.cvg/sg2_130_cif.got.tgz:258126.got - 2010.06.11 11:32:03.
