data_PCOD9074795
_publ_section_title
;
Structure prediction by ZEFSAII (Michael W. Deem and Ramdas Pophale) SiO2 
 PCOD9074795
Probable space group: P -1
;
_chemical_formula_sum "Si O2"
_cell_formula_units_Z 16
_cell_length_a 6.000000
_cell_length_b 18.000000
_cell_length_c 9.000000
_cell_angle_alpha 60.000000
_cell_angle_beta 110.000000
_cell_angle_gamma 120.000000
_cell_volume 723.492119
_symmetry_space_group_name_H-M "P -1"
_symmetry_group_IT_number 2
_symmetry_cell_setting 'triclinic'
loop_
_space_group_symop_operation_xyz
x,y,z
-x,-y,-z
loop_
_atom_site_type_symbol
_atom_site_label
_atom_site_fract_x
_atom_site_fract_y
_atom_site_fract_z
Si Si1 0.529927 0.296951 0.273914
Si Si2 0.225774 0.545822 0.299704
Si Si3 0.949759 0.171204 0.241140
Si Si4 0.770692 0.164885 0.544530
Si Si5 0.777059 0.974206 0.346910
Si Si6 0.625511 0.476216 0.307519
Si Si7 0.597721 0.264601 0.982137
Si Si8 0.143200 0.105580 0.864733
O O1 0.729320 0.261401 0.435580
O O2 0.507786 0.379304 0.283954
O O3 0.254084 0.209612 0.292163
O O4 0.584617 0.308174 0.098338
O O5 0.380547 0.507161 0.252509
O O6 0.280332 0.521105 0.503366
O O7 0.371717 0.657294 0.208268
O O8 0.913430 0.522171 0.241922
O O9 0.848073 0.154477 0.403570
O O10 0.828307 0.079089 0.205433
O O11 0.854448 0.244689 0.072749
O O12 0.500233 0.077169 0.592265
O O13 0.956730 0.157337 0.723669
O O14 0.770566 0.912560 0.263184
O O15 0.000000 0.000000 0.500000
O O16 0.359089 0.170041 0.966881
O O17 0.000000 0.000000 0.000000
#
# Coordination Sequence:
#
# PCOD9074795 Si02
#       8
#     2   2   2   2   2   2   2   2
#     4  11  25  45  71 104 136 192 232 292 361 442
#     4  10  25  48  75 111 143 189 239 309 363 441
#     4  11  24  44  67 101 141 180 244 290 355 435
#     4  11  24  41  71  97 134 192 236 294 349 435
#     4  12  23  42  68  96 134 191 237 285 352 426
#     4  10  25  48  77 106 148 187 243 297 376 440
#     4  11  28  44  69 105 144 185 236 299 362 425
#     4  12  27  44  66 105 144 184 238 300 354 415
#
# _framework density 22.114961000000001
#
# number of rings (size 3 to 8) (size 9 to 14) (size 15 to 20)
#    0.000    1.000    2.500    1.875   10.500    6.000 
#    0.000    0.000    0.000    0.000    0.000    0.000 
#    0.000    0.000    0.000    0.000    0.000    0.000 
#
# Total GULP energy -89156.219347 kJ/mol
# GULP energy per Si atom -5572.263709 kJ/mol
# Density = 2.206463 g / cm^3
# Si number density = 22.114961 Si / 1000 Ang^3
#
#
#
# Elastic Constant Matrix: (Units=GPa)
#
#
# Indices 1 2 3 4 5 6 
#
# 1 90.9560 3.5917 20.2237 -14.2388 5.1235 -14.4924
# 2 3.5917 73.0319 0.0367 -4.6097 4.1167 -23.5942
# 3 20.2237 0.0367 46.9261 -0.8365 20.4712 -7.0444
# 4 -14.2388 -4.6097 -0.8365 28.2470 6.3792 -4.2829
# 5 5.1235 4.1167 20.4712 6.3792 21.3405 0.8908
# 6 -14.4924 -23.5942 -7.0444 -4.2829 0.8908 35.1200
#
#
#
# Elastic Compliance Matrix: (Units=1/GPa)
#
#
# Indices 1 2 3 4 5 6 
#
# 1 0.014835 0.003198 -0.002529 0.010508 -0.005277 0.009178
# 2 0.003198 0.022072 0.010619 0.013134 -0.019989 0.020387
# 3 -0.002529 0.010619 0.049668 0.017336 -0.055085 0.019565
# 4 0.010508 0.013134 0.017336 0.055972 -0.039439 0.024463
# 5 -0.005277 -0.019989 -0.055085 -0.039439 0.118051 -0.034460
# 6 0.009178 0.020387 0.019565 0.024463 -0.034460 0.053739
#
#
# Mechanical properties :
#
#
# Convention : Reuss Voigt Hill
#
# Bulk Modulus (GPa) = 9.16158 28.73534 18.94846
# Shear Modulus (GPa) = 15.23720 29.41229 22.32475
#
# Velocity S-wave (km/s) = 2.62773 3.65084 3.18069
# Velocity P-wave (km/s) = 3.65490 5.54917 4.69849
#
# Compressibility (1/GPa) = 0.10915152
#
# Stress axis : x y z
#
# Youngs Moduli (GPa) = 67.40821 45.30618 20.13368
#
# Poissons Ratio (x) = -0.14487 0.05091
# Poissons Ratio (y) = -0.21554 -0.21381
# Poissons Ratio (z) = 0.17045 -0.48112
#
# Static dielectric constant tensor:
#      x y z
#    x 1.911360 -0.037350 0.008860 
#    y -0.037350 1.813870 -0.070640 
#    z 0.008860 -0.070640 1.862830 
# 
# From -- ./inp_files/89804.got.cif
#   From: 2010.05.17/outbox.ucp.g08.bks.cvg/sg2_45_cif.got.tgz:89804.got - 2010.06.11 11:32:03.
