data_PCOD9074957
_publ_section_title
;
Structure prediction by ZEFSAII (Michael W. Deem and Ramdas Pophale) SiO2 
 PCOD9074957
Probable space group: P -1
;
_chemical_formula_sum "Si O2"
_cell_formula_units_Z 16
_cell_length_a 12.901740
_cell_length_b 6.889274
_cell_length_c 8.314413
_cell_angle_alpha 110.024210
_cell_angle_beta 99.597762
_cell_angle_gamma 117.028727
_cell_volume 570.790317
_symmetry_space_group_name_H-M "P -1"
_symmetry_group_IT_number 2
_symmetry_cell_setting 'triclinic'
loop_
_space_group_symop_operation_xyz
x,y,z
-x,-y,-z
loop_
_atom_site_type_symbol
_atom_site_label
_atom_site_fract_x
_atom_site_fract_y
_atom_site_fract_z
Si Si1 0.959684 0.805203 0.128882
Si Si2 0.311877 0.528945 0.087893
Si Si3 0.998905 0.563889 0.764345
Si Si4 0.338758 0.016810 0.207818
Si Si5 0.804998 0.816924 0.554285
Si Si6 0.416439 0.619699 0.498332
Si Si7 0.446708 0.151384 0.947605
Si Si8 0.193466 0.855017 0.613627
O O1 0.969745 0.628321 0.208618
O O2 0.818221 0.729694 0.046647
O O3 0.061411 0.079887 0.299326
O O4 0.997095 0.733512 0.951082
O O5 0.356960 0.576978 0.296822
O O6 0.430039 0.606844 0.026094
O O7 0.274649 0.726426 0.089875
O O8 0.104820 0.726528 0.706985
O O9 0.862513 0.373412 0.592437
O O10 0.255592 0.073586 0.312907
O O11 0.471699 0.104083 0.353039
O O12 0.374909 0.162728 0.089389
O O13 0.697802 0.526269 0.446247
O O14 0.820624 0.941000 0.422828
O O15 0.500000 0.500000 0.500000
O O16 0.338899 0.998345 0.743868
O O17 0.500000 0.000000 0.000000
#
# Coordination Sequence:
#
# PCOD9074957 Si02
#       8
#     2   2   2   2   2   2   2   2
#     4  10  19  34  56  84 112 142 184 225 280 326
#     4  11  21  35  59  84 110 145 186 233 274 325
#     4   9  18  32  55  85 111 141 183 234 272 326
#     4  10  20  37  60  84 109 143 189 233 274 322
#     4  10  21  38  58  80 116 150 181 226 274 337
#     4  10  22  39  55  79 113 151 187 223 277 331
#     4  10  20  32  52  83 114 138 178 236 278 316
#     4  10  18  32  53  78 112 148 183 222 279 326
#
# _framework density 28.031310000000001
#
# number of rings (size 3 to 8) (size 9 to 14) (size 15 to 20)
#    0.000    2.000    0.000    6.375    0.000    3.500 
#    0.000    6.875    0.000    1.500    0.000    0.000 
#    0.000    0.000    0.000    0.000    0.000    0.000 
#
# Total GULP energy -89774.845391 kJ/mol
# GULP energy per Si atom -5610.927837 kJ/mol
# Density = 2.796751 g / cm^3
# Si number density = 28.031310 Si / 1000 Ang^3
#
#
#
# Elastic Constant Matrix: (Units=GPa)
#
#
# Indices 1 2 3 4 5 6 
#
# 1 105.6839 19.5137 35.3867 2.4543 28.2152 20.7375
# 2 19.5137 137.5971 43.3719 -12.3364 18.4217 29.9217
# 3 35.3867 43.3719 155.9661 6.9977 45.8990 27.5686
# 4 2.4543 -12.3364 6.9977 69.8808 14.8090 4.7650
# 5 28.2152 18.4217 45.8990 14.8090 60.2616 10.4513
# 6 20.7375 29.9217 27.5686 4.7650 10.4513 47.1624
#
#
#
# Elastic Compliance Matrix: (Units=1/GPa)
#
#
# Indices 1 2 3 4 5 6 
#
# 1 0.011611 0.000091 -0.000700 0.000891 -0.004482 -0.003851
# 2 0.000091 0.009188 -0.001345 0.002424 -0.001558 -0.004983
# 3 -0.000700 -0.001345 0.009157 0.000299 -0.005800 -0.002936
# 4 0.000891 0.002424 0.000299 0.015880 -0.004831 -0.002638
# 5 -0.004482 -0.001558 -0.005800 -0.004831 0.024531 0.001402
# 6 -0.003851 -0.004983 -0.002936 -0.002638 0.001402 0.027730
#
#
# Mechanical properties :
#
#
# Convention : Reuss Voigt Hill
#
# Bulk Modulus (GPa) = 38.38951 66.19907 52.29429
# Shear Modulus (GPa) = 45.17175 55.52595 50.34885
#
# Velocity S-wave (km/s) = 4.01867 4.45551 4.24272
# Velocity P-wave (km/s) = 5.93784 7.08069 6.53430
#
# Compressibility (1/GPa) = 0.02604878
#
# Stress axis : x y z
#
# Youngs Moduli (GPa) = 86.12252 108.83637 109.20614
#
# Poissons Ratio (x) = -0.00995 0.07645
# Poissons Ratio (y) = -0.00787 0.14690
# Poissons Ratio (z) = 0.06029 0.14641
#
# Static dielectric constant tensor:
#      x y z
#    x 2.199910 -0.040900 -0.063580 
#    y -0.040900 2.188700 0.054830 
#    z -0.063580 0.054830 2.184370 
# 
# From -- ./inp_files/298862.got.cif
#   From: 2010.05.17/outbox.cif.g08.bks.cpg/sg2_150_cif.got.tgz:298862.got - 2010.06.03 11:33:40.
