data_PCOD9074106
_publ_section_title
;
Structure prediction by ZEFSAII (Michael W. Deem and Ramdas Pophale) SiO2 
 PCOD9074106
Probable space group: P -1
;
_chemical_formula_sum "Si O2"
_cell_formula_units_Z 16
_cell_length_a 12.000000
_cell_length_b 15.000000
_cell_length_c 9.000000
_cell_angle_alpha 30.000000
_cell_angle_beta 110.000000
_cell_angle_gamma 100.000000
_cell_volume 734.803614
_symmetry_space_group_name_H-M "P -1"
_symmetry_group_IT_number 2
_symmetry_cell_setting 'triclinic'
loop_
_space_group_symop_operation_xyz
x,y,z
-x,-y,-z
loop_
_atom_site_type_symbol
_atom_site_label
_atom_site_fract_x
_atom_site_fract_y
_atom_site_fract_z
Si Si1 0.892251 0.675374 0.738912
Si Si2 0.612888 0.211170 0.802833
Si Si3 0.918461 0.664318 0.129629
Si Si4 0.519348 0.563127 0.082810
Si Si5 0.697820 0.204500 0.189249
Si Si6 0.660814 0.827289 0.222733
Si Si7 0.660579 0.833408 0.856636
Si Si8 0.030961 0.956810 0.405279
O O1 0.768780 0.688937 0.567373
O O2 0.933453 0.857349 0.443382
O O3 0.898379 0.669879 0.931791
O O4 0.000000 0.500000 0.000000
O O5 0.614111 0.397002 0.449515
O O6 0.469411 0.214819 0.745055
O O7 0.674815 0.202750 0.004817
O O8 0.664648 0.026646 0.999794
O O9 0.000000 0.500000 0.500000
O O10 0.784233 0.681103 0.102127
O O11 0.958842 0.848176 0.932267
O O12 0.500000 0.500000 0.000000
O O13 0.392845 0.618240 0.036376
O O14 0.561315 0.751218 0.846418
O O15 0.836458 0.187560 0.323635
O O16 0.671601 0.018796 0.513450
O O17 0.656995 0.843574 0.018331
O O18 0.000000 0.000000 0.500000
#
# Coordination Sequence:
#
# PCOD9074106 Si02
#       8
#     2   2   2   2   2   2   2   2
#     4  11  24  41  68  96 130 174 222 276 326 394
#     4  11  25  41  67  95 130 174 217 272 320 403
#     4  10  22  42  66  95 127 173 221 273 329 385
#     4  12  27  40  63  98 132 168 220 270 332 389
#     4  11  23  44  68  95 133 172 221 268 336 389
#     4  11  24  42  66  94 133 174 222 259 341 387
#     4  11  24  43  66  92 134 174 211 275 331 398
#     4   9  21  41  66  93 126 169 215 270 322 389
#
# _framework density 21.774525000000001
#
# number of rings (size 3 to 8) (size 9 to 14) (size 15 to 20)
#    0.000    1.250    1.250    4.500    7.000    3.000 
#    0.000    5.625    0.000    0.000    0.000    0.000 
#    0.000    0.000    0.000    0.000    0.000    0.000 
#
# Total GULP energy -89214.539085 kJ/mol
# GULP energy per Si atom -5575.908693 kJ/mol
# Density = 2.172497 g / cm^3
# Si number density = 21.774525 Si / 1000 Ang^3
#
#
#
# Elastic Constant Matrix: (Units=GPa)
#
#
# Indices 1 2 3 4 5 6 
#
# 1 63.8122 25.9281 16.2625 -5.9582 6.6788 13.2695
# 2 25.9281 121.1326 19.9363 30.0173 -9.5685 -15.6522
# 3 16.2625 19.9363 95.3979 27.3635 8.5632 -1.0829
# 4 -5.9582 30.0173 27.3635 14.0416 3.6165 14.5400
# 5 6.6788 -9.5685 8.5632 3.6165 27.0197 -3.6812
# 6 13.2695 -15.6522 -1.0829 14.5400 -3.6812 30.3940
#
#
#
# Elastic Compliance Matrix: (Units=1/GPa)
#
#
# Indices 1 2 3 4 5 6 
#
# 1 0.009105 0.004017 0.003636 -0.021314 0.002053 0.008668
# 2 0.004017 0.002885 -0.006181 0.017185 -0.001524 -0.008894
# 3 0.003636 -0.006181 0.009523 0.007960 -0.008433 -0.009261
# 4 -0.021314 0.017185 0.007960 -0.031812 0.017971 0.035834
# 5 0.002053 -0.001524 -0.008433 0.017971 0.035372 -0.006295
# 6 0.008668 -0.008894 -0.009261 0.035834 -0.006295 0.006302
#
#
# Mechanical properties :
#
#
# Convention : Reuss Voigt Hill
#
# Bulk Modulus (GPa) = 40.88973 44.95517 42.92245
# Shear Modulus (GPa) = 136.67735 28.83877 82.75806
#
# Velocity S-wave (km/s) = 7.93131 3.64322 6.17166
# Velocity P-wave (km/s) = 10.13379 6.19580 8.39886
#
# Compressibility (1/GPa) = 0.02445602
#
# Stress axis : x y z
#
# Youngs Moduli (GPa) = 109.83373 346.65387 105.01181
#
# Poissons Ratio (x) = -1.39241 -0.38185
# Poissons Ratio (y) = -0.44117 0.64908
# Poissons Ratio (z) = -0.39938 2.14268
#
# Static dielectric constant tensor:
#      x y z
#    x 2.194580 0.852850 1.378630 
#    y 0.852850 4.146900 3.821330 
#    z 1.378630 3.821330 8.084900 
# 
# From -- ./inp_files/217915.got.cif
#   From: 2010.05.17/outbox.ucp.g08.bks.cvg/sg2_109_cif.got.tgz:217915.got - 2010.06.11 11:32:03.
