data_PCOD9074317
_publ_section_title
;
Structure prediction by ZEFSAII (Michael W. Deem and Ramdas Pophale) SiO2 
 PCOD9074317
Probable space group: P -1
;
_chemical_formula_sum "Si O2"
_cell_formula_units_Z 16
_cell_length_a 9.000000
_cell_length_b 9.000000
_cell_length_c 24.000000
_cell_angle_alpha 130.000000
_cell_angle_beta 30.000000
_cell_angle_gamma 130.000000
_cell_volume 725.531033
_symmetry_space_group_name_H-M "P -1"
_symmetry_group_IT_number 2
_symmetry_cell_setting 'triclinic'
loop_
_space_group_symop_operation_xyz
x,y,z
-x,-y,-z
loop_
_atom_site_type_symbol
_atom_site_label
_atom_site_fract_x
_atom_site_fract_y
_atom_site_fract_z
Si Si1 0.487362 0.079472 0.211081
Si Si2 0.235738 0.497554 0.735520
Si Si3 0.661386 0.534071 0.119654
Si Si4 0.548268 0.304997 0.668635
Si Si5 0.512882 0.360398 0.513652
Si Si6 0.553995 0.355990 0.899367
Si Si7 0.025086 0.987645 0.554792
Si Si8 0.854544 0.720167 0.708076
O O1 0.724654 0.291771 0.193990
O O2 0.226350 0.108181 0.259934
O O3 0.309389 0.049395 0.319929
O O4 0.573006 0.881742 0.112899
O O5 0.266682 0.326799 0.727777
O O6 0.505715 0.491553 0.602617
O O7 0.917664 0.427280 0.791361
O O8 0.587137 0.703040 0.226633
O O9 0.600803 0.589027 0.091418
O O10 0.400337 0.341107 0.176174
O O11 0.000000 0.500000 0.000000
O O12 0.753323 0.163545 0.545700
O O13 0.772338 0.523536 0.648659
O O14 0.500000 0.500000 0.500000
O O15 0.796710 0.259647 0.387019
O O16 0.212438 0.189082 0.568954
O O17 0.500000 0.500000 0.000000
O O18 0.000000 0.000000 0.500000
#
# Coordination Sequence:
#
# PCOD9074317 Si02
#       8
#     2   2   2   2   2   2   2   2
#     4  11  24  44  69 100 140 177 232 278 348 402
#     4  11  23  43  68  99 137 179 223 285 339 403
#     4  10  22  47  69  93 137 180 226 288 341 403
#     4   9  21  39  67  92 133 179 225 266 348 394
#     4  12  23  37  64 100 149 176 228 278 337 416
#     4  12  26  44  74 100 134 178 238 286 339 413
#     4  12  23  37  64 102 143 187 220 275 348 412
#     4   9  22  41  67  96 132 181 226 276 338 406
#
# _framework density 22.052813
#
# number of rings (size 3 to 8) (size 9 to 14) (size 15 to 20)
#    0.750    0.500    1.250    5.250    1.750    3.500 
#    0.000    0.625    0.000    0.000    0.000    0.000 
#    0.000    0.000    0.000    0.000    0.000    0.000 
#
# Total GULP energy -89085.128741 kJ/mol
# GULP energy per Si atom -5567.820546 kJ/mol
# Density = 2.200262 g / cm^3
# Si number density = 22.052813 Si / 1000 Ang^3
#
#
#
# Elastic Constant Matrix: (Units=GPa)
#
#
# Indices 1 2 3 4 5 6 
#
# 1 97.3248 33.2286 30.6108 24.5568 -13.3683 -15.3146
# 2 33.2286 45.6469 10.8076 17.5408 12.0838 13.1205
# 3 30.6108 10.8076 85.2690 19.5039 10.6141 1.5471
# 4 24.5568 17.5408 19.5039 25.9704 17.0308 2.5947
# 5 -13.3683 12.0838 10.6141 17.0308 34.3821 -8.4275
# 6 -15.3146 13.1205 1.5471 2.5947 -8.4275 24.2363
#
#
#
# Elastic Compliance Matrix: (Units=1/GPa)
#
#
# Indices 1 2 3 4 5 6 
#
# 1 -0.016778 0.022333 0.002218 0.028521 -0.038841 -0.039393
# 2 0.022333 0.007520 -0.002154 -0.054637 0.041210 0.030357
# 3 0.002218 -0.002154 0.013944 -0.016061 0.006672 0.005717
# 4 0.028521 -0.054637 -0.016061 0.033643 0.032381 0.056283
# 5 -0.038841 0.041210 0.006672 0.032381 -0.033930 -0.062543
# 6 -0.039393 0.030357 0.005717 0.056283 -0.062543 -0.028203
#
#
# Mechanical properties :
#
#
# Convention : Reuss Voigt Hill
#
# Bulk Modulus (GPa) = 20.20966 41.94830 31.07898
# Shear Modulus (GPa) = -95.95927 27.15734 -34.40096
#
# Velocity S-wave (km/s) = -6.60362 3.51304 -3.95389
# Velocity P-wave (km/s) = 6.99712 5.95972 2.59244
#
# Compressibility (1/GPa) = 0.04948129
#
# Stress axis : x y z
#
# Youngs Moduli (GPa) = -59.60213 132.97395 71.71695
#
# Poissons Ratio (x) = -2.96974 -0.15909
# Poissons Ratio (y) = 1.33111 0.15447
# Poissons Ratio (z) = 0.13221 0.28641
#
# Static dielectric constant tensor:
#      x y z
#    x 1.855050 -0.047860 0.046340 
#    y -0.047860 1.807050 0.044770 
#    z 0.046340 0.044770 2.015960 
# 
# From -- ./inp_files/606769.got.cif
#   From: 2010.05.17/outbox.ucp.g08.bks.cvg/sg2_304_cif.got.tgz:606769.got - 2010.06.11 11:32:03.
