data_PCOD9074086
_publ_section_title
;
Structure prediction by ZEFSAII (Michael W. Deem and Ramdas Pophale) SiO2 
 PCOD9074086
Probable space group: P -1
;
_chemical_formula_sum "Si O2"
_cell_formula_units_Z 14
_cell_length_a 18.000000
_cell_length_b 21.000000
_cell_length_c 9.000000
_cell_angle_alpha 40.000000
_cell_angle_beta 50.000000
_cell_angle_gamma 20.000000
_cell_volume 700.468056
_symmetry_space_group_name_H-M "P -1"
_symmetry_group_IT_number 2
_symmetry_cell_setting 'triclinic'
loop_
_space_group_symop_operation_xyz
x,y,z
-x,-y,-z
loop_
_atom_site_type_symbol
_atom_site_label
_atom_site_fract_x
_atom_site_fract_y
_atom_site_fract_z
Si Si1 0.958382 0.631426 0.623644
Si Si2 0.499561 0.401239 0.276793
Si Si3 0.191541 0.532276 0.259209
Si Si4 0.482835 0.464735 0.739827
Si Si5 0.161867 0.481345 0.948167
Si Si6 0.028093 0.159949 0.263902
Si Si7 0.568081 0.163198 0.179478
O O1 0.098641 0.527503 0.481458
O O2 0.113399 0.507638 0.791287
O O3 0.761568 0.899544 0.410139
O O4 0.877157 0.592158 0.799205
O O5 0.317182 0.494014 0.275367
O O6 0.434057 0.519486 0.297801
O O7 0.746351 0.114884 0.494868
O O8 0.500000 0.500000 0.000000
O O9 0.383973 0.321686 0.267753
O O10 0.983714 0.777793 0.995172
O O11 0.500000 0.500000 0.500000
O O12 0.211077 0.683317 0.716169
O O13 0.623271 0.230275 0.995258
O O14 0.005439 0.716182 0.799314
O O15 0.419231 0.280018 0.014141
#
# Coordination Sequence:
#
# PCOD9074086 Si02
#       7
#     2   2   2   2   2   2   2
#     4  11  22  40  67  86 122 159 200 249 307 349
#     4  12  22  40  61  87 121 161 199 245 297 355
#     4  10  24  39  61  94 118 159 208 238 299 369
#     4  10  23  38  60  89 122 156 203 241 300 357
#     4   9  22  41  61  92 118 154 202 251 300 361
#     4  10  23  41  61  85 126 156 198 256 296 351
#     4  10  22  42  59  90 126 154 200 254 292 359
#
# _framework density 19.986636000000001
#
# number of rings (size 3 to 8) (size 9 to 14) (size 15 to 20)
#    0.000    2.000    2.857    1.714    6.000    2.286 
#    0.000    7.857    0.000    0.000    0.000    0.000 
#    0.000    0.000    0.000    0.000    0.000    0.000 
#
# Total GULP energy -78000.893107 kJ/mol
# GULP energy per Si atom -5571.492365 kJ/mol
# Density = 1.994115 g / cm^3
# Si number density = 19.986636 Si / 1000 Ang^3
#
#
#
# Elastic Constant Matrix: (Units=GPa)
#
#
# Indices 1 2 3 4 5 6 
#
# 1 71.4288 -9.1234 -9.4102 -10.9163 4.0990 11.1522
# 2 -9.1234 14.1531 19.0909 2.5430 -5.1316 0.9982
# 3 -9.4102 19.0909 99.1677 -2.6550 -7.5486 4.9567
# 4 -10.9163 2.5430 -2.6550 31.5716 7.5996 -0.0141
# 5 4.0990 -5.1316 -7.5486 7.5996 39.3997 -2.3599
# 6 11.1522 0.9982 4.9567 -0.0141 -2.3599 17.6856
#
#
#
# Elastic Compliance Matrix: (Units=1/GPa)
#
#
# Indices 1 2 3 4 5 6 
#
# 1 0.018411 0.010245 0.000384 0.006157 -0.002451 -0.012617
# 2 0.010245 0.109238 -0.019187 -0.009514 0.010974 -0.005792
# 3 0.000384 -0.019187 0.014005 0.003005 -0.000625 -0.003165
# 4 0.006157 -0.009514 0.003005 0.036925 -0.008745 -0.005325
# 5 -0.002451 0.010974 -0.000625 -0.008745 0.028929 0.004954
# 6 -0.012617 -0.005792 -0.003165 -0.005325 0.004954 0.066370
#
#
# Mechanical properties :
#
#
# Convention : Reuss Voigt Hill
#
# Bulk Modulus (GPa) = 8.02969 20.65157 14.34063
# Shear Modulus (GPa) = 15.03727 30.01089 22.52408
#
# Velocity S-wave (km/s) = 2.74591 3.87918 3.36066
# Velocity P-wave (km/s) = 3.75228 5.51536 4.71693
#
# Compressibility (1/GPa) = 0.12453782
#
# Stress axis : x y z
#
# Youngs Moduli (GPa) = 54.31637 9.15428 71.40218
#
# Poissons Ratio (x) = -0.09379 -0.02739
# Poissons Ratio (y) = -0.55649 1.37001
# Poissons Ratio (z) = -0.02084 0.17565
#
# Static dielectric constant tensor:
#      x y z
#    x 1.605070 0.017260 0.006760 
#    y 0.017260 1.698650 -0.011030 
#    z 0.006760 -0.011030 1.707900 
# 
# From -- ./inp_files/186416.got.cif
#   From: 2010.05.17/outbox.ucp.g08.bks.cvg/sg2_94_cif.got.tgz:186416.got - 2010.06.11 11:32:03.
