data_PCOD9074349
_publ_section_title
;
Structure prediction by ZEFSAII (Michael W. Deem and Ramdas Pophale) SiO2 
 PCOD9074349
Probable space group: P -1
;
_chemical_formula_sum "Si O2"
_cell_formula_units_Z 14
_cell_length_a 21.000000
_cell_length_b 9.000000
_cell_length_c 18.000000
_cell_angle_alpha 130.000000
_cell_angle_beta 20.000000
_cell_angle_gamma 140.000000
_cell_volume 700.468056
_symmetry_space_group_name_H-M "P -1"
_symmetry_group_IT_number 2
_symmetry_cell_setting 'triclinic'
loop_
_space_group_symop_operation_xyz
x,y,z
-x,-y,-z
loop_
_atom_site_type_symbol
_atom_site_label
_atom_site_fract_x
_atom_site_fract_y
_atom_site_fract_z
Si Si1 0.658620 0.126432 0.060445
Si Si2 0.889899 0.142940 0.659524
Si Si3 0.750341 0.281194 0.523830
Si Si4 0.067766 0.408093 0.827052
Si Si5 0.755610 0.930736 0.583115
Si Si6 0.051617 0.107687 0.176139
Si Si7 0.428665 0.606725 0.376901
O O1 0.476499 0.176520 0.247875
O O2 0.480877 0.877529 0.222055
O O3 0.747316 0.090387 0.874880
O O4 0.875235 0.313828 0.939852
O O5 0.080444 0.438479 0.543327
O O6 0.757963 0.055940 0.696339
O O7 0.000000 0.000000 0.500000
O O8 0.663711 0.281197 0.537544
O O9 0.892507 0.170918 0.332825
O O10 0.333424 0.599430 0.562028
O O11 0.040362 0.171995 0.812715
O O12 0.000000 0.500000 0.000000
O O13 0.723727 0.687376 0.563564
O O14 0.992225 0.115973 0.332523
O O15 0.306917 0.269190 0.905794
#
# Coordination Sequence:
#
# PCOD9074349 Si02
#       7
#     2   2   2   2   2   2   2
#     4  11  23  42  63  91 134 165 213 270 317 373
#     4  12  22  38  61  97 131 172 216 251 312 376
#     4  11  23  40  68  92 131 172 208 261 317 369
#     4  11  24  45  69  94 124 166 214 266 326 383
#     4  10  23  40  64  95 130 174 213 257 311 377
#     4  10  23  43  65  94 128 167 213 263 319 377
#     4  11  21  42  68  90 133 171 204 266 317 373
#
# _framework density 19.986636000000001
#
# number of rings (size 3 to 8) (size 9 to 14) (size 15 to 20)
#    0.000    1.143    4.286    2.143    0.000    4.571 
#    0.000    7.143    0.000    0.000    0.000    0.000 
#    0.000    0.000    0.000    0.000    0.000    0.000 
#
# Total GULP energy -77989.138641 kJ/mol
# GULP energy per Si atom -5570.652760 kJ/mol
# Density = 1.994115 g / cm^3
# Si number density = 19.986636 Si / 1000 Ang^3
#
#
#
# Elastic Constant Matrix: (Units=GPa)
#
#
# Indices 1 2 3 4 5 6 
#
# 1 86.3077 32.1968 66.8119 7.1849 17.0185 -4.2360
# 2 32.1968 53.9894 39.7946 10.4094 9.3056 -7.1579
# 3 66.8119 39.7946 177.5320 -3.7966 37.8408 -0.4416
# 4 7.1849 10.4094 -3.7966 33.3537 -7.5462 14.5615
# 5 17.0185 9.3056 37.8408 -7.5462 52.0411 5.4854
# 6 -4.2360 -7.1579 -0.4416 14.5615 5.4854 28.7602
#
#
#
# Elastic Compliance Matrix: (Units=1/GPa)
#
#
# Indices 1 2 3 4 5 6 
#
# 1 0.019041 -0.004938 -0.005606 -0.006002 -0.002669 0.005037
# 2 -0.004938 0.031263 -0.004390 -0.017762 -0.005147 0.016961
# 3 -0.005606 -0.004390 0.009518 0.004376 -0.003315 -0.003356
# 4 -0.006002 -0.017762 0.004376 0.056394 0.013977 -0.036456
# 5 -0.002669 -0.005147 -0.003315 0.013977 0.026914 -0.013935
# 6 0.005037 0.016961 -0.003356 -0.036456 -0.013935 0.060798
#
#
# Mechanical properties :
#
#
# Convention : Reuss Voigt Hill
#
# Bulk Modulus (GPa) = 33.38434 66.15950 49.77192
# Shear Modulus (GPa) = 20.51007 34.76604 27.63806
#
# Velocity S-wave (km/s) = 3.20689 4.17521 3.72267
# Velocity P-wave (km/s) = 5.51832 7.51112 6.59048
#
# Compressibility (1/GPa) = 0.02995417
#
# Stress axis : x y z
#
# Youngs Moduli (GPa) = 52.51695 31.98637 105.06085
#
# Poissons Ratio (x) = 0.15796 0.58897
# Poissons Ratio (y) = 0.25935 0.46121
# Poissons Ratio (z) = 0.29441 0.14042
#
# Static dielectric constant tensor:
#      x y z
#    x 1.763620 -0.010440 -0.010550 
#    y -0.010440 1.696790 0.003850 
#    z -0.010550 0.003850 1.762390 
# 
# From -- ./inp_files/337797.got.cif
#   From: 2010.05.17/outbox.ucp.g08.bks.cvg/sg2_169_cif.got.tgz:337797.got - 2010.06.11 11:32:03.
