data_PCOD9074129
_publ_section_title
;
Structure prediction by ZEFSAII (Michael W. Deem and Ramdas Pophale) SiO2 
 PCOD9074129
Probable space group: P -1
;
_chemical_formula_sum "Si O2"
_cell_formula_units_Z 14
_cell_length_a 18.000000
_cell_length_b 9.000000
_cell_length_c 6.000000
_cell_angle_alpha 120.000000
_cell_angle_beta 60.000000
_cell_angle_gamma 130.000000
_cell_volume 621.029576
_symmetry_space_group_name_H-M "P -1"
_symmetry_group_IT_number 2
_symmetry_cell_setting 'triclinic'
loop_
_space_group_symop_operation_xyz
x,y,z
-x,-y,-z
loop_
_atom_site_type_symbol
_atom_site_label
_atom_site_fract_x
_atom_site_fract_y
_atom_site_fract_z
Si Si1 0.429099 0.955128 0.286603
Si Si2 0.543895 0.362251 0.724345
Si Si3 0.137232 0.516850 0.165592
Si Si4 0.917355 0.760955 0.579486
Si Si5 0.781114 0.076093 0.474781
Si Si6 0.749280 0.658029 0.390013
Si Si7 0.942883 0.151813 0.953874
O O1 0.420310 0.750447 0.242282
O O2 0.319883 0.918137 0.377464
O O3 0.474030 0.159356 0.526709
O O4 0.500000 0.000000 0.000000
O O5 0.638281 0.519149 0.551420
O O6 0.500000 0.500000 0.000000
O O7 0.123972 0.445713 0.386722
O O8 0.156787 0.739502 0.306497
O O9 0.221240 0.476499 0.906233
O O10 0.033019 0.351034 0.083243
O O11 0.831494 0.734541 0.520551
O O12 0.017511 0.819330 0.337319
O O13 0.936740 0.939835 0.851262
O O14 0.760361 0.858006 0.414216
O O15 0.840899 0.123498 0.185304
#
# Coordination Sequence:
#
# PCOD9074129 Si02
#       7
#     2   2   2   2   2   2   2
#     4  11  26  49  72 104 139 173 226 286 342 410
#     4  11  26  47  75 103 134 177 226 282 346 412
#     4  11  23  45  65  95 139 180 225 280 326 393
#     4  10  22  42  69  91 138 181 224 279 329 391
#     4  12  25  42  69  98 136 178 225 275 338 400
#     4  11  25  43  66 100 135 175 224 275 337 400
#     4  10  23  41  64  99 133 181 227 277 329 392
#
# _framework density 22.543209999999998
#
# number of rings (size 3 to 8) (size 9 to 14) (size 15 to 20)
#    0.000    1.143    1.429    3.429    6.000    5.143 
#    5.143    0.000    0.000    0.000    0.000    0.000 
#    0.000    0.000    0.000    0.000    0.000    0.000 
#
# Total GULP energy -78126.918091 kJ/mol
# GULP energy per Si atom -5580.494149 kJ/mol
# Density = 2.249190 g / cm^3
# Si number density = 22.543210 Si / 1000 Ang^3
#
#
#
# Elastic Constant Matrix: (Units=GPa)
#
#
# Indices 1 2 3 4 5 6 
#
# 1 98.8104 24.7058 35.3849 0.9006 -29.3701 -2.2120
# 2 24.7058 116.2010 43.2631 9.1820 -23.3155 -5.7673
# 3 35.3849 43.2631 134.9897 7.4228 -47.5481 -5.2057
# 4 0.9006 9.1820 7.4228 48.2911 9.6771 -10.1802
# 5 -29.3701 -23.3155 -47.5481 9.6771 38.7185 5.3039
# 6 -2.2120 -5.7673 -5.2057 -10.1802 5.3039 30.1697
#
#
#
# Elastic Compliance Matrix: (Units=1/GPa)
#
#
# Indices 1 2 3 4 5 6 
#
# 1 0.013537 -0.000669 0.001100 -0.003228 0.012325 -0.002202
# 2 -0.000669 0.010425 -0.001300 -0.002761 0.004873 -0.000069
# 3 0.001100 -0.001300 0.015153 -0.007056 0.020919 -0.003612
# 4 -0.003228 -0.002761 -0.007056 0.029181 -0.021669 0.011674
# 5 0.012325 0.004873 0.020919 -0.021669 0.071186 -0.014382
# 6 -0.002202 -0.000069 -0.003612 0.011674 -0.014382 0.038816
#
#
# Mechanical properties :
#
#
# Convention : Reuss Voigt Hill
#
# Bulk Modulus (GPa) = 26.75441 61.85650 44.30545
# Shear Modulus (GPa) = 25.97474 39.87901 32.92687
#
# Velocity S-wave (km/s) = 3.39812 4.21051 3.82594
# Velocity P-wave (km/s) = 5.22399 7.15098 6.26206
#
# Compressibility (1/GPa) = 0.03737702
#
# Stress axis : x y z
#
# Youngs Moduli (GPa) = 73.86929 95.92775 65.99225
#
# Poissons Ratio (x) = 0.06416 -0.07258
# Poissons Ratio (y) = 0.04941 0.08579
# Poissons Ratio (z) = -0.08124 0.12471
#
# Static dielectric constant tensor:
#      x y z
#    x 1.899910 0.015700 0.079360 
#    y 0.015700 1.842760 0.006760 
#    z 0.079360 0.006760 1.846470 
# 
# From -- ./inp_files/107509.got.cif
#   From: 2010.05.17/outbox.ucp.g08.bks.cvg/sg2_54_cif.got.tgz:107509.got - 2010.06.11 11:32:03.
