data_PCOD9074524
_publ_section_title
;
Structure prediction by ZEFSAII (Michael W. Deem and Ramdas Pophale) SiO2 
 PCOD9074524
Probable space group: P -1
;
_chemical_formula_sum "Si O2"
_cell_formula_units_Z 14
_cell_length_a 15.000000
_cell_length_b 24.000000
_cell_length_c 15.000000
_cell_angle_alpha 20.000000
_cell_angle_beta 30.000000
_cell_angle_gamma 20.000000
_cell_volume 624.976433
_symmetry_space_group_name_H-M "P -1"
_symmetry_group_IT_number 2
_symmetry_cell_setting 'triclinic'
loop_
_space_group_symop_operation_xyz
x,y,z
-x,-y,-z
loop_
_atom_site_type_symbol
_atom_site_label
_atom_site_fract_x
_atom_site_fract_y
_atom_site_fract_z
Si Si1 0.136071 0.042390 0.385435
Si Si2 0.161367 0.493893 0.162279
Si Si3 0.287615 0.863091 0.881801
Si Si4 0.447458 0.215474 0.045916
Si Si5 0.018668 0.226199 0.753117
Si Si6 0.261944 0.439598 0.356549
Si Si7 0.008546 0.226077 0.414763
O O1 0.450311 0.817825 0.473377
O O2 0.012580 0.128674 0.462979
O O3 0.000000 0.000000 0.500000
O O4 0.059548 0.260970 0.070982
O O5 0.430472 0.331863 0.118341
O O6 0.243454 0.505880 0.170600
O O7 0.070810 0.367348 0.449313
O O8 0.089705 0.077890 0.657643
O O9 0.389106 0.884538 0.851599
O O10 0.141968 0.793225 0.139764
O O11 0.271259 0.491172 0.763303
O O12 0.242246 0.205220 0.236409
O O13 0.711902 0.002883 0.081911
O O14 0.804911 0.379004 0.787544
O O15 0.000000 0.500000 0.500000
#
# Coordination Sequence:
#
# PCOD9074524 Si02
#       7
#     2   2   2   2   2   2   2
#     4  12  25  43  74 111 139 187 247 295 360 428
#     4  11  24  46  73 100 148 190 235 297 360 418
#     4  12  23  44  73 102 140 188 236 291 352 426
#     4  11  24  46  68 107 141 185 241 286 355 429
#     4  11  25  42  70 106 142 182 236 289 358 423
#     4  10  23  45  67 102 140 189 235 289 358 423
#     4  11  24  43  75 102 138 191 237 290 359 421
#
# _framework density 22.400845
#
# number of rings (size 3 to 8) (size 9 to 14) (size 15 to 20)
#    0.000    0.857    4.286    2.571    2.000    4.000 
#    0.000    5.714    0.000    0.000    0.000    0.000 
#    0.000    0.000    0.000    0.000    0.000    0.000 
#
# Total GULP energy -78071.331968 kJ/mol
# GULP energy per Si atom -5576.523712 kJ/mol
# Density = 2.234986 g / cm^3
# Si number density = 22.400845 Si / 1000 Ang^3
#
#
#
# Elastic Constant Matrix: (Units=GPa)
#
#
# Indices 1 2 3 4 5 6 
#
# 1 130.0167 8.7296 41.4250 -7.3874 9.3384 -20.0923
# 2 8.7296 100.2789 51.5698 -23.1135 14.6115 -20.0334
# 3 41.4250 51.5698 87.7256 -20.4350 17.8920 -12.9745
# 4 -7.3874 -23.1135 -20.4350 43.7922 -20.5389 4.7529
# 5 9.3384 14.6115 17.8920 -20.5389 47.1200 -10.2922
# 6 -20.0923 -20.0334 -12.9745 4.7529 -10.2922 21.4329
#
#
#
# Elastic Compliance Matrix: (Units=1/GPa)
#
#
# Indices 1 2 3 4 5 6 
#
# 1 0.011108 0.004541 -0.006371 0.000842 0.001670 0.011417
# 2 0.004541 0.018855 -0.010174 0.005682 0.003075 0.015938
# 3 -0.006371 -0.010174 0.020884 0.002117 -0.003701 -0.005087
# 4 0.000842 0.005682 0.002117 0.032233 0.012701 0.006333
# 5 0.001670 0.003075 -0.003701 0.012701 0.029878 0.013731
# 6 0.011417 0.015938 -0.005087 0.006333 0.013731 0.074367
#
#
# Mechanical properties :
#
#
# Convention : Reuss Voigt Hill
#
# Bulk Modulus (GPa) = 37.25991 57.94111 47.60051
# Shear Modulus (GPa) = 22.69824 36.88880 29.79352
#
# Velocity S-wave (km/s) = 3.18665 4.06243 3.65090
# Velocity P-wave (km/s) = 5.49628 6.92288 6.25041
#
# Compressibility (1/GPa) = 0.02683850
#
# Stress axis : x y z
#
# Youngs Moduli (GPa) = 90.02180 53.03660 47.88301
#
# Poissons Ratio (x) = -0.24082 0.30505
# Poissons Ratio (y) = -0.40876 0.48718
# Poissons Ratio (z) = 0.57351 0.53962
#
# Static dielectric constant tensor:
#      x y z
#    x 2.157350 0.374250 -0.157980 
#    y 0.374250 2.144650 -0.122720 
#    z -0.157980 -0.122720 1.912290 
# 
# From -- ./inp_files/418602.got.cif
#   From: 2010.05.17/outbox.ucp.g08.bks.cvg/sg2_210_cif.got.tgz:418602.got - 2010.06.11 11:32:03.
