data_PCOD9074672
_publ_section_title
;
Structure prediction by ZEFSAII (Michael W. Deem and Ramdas Pophale) SiO2 
 PCOD9074672
Probable space group: P -1
;
_chemical_formula_sum "Si O2"
_cell_formula_units_Z 16
_cell_length_a 21.000000
_cell_length_b 9.000000
_cell_length_c 9.000000
_cell_angle_alpha 130.000000
_cell_angle_beta 120.000000
_cell_angle_gamma 100.000000
_cell_volume 751.240448
_symmetry_space_group_name_H-M "P -1"
_symmetry_group_IT_number 2
_symmetry_cell_setting 'triclinic'
loop_
_space_group_symop_operation_xyz
x,y,z
-x,-y,-z
loop_
_atom_site_type_symbol
_atom_site_label
_atom_site_fract_x
_atom_site_fract_y
_atom_site_fract_z
Si Si1 0.921583 0.657290 0.674668
Si Si2 0.508341 0.954145 0.811115
Si Si3 0.710014 0.125159 0.265052
Si Si4 0.065106 0.738355 0.100332
Si Si5 0.648457 0.567090 0.894391
Si Si6 0.474064 0.240094 0.735066
Si Si7 0.759397 0.236124 0.725166
Si Si8 0.158314 0.314263 0.689330
O O1 0.822881 0.436364 0.534860
O O2 0.862149 0.570190 0.391172
O O3 0.001039 0.636995 0.803981
O O4 0.000000 0.000000 0.000000
O O5 0.396111 0.624357 0.426237
O O6 0.518974 0.153657 0.836238
O O7 0.500000 0.000000 0.000000
O O8 0.612545 0.014251 0.976963
O O9 0.703976 0.172170 0.461367
O O10 0.702976 0.877475 0.110864
O O11 0.177991 0.844839 0.269113
O O12 0.079641 0.980643 0.342933
O O13 0.000000 0.500000 0.000000
O O14 0.538129 0.368470 0.737435
O O15 0.727943 0.582109 0.089629
O O16 0.341192 0.962467 0.402562
O O17 0.500000 0.500000 0.000000
O O18 0.846836 0.570591 0.092485
#
# Coordination Sequence:
#
# PCOD9074672 Si02
#       8
#     2   2   2   2   2   2   2   2
#     4  10  24  44  70  97 129 176 224 290 346 395
#     4  12  24  41  65 103 141 179 234 277 334 413
#     4  12  23  44  67 100 136 179 229 275 341 411
#     4  11  22  46  71  94 132 175 227 290 344 401
#     4  12  23  43  69  98 141 192 214 280 349 408
#     4  12  23  41  64  98 139 181 229 267 339 416
#     4  12  24  41  70  96 134 179 226 274 341 409
#     4  11  23  43  70  99 132 176 226 277 350 404
#
# _framework density 21.298107999999999
#
# number of rings (size 3 to 8) (size 9 to 14) (size 15 to 20)
#    0.000    0.500    6.250    1.500    1.750    2.000 
#    0.000    0.000    5.500    0.000    0.000    0.000 
#    0.000    0.000    0.000    0.000    0.000    0.000 
#
# Total GULP energy -89200.904151 kJ/mol
# GULP energy per Si atom -5575.056509 kJ/mol
# Density = 2.124963 g / cm^3
# Si number density = 21.298108 Si / 1000 Ang^3
#
#
#
# Elastic Constant Matrix: (Units=GPa)
#
#
# Indices 1 2 3 4 5 6 
#
# 1 33.2383 32.4458 24.9621 -4.7516 -2.8355 -19.6853
# 2 32.4458 112.5124 50.3059 -1.8058 7.6239 -20.6505
# 3 24.9621 50.3059 110.8047 -12.4686 -8.1231 -9.1453
# 4 -4.7516 -1.8058 -12.4686 44.5704 -10.8996 9.4702
# 5 -2.8355 7.6239 -8.1231 -10.8996 48.0217 -2.9976
# 6 -19.6853 -20.6505 -9.1453 9.4702 -2.9976 35.5593
#
#
#
# Elastic Compliance Matrix: (Units=1/GPa)
#
#
# Indices 1 2 3 4 5 6 
#
# 1 0.061395 -0.010254 -0.006530 0.000026 0.005830 0.026838
# 2 -0.010254 0.014654 -0.004872 -0.003385 -0.004392 0.002112
# 3 -0.006530 -0.004872 0.013128 0.004446 0.003370 -0.003968
# 4 0.000026 -0.003385 0.004446 0.026801 0.006915 -0.007363
# 5 0.005830 -0.004392 0.003370 0.006915 0.024113 0.001734
# 6 0.026838 0.002112 -0.003968 -0.007363 0.001734 0.045292
#
#
# Mechanical properties :
#
#
# Convention : Reuss Voigt Hill
#
# Bulk Modulus (GPa) = 21.80304 52.44255 37.12280
# Shear Modulus (GPa) = 20.49316 35.55304 28.02310
#
# Velocity S-wave (km/s) = 3.10531 4.09015 3.63127
# Velocity P-wave (km/s) = 4.80797 6.85436 5.92026
#
# Compressibility (1/GPa) = 0.04586516
#
# Stress axis : x y z
#
# Youngs Moduli (GPa) = 16.28791 68.24086 76.17500
#
# Poissons Ratio (x) = 0.69973 0.49746
# Poissons Ratio (y) = 0.16701 0.37110
# Poissons Ratio (z) = 0.10637 0.33244
#
# Static dielectric constant tensor:
#      x y z
#    x 1.903460 0.020770 -0.014620 
#    y 0.020770 1.759260 -0.023330 
#    z -0.014620 -0.023330 1.868810 
# 
# From -- ./inp_files/343878.got.cif
#   From: 2010.05.17/outbox.ucp.g08.bks.cvg/sg2_172_cif.got.tgz:343878.got - 2010.06.11 11:32:03.
