data_PCOD9074852
_publ_section_title
;
Structure prediction by ZEFSAII (Michael W. Deem and Ramdas Pophale) SiO2 
 PCOD9074852
Probable space group: P -1
;
_chemical_formula_sum "Si O2"
_cell_formula_units_Z 14
_cell_length_a 9.000000
_cell_length_b 9.000000
_cell_length_c 24.000000
_cell_angle_alpha 30.000000
_cell_angle_beta 40.000000
_cell_angle_gamma 50.000000
_cell_volume 623.501542
_symmetry_space_group_name_H-M "P -1"
_symmetry_group_IT_number 2
_symmetry_cell_setting 'triclinic'
loop_
_space_group_symop_operation_xyz
x,y,z
-x,-y,-z
loop_
_atom_site_type_symbol
_atom_site_label
_atom_site_fract_x
_atom_site_fract_y
_atom_site_fract_z
Si Si1 0.502241 0.061415 0.190625
Si Si2 0.001484 0.765601 0.956942
Si Si3 0.296458 0.398920 0.795924
Si Si4 0.935719 0.711624 0.730422
Si Si5 0.658134 0.237628 0.551638
Si Si6 0.119108 0.602492 0.264331
Si Si7 0.317893 0.200811 0.414172
O O1 0.742560 0.204737 0.099108
O O2 0.278802 0.241231 0.182583
O O3 0.570694 0.862770 0.184481
O O4 0.394239 0.870565 0.336103
O O5 0.943702 0.069815 0.841946
O O6 0.000000 0.500000 0.000000
O O7 0.815960 0.686288 0.084710
O O8 0.453574 0.709841 0.645918
O O9 0.088167 0.462758 0.792931
O O10 0.822191 0.569271 0.753206
O O11 0.108202 0.004093 0.569166
O O12 0.500000 0.500000 0.500000
O O13 0.907657 0.392995 0.417717
O O14 0.620923 0.990652 0.595044
O O15 0.290123 0.534619 0.287303
#
# Coordination Sequence:
#
# PCOD9074852 Si02
#       7
#     2   2   2   2   2   2   2
#     4  12  23  45  73 103 139 189 229 293 359 411
#     4  12  28  49  71 101 143 192 244 285 345 429
#     4  12  28  46  67 107 153 184 231 291 354 428
#     4  11  23  45  76 106 143 183 231 297 361 412
#     4  11  19  39  75 103 133 180 236 292 353 406
#     4  11  22  43  76 101 139 185 239 293 341 421
#     4  11  23  45  70 110 142 180 236 294 351 418
#
# _framework density 22.453834000000001
#
# number of rings (size 3 to 8) (size 9 to 14) (size 15 to 20)
#    0.000    0.571    5.714    3.429    0.000    2.857 
#    0.000    0.000    0.000    0.000    0.000    0.000 
#    0.000    0.000    0.000    0.000    0.000    0.000 
#
# Total GULP energy -78086.370622 kJ/mol
# GULP energy per Si atom -5577.597902 kJ/mol
# Density = 2.240273 g / cm^3
# Si number density = 22.453834 Si / 1000 Ang^3
#
#
#
# Elastic Constant Matrix: (Units=GPa)
#
#
# Indices 1 2 3 4 5 6 
#
# 1 49.8721 44.8865 0.2551 -10.0259 -13.0329 10.9363
# 2 44.8865 138.3280 42.8216 20.5721 -8.2226 15.8479
# 3 0.2551 42.8216 39.2317 -2.8743 -30.1124 24.9978
# 4 -10.0259 20.5721 -2.8743 37.7353 -5.4479 5.1895
# 5 -13.0329 -8.2226 -30.1124 -5.4479 15.3368 -4.3947
# 6 10.9363 15.8479 24.9978 5.1895 -4.3947 32.4427
#
#
#
# Elastic Compliance Matrix: (Units=1/GPa)
#
#
# Indices 1 2 3 4 5 6 
#
# 1 0.015302 -0.001598 -0.016786 0.000085 -0.019073 0.005959
# 2 -0.001598 0.007265 0.007115 -0.000890 0.014354 -0.006405
# 3 -0.016786 0.007115 -0.005902 -0.013167 -0.025160 0.005429
# 4 0.000085 -0.000890 -0.013167 0.022948 -0.016785 0.004607
# 5 -0.019073 0.014354 -0.025160 -0.016785 0.007789 0.022544
# 6 0.005959 -0.006405 0.005429 0.004607 0.022544 0.030078
#
#
# Mechanical properties :
#
#
# Convention : Reuss Voigt Hill
#
# Bulk Modulus (GPa) = -170.23549 44.81760 -62.70895
# Shear Modulus (GPa) = 50.98985 26.40085 38.69535
#
# Velocity S-wave (km/s) = 4.77054 3.43269 4.15580
# Velocity P-wave (km/s) = 6.75546 5.97615 2.22732
#
# Compressibility (1/GPa) = -0.00587422
#
# Stress axis : x y z
#
# Youngs Moduli (GPa) = 65.35294 137.65049 -169.42550
#
# Poissons Ratio (x) = 0.21998 -2.84391
# Poissons Ratio (y) = 0.10444 1.20540
# Poissons Ratio (z) = 1.09699 -0.97933
#
# Static dielectric constant tensor:
#      x y z
#    x 1.745920 -0.116500 0.050470 
#    y -0.116500 1.826100 -0.021380 
#    z 0.050470 -0.021380 1.767110 
# 
# From -- ./inp_files/237794.got.cif
#   From: 2010.05.17/outbox.ucp.g08.bks.cvg/sg2_119_cif.got.tgz:237794.got - 2010.06.11 11:32:03.
