data_PCOD9074133
_publ_section_title
;
Structure prediction by ZEFSAII (Michael W. Deem and Ramdas Pophale) SiO2 
 PCOD9074133
Probable space group: P -1
;
_chemical_formula_sum "Si O2"
_cell_formula_units_Z 15
_cell_length_a 9.000000
_cell_length_b 9.000000
_cell_length_c 18.000000
_cell_angle_alpha 60.000000
_cell_angle_beta 60.000000
_cell_angle_gamma 30.000000
_cell_volume 623.732165
_symmetry_space_group_name_H-M "P -1"
_symmetry_group_IT_number 2
_symmetry_cell_setting 'triclinic'
loop_
_space_group_symop_operation_xyz
x,y,z
-x,-y,-z
loop_
_atom_site_type_symbol
_atom_site_label
_atom_site_fract_x
_atom_site_fract_y
_atom_site_fract_z
Si Si1 0.937593 0.422957 0.222269
Si Si2 0.540277 0.641252 0.525778
Si Si3 0.330283 0.782598 0.058531
Si Si4 0.704415 0.583641 0.658324
Si Si5 0.895646 0.352298 0.937131
Si Si6 0.326548 0.189475 0.658696
Si Si7 0.000000 0.000000 0.500000
Si Si8 0.682968 0.187122 0.777900
O O1 0.092611 0.460493 0.135725
O O2 0.803246 0.617337 0.282756
O O3 0.661220 0.580682 0.204402
O O4 0.153074 0.078941 0.253357
O O5 0.574558 0.712228 0.576061
O O6 0.474344 0.829385 0.427788
O O7 0.826620 0.290200 0.522706
O O8 0.249423 0.760399 0.563965
O O9 0.213412 0.687659 0.090623
O O10 0.237281 0.911885 0.131495
O O11 0.682749 0.492958 0.025942
O O12 0.210460 0.015472 0.969141
O O13 0.715798 0.366874 0.717193
O O14 0.036396 0.387406 0.631620
O O15 0.507670 0.860052 0.696502
#
# Coordination Sequence:
#
# PCOD9074133 Si02
#       8
#     2   2   2   2   2   2   1   2
#     4  12  27  43  66 102 141 179 224 281 346 405
#     4  11  24  43  74 101 134 182 226 285 343 404
#     4  10  22  42  69  96 130 178 226 275 336 404
#     4  12  26  46  71  99 138 180 235 285 337 408
#     4  10  22  42  69  96 130 178 226 275 336 404
#     4  12  26  46  71  99 138 180 235 285 337 408
#     4  10  24  40  68 104 136 168 210 296 334 414
#     4  12  27  43  66 102 141 179 224 281 346 405
#
# _framework density 24.048784000000001
#
# number of rings (size 3 to 8) (size 9 to 14) (size 15 to 20)
#    0.000    0.800    0.000    6.400    5.600    6.400 
#    0.000    0.000    0.000    0.000    0.000    0.000 
#    0.000    0.000    0.000    0.000    0.000    0.000 
#
# Total GULP energy -83661.261369 kJ/mol
# GULP energy per Si atom -5577.417425 kJ/mol
# Density = 2.399405 g / cm^3
# Si number density = 24.048784 Si / 1000 Ang^3
#
#
#
# Elastic Constant Matrix: (Units=GPa)
#
#
# Indices 1 2 3 4 5 6 
#
# 1 18.8794 25.5119 11.8888 -2.5932 13.0284 30.9043
# 2 25.5119 128.4586 3.3643 0.9430 -0.6957 24.8292
# 3 11.8888 3.3643 57.7137 -1.4340 1.9087 12.8954
# 4 -2.5932 0.9430 -1.4340 25.7730 12.6054 -1.1792
# 5 13.0284 -0.6957 1.9087 12.6054 31.5831 -8.0416
# 6 30.9043 24.8292 12.8954 -1.1792 -8.0416 57.6596
#
#
#
# Elastic Compliance Matrix: (Units=1/GPa)
#
#
# Indices 1 2 3 4 5 6 
#
# 1 -0.079585 0.007353 0.002831 -0.034566 0.058404 0.046295
# 2 0.007353 0.007839 0.000130 0.003112 -0.006185 -0.008145
# 3 0.002831 0.000130 0.018426 0.003630 -0.005348 -0.006366
# 4 -0.034566 0.003112 0.003630 0.033684 0.005193 0.017788
# 5 0.058404 -0.006185 -0.005348 0.005193 -0.001323 -0.027522
# 6 0.046295 -0.008145 -0.006366 0.017788 -0.027522 -0.006014
#
#
# Mechanical properties :
#
#
# Convention : Reuss Voigt Hill
#
# Bulk Modulus (GPa) = -30.58911 31.84241 0.62665
# Shear Modulus (GPa) = -85.47174 33.95557 -25.75809
#
# Velocity S-wave (km/s) = -5.96809 3.76166 -3.27628
# Velocity P-wave (km/s) = 7.76132 5.66889 3.74845
#
# Compressibility (1/GPa) = -0.03269137
#
# Stress axis : x y z
#
# Youngs Moduli (GPa) = -12.56523 127.57161 54.27245
#
# Poissons Ratio (x) = -0.93808 -0.15365
# Poissons Ratio (y) = 0.09240 -0.00705
# Poissons Ratio (z) = 0.03557 -0.01658
#
# Static dielectric constant tensor:
#      x y z
#    x 3.075300 -0.591400 -0.658620 
#    y -0.591400 2.179110 0.293750 
#    z -0.658620 0.293750 2.283380 
# 
# From -- ./inp_files/556979.got.cif
#   From: 2010.05.17/outbox.ucp.g08.bks.cvg/sg2_279_cif.got.tgz:556979.got - 2010.06.11 11:32:03.
