data_PCOD9074776
_publ_section_title
;
Structure prediction by ZEFSAII (Michael W. Deem and Ramdas Pophale) SiO2 
 PCOD9074776
Probable space group: P -1
;
_chemical_formula_sum "Si O2"
_cell_formula_units_Z 14
_cell_length_a 12.000000
_cell_length_b 6.000000
_cell_length_c 12.000000
_cell_angle_alpha 110.000000
_cell_angle_beta 110.000000
_cell_angle_gamma 50.000000
_cell_volume 612.923978
_symmetry_space_group_name_H-M "P -1"
_symmetry_group_IT_number 2
_symmetry_cell_setting 'triclinic'
loop_
_space_group_symop_operation_xyz
x,y,z
-x,-y,-z
loop_
_atom_site_type_symbol
_atom_site_label
_atom_site_fract_x
_atom_site_fract_y
_atom_site_fract_z
Si Si1 0.936384 0.830459 0.586040
Si Si2 0.665597 0.510961 0.560401
Si Si3 0.450778 0.341571 0.043237
Si Si4 0.160165 0.891367 0.995398
Si Si5 0.146062 0.293709 0.237983
Si Si6 0.874006 0.963774 0.249298
Si Si7 0.578099 0.330671 0.318144
O O1 0.903818 0.826893 0.704143
O O2 0.000000 0.500000 0.500000
O O3 0.784588 0.148211 0.549981
O O4 0.060921 0.886401 0.636170
O O5 0.742850 0.657673 0.654169
O O6 0.613035 0.548594 0.420544
O O7 0.524135 0.654471 0.617425
O O8 0.488822 0.409580 0.187532
O O9 0.500000 0.500000 0.000000
O O10 0.275108 0.550231 0.006835
O O11 0.500000 0.000000 0.000000
O O12 0.171476 0.916113 0.871184
O O13 0.197480 0.086039 0.112108
O O14 0.000000 0.000000 0.000000
O O15 0.003813 0.621765 0.219640
O O16 0.735730 0.033467 0.284745
#
# Coordination Sequence:
#
# PCOD9074776 Si02
#       7
#     2   2   2   2   2   2   2
#     4  11  22  42  69 102 142 188 253 311 381 450
#     4  10  25  46  69 106 146 203 248 317 380 470
#     4  12  30  52  79 115 157 205 261 324 394 470
#     4  12  26  47  74 109 145 201 256 323 389 465
#     4  11  24  44  73 106 145 189 257 316 382 461
#     4  11  24  43  71 107 142 196 252 314 389 457
#     4  11  24  48  71 104 153 199 255 309 396 456
#
# _framework density 22.841332000000001
#
# number of rings (size 3 to 8) (size 9 to 14) (size 15 to 20)
#    0.000    0.857    2.857    3.000    6.000    3.429 
#    2.571    4.286    0.000    0.000    0.000    0.000 
#    0.000    0.000    0.000    0.000    0.000    0.000 
#
# Total GULP energy -78158.065047 kJ/mol
# GULP energy per Si atom -5582.718932 kJ/mol
# Density = 2.278934 g / cm^3
# Si number density = 22.841332 Si / 1000 Ang^3
#
#
#
# Elastic Constant Matrix: (Units=GPa)
#
#
# Indices 1 2 3 4 5 6 
#
# 1 94.0962 38.9526 14.5972 3.1774 -1.9575 -24.5241
# 2 38.9526 122.9549 40.6792 8.8559 4.0607 -5.9187
# 3 14.5972 40.6792 168.1282 6.6171 -0.2939 -1.3360
# 4 3.1774 8.8559 6.6171 32.4776 -7.0948 1.1188
# 5 -1.9575 4.0607 -0.2939 -7.0948 32.0451 5.8520
# 6 -24.5241 -5.9187 -1.3360 1.1188 5.8520 34.1861
#
#
#
# Elastic Compliance Matrix: (Units=1/GPa)
#
#
# Indices 1 2 3 4 5 6 
#
# 1 0.015039 -0.004133 -0.000195 -0.000786 -0.000595 0.010193
# 2 -0.004133 0.010318 -0.002054 -0.002388 -0.001953 -0.000847
# 3 -0.000195 -0.002054 0.006487 -0.000690 0.000201 -0.000254
# 4 -0.000786 -0.002388 -0.000690 0.033601 0.008332 -0.003530
# 5 -0.000595 -0.001953 0.000201 0.008332 0.034531 -0.006941
# 6 0.010193 -0.000847 -0.000254 -0.003530 -0.006941 0.037711
#
#
# Mechanical properties :
#
#
# Convention : Reuss Voigt Hill
#
# Bulk Modulus (GPa) = 52.40865 63.73747 58.07306
# Shear Modulus (GPa) = 31.88551 39.13845 35.51198
#
# Velocity S-wave (km/s) = 3.74030 4.14393 3.94728
# Velocity P-wave (km/s) = 6.45350 7.13170 6.80106
#
# Compressibility (1/GPa) = 0.01908082
#
# Stress axis : x y z
#
# Youngs Moduli (GPa) = 66.49190 96.92106 154.15100
#
# Poissons Ratio (x) = 0.40059 0.03003
# Poissons Ratio (y) = 0.27482 0.31658
# Poissons Ratio (z) = 0.01295 0.19905
#
# Static dielectric constant tensor:
#      x y z
#    x 1.913470 -0.038980 0.062950 
#    y -0.038980 1.890780 -0.063590 
#    z 0.062950 -0.063590 1.886200 
# 
# From -- ./inp_files/411106.got.cif
#   From: 2010.05.17/outbox.ucp.g08.bks.cvg/sg2_206_cif.got.tgz:411106.got - 2010.06.11 11:32:03.
