data_PCOD9074356
_publ_section_title
;
Structure prediction by ZEFSAII (Michael W. Deem and Ramdas Pophale) SiO2 
 PCOD9074356
Probable space group: P -1
;
_chemical_formula_sum "Si O2"
_cell_formula_units_Z 16
_cell_length_a 6.000000
_cell_length_b 15.000000
_cell_length_c 15.000000
_cell_angle_alpha 40.000000
_cell_angle_beta 110.000000
_cell_angle_gamma 120.000000
_cell_volume 749.463735
_symmetry_space_group_name_H-M "P -1"
_symmetry_group_IT_number 2
_symmetry_cell_setting 'triclinic'
loop_
_space_group_symop_operation_xyz
x,y,z
-x,-y,-z
loop_
_atom_site_type_symbol
_atom_site_label
_atom_site_fract_x
_atom_site_fract_y
_atom_site_fract_z
Si Si1 0.709039 0.586224 0.612752
Si Si2 0.717442 0.176656 0.489588
Si Si3 0.508290 0.163770 0.666305
Si Si4 0.880924 0.405504 0.645953
Si Si5 0.718708 0.374795 0.037022
Si Si6 0.366244 0.164549 0.300032
Si Si7 0.695311 0.608233 0.145297
Si Si8 0.921855 0.172270 0.113180
O O1 0.602956 0.711180 0.471916
O O2 0.708853 0.482798 0.608781
O O3 0.537933 0.470006 0.753136
O O4 0.010017 0.688347 0.599149
O O5 0.661327 0.156475 0.602851
O O6 0.488401 0.206432 0.383493
O O7 0.709514 0.015380 0.580442
O O8 0.709456 0.236861 0.718001
O O9 0.282224 0.002420 0.783457
O O10 0.000000 0.500000 0.500000
O O11 0.088534 0.416430 0.743176
O O12 0.595264 0.260641 0.189700
O O13 0.761931 0.274132 0.039300
O O14 0.507392 0.442911 0.927919
O O15 0.000000 0.500000 0.000000
O O16 0.116008 0.187851 0.211482
O O17 0.898554 0.761440 0.001351
#
# Coordination Sequence:
#
# PCOD9074356 Si02
#       8
#     2   2   2   2   2   2   2   2
#     4  12  23  43  71 103 136 176 228 285 338 408
#     4  11  22  40  68 105 137 175 233 281 345 402
#     4  12  25  43  73  99 140 182 226 290 339 408
#     4  12  25  45  71 106 135 178 233 287 346 402
#     4  11  24  44  70  97 140 186 228 280 343 411
#     4  10  23  40  67 102 137 179 225 287 341 404
#     4  11  26  45  69 102 136 182 229 281 340 414
#     4  11  25  47  66 100 141 183 229 278 349 412
#
# _framework density 21.348597999999999
#
# number of rings (size 3 to 8) (size 9 to 14) (size 15 to 20)
#    0.000    0.750    5.000    1.875    0.000    7.000 
#    0.000    1.250    0.000    0.000    0.000    0.000 
#    0.000    0.000    0.000    0.000    0.000    0.000 
#
# Total GULP energy -89127.908360 kJ/mol
# GULP energy per Si atom -5570.494273 kJ/mol
# Density = 2.130001 g / cm^3
# Si number density = 21.348598 Si / 1000 Ang^3
#
#
#
# Elastic Constant Matrix: (Units=GPa)
#
#
# Indices 1 2 3 4 5 6 
#
# 1 59.7181 34.3196 27.0479 -11.6156 -21.2694 19.1562
# 2 34.3196 94.9960 21.3406 -7.4282 -1.7644 20.6283
# 3 27.0479 21.3406 110.3800 0.0105 -17.4591 6.7857
# 4 -11.6156 -7.4282 0.0105 36.9997 19.9537 -1.2226
# 5 -21.2694 -1.7644 -17.4591 19.9537 58.8922 5.4303
# 6 19.1562 20.6283 6.7857 -1.2226 5.4303 42.0122
#
#
#
# Elastic Compliance Matrix: (Units=1/GPa)
#
#
# Indices 1 2 3 4 5 6 
#
# 1 0.029962 -0.007305 -0.003746 0.002374 0.009669 -0.010651
# 2 -0.007305 0.014203 -0.001249 0.002085 -0.003014 -0.002991
# 3 -0.003746 -0.001249 0.010641 -0.002897 0.002731 0.000165
# 4 0.002374 0.002085 -0.002897 0.034544 -0.011724 0.000882
# 5 0.009669 -0.003014 0.002731 -0.011724 0.025814 -0.007048
# 6 -0.010651 -0.002991 0.000165 0.000882 -0.007048 0.031038
#
#
# Mechanical properties :
#
#
# Convention : Reuss Voigt Hill
#
# Bulk Modulus (GPa) = 33.10515 47.83447 40.46981
# Shear Modulus (GPa) = 27.64416 39.73991 33.69204
#
# Velocity S-wave (km/s) = 3.60237 4.31916 3.97695
# Velocity P-wave (km/s) = 5.73091 6.87958 6.33135
#
# Compressibility (1/GPa) = 0.03020678
#
# Stress axis : x y z
#
# Youngs Moduli (GPa) = 33.37533 70.40766 93.97637
#
# Poissons Ratio (x) = 0.51433 0.35201
# Poissons Ratio (y) = 0.24381 0.11737
# Poissons Ratio (z) = 0.12501 0.08793
#
# Static dielectric constant tensor:
#      x y z
#    x 1.813370 0.003610 0.053950 
#    y 0.003610 1.795040 -0.006190 
#    z 0.053950 -0.006190 1.783320 
# 
# From -- ./inp_files/77925.got.cif
#   From: 2010.05.17/outbox.ucp.g08.bks.cvg/sg2_39_cif.got.tgz:77925.got - 2010.06.11 11:32:03.
