data_PCOD9074762
_publ_section_title
;
Structure prediction by ZEFSAII (Michael W. Deem and Ramdas Pophale) SiO2 
 PCOD9074762
Probable space group: P -1
;
_chemical_formula_sum "Si O2"
_cell_formula_units_Z 16
_cell_length_a 15.000000
_cell_length_b 9.000000
_cell_length_c 15.000000
_cell_angle_alpha 90.000000
_cell_angle_beta 30.000000
_cell_angle_gamma 70.000000
_cell_volume 738.562284
_symmetry_space_group_name_H-M "P -1"
_symmetry_group_IT_number 2
_symmetry_cell_setting 'triclinic'
loop_
_space_group_symop_operation_xyz
x,y,z
-x,-y,-z
loop_
_atom_site_type_symbol
_atom_site_label
_atom_site_fract_x
_atom_site_fract_y
_atom_site_fract_z
Si Si1 0.048673 0.827084 0.014236
Si Si2 0.554438 0.596753 0.308113
Si Si3 0.625385 0.689875 0.052306
Si Si4 0.066954 0.519513 0.540904
Si Si5 0.526271 0.065759 0.205803
Si Si6 0.350592 0.142834 0.711547
Si Si7 0.136516 0.835822 0.458550
Si Si8 0.979170 0.032658 0.247832
O O1 0.329053 0.625467 0.771688
O O2 0.915862 0.768237 0.079326
O O3 0.000000 0.000000 0.000000
O O4 0.979193 0.897788 0.177428
O O5 0.654361 0.601037 0.125696
O O6 0.625000 0.695029 0.307761
O O7 0.266753 0.739009 0.561059
O O8 0.421575 0.696912 0.189462
O O9 0.518501 0.918027 0.155536
O O10 0.861827 0.578677 0.787661
O O11 0.314917 0.299722 0.360547
O O12 0.082152 0.691994 0.522862
O O13 0.000000 0.500000 0.500000
O O14 0.538557 0.995571 0.295755
O O15 0.780091 0.008107 0.972552
O O16 0.500000 0.000000 0.500000
O O17 0.064469 0.969608 0.610223
O O18 0.000000 0.000000 0.500000
#
# Coordination Sequence:
#
# PCOD9074762 Si02
#       8
#     2   2   2   2   2   2   2   2
#     4  12  25  43  67 102 142 188 243 293 354 431
#     4  10  25  44  71 101 143 192 240 291 366 422
#     4  10  25  47  70 103 141 188 235 293 364 430
#     4  12  28  47  76 110 139 188 239 300 371 432
#     4  11  25  47  72 100 149 187 238 298 360 431
#     4  11  23  45  66 106 140 191 241 296 353 427
#     4  11  26  48  74 103 143 189 237 303 368 432
#     4  11  24  45  70 100 141 186 241 298 354 429
#
# _framework density 21.663710999999999
#
# number of rings (size 3 to 8) (size 9 to 14) (size 15 to 20)
#    0.000    1.000    3.750    1.125    7.000    3.000 
#    2.250    0.000    0.000    0.000    0.000    0.000 
#    0.000    0.000    0.000    0.000    0.000    0.000 
#
# Total GULP energy -89298.305285 kJ/mol
# GULP energy per Si atom -5581.144080 kJ/mol
# Density = 2.161440 g / cm^3
# Si number density = 21.663711 Si / 1000 Ang^3
#
#
#
# Elastic Constant Matrix: (Units=GPa)
#
#
# Indices 1 2 3 4 5 6 
#
# 1 86.5228 29.7532 48.2743 23.5472 -7.5846 8.7073
# 2 29.7532 97.8417 57.4133 15.6870 -6.5630 -1.7790
# 3 48.2743 57.4133 148.5544 -1.7853 -5.3885 -2.9578
# 4 23.5472 15.6870 -1.7853 31.6647 15.3547 -16.0356
# 5 -7.5846 -6.5630 -5.3885 15.3547 11.3006 -6.1617
# 6 8.7073 -1.7790 -2.9578 -16.0356 -6.1617 8.1365
#
#
#
# Elastic Compliance Matrix: (Units=1/GPa)
#
#
# Indices 1 2 3 4 5 6 
#
# 1 0.003088 -0.005645 0.001413 0.020953 -0.014787 0.026071
# 2 -0.005645 0.014173 -0.002728 0.003406 0.011271 0.023397
# 3 0.001413 -0.002728 0.007363 -0.009617 0.010079 -0.010752
# 4 0.020953 0.003406 -0.009617 -0.029977 0.010641 -0.076195
# 5 -0.014787 0.011271 0.010079 0.010641 0.168400 0.170453
# 6 0.026071 0.023397 -0.010752 -0.076195 0.170453 0.075127
#
#
# Mechanical properties :
#
#
# Convention : Reuss Voigt Hill
#
# Bulk Modulus (GPa) = 93.42532 67.08895 80.25713
# Shear Modulus (GPa) = 19.55706 23.38555 21.47130
#
# Velocity S-wave (km/s) = 3.00785 3.28911 3.15162
# Velocity P-wave (km/s) = 7.43517 6.74240 7.09724
#
# Compressibility (1/GPa) = 0.01070374
#
# Stress axis : x y z
#
# Youngs Moduli (GPa) = 323.79551 70.55551 135.82281
#
# Poissons Ratio (x) = 0.39832 -0.19189
# Poissons Ratio (y) = 1.82799 0.37046
# Poissons Ratio (z) = -0.45746 0.19244
#
# Static dielectric constant tensor:
#      x y z
#    x 1.877440 0.005320 -0.054080 
#    y 0.005320 1.746720 0.000900 
#    z -0.054080 0.000900 1.866890 
# 
# From -- ./inp_files/340564.got.cif
#   From: 2010.05.17/outbox.ucp.g08.bks.cvg/sg2_171_cif.got.tgz:340564.got - 2010.06.11 11:32:03.
