data_PCOD9074822
_publ_section_title
;
Structure prediction by ZEFSAII (Michael W. Deem and Ramdas Pophale) SiO2 
 PCOD9074822
Probable space group: P -1
;
_chemical_formula_sum "Si O2"
_cell_formula_units_Z 11
_cell_length_a 15.000000
_cell_length_b 15.000000
_cell_length_c 12.000000
_cell_angle_alpha 140.000000
_cell_angle_beta 150.000000
_cell_angle_gamma 20.000000
_cell_volume 443.360002
_symmetry_space_group_name_H-M "P -1"
_symmetry_group_IT_number 2
_symmetry_cell_setting 'triclinic'
loop_
_space_group_symop_operation_xyz
x,y,z
-x,-y,-z
loop_
_atom_site_type_symbol
_atom_site_label
_atom_site_fract_x
_atom_site_fract_y
_atom_site_fract_z
Si Si1 0.285248 0.641901 0.628529
Si Si2 0.244455 0.362299 0.369212
Si Si3 0.801327 0.984434 0.785384
Si Si4 0.512059 0.155131 0.210040
Si Si5 0.670145 0.607794 0.135473
Si Si6 0.500000 0.500000 0.500000
O O1 0.248573 0.526116 0.546173
O O2 0.576386 0.424427 0.641089
O O3 0.358361 0.730463 0.859087
O O4 0.931994 0.891749 0.415714
O O5 0.587849 0.085401 0.541287
O O6 0.308106 0.286459 0.234693
O O7 0.897808 0.537685 0.222757
O O8 0.509610 0.190238 0.764569
O O9 0.078238 0.681157 0.822678
O O10 0.000000 0.000000 0.000000
O O11 0.420081 0.374556 0.276506
O O12 0.500000 0.000000 0.000000
#
# Coordination Sequence:
#
# PCOD9074822 Si02
#       6
#     2   2   2   2   2   1
#     4  11  26  46  75 109 153 201 263 322 396 470
#     4  11  27  46  74 114 151 200 268 318 393 478
#     4  12  25  49  76 112 157 206 256 324 398 474
#     4  11  27  49  81 110 159 207 265 332 400 473
#     4  12  28  45  80 109 159 205 256 326 398 472
#     4  10  26  48  72 110 152 198 266 322 396 462
#
# _framework density 24.810538000000001
#
# number of rings (size 3 to 8) (size 9 to 14) (size 15 to 20)
#    0.000    0.727    1.818    3.273   12.727    1.455 
#    0.000    0.000    0.000    0.000    0.000    0.000 
#    0.000    0.000    0.000    0.000    0.000    0.000 
#
# Total GULP energy -61270.907806 kJ/mol
# GULP energy per Si atom -5570.082528 kJ/mol
# Density = 2.475407 g / cm^3
# Si number density = 24.810538 Si / 1000 Ang^3
#
#
#
# Elastic Constant Matrix: (Units=GPa)
#
#
# Indices 1 2 3 4 5 6 
#
# 1 118.1569 23.7335 48.3019 30.0827 16.5395 9.7382
# 2 23.7335 99.2589 25.1942 12.9751 4.3077 1.6576
# 3 48.3019 25.1942 131.1886 14.5256 23.2427 13.6827
# 4 30.0827 12.9751 14.5256 22.1056 9.9347 -2.8529
# 5 16.5395 4.3077 23.2427 9.9347 29.8645 17.9246
# 6 9.7382 1.6576 13.6827 -2.8529 17.9246 36.8168
#
#
#
# Elastic Compliance Matrix: (Units=1/GPa)
#
#
# Indices 1 2 3 4 5 6 
#
# 1 0.015311 -0.000011 -0.003475 -0.022251 0.006102 -0.007453
# 2 -0.000011 0.011365 -0.001758 -0.007306 0.003416 -0.002085
# 3 -0.003475 -0.001758 0.010131 0.002341 -0.006970 0.000808
# 4 -0.022251 -0.007306 0.002341 0.101898 -0.042794 0.034075
# 5 0.006102 0.003416 -0.006970 -0.042794 0.071730 -0.037416
# 6 -0.007453 -0.002085 0.000808 0.034075 -0.037416 0.049783
#
#
# Mechanical properties :
#
#
# Convention : Reuss Voigt Hill
#
# Bulk Modulus (GPa) = 37.99366 60.34041 49.16704
# Shear Modulus (GPa) = 17.89042 34.51570 26.20306
#
# Velocity S-wave (km/s) = 2.68821 3.73389 3.25334
# Velocity P-wave (km/s) = 4.99820 6.55458 5.82857
#
# Compressibility (1/GPa) = 0.02632018
#
# Stress axis : x y z
#
# Youngs Moduli (GPa) = 65.31099 87.99031 98.70487
#
# Poissons Ratio (x) = 0.00094 0.34305
# Poissons Ratio (y) = 0.00069 0.17348
# Poissons Ratio (z) = 0.22699 0.15465
#
# Static dielectric constant tensor:
#      x y z
#    x 2.068010 -0.050110 0.020850 
#    y -0.050110 2.077140 -0.023460 
#    z 0.020850 -0.023460 2.122220 
# 
# From -- ./inp_files/25955.got.cif
#   From: 2010.05.17/outbox.ucp.g08.bks.cvg/sg2_13_cif.got.tgz:25955.got - 2010.06.11 11:32:03.
