data_PCOD9074812
_publ_section_title
;
Structure prediction by ZEFSAII (Michael W. Deem and Ramdas Pophale) SiO2 
 PCOD9074812
Probable space group: P -1
;
_chemical_formula_sum "Si O2"
_cell_formula_units_Z 16
_cell_length_a 18.000000
_cell_length_b 12.000000
_cell_length_c 9.000000
_cell_angle_alpha 120.000000
_cell_angle_beta 50.000000
_cell_angle_gamma 150.000000
_cell_volume 736.400153
_symmetry_space_group_name_H-M "P -1"
_symmetry_group_IT_number 2
_symmetry_cell_setting 'triclinic'
loop_
_space_group_symop_operation_xyz
x,y,z
-x,-y,-z
loop_
_atom_site_type_symbol
_atom_site_label
_atom_site_fract_x
_atom_site_fract_y
_atom_site_fract_z
Si Si1 0.280665 0.834189 0.869976
Si Si2 0.052255 0.022547 0.617696
Si Si3 0.716197 0.674902 0.978415
Si Si4 0.534163 0.881011 0.592574
Si Si5 0.639544 0.539939 0.323853
Si Si6 0.002805 0.537160 0.771596
Si Si7 0.913151 0.224939 0.444489
Si Si8 0.525724 0.729257 0.186507
O O1 0.447151 0.925432 0.723229
O O2 0.169057 0.706997 0.776519
O O3 0.345267 0.051399 0.938768
O O4 0.156186 0.653794 0.041121
O O5 0.084778 0.911576 0.566339
O O6 0.902091 0.909441 0.839441
O O7 0.221520 0.282869 0.611408
O O8 0.000000 0.000000 0.500000
O O9 0.641195 0.483942 0.837037
O O10 0.710278 0.630390 0.127488
O O11 0.601864 0.676469 0.104434
O O12 0.432557 0.679145 0.701248
O O13 0.510832 0.795006 0.400274
O O14 0.725725 0.073150 0.536215
O O15 0.500000 0.500000 0.500000
O O16 0.996430 0.657956 0.755523
O O17 0.996146 0.412592 0.580725
#
# Coordination Sequence:
#
# PCOD9074812 Si02
#       8
#     2   2   2   2   2   2   2   2
#     4  11  26  44  77 101 141 190 240 286 356 422
#     4  12  28  45  76 105 141 192 238 298 360 426
#     4  11  27  44  75 106 142 187 234 299 357 427
#     4  12  25  45  73 103 145 191 229 288 357 429
#     4  12  25  47  70 106 146 182 237 293 359 425
#     4  10  26  46  68 105 141 186 237 299 342 423
#     4  11  25  46  69 101 150 180 239 291 357 415
#     4  11  24  45  72 106 145 180 240 291 356 422
#
# _framework density 21.727318
#
# number of rings (size 3 to 8) (size 9 to 14) (size 15 to 20)
#    0.000    0.750    3.750    1.500   10.500    2.500 
#    0.000    0.000    0.000    0.000    0.000    0.000 
#    0.000    0.000    0.000    0.000    0.000    0.000 
#
# Total GULP energy -89418.253203 kJ/mol
# GULP energy per Si atom -5588.640825 kJ/mol
# Density = 2.167787 g / cm^3
# Si number density = 21.727318 Si / 1000 Ang^3
#
#
#
# Elastic Constant Matrix: (Units=GPa)
#
#
# Indices 1 2 3 4 5 6 
#
# 1 117.1299 12.2904 21.3838 -4.8140 34.7176 -4.2974
# 2 12.2904 62.0419 -7.9232 -5.7396 17.6440 0.2089
# 3 21.3838 -7.9232 54.4447 -13.5032 29.7653 2.0199
# 4 -4.8140 -5.7396 -13.5032 27.6583 -6.8886 4.5561
# 5 34.7176 17.6440 29.7653 -6.8886 28.7199 -5.7723
# 6 -4.2974 0.2089 2.0199 4.5561 -5.7723 45.3285
#
#
#
# Elastic Compliance Matrix: (Units=1/GPa)
#
#
# Indices 1 2 3 4 5 6 
#
# 1 0.139427 0.284282 0.481228 0.131167 -0.836449 -0.129236
# 2 0.284282 0.651965 1.078813 0.298704 -1.848817 -0.289584
# 3 0.481228 1.078813 1.842010 0.508186 -3.130365 -0.491140
# 4 0.131167 0.298704 0.508186 0.179274 -0.853546 -0.138299
# 5 -0.836449 -1.848817 -3.130365 -0.853546 5.390350 0.840929
# 6 -0.129236 -0.289584 -0.491140 -0.138299 0.840929 0.154016
#
#
# Mechanical properties :
#
#
# Convention : Reuss Voigt Hill
#
# Bulk Modulus (GPa) = 0.15818 31.67982 15.91900
# Shear Modulus (GPa) = 0.73793 34.19905 17.46849
#
# Velocity S-wave (km/s) = 0.58341 3.97169 2.83854
# Velocity P-wave (km/s) = 0.72580 5.97032 4.25273
#
# Compressibility (1/GPa) = 6.32204803
#
# Stress axis : x y z
#
# Youngs Moduli (GPa) = 7.17219 1.53382 0.54289
#
# Poissons Ratio (x) = -0.43604 -0.26125
# Poissons Ratio (y) = -2.03892 -0.58567
# Poissons Ratio (z) = -3.45146 -1.65471
#
# Static dielectric constant tensor:
#      x y z
#    x 1.763120 -0.008910 -0.008490 
#    y -0.008910 1.841480 -0.044150 
#    z -0.008490 -0.044150 1.807670 
# 
# From -- ./inp_files/333606.got.cif
#   From: 2010.05.17/outbox.ucp.g08.bks.cvg/sg2_167_cif.got.tgz:333606.got - 2010.06.11 11:32:03.
