data_PCOD9074135
_publ_section_title
;
Structure prediction by ZEFSAII (Michael W. Deem and Ramdas Pophale) SiO2 
 PCOD9074135
Probable space group: P -1
;
_chemical_formula_sum "Si O2"
_cell_formula_units_Z 16
_cell_length_a 18.000000
_cell_length_b 9.000000
_cell_length_c 12.000000
_cell_angle_alpha 130.000000
_cell_angle_beta 130.000000
_cell_angle_gamma 30.000000
_cell_volume 725.531033
_symmetry_space_group_name_H-M "P -1"
_symmetry_group_IT_number 2
_symmetry_cell_setting 'triclinic'
loop_
_space_group_symop_operation_xyz
x,y,z
-x,-y,-z
loop_
_atom_site_type_symbol
_atom_site_label
_atom_site_fract_x
_atom_site_fract_y
_atom_site_fract_z
Si Si1 0.089479 0.562127 0.841840
Si Si2 0.087503 0.565194 0.102147
Si Si3 0.595926 0.513733 0.164815
Si Si4 0.409145 0.175689 0.319086
Si Si5 0.991234 0.652488 0.456207
Si Si6 0.331389 0.688537 0.621422
Si Si7 0.563402 0.057477 0.179459
Si Si8 0.116295 0.772492 0.767934
O O1 0.984490 0.534160 0.710863
O O2 0.043529 0.798307 0.823560
O O3 0.254714 0.251414 0.801824
O O4 0.107471 0.574462 0.993940
O O5 0.246813 0.337421 0.206560
O O6 0.983402 0.895702 0.206897
O O7 0.000000 0.500000 0.000000
O O8 0.686232 0.293878 0.253147
O O9 0.714452 0.413755 0.140707
O O10 0.502827 0.839699 0.281341
O O11 0.500000 0.500000 0.000000
O O12 0.388457 0.396348 0.483777
O O13 0.490472 0.121922 0.258355
O O14 0.000000 0.500000 0.500000
O O15 0.114295 0.621968 0.592882
O O16 0.828939 0.009053 0.448842
O O17 0.449100 0.689085 0.723920
O O18 0.500000 0.000000 0.000000
#
# Coordination Sequence:
#
# PCOD9074135 Si02
#       8
#     2   2   2   2   2   2   2   2
#     4  10  22  42  69  99 131 180 231 281 350 408
#     4  12  26  41  67 101 142 178 232 292 348 410
#     4  12  27  44  71 101 144 188 238 285 354 423
#     4  12  24  47  66 102 146 180 238 287 349 424
#     4   9  21  42  71  98 133 175 230 284 344 419
#     4  11  25  43  71 105 140 185 232 295 353 410
#     4  11  21  41  73  99 133 183 229 285 344 419
#     4  11  23  45  68  97 136 182 231 289 347 418
#
# _framework density 22.052813
#
# number of rings (size 3 to 8) (size 9 to 14) (size 15 to 20)
#    0.000    1.000    3.750    2.625    5.250    1.500 
#    0.000    1.250    0.000    0.000    0.000    0.000 
#    0.000    0.000    0.000    0.000    0.000    0.000 
#
# Total GULP energy -89239.386709 kJ/mol
# GULP energy per Si atom -5577.461669 kJ/mol
# Density = 2.200262 g / cm^3
# Si number density = 22.052813 Si / 1000 Ang^3
#
#
#
# Elastic Constant Matrix: (Units=GPa)
#
#
# Indices 1 2 3 4 5 6 
#
# 1 91.1777 23.4537 45.2550 -2.4799 18.5561 0.1751
# 2 23.4537 71.7605 7.8137 -2.9862 5.0400 12.3824
# 3 45.2550 7.8137 101.6172 -16.7358 12.6765 1.7653
# 4 -2.4799 -2.9862 -16.7358 22.9726 2.3143 0.5267
# 5 18.5561 5.0400 12.6765 2.3143 44.5006 -1.4225
# 6 0.1751 12.3824 1.7653 0.5267 -1.4225 25.8859
#
#
#
# Elastic Compliance Matrix: (Units=1/GPa)
#
#
# Indices 1 2 3 4 5 6 
#
# 1 0.016476 -0.004929 -0.007112 -0.003699 -0.004011 0.002586
# 2 -0.004929 0.016985 0.001647 0.003143 -0.000767 -0.008310
# 3 -0.007112 0.001647 0.014920 0.010574 -0.002087 -0.002087
# 4 -0.003699 0.003143 0.010574 0.051789 -0.004631 -0.003508
# 5 -0.004011 -0.000767 -0.002087 -0.004631 0.025131 0.002011
# 6 0.002586 -0.008310 -0.002087 -0.003508 0.002011 0.042913
#
#
# Mechanical properties :
#
#
# Convention : Reuss Voigt Hill
#
# Bulk Modulus (GPa) = 36.24222 46.40002 41.32112
# Shear Modulus (GPa) = 25.22685 31.20736 28.21711
#
# Velocity S-wave (km/s) = 3.38587 3.76589 3.58092
# Velocity P-wave (km/s) = 5.63520 6.32418 5.98961
#
# Compressibility (1/GPa) = 0.02759213
#
# Stress axis : x y z
#
# Youngs Moduli (GPa) = 60.69274 58.87394 67.02496
#
# Poissons Ratio (x) = 0.29019 0.47671
# Poissons Ratio (y) = 0.29916 -0.11037
# Poissons Ratio (z) = 0.43167 -0.09695
#
# Static dielectric constant tensor:
#      x y z
#    x 1.835560 0.049470 0.038190 
#    y 0.049470 1.829050 0.023980 
#    z 0.038190 0.023980 1.805540 
# 
# From -- ./inp_files/187787.got.cif
#   From: 2010.05.17/outbox.ucp.g08.bks.cvg/sg2_94_cif.got.tgz:187787.got - 2010.06.11 11:32:03.
