data_PCOD9074066
_publ_section_title
;
Structure prediction by ZEFSAII (Michael W. Deem and Ramdas Pophale) SiO2 
 PCOD9074066
Probable space group: P -1
;
_chemical_formula_sum "Si O2"
_cell_formula_units_Z 14
_cell_length_a 9.000000
_cell_length_b 12.000000
_cell_length_c 12.000000
_cell_angle_alpha 130.000000
_cell_angle_beta 60.000000
_cell_angle_gamma 140.000000
_cell_volume 638.079485
_symmetry_space_group_name_H-M "P -1"
_symmetry_group_IT_number 2
_symmetry_cell_setting 'triclinic'
loop_
_space_group_symop_operation_xyz
x,y,z
-x,-y,-z
loop_
_atom_site_type_symbol
_atom_site_label
_atom_site_fract_x
_atom_site_fract_y
_atom_site_fract_z
Si Si1 0.505466 0.076667 0.758638
Si Si2 0.652884 0.323603 0.471243
Si Si3 0.894094 0.422664 0.675492
Si Si4 0.933386 0.661481 0.996631
Si Si5 0.957728 0.010312 0.156594
Si Si6 0.417211 0.410288 0.348871
Si Si7 0.664700 0.322502 0.058398
O O1 0.743854 0.250190 0.714152
O O2 0.280803 0.033063 0.765394
O O3 0.493037 0.896441 0.653319
O O4 0.499805 0.131610 0.922305
O O5 0.765235 0.334596 0.550941
O O6 0.532889 0.404517 0.604485
O O7 0.846268 0.463839 0.392773
O O8 0.889874 0.580642 0.834494
O O9 0.947555 0.842934 0.107258
O O10 0.750141 0.492553 0.045536
O O11 0.151656 0.688173 0.970563
O O12 0.159559 0.216791 0.277683
O O13 0.000000 0.000000 0.000000
O O14 0.500000 0.500000 0.500000
O O15 0.561253 0.355999 0.217438
#
# Coordination Sequence:
#
# PCOD9074066 Si02
#       7
#     2   2   2   2   2   2   2
#     4  11  24  42  74 102 135 186 239 283 351 414
#     4  11  23  42  66  99 145 181 225 295 343 425
#     4  10  22  41  68 100 137 181 232 285 353 403
#     4  10  23  43  72  97 138 180 237 296 335 421
#     4  12  24  43  71 109 134 176 241 290 341 424
#     4  12  27  43  67 103 143 181 226 287 361 411
#     4  10  24  45  68 102 134 186 235 283 355 416
#
# _framework density 21.940840000000001
#
# number of rings (size 3 to 8) (size 9 to 14) (size 15 to 20)
#    0.000    1.143    1.429    4.714    4.000    1.714 
#    0.000    0.714    0.000    0.000    0.000    0.000 
#    0.000    0.000    0.000    0.000    0.000    0.000 
#
# Total GULP energy -78002.907210 kJ/mol
# GULP energy per Si atom -5571.636229 kJ/mol
# Density = 2.189090 g / cm^3
# Si number density = 21.940840 Si / 1000 Ang^3
#
#
#
# Elastic Constant Matrix: (Units=GPa)
#
#
# Indices 1 2 3 4 5 6 
#
# 1 -5.7214 14.8420 22.6564 26.8297 -1.2167 -10.4463
# 2 14.8420 33.3160 19.1823 22.8588 9.1096 -11.1152
# 3 22.6564 19.1823 134.7480 34.4939 19.2135 1.9076
# 4 26.8297 22.8588 34.4939 45.0747 -14.0297 -10.1291
# 5 -1.2167 9.1096 19.2135 -14.0297 35.1712 8.3740
# 6 -10.4463 -11.1152 1.9076 -10.1291 8.3740 23.4226
#
#
#
# Elastic Compliance Matrix: (Units=1/GPa)
#
#
# Indices 1 2 3 4 5 6 
#
# 1 -0.034402 -0.025059 -0.005438 0.042293 0.029694 -0.019118
# 2 -0.025059 0.114334 0.016574 -0.071075 -0.077064 0.038547
# 3 -0.005438 0.016574 0.015109 -0.023248 -0.022535 0.002213
# 4 0.042293 -0.071075 -0.023248 0.068748 0.061216 -0.005129
# 5 0.029694 -0.077064 -0.022535 0.061216 0.092869 -0.028221
# 6 -0.019118 0.038547 0.002213 -0.005129 -0.028221 0.060151
#
#
# Mechanical properties :
#
#
# Convention : Reuss Voigt Hill
#
# Bulk Modulus (GPa) = 14.88196 30.63375 22.75786
# Shear Modulus (GPa) = 13.62204 27.77784 20.69994
#
# Velocity S-wave (km/s) = 2.49440 3.56200 3.07488
# Velocity P-wave (km/s) = 3.88504 5.55962 4.79598
#
# Compressibility (1/GPa) = 0.06719544
#
# Stress axis : x y z
#
# Youngs Moduli (GPa) = -29.06770 8.74630 66.18435
#
# Poissons Ratio (x) = 0.21917 0.35992
# Poissons Ratio (y) = -0.72840 -1.09694
# Poissons Ratio (z) = -0.15807 -0.14496
#
# Static dielectric constant tensor:
#      x y z
#    x 1.954070 0.015920 0.013930 
#    y 0.015920 1.853160 0.007300 
#    z 0.013930 0.007300 1.803570 
# 
# From -- ./inp_files/298357.got.cif
#   From: 2010.05.17/outbox.ucp.g08.bks.cvg/sg2_150_cif.got.tgz:298357.got - 2010.06.11 11:32:03.
