data_PCOD9074760
_publ_section_title
;
Structure prediction by ZEFSAII (Michael W. Deem and Ramdas Pophale) SiO2 
 PCOD9074760
Probable space group: P -1
;
_chemical_formula_sum "Si O2"
_cell_formula_units_Z 16
_cell_length_a 18.000000
_cell_length_b 15.000000
_cell_length_c 24.000000
_cell_angle_alpha 160.000000
_cell_angle_beta 20.000000
_cell_angle_gamma 150.000000
_cell_volume 749.971719
_symmetry_space_group_name_H-M "P -1"
_symmetry_group_IT_number 2
_symmetry_cell_setting 'triclinic'
loop_
_space_group_symop_operation_xyz
x,y,z
-x,-y,-z
loop_
_atom_site_type_symbol
_atom_site_label
_atom_site_fract_x
_atom_site_fract_y
_atom_site_fract_z
Si Si1 0.029408 0.629929 0.964559
Si Si2 0.505594 0.672669 0.517145
Si Si3 0.185814 0.709415 0.166999
Si Si4 0.767310 0.939484 0.990732
Si Si5 0.421315 0.097710 0.512418
Si Si6 0.655807 0.463126 0.714182
Si Si7 0.854515 0.681639 0.476292
Si Si8 0.847575 0.352009 0.398251
O O1 0.262518 0.514642 0.758790
O O2 0.981221 0.404664 0.823380
O O3 0.804163 0.702814 0.200237
O O4 0.075957 0.897621 0.059520
O O5 0.521018 0.885121 0.582732
O O6 0.312102 0.496482 0.539099
O O7 0.438909 0.844218 0.719782
O O8 0.090911 0.653463 0.262284
O O9 0.214170 0.007357 0.305291
O O10 0.420929 0.542824 0.898006
O O11 0.693542 0.694861 0.866232
O O12 0.918767 0.837067 0.876973
O O13 0.638553 0.194460 0.443870
O O14 0.365102 0.815778 0.406223
O O15 0.824236 0.452908 0.537835
O O16 0.853547 0.578512 0.480334
#
# Coordination Sequence:
#
# PCOD9074760 Si02
#       8
#     2   2   2   2   2   2   2   2
#     4  12  23  46  68  96 138 175 221 269 333 395
#     4  11  26  44  68 101 135 175 218 276 331 388
#     4  11  24  43  70  98 131 176 222 272 328 396
#     4  12  26  42  69  99 136 176 218 275 332 390
#     4  11  25  45  69  99 133 176 224 269 330 392
#     4  12  25  44  67  99 136 177 219 272 330 394
#     4  10  25  44  68 100 131 173 223 273 331 390
#     4  11  24  46  67  98 133 177 220 273 330 391
#
# _framework density 21.334137999999999
#
# number of rings (size 3 to 8) (size 9 to 14) (size 15 to 20)
#    0.000    0.750    3.750    3.000    5.250    3.000 
#    2.250    0.000    0.000    0.000    0.000    0.000 
#    0.000    0.000    0.000    0.000    0.000    0.000 
#
# Total GULP energy -89312.001982 kJ/mol
# GULP energy per Si atom -5582.000124 kJ/mol
# Density = 2.128558 g / cm^3
# Si number density = 21.334138 Si / 1000 Ang^3
#
#
#
# Elastic Constant Matrix: (Units=GPa)
#
#
# Indices 1 2 3 4 5 6 
#
# 1 59.7632 49.5491 11.5796 12.0767 1.8289 -13.2193
# 2 49.5491 147.7248 27.1837 22.9434 11.3539 -24.0971
# 3 11.5796 27.1837 70.5703 3.9896 -5.2379 -5.4986
# 4 12.0767 22.9434 3.9896 31.4242 5.2450 -3.1383
# 5 1.8289 11.3539 -5.2379 5.2450 30.1463 -2.5724
# 6 -13.2193 -24.0971 -5.4986 -3.1383 -2.5724 31.9941
#
#
#
# Elastic Compliance Matrix: (Units=1/GPa)
#
#
# Indices 1 2 3 4 5 6 
#
# 1 0.024278 -0.006796 -0.000618 -0.004184 0.002097 0.004564
# 2 -0.006796 0.011204 -0.002850 -0.004228 -0.003185 0.004470
# 3 -0.000618 -0.002850 0.015724 -0.000277 0.003941 0.000590
# 4 -0.004184 -0.004228 -0.000277 0.037187 -0.004817 -0.001701
# 5 0.002097 -0.003185 0.003941 -0.004817 0.035900 0.001558
# 6 0.004564 0.004470 0.000590 -0.001701 0.001558 0.036568
#
#
# Mechanical properties :
#
#
# Convention : Reuss Voigt Hill
#
# Bulk Modulus (GPa) = 32.59695 50.52035 41.55865
# Shear Modulus (GPa) = 26.09404 31.36266 28.72835
#
# Velocity S-wave (km/s) = 3.50110 3.83831 3.67357
# Velocity P-wave (km/s) = 5.62636 6.58600 6.12501
#
# Compressibility (1/GPa) = 0.03067772
#
# Stress axis : x y z
#
# Youngs Moduli (GPa) = 41.18939 89.25381 63.59881
#
# Poissons Ratio (x) = 0.60660 0.03930
# Poissons Ratio (y) = 0.27994 0.18124
# Poissons Ratio (z) = 0.02545 0.25435
#
# Static dielectric constant tensor:
#      x y z
#    x 1.823830 -0.010690 0.009340 
#    y -0.010690 1.686840 0.002350 
#    z 0.009340 0.002350 1.805980 
# 
# From -- ./inp_files/189177.got.cif
#   From: 2010.05.17/outbox.ucp.g08.bks.cvg/sg2_95_cif.got.tgz:189177.got - 2010.06.11 11:32:03.
