data_PCOD9074182
_publ_section_title
;
Structure prediction by ZEFSAII (Michael W. Deem and Ramdas Pophale) SiO2 
 PCOD9074182
Probable space group: P -1
;
_chemical_formula_sum "Si O2"
_cell_formula_units_Z 15
_cell_length_a 21.000000
_cell_length_b 12.000000
_cell_length_c 9.000000
_cell_angle_alpha 140.000000
_cell_angle_beta 50.000000
_cell_angle_gamma 150.000000
_cell_volume 727.418465
_symmetry_space_group_name_H-M "P -1"
_symmetry_group_IT_number 2
_symmetry_cell_setting 'triclinic'
loop_
_space_group_symop_operation_xyz
x,y,z
-x,-y,-z
loop_
_atom_site_type_symbol
_atom_site_label
_atom_site_fract_x
_atom_site_fract_y
_atom_site_fract_z
Si Si1 0.495761 0.808050 0.113771
Si Si2 0.090374 0.088491 0.817242
Si Si3 0.349787 0.623692 0.425098
Si Si4 0.926475 0.739054 0.435160
Si Si5 0.558683 0.527561 0.650294
Si Si6 0.282362 0.110434 0.492366
Si Si7 0.500000 0.000000 0.000000
Si Si8 0.801079 0.400703 0.995652
O O1 0.377521 0.625631 0.215861
O O2 0.594614 0.099140 0.336861
O O3 0.550900 0.702876 0.915764
O O4 0.457440 0.813688 0.015157
O O5 0.205677 0.134908 0.724279
O O6 0.137422 0.346021 0.936412
O O7 0.013533 0.852811 0.566395
O O8 0.000000 0.000000 0.000000
O O9 0.202880 0.385017 0.436132
O O10 0.419114 0.594011 0.395701
O O11 0.877622 0.523343 0.164191
O O12 0.000000 0.000000 0.500000
O O13 0.420573 0.277353 0.525663
O O14 0.671619 0.723532 0.560157
O O15 0.207741 0.810620 0.270953
O O16 0.651809 0.216184 0.047111
#
# Coordination Sequence:
#
# PCOD9074182 Si02
#       8
#     2   2   2   2   2   2   1   2
#     4  11  24  38  65  99 139 178 216 285 357 406
#     4  11  27  46  68  96 139 189 232 284 336 414
#     4  11  23  41  64 100 139 177 223 287 354 403
#     4  10  22  43  67  93 133 190 224 269 337 408
#     4  11  22  40  66 106 138 170 228 289 350 415
#     4  11  24  39  71 103 130 186 232 282 350 405
#     4  12  20  40  70 100 140 172 218 292 350 416
#     4  11  23  43  69 100 135 179 233 285 343 414
#
# _framework density 20.620868000000002
#
# number of rings (size 3 to 8) (size 9 to 14) (size 15 to 20)
#    0.000    1.067    2.667    3.600    7.467    1.067 
#    0.000    2.667    0.000    0.000    0.000    0.000 
#    0.000    0.000    0.000    0.000    0.000    0.000 
#
# Total GULP energy -83505.259539 kJ/mol
# GULP energy per Si atom -5567.017303 kJ/mol
# Density = 2.057393 g / cm^3
# Si number density = 20.620868 Si / 1000 Ang^3
#
#
#
# Elastic Constant Matrix: (Units=GPa)
#
#
# Indices 1 2 3 4 5 6 
#
# 1 34.2092 26.8285 18.2004 19.5538 1.9162 -5.7247
# 2 26.8285 127.8959 51.6382 -13.6116 -2.7404 -10.8685
# 3 18.2004 51.6382 109.9679 15.0675 -18.3486 -9.3194
# 4 19.5538 -13.6116 15.0675 33.0254 4.2677 1.0166
# 5 1.9162 -2.7404 -18.3486 4.2677 20.0946 7.3822
# 6 -5.7247 -10.8685 -9.3194 1.0166 7.3822 24.9522
#
#
#
# Elastic Compliance Matrix: (Units=1/GPa)
#
#
# Indices 1 2 3 4 5 6 
#
# 1 0.088877 -0.029721 0.011557 -0.071655 0.008807 0.012075
# 2 -0.029721 0.022505 -0.012439 0.034205 -0.013011 0.000794
# 3 0.011557 -0.012439 0.019580 -0.023505 0.020251 -0.000487
# 4 -0.071655 0.034205 -0.023505 0.101505 -0.029409 -0.005754
# 5 0.008807 -0.013011 0.020251 -0.029409 0.078546 -0.018123
# 6 0.012075 0.000794 -0.000487 -0.005754 -0.018123 0.048607
#
#
# Mechanical properties :
#
#
# Convention : Reuss Voigt Hill
#
# Bulk Modulus (GPa) = 14.33561 51.71193 33.02377
# Shear Modulus (GPa) = 11.25932 27.30815 19.28373
#
# Velocity S-wave (km/s) = 2.33923 3.64304 3.06135
# Velocity P-wave (km/s) = 3.77665 6.54428 5.34278
#
# Compressibility (1/GPa) = 0.06975635
#
# Stress axis : x y z
#
# Youngs Moduli (GPa) = 11.25153 44.43529 51.07226
#
# Poissons Ratio (x) = 1.32066 -0.59026
# Poissons Ratio (y) = 0.33441 0.63529
# Poissons Ratio (z) = -0.13004 0.55273
#
# Static dielectric constant tensor:
#      x y z
#    x 1.734560 0.014850 0.033540 
#    y 0.014850 1.732320 -0.003620 
#    z 0.033540 -0.003620 1.791950 
# 
# From -- ./inp_files/346461.got.cif
#   From: 2010.05.17/outbox.ucp.g08.bks.cvg/sg2_174_cif.got.tgz:346461.got - 2010.06.11 11:32:03.
