data_PCOD9074361
_publ_section_title
;
Structure prediction by ZEFSAII (Michael W. Deem and Ramdas Pophale) SiO2 
 PCOD9074361
Probable space group: P -1
;
_chemical_formula_sum "Si O2"
_cell_formula_units_Z 16
_cell_length_a 9.000000
_cell_length_b 15.000000
_cell_length_c 27.000000
_cell_angle_alpha 160.000000
_cell_angle_beta 50.000000
_cell_angle_gamma 140.000000
_cell_volume 750.501489
_symmetry_space_group_name_H-M "P -1"
_symmetry_group_IT_number 2
_symmetry_cell_setting 'triclinic'
loop_
_space_group_symop_operation_xyz
x,y,z
-x,-y,-z
loop_
_atom_site_type_symbol
_atom_site_label
_atom_site_fract_x
_atom_site_fract_y
_atom_site_fract_z
Si Si1 0.382706 0.836351 0.081202
Si Si2 0.197152 0.497031 0.610291
Si Si3 0.660996 0.134038 0.584374
Si Si4 0.722265 0.717426 0.926670
Si Si5 0.780787 0.940968 0.547077
Si Si6 0.050015 0.230611 0.907648
Si Si7 0.846751 0.279748 0.369700
Si Si8 0.286178 0.626230 0.161586
O O1 0.218807 0.905891 0.123459
O O2 0.565900 0.127763 0.232549
O O3 0.564577 0.832327 0.004620
O O4 0.215214 0.471609 0.951834
O O5 0.270425 0.281938 0.509813
O O6 0.138238 0.511008 0.571869
O O7 0.945969 0.358382 0.621539
O O8 0.620042 0.376417 0.745115
O O9 0.500000 0.000000 0.500000
O O10 0.599042 0.869259 0.502525
O O11 0.704897 0.635267 0.946138
O O12 0.000000 0.000000 0.000000
O O13 0.868225 0.293679 0.732451
O O14 0.000000 0.000000 0.500000
O O15 0.059497 0.940042 0.771102
O O16 0.163815 0.483450 0.060818
O O17 0.000000 0.500000 0.500000
O O18 0.555728 0.983886 0.287739
#
# Coordination Sequence:
#
# PCOD9074361 Si02
#       8
#     2   2   2   2   2   2   2   2
#     4  11  23  42  68  97 135 178 220 283 342 401
#     4  11  23  42  68  96 138 175 226 284 342 403
#     4  10  23  40  69  98 131 181 221 280 339 402
#     4  11  22  42  68  95 133 177 228 270 342 416
#     4   9  23  43  64  97 139 171 218 277 341 399
#     4  11  25  44  67  98 138 174 227 281 340 407
#     4  12  27  42  69 103 132 182 230 284 343 411
#     4  11  23  45  69  94 138 180 220 287 343 399
#
# _framework density 21.319078000000001
#
# number of rings (size 3 to 8) (size 9 to 14) (size 15 to 20)
#    0.000    1.250    3.750    1.125    5.250    4.500 
#    0.000    0.625    0.000    0.000    0.000    0.000 
#    0.000    0.000    0.000    0.000    0.000    0.000 
#
# Total GULP energy -89114.898837 kJ/mol
# GULP energy per Si atom -5569.681177 kJ/mol
# Density = 2.127056 g / cm^3
# Si number density = 21.319078 Si / 1000 Ang^3
#
#
#
# Elastic Constant Matrix: (Units=GPa)
#
#
# Indices 1 2 3 4 5 6 
#
# 1 168.9333 41.0995 57.2653 -8.8680 7.1286 -18.5260
# 2 41.0995 63.1167 11.0528 2.3630 0.8049 -5.4084
# 3 57.2653 11.0528 69.7257 -6.1818 5.3717 -1.2220
# 4 -8.8680 2.3630 -6.1818 28.2173 -5.1431 -8.7168
# 5 7.1286 0.8049 5.3717 -5.1431 42.6206 2.8161
# 6 -18.5260 -5.4084 -1.2220 -8.7168 2.8161 48.7901
#
#
#
# Elastic Compliance Matrix: (Units=1/GPa)
#
#
# Indices 1 2 3 4 5 6 
#
# 1 0.010207 -0.005181 -0.007177 0.003111 -0.000575 0.003711
# 2 -0.005181 0.019138 0.000934 -0.003139 0.000034 -0.000385
# 3 -0.007177 0.000934 0.020260 0.001347 -0.001089 -0.001811
# 4 0.003111 -0.003139 0.001347 0.040060 0.003687 0.007811
# 5 -0.000575 0.000034 -0.001089 0.003687 0.024205 -0.000980
# 6 0.003711 -0.000385 -0.001811 0.007811 -0.000980 0.023269
#
#
# Mechanical properties :
#
#
# Convention : Reuss Voigt Hill
#
# Bulk Modulus (GPa) = 37.37365 57.84564 47.60964
# Shear Modulus (GPa) = 29.60221 36.74947 33.17584
#
# Velocity S-wave (km/s) = 3.73034 4.15635 3.94910
# Velocity P-wave (km/s) = 6.01021 7.08702 6.57071
#
# Compressibility (1/GPa) = 0.02675682
#
# Stress axis : x y z
#
# Youngs Moduli (GPa) = 97.96940 52.25214 49.35918
#
# Poissons Ratio (x) = 0.27072 0.35424
# Poissons Ratio (y) = 0.50758 -0.04609
# Poissons Ratio (z) = 0.70310 -0.04879
#
# Static dielectric constant tensor:
#      x y z
#    x 1.841980 -0.013030 -0.004980 
#    y -0.013030 1.831030 -0.045890 
#    z -0.004980 -0.045890 1.796790 
# 
# From -- ./inp_files/315057.got.cif
#   From: 2010.05.17/outbox.ucp.g08.bks.cvg/sg2_158_cif.got.tgz:315057.got - 2010.06.11 11:32:03.
