data_PCOD9074427
_publ_section_title
;
Structure prediction by ZEFSAII (Michael W. Deem and Ramdas Pophale) SiO2 
 PCOD9074427
Probable space group: P -1
;
_chemical_formula_sum "Si O2"
_cell_formula_units_Z 14
_cell_length_a 9.000000
_cell_length_b 9.000000
_cell_length_c 21.000000
_cell_angle_alpha 150.000000
_cell_angle_beta 60.000000
_cell_angle_gamma 130.000000
_cell_volume 644.350134
_symmetry_space_group_name_H-M "P -1"
_symmetry_group_IT_number 2
_symmetry_cell_setting 'triclinic'
loop_
_space_group_symop_operation_xyz
x,y,z
-x,-y,-z
loop_
_atom_site_type_symbol
_atom_site_label
_atom_site_fract_x
_atom_site_fract_y
_atom_site_fract_z
Si Si1 0.482484 0.036091 0.857031
Si Si2 0.414075 0.644853 0.849045
Si Si3 0.912965 0.058216 0.104527
Si Si4 0.986471 0.642518 0.384421
Si Si5 0.404389 0.805620 0.382585
Si Si6 0.160552 0.387423 0.928453
Si Si7 0.559574 0.215172 0.369194
O O1 0.376704 0.717105 0.811006
O O2 0.319637 0.151771 0.931500
O O3 0.520766 0.959023 0.747919
O O4 0.667395 0.315352 0.957460
O O5 0.571330 0.522104 0.757025
O O6 0.247106 0.386979 0.839001
O O7 0.500000 0.000000 0.000000
O O8 0.981279 0.450932 0.248790
O O9 0.939163 0.934542 0.122572
O O10 0.000000 0.000000 0.000000
O O11 0.792208 0.401280 0.375914
O O12 0.181906 0.713256 0.403442
O O13 0.000000 0.000000 0.500000
O O14 0.500000 0.000000 0.500000
O O15 0.491059 0.002776 0.370176
O O16 0.000000 0.500000 0.000000
O O17 0.500000 0.500000 0.500000
#
# Coordination Sequence:
#
# PCOD9074427 Si02
#       7
#     2   2   2   2   2   2   2
#     4  10  23  42  70  97 141 177 229 282 350 410
#     4  10  23  43  68  98 141 175 223 288 348 401
#     4  11  25  41  71 102 134 184 235 281 348 415
#     4  11  26  46  71 104 140 183 241 285 347 423
#     4  12  27  47  74 101 144 185 232 295 355 410
#     4  11  24  42  66 108 142 176 227 290 353 413
#     4  11  23  47  72 102 137 187 239 286 345 422
#
# _framework density 21.727318
#
# number of rings (size 3 to 8) (size 9 to 14) (size 15 to 20)
#    0.000    1.143    1.429    3.857   12.000    0.571 
#    2.571    0.000    0.000    0.000    0.000    0.000 
#    0.000    0.000    0.000    0.000    0.000    0.000 
#
# Total GULP energy -77995.234770 kJ/mol
# GULP energy per Si atom -5571.088198 kJ/mol
# Density = 2.167787 g / cm^3
# Si number density = 21.727318 Si / 1000 Ang^3
#
#
#
# Elastic Constant Matrix: (Units=GPa)
#
#
# Indices 1 2 3 4 5 6 
#
# 1 120.0475 10.6813 45.2751 1.3204 -3.6605 1.1252
# 2 10.6813 93.4522 34.4199 -24.1788 3.3775 -37.4531
# 3 45.2751 34.4199 128.9901 -23.1506 -4.8823 -1.1416
# 4 1.3204 -24.1788 -23.1506 41.6852 -2.2157 -0.8203
# 5 -3.6605 3.3775 -4.8823 -2.2157 44.0697 -0.9499
# 6 1.1252 -37.4531 -1.1416 -0.8203 -0.9499 42.4641
#
#
#
# Elastic Compliance Matrix: (Units=1/GPa)
#
#
# Indices 1 2 3 4 5 6 
#
# 1 0.009888 -0.001120 -0.003718 -0.003038 0.000312 -0.001401
# 2 -0.001120 0.023866 -0.003645 0.012205 -0.001256 0.021189
# 3 -0.003718 -0.003645 0.010774 0.004003 0.001307 -0.002720
# 4 -0.003038 0.012205 0.004003 0.033680 0.001200 0.011630
# 5 0.000312 -0.001256 0.001307 0.001200 0.023007 -0.000543
# 6 -0.001401 0.021189 -0.002720 0.011630 -0.000543 0.042415
#
#
# Mechanical properties :
#
#
# Convention : Reuss Voigt Hill
#
# Bulk Modulus (GPa) = 36.28072 58.13803 47.20937
# Shear Modulus (GPa) = 29.44937 42.45137 35.95037
#
# Velocity S-wave (km/s) = 3.68558 4.42500 4.07211
# Velocity P-wave (km/s) = 5.90303 7.27487 6.62456
#
# Compressibility (1/GPa) = 0.02756285
#
# Stress axis : x y z
#
# Youngs Moduli (GPa) = 101.13415 41.89999 92.81715
#
# Poissons Ratio (x) = 0.04693 0.34506
# Poissons Ratio (y) = 0.11327 0.33832
# Poissons Ratio (z) = 0.37598 0.15272
#
# Static dielectric constant tensor:
#      x y z
#    x 1.918850 -0.083560 -0.032720 
#    y -0.083560 1.879560 0.106460 
#    z -0.032720 0.106460 1.824480 
# 
# From -- ./inp_files/200438.got.cif
#   From: 2010.05.17/outbox.ucp.g08.bks.cvg/sg2_101_cif.got.tgz:200438.got - 2010.06.11 11:32:03.
