data_PCOD9074682
_publ_section_title
;
Structure prediction by ZEFSAII (Michael W. Deem and Ramdas Pophale) SiO2 
 PCOD9074682
Probable space group: P -1
;
_chemical_formula_sum "Si O2"
_cell_formula_units_Z 15
_cell_length_a 15.000000
_cell_length_b 9.000000
_cell_length_c 9.000000
_cell_angle_alpha 80.000000
_cell_angle_beta 40.000000
_cell_angle_gamma 60.000000
_cell_volume 626.690879
_symmetry_space_group_name_H-M "P -1"
_symmetry_group_IT_number 2
_symmetry_cell_setting 'triclinic'
loop_
_space_group_symop_operation_xyz
x,y,z
-x,-y,-z
loop_
_atom_site_type_symbol
_atom_site_label
_atom_site_fract_x
_atom_site_fract_y
_atom_site_fract_z
Si Si1 0.295919 0.130980 0.249645
Si Si2 0.732155 0.296147 0.023455
Si Si3 0.112494 0.725119 0.879204
Si Si4 0.230006 0.515402 0.337418
Si Si5 0.398060 0.367935 0.438555
Si Si6 0.500000 0.000000 0.500000
Si Si7 0.245249 0.980569 0.638158
Si Si8 0.914202 0.914673 0.713011
O O1 0.217640 0.348383 0.332800
O O2 0.247956 0.056262 0.462083
O O3 0.215745 0.101905 0.213696
O O4 0.500000 0.000000 0.000000
O O5 0.854402 0.296498 0.983903
O O6 0.544181 0.385938 0.308087
O O7 0.729730 0.403322 0.865816
O O8 0.804409 0.082395 0.938563
O O9 0.219441 0.522395 0.712383
O O10 0.192974 0.837105 0.709546
O O11 0.911056 0.850128 0.096544
O O12 0.381860 0.418721 0.277582
O O13 0.065721 0.700997 0.591164
O O14 0.429511 0.171987 0.447139
O O15 0.581432 0.086554 0.487537
O O16 0.000000 0.000000 0.500000
#
# Coordination Sequence:
#
# PCOD9074682 Si02
#       8
#     2   2   2   2   2   1   2   2
#     4  12  26  46  73 115 146 193 242 319 365 432
#     4  11  24  47  71 113 143 196 245 304 368 446
#     4  11  27  47  79 102 150 198 249 297 367 452
#     4  11  25  44  73 109 146 193 249 305 371 436
#     4  12  26  46  72 111 143 199 242 312 367 442
#     4  12  26  48  70 102 154 178 252 302 376 426
#     4  11  26  48  72 108 146 192 252 297 371 446
#     4  10  24  44  74 102 148 190 242 303 361 436
#
# _framework density 23.935244999999998
#
# number of rings (size 3 to 8) (size 9 to 14) (size 15 to 20)
#    0.000    0.800    2.667    3.600    9.333    0.533 
#    2.400    0.000    0.000    0.000    0.000    0.000 
#    0.000    0.000    0.000    0.000    0.000    0.000 
#
# Total GULP energy -83623.600483 kJ/mol
# GULP energy per Si atom -5574.906699 kJ/mol
# Density = 2.388077 g / cm^3
# Si number density = 23.935245 Si / 1000 Ang^3
#
#
#
# Elastic Constant Matrix: (Units=GPa)
#
#
# Indices 1 2 3 4 5 6 
#
# 1 69.9580 7.1824 -9.0197 -13.2330 -0.2421 -18.2008
# 2 7.1824 113.0360 36.1983 -17.0613 18.6288 -36.8622
# 3 -9.0197 36.1983 63.4545 -8.5961 0.5415 -14.6779
# 4 -13.2330 -17.0613 -8.5961 18.4979 0.8985 0.9259
# 5 -0.2421 18.6288 0.5415 0.8985 29.9802 0.6792
# 6 -18.2008 -36.8622 -14.6779 0.9259 0.6792 27.6630
#
#
#
# Elastic Compliance Matrix: (Units=1/GPa)
#
#
# Indices 1 2 3 4 5 6 
#
# 1 0.047222 0.032723 0.016456 0.068694 -0.024159 0.081700
# 2 0.032723 0.051162 0.006576 0.070804 -0.035845 0.091705
# 3 0.016456 0.006576 0.025763 0.028477 -0.006007 0.032454
# 4 0.068694 0.070804 0.028477 0.176789 -0.052653 0.150032
# 5 -0.024159 -0.035845 -0.006007 -0.052653 0.058627 -0.066524
# 6 0.081700 0.091705 0.032454 0.150032 -0.066524 0.225936
#
#
# Mechanical properties :
#
#
# Convention : Reuss Voigt Hill
#
# Bulk Modulus (GPa) = 4.24348 35.01894 19.63121
# Shear Modulus (GPa) = 9.04908 29.36738 19.20823
#
# Velocity S-wave (km/s) = 1.94650 3.50659 2.83593
# Velocity P-wave (km/s) = 2.61315 5.57291 4.35235
#
# Compressibility (1/GPa) = 0.23565581
#
# Stress axis : x y z
#
# Youngs Moduli (GPa) = 21.17643 19.54581 38.81509
#
# Poissons Ratio (x) = -0.63959 -0.63873
# Poissons Ratio (y) = -0.69295 -0.25524
# Poissons Ratio (z) = -0.34847 -0.12853
#
# Static dielectric constant tensor:
#      x y z
#    x 2.129820 -0.010210 -0.033630 
#    y -0.010210 1.807470 -0.025990 
#    z -0.033630 -0.025990 1.979120 
# 
# From -- ./inp_files/205889.got.cif
#   From: 2010.05.17/outbox.ucp.g08.bks.cvg/sg2_103_cif.got.tgz:205889.got - 2010.06.11 11:32:03.
