data_PCOD9074078
_publ_section_title
;
Structure prediction by ZEFSAII (Michael W. Deem and Ramdas Pophale) SiO2 
 PCOD9074078
Probable space group: P -1
;
_chemical_formula_sum "Si O2"
_cell_formula_units_Z 16
_cell_length_a 9.000000
_cell_length_b 9.000000
_cell_length_c 12.000000
_cell_angle_alpha 80.000000
_cell_angle_beta 50.000000
_cell_angle_gamma 80.000000
_cell_volume 730.800219
_symmetry_space_group_name_H-M "P -1"
_symmetry_group_IT_number 2
_symmetry_cell_setting 'triclinic'
loop_
_space_group_symop_operation_xyz
x,y,z
-x,-y,-z
loop_
_atom_site_type_symbol
_atom_site_label
_atom_site_fract_x
_atom_site_fract_y
_atom_site_fract_z
Si Si1 0.418798 0.803878 0.201459
Si Si2 0.464538 0.674731 0.960016
Si Si3 0.031404 0.913871 0.811127
Si Si4 0.222006 0.131527 0.281262
Si Si5 0.082137 0.651831 0.491308
Si Si6 0.043953 0.772730 0.067721
Si Si7 0.670067 0.312208 0.409349
Si Si8 0.675118 0.626026 0.276117
O O1 0.458407 0.788189 0.054378
O O2 0.597216 0.721769 0.194562
O O3 0.243311 0.700279 0.322332
O O4 0.350777 0.972285 0.256021
O O5 0.263918 0.709092 0.988158
O O6 0.500000 0.500000 0.000000
O O7 0.643385 0.729526 0.799018
O O8 0.233490 0.841664 0.669766
O O9 0.879258 0.886279 0.788988
O O10 0.009216 0.826309 0.950013
O O11 0.009173 0.087090 0.840357
O O12 0.060422 0.194201 0.440495
O O13 0.000000 0.500000 0.500000
O O14 0.191756 0.634255 0.562052
O O15 0.899161 0.647156 0.181091
O O16 0.649747 0.447870 0.312146
O O17 0.461054 0.304008 0.567630
#
# Coordination Sequence:
#
# PCOD9074078 Si02
#       8
#     2   2   2   2   2   2   2   2
#     4  11  23  42  65  95 129 174 212 258 330 379
#     4  12  27  41  64  98 128 168 218 268 321 376
#     4  10  23  42  66  93 128 171 207 260 318 379
#     4  11  23  44  66  91 134 169 211 265 323 384
#     4  10  22  41  69  96 127 162 218 270 317 379
#     4  11  25  41  64  95 129 163 219 261 312 377
#     4   9  22  43  66  92 127 170 211 255 326 376
#     4  10  23  42  64  92 128 167 211 264 312 383
#
# _framework density 21.893808
#
# number of rings (size 3 to 8) (size 9 to 14) (size 15 to 20)
#    0.000    1.500    1.250    2.250   10.500    1.000 
#    2.250    0.000    0.000    0.000    0.000    0.000 
#    0.000    0.000    0.000    0.000    0.000    0.000 
#
# Total GULP energy -89376.983108 kJ/mol
# GULP energy per Si atom -5586.061444 kJ/mol
# Density = 2.184398 g / cm^3
# Si number density = 21.893808 Si / 1000 Ang^3
#
#
#
# Elastic Constant Matrix: (Units=GPa)
#
#
# Indices 1 2 3 4 5 6 
#
# 1 29.3422 -26.1336 -0.8575 -3.1063 8.9681 -8.9590
# 2 -26.1336 32.8745 -32.4709 5.5381 11.2282 -6.8595
# 3 -0.8575 -32.4709 28.8147 6.8734 -1.2591 12.6259
# 4 -3.1063 5.5381 6.8734 37.0987 4.9847 0.7268
# 5 8.9681 11.2282 -1.2591 4.9847 21.2939 -1.4030
# 6 -8.9590 -6.8595 12.6259 0.7268 -1.4030 35.4651
#
#
#
# Elastic Compliance Matrix: (Units=1/GPa)
#
#
# Indices 1 2 3 4 5 6 
#
# 1 0.013359 -0.025806 -0.035977 0.010875 0.004041 0.011129
# 2 -0.025806 -0.021213 -0.023853 0.002779 0.019901 -0.001400
# 3 -0.035977 -0.023853 0.017727 -0.006267 0.029010 -0.018737
# 4 0.010875 0.002779 -0.006267 0.030303 -0.013222 0.004372
# 5 0.004041 0.019901 0.029010 -0.013222 0.039337 -0.003631
# 6 0.011129 -0.001400 -0.018737 0.004372 -0.003631 0.037174
#
#
# Mechanical properties :
#
#
# Convention : Reuss Voigt Hill
#
# Bulk Modulus (GPa) = -6.19582 -3.09918 -4.64750
# Shear Modulus (GPa) = 21.35293 28.80442 25.07867
#
# Velocity S-wave (km/s) = 3.12636 3.63111 3.38815
# Velocity P-wave (km/s) = 3.19313 4.02012 3.63025
#
# Compressibility (1/GPa) = -0.16139905
#
# Stress axis : x y z
#
# Youngs Moduli (GPa) = 74.85667 -47.14063 56.41023
#
# Poissons Ratio (x) = -1.21653 2.02948
# Poissons Ratio (y) = 1.93177 1.34553
# Poissons Ratio (z) = 2.69313 -1.12443
#
# Static dielectric constant tensor:
#      x y z
#    x 1.815950 -0.023360 0.008250 
#    y -0.023360 1.757980 -0.017380 
#    z 0.008250 -0.017380 1.805810 
# 
# From -- ./inp_files/208785.got.cif
#   From: 2010.05.17/outbox.ucp.g08.bks.cvg/sg2_105_cif.got.tgz:208785.got - 2010.06.11 11:32:03.
