data_PCOD9074519
_publ_section_title
;
Structure prediction by ZEFSAII (Michael W. Deem and Ramdas Pophale) SiO2 
 PCOD9074519
Probable space group: P -1
;
_chemical_formula_sum "Si O2"
_cell_formula_units_Z 14
_cell_length_a 21.000000
_cell_length_b 21.000000
_cell_length_c 12.000000
_cell_angle_alpha 160.000000
_cell_angle_beta 150.000000
_cell_angle_gamma 20.000000
_cell_volume 612.476904
_symmetry_space_group_name_H-M "P -1"
_symmetry_group_IT_number 2
_symmetry_cell_setting 'triclinic'
loop_
_space_group_symop_operation_xyz
x,y,z
-x,-y,-z
loop_
_atom_site_type_symbol
_atom_site_label
_atom_site_fract_x
_atom_site_fract_y
_atom_site_fract_z
Si Si1 0.665652 0.260857 0.126577
Si Si2 0.387027 0.355137 0.148483
Si Si3 0.616379 0.619460 0.464015
Si Si4 0.233238 0.240662 0.915593
Si Si5 0.709958 0.495549 0.144411
Si Si6 0.769976 0.858058 0.796548
Si Si7 0.102293 0.730099 0.143572
O O1 0.635259 0.433210 0.466799
O O2 0.710417 0.355212 0.247937
O O3 0.480920 0.370693 0.976169
O O4 0.766563 0.976015 0.869016
O O5 0.284486 0.483788 0.086402
O O6 0.298193 0.288167 0.981781
O O7 0.603726 0.096455 0.020360
O O8 0.688585 0.513410 0.273453
O O9 0.383682 0.899249 0.577099
O O10 0.695928 0.723197 0.808944
O O11 0.000000 0.500000 0.000000
O O12 0.741664 0.670580 0.437932
O O13 0.866131 0.225676 0.861677
O O14 0.965909 0.700833 0.889188
O O15 0.000000 0.000000 0.500000
#
# Coordination Sequence:
#
# PCOD9074519 Si02
#       7
#     2   2   2   2   2   2   2
#     4  11  23  44  72  97 143 191 227 288 356 412
#     4  11  23  45  72 103 135 191 236 284 357 411
#     4  10  24  47  67 103 144 183 236 287 348 423
#     4  10  23  44  74 101 140 187 233 288 351 419
#     4  12  25  45  71 104 142 189 229 296 353 406
#     4  12  24  45  70 104 140 183 235 293 349 413
#     4  12  26  44  72 105 141 181 241 294 346 422
#
# _framework density 22.858004999999999
#
# number of rings (size 3 to 8) (size 9 to 14) (size 15 to 20)
#    0.000    0.857    4.286    2.571    2.000    1.143 
#    2.571    0.714    0.000    0.000    0.000    0.000 
#    0.000    0.000    0.000    0.000    0.000    0.000 
#
# Total GULP energy -78066.290964 kJ/mol
# GULP energy per Si atom -5576.163640 kJ/mol
# Density = 2.280598 g / cm^3
# Si number density = 22.858005 Si / 1000 Ang^3
#
#
#
# Elastic Constant Matrix: (Units=GPa)
#
#
# Indices 1 2 3 4 5 6 
#
# 1 176.1533 41.7994 35.4863 2.5136 -24.3952 4.4301
# 2 41.7994 79.9401 5.1671 -17.9922 -21.5611 -6.6468
# 3 35.4863 5.1671 80.7901 -11.9010 -17.1661 22.8688
# 4 2.5136 -17.9922 -11.9010 38.1016 4.3868 -5.6430
# 5 -24.3952 -21.5611 -17.1661 4.3868 48.9333 -9.0232
# 6 4.4301 -6.6468 22.8688 -5.6430 -9.0232 41.0012
#
#
#
# Elastic Compliance Matrix: (Units=1/GPa)
#
#
# Indices 1 2 3 4 5 6 
#
# 1 0.007573 -0.004278 -0.003405 -0.003687 0.001047 0.000110
# 2 -0.004278 0.019241 0.002134 0.010000 0.007184 0.005348
# 3 -0.003405 0.002134 0.017356 0.005142 0.003489 -0.007491
# 4 -0.003687 0.010000 0.005142 0.033189 0.002170 0.004197
# 5 0.001047 0.007184 0.003489 0.002170 0.026102 0.005148
# 6 0.000110 0.005348 -0.007491 0.004197 0.005148 0.031134
#
#
# Mechanical properties :
#
#
# Convention : Reuss Voigt Hill
#
# Bulk Modulus (GPa) = 30.23630 55.75434 42.99532
# Shear Modulus (GPa) = 31.90491 42.56926 37.23709
#
# Velocity S-wave (km/s) = 3.74008 4.32016 4.04054
# Velocity P-wave (km/s) = 5.64867 7.02350 6.37327
#
# Compressibility (1/GPa) = 0.03307283
#
# Stress axis : x y z
#
# Youngs Moduli (GPa) = 132.05398 51.97161 57.61687
#
# Poissons Ratio (x) = 0.22233 0.19616
# Poissons Ratio (y) = 0.56492 -0.12295
# Poissons Ratio (z) = 0.44958 -0.11090
#
# Static dielectric constant tensor:
#      x y z
#    x 1.755030 -0.193080 0.051900 
#    y -0.193080 1.661400 0.113490 
#    z 0.051900 0.113490 2.042470 
# 
# From -- ./inp_files/403428.got.cif
#   From: 2010.05.17/outbox.ucp.g08.bks.cvg/sg2_202_cif.got.tgz:403428.got - 2010.06.11 11:32:03.
