data_PCOD9074718
_publ_section_title
;
Structure prediction by ZEFSAII (Michael W. Deem and Ramdas Pophale) SiO2 
 PCOD9074718
Probable space group: P -1
;
_chemical_formula_sum "Si O2"
_cell_formula_units_Z 15
_cell_length_a 12.000000
_cell_length_b 12.000000
_cell_length_c 12.000000
_cell_angle_alpha 140.000000
_cell_angle_beta 140.000000
_cell_angle_gamma 60.000000
_cell_volume 698.026260
_symmetry_space_group_name_H-M "P -1"
_symmetry_group_IT_number 2
_symmetry_cell_setting 'triclinic'
loop_
_space_group_symop_operation_xyz
x,y,z
-x,-y,-z
loop_
_atom_site_type_symbol
_atom_site_label
_atom_site_fract_x
_atom_site_fract_y
_atom_site_fract_z
Si Si1 0.046515 0.196452 0.737813
Si Si2 0.889437 0.753543 0.923785
Si Si3 0.845656 0.350486 0.213648
Si Si4 0.416163 0.794447 0.897137
Si Si5 0.493420 0.429852 0.598333
Si Si6 0.662331 0.184998 0.391209
Si Si7 0.000000 0.000000 0.000000
Si Si8 0.795289 0.458289 0.016353
O O1 0.141588 0.344432 0.836119
O O2 0.848216 0.225592 0.627394
O O3 0.144385 0.213050 0.945468
O O4 0.000000 0.000000 0.500000
O O5 0.715291 0.657078 0.645915
O O6 0.958706 0.935659 0.050213
O O7 0.037648 0.634290 0.947445
O O8 0.698670 0.280296 0.141152
O O9 0.769936 0.437040 0.113782
O O10 0.000000 0.500000 0.500000
O O11 0.925420 0.183605 0.106246
O O12 0.505582 0.635419 0.798033
O O13 0.304803 0.818626 0.719308
O O14 0.541999 0.987078 0.168744
O O15 0.573947 0.347144 0.488469
O O16 0.612390 0.371137 0.744803
#
# Coordination Sequence:
#
# PCOD9074718 Si02
#       8
#     2   2   2   2   2   2   1   2
#     4  12  26  43  70 108 139 182 239 297 351 421
#     4  11  25  46  72 101 141 188 233 289 357 417
#     4  11  24  47  72 102 146 188 236 292 352 422
#     4  11  25  42  70 105 137 189 236 285 355 422
#     4  12  25  46  71 102 141 187 229 294 352 413
#     4  11  25  44  69 104 145 181 235 293 350 420
#     4  10  24  46  70 102 140 192 230 282 356 418
#     4  11  26  47  70 105 139 185 240 287 354 421
#
# _framework density 21.489163000000001
#
# number of rings (size 3 to 8) (size 9 to 14) (size 15 to 20)
#    0.000    0.800    1.333    5.600   11.200    0.533 
#    2.400    2.000    0.000    0.000    0.000    0.000 
#    0.000    0.000    0.000    0.000    0.000    0.000 
#
# Total GULP energy -83510.194007 kJ/mol
# GULP energy per Si atom -5567.346267 kJ/mol
# Density = 2.144025 g / cm^3
# Si number density = 21.489163 Si / 1000 Ang^3
#
#
#
# Elastic Constant Matrix: (Units=GPa)
#
#
# Indices 1 2 3 4 5 6 
#
# 1 134.7051 56.3733 48.3290 1.7710 -13.0387 34.8945
# 2 56.3733 133.3583 58.9436 2.9601 -4.0285 22.4380
# 3 48.3290 58.9436 131.3619 -22.1255 -6.3669 15.8885
# 4 1.7710 2.9601 -22.1255 53.6386 -5.3254 -3.2778
# 5 -13.0387 -4.0285 -6.3669 -5.3254 30.4028 -2.0820
# 6 34.8945 22.4380 15.8885 -3.2778 -2.0820 63.9644
#
#
#
# Elastic Compliance Matrix: (Units=1/GPa)
#
#
# Indices 1 2 3 4 5 6 
#
# 1 0.010836 -0.002728 -0.002257 -0.001073 0.003328 -0.004340
# 2 -0.002728 0.010717 -0.004090 -0.002386 -0.001121 -0.001414
# 3 -0.002257 -0.004090 0.011198 0.005105 0.001743 0.000203
# 4 -0.001073 -0.002386 0.005105 0.021412 0.004138 0.001386
# 5 0.003328 -0.001121 0.001743 0.004138 0.035226 -0.000496
# 6 -0.004340 -0.001414 0.000203 0.001386 -0.000496 0.018502
#
#
# Mechanical properties :
#
#
# Convention : Reuss Voigt Hill
#
# Bulk Modulus (GPa) = 68.49486 80.74632 74.62059
# Shear Modulus (GPa) = 38.19505 45.31980 41.75742
#
# Velocity S-wave (km/s) = 4.22051 4.59732 4.41294
# Velocity P-wave (km/s) = 7.46281 8.11403 7.79522
#
# Compressibility (1/GPa) = 0.01459964
#
# Stress axis : x y z
#
# Youngs Moduli (GPa) = 92.28852 93.31201 89.30230
#
# Poissons Ratio (x) = 0.25459 0.20153
# Poissons Ratio (y) = 0.25180 0.36527
# Poissons Ratio (z) = 0.20827 0.38167
#
# Static dielectric constant tensor:
#      x y z
#    x 1.873260 -0.047760 0.014860 
#    y -0.047760 1.845000 -0.011050 
#    z 0.014860 -0.011050 1.766380 
# 
# From -- ./inp_files/427103.got.cif
#   From: 2010.05.17/outbox.ucp.g08.bks.cvg/sg2_214_cif.got.tgz:427103.got - 2010.06.11 11:32:03.
