data_PCOD9074043
_publ_section_title
;
Structure prediction by ZEFSAII (Michael W. Deem and Ramdas Pophale) SiO2 
 PCOD9074043
Probable space group: P -1
;
_chemical_formula_sum "Si O2"
_cell_formula_units_Z 16
_cell_length_a 9.000000
_cell_length_b 21.000000
_cell_length_c 6.000000
_cell_angle_alpha 130.000000
_cell_angle_beta 60.000000
_cell_angle_gamma 120.000000
_cell_volume 724.534506
_symmetry_space_group_name_H-M "P -1"
_symmetry_group_IT_number 2
_symmetry_cell_setting 'triclinic'
loop_
_space_group_symop_operation_xyz
x,y,z
-x,-y,-z
loop_
_atom_site_type_symbol
_atom_site_label
_atom_site_fract_x
_atom_site_fract_y
_atom_site_fract_z
Si Si1 0.446417 0.741065 0.844124
Si Si2 0.079200 0.428299 0.663464
Si Si3 0.138714 0.039148 0.673100
Si Si4 0.809432 0.701463 0.380936
Si Si5 0.472603 0.908718 0.431780
Si Si6 0.318899 0.667641 0.272543
Si Si7 0.082719 0.874211 0.668302
Si Si8 0.393412 0.430396 0.105726
O O1 0.640425 0.723930 0.672842
O O2 0.387344 0.713390 0.568065
O O3 0.467795 0.841930 0.085278
O O4 0.342014 0.706440 0.083518
O O5 0.145065 0.372453 0.672745
O O6 0.249657 0.459982 0.438529
O O7 0.890033 0.366953 0.584573
O O8 0.000000 0.500000 0.000000
O O9 0.123321 0.957087 0.661963
O O10 0.344420 0.081496 0.546821
O O11 0.000000 0.000000 0.500000
O O12 0.057743 0.109016 0.011789
O O13 0.979493 0.784570 0.427270
O O14 0.736164 0.655318 0.101327
O O15 0.279351 0.878655 0.626616
O O16 0.500000 0.000000 0.500000
O O17 0.439573 0.600234 0.994252
O O18 0.500000 0.500000 0.000000
#
# Coordination Sequence:
#
# PCOD9074043 Si02
#       8
#     2   2   2   2   2   2   2   2
#     4  11  24  50  72 108 147 197 245 309 362 446
#     4  12  28  45  75 107 143 191 248 307 381 450
#     4  10  22  41  66 100 140 186 235 299 361 430
#     4  11  24  45  74  99 148 192 250 296 375 442
#     4  10  22  44  66 101 146 188 240 301 368 425
#     4  11  27  47  77 105 150 192 251 306 375 438
#     4  10  22  42  65  97 138 186 238 296 359 434
#     4  11  27  48  73 107 146 197 241 314 377 454
#
# _framework density 22.083144000000001
#
# number of rings (size 3 to 8) (size 9 to 14) (size 15 to 20)
#    0.000    1.250    2.500    1.500    7.000    5.500 
#    6.750    0.000    0.000    0.000    0.000    0.000 
#    0.000    0.000    0.000    0.000    0.000    0.000 
#
# Total GULP energy -89097.591307 kJ/mol
# GULP energy per Si atom -5568.599457 kJ/mol
# Density = 2.203288 g / cm^3
# Si number density = 22.083144 Si / 1000 Ang^3
#
#
#
# Elastic Constant Matrix: (Units=GPa)
#
#
# Indices 1 2 3 4 5 6 
#
# 1 107.2709 0.6799 24.7588 -8.4088 -10.7294 13.9899
# 2 0.6799 35.2329 38.3263 -5.7777 -7.9468 9.7739
# 3 24.7588 38.3263 96.9080 0.6471 -10.4116 -15.9536
# 4 -8.4088 -5.7777 0.6471 34.7378 6.3046 -9.5909
# 5 -10.7294 -7.9468 -10.4116 6.3046 45.8130 2.1966
# 6 13.9899 9.7739 -15.9536 -9.5909 2.1966 23.2935
#
#
#
# Elastic Compliance Matrix: (Units=1/GPa)
#
#
# Indices 1 2 3 4 5 6 
#
# 1 0.739014 2.526050 -1.589000 -0.193407 0.406682 -2.710045
# 2 2.526050 8.776602 -5.505009 -0.670610 1.404884 -9.378692
# 3 -1.589000 -5.505009 3.466655 0.422604 -0.880036 5.895499
# 4 -0.193407 -0.670610 0.422604 0.085259 -0.112442 0.732691
# 5 0.406682 1.404884 -0.880036 -0.112442 0.248457 -1.506191
# 6 -2.710045 -9.378692 5.895499 0.732691 -1.506191 10.087322
#
#
# Mechanical properties :
#
#
# Convention : Reuss Voigt Hill
#
# Bulk Modulus (GPa) = 0.25999 40.77130 20.51564
# Shear Modulus (GPa) = 0.14784 32.47865 16.31324
#
# Velocity S-wave (km/s) = 0.25902 3.83919 2.72089
# Velocity P-wave (km/s) = 0.45546 6.17699 4.37965
#
# Compressibility (1/GPa) = 3.84635373
#
# Stress axis : x y z
#
# Youngs Moduli (GPa) = 1.35316 0.11394 0.28846
#
# Poissons Ratio (x) = -0.28782 0.45837
# Poissons Ratio (y) = -3.41814 1.58799
# Poissons Ratio (z) = 2.15016 0.62724
#
# Static dielectric constant tensor:
#      x y z
#    x 1.902990 -0.019960 0.042930 
#    y -0.019960 1.871450 0.007990 
#    z 0.042930 0.007990 1.895860 
# 
# From -- ./inp_files/53396.got.cif
#   From: 2010.05.17/outbox.ucp.g08.bks.cvg/sg2_27_cif.got.tgz:53396.got - 2010.06.11 11:32:03.
