data_PCOD9074503
_publ_section_title
;
Structure prediction by ZEFSAII (Michael W. Deem and Ramdas Pophale) SiO2 
 PCOD9074503
Probable space group: P -1
;
_chemical_formula_sum "Si O2"
_cell_formula_units_Z 16
_cell_length_a 9.000000
_cell_length_b 6.000000
_cell_length_c 15.000000
_cell_angle_alpha 80.000000
_cell_angle_beta 70.000000
_cell_angle_gamma 100.000000
_cell_volume 725.431091
_symmetry_space_group_name_H-M "P -1"
_symmetry_group_IT_number 2
_symmetry_cell_setting 'triclinic'
loop_
_space_group_symop_operation_xyz
x,y,z
-x,-y,-z
loop_
_atom_site_type_symbol
_atom_site_label
_atom_site_fract_x
_atom_site_fract_y
_atom_site_fract_z
Si Si1 0.977236 0.024956 0.394675
Si Si2 0.449269 0.152160 0.905778
Si Si3 0.637715 0.745122 0.463102
Si Si4 0.714234 0.346851 0.975143
Si Si5 0.694550 0.478299 0.177034
Si Si6 0.996381 0.531242 0.762800
Si Si7 0.253639 0.867775 0.266811
Si Si8 0.522979 0.966702 0.646459
O O1 0.937095 0.246926 0.334312
O O2 0.834077 0.789775 0.418152
O O3 0.000000 0.000000 0.500000
O O4 0.150512 0.043107 0.309442
O O5 0.547517 0.319617 0.952248
O O6 0.382418 0.299641 0.834523
O O7 0.596615 0.058493 0.837915
O O8 0.306816 0.935953 0.986239
O O9 0.500000 0.500000 0.500000
O O10 0.603428 0.861337 0.555214
O O11 0.602528 0.905011 0.379267
O O12 0.862219 0.506080 0.874514
O O13 0.731227 0.435687 0.067836
O O14 0.564075 0.249118 0.257424
O O15 0.847600 0.515921 0.211736
O O16 0.882228 0.339734 0.734544
O O17 0.344204 0.834903 0.341892
#
# Coordination Sequence:
#
# PCOD9074503 Si02
#       8
#     2   2   2   2   2   2   2   2
#     4  12  27  49  72 104 143 186 238 298 361 422
#     4  10  24  42  71 107 140 194 235 286 354 426
#     4  11  27  46  73 101 139 183 238 294 358 421
#     4  10  23  44  69 105 145 186 243 286 352 431
#     4  12  24  44  75 102 150 184 238 298 354 422
#     4  11  28  45  70 109 143 189 236 300 363 415
#     4  11  26  43  71 101 145 182 239 287 352 428
#     4  11  25  44  69 108 135 183 241 288 353 433
#
# _framework density 22.055851000000001
#
# number of rings (size 3 to 8) (size 9 to 14) (size 15 to 20)
#    0.000    1.000    3.750    0.750    8.750    5.000 
#    0.000    0.000    0.000    0.000    0.000    0.000 
#    0.000    0.000    0.000    0.000    0.000    0.000 
#
# Total GULP energy -89098.117347 kJ/mol
# GULP energy per Si atom -5568.632334 kJ/mol
# Density = 2.200565 g / cm^3
# Si number density = 22.055851 Si / 1000 Ang^3
#
#
#
# Elastic Constant Matrix: (Units=GPa)
#
#
# Indices 1 2 3 4 5 6 
#
# 1 135.5049 34.6786 45.6645 3.4809 24.0549 19.2654
# 2 34.6786 44.6247 33.5198 -7.4080 11.7905 10.2541
# 3 45.6645 33.5198 123.9919 -11.4755 26.6129 -5.9836
# 4 3.4809 -7.4080 -11.4755 51.5342 6.9932 7.6796
# 5 24.0549 11.7905 26.6129 6.9932 40.7112 3.4842
# 6 19.2654 10.2541 -5.9836 7.6796 3.4842 36.6225
#
#
#
# Elastic Compliance Matrix: (Units=1/GPa)
#
#
# Indices 1 2 3 4 5 6 
#
# 1 0.010491 -0.004998 -0.002188 -0.000934 -0.002817 -0.004013
# 2 -0.004998 0.035435 -0.007052 0.005644 -0.002868 -0.009355
# 3 -0.002188 -0.007052 0.012393 0.001857 -0.005538 0.005288
# 4 -0.000934 0.005644 0.001857 0.022195 -0.005690 -0.004898
# 5 -0.002817 -0.002868 -0.005538 -0.005690 0.031694 -0.000442
# 6 -0.004013 -0.009355 0.005288 -0.004898 -0.000442 0.033969
#
#
# Mechanical properties :
#
#
# Convention : Reuss Voigt Hill
#
# Bulk Modulus (GPa) = 33.50907 59.09415 46.30161
# Shear Modulus (GPa) = 27.08565 38.45749 32.77157
#
# Velocity S-wave (km/s) = 3.50815 4.18022 3.85885
# Velocity P-wave (km/s) = 5.62453 7.08168 6.39474
#
# Compressibility (1/GPa) = 0.02984267
#
# Stress axis : x y z
#
# Youngs Moduli (GPa) = 95.32170 28.22088 80.69088
#
# Poissons Ratio (x) = 0.14104 0.17655
# Poissons Ratio (y) = 0.47638 0.56906
# Poissons Ratio (z) = 0.20857 0.19902
#
# Static dielectric constant tensor:
#      x y z
#    x 1.864370 -0.048870 -0.009910 
#    y -0.048870 1.867800 0.065650 
#    z -0.009910 0.065650 1.823020 
# 
# From -- ./inp_files/135189.got.cif
#   From: 2010.05.17/outbox.ucp.g08.bks.cvg/sg2_68_cif.got.tgz:135189.got - 2010.06.11 11:32:03.
