data_PCOD9074916
_publ_section_title
;
Structure prediction by ZEFSAII (Michael W. Deem and Ramdas Pophale) SiO2 
 PCOD9074916
Probable space group: P -1
;
_chemical_formula_sum "Si O2"
_cell_formula_units_Z 16
_cell_length_a 9.000000
_cell_length_b 12.000000
_cell_length_c 15.000000
_cell_angle_alpha 40.000000
_cell_angle_beta 110.000000
_cell_angle_gamma 130.000000
_cell_volume 759.581896
_symmetry_space_group_name_H-M "P -1"
_symmetry_group_IT_number 2
_symmetry_cell_setting 'triclinic'
loop_
_space_group_symop_operation_xyz
x,y,z
-x,-y,-z
loop_
_atom_site_type_symbol
_atom_site_label
_atom_site_fract_x
_atom_site_fract_y
_atom_site_fract_z
Si Si1 0.240194 0.712909 0.312413
Si Si2 0.691608 0.166086 0.121976
Si Si3 0.081055 0.081530 0.064351
Si Si4 0.057822 0.645181 0.124628
Si Si5 0.994712 0.227631 0.622102
Si Si6 0.468857 0.579624 0.036753
Si Si7 0.720177 0.148437 0.334032
Si Si8 0.631207 0.849820 0.657958
O O1 0.154608 0.721396 0.195516
O O2 0.139622 0.742321 0.358167
O O3 0.169606 0.465569 0.468103
O O4 0.476376 0.918996 0.226346
O O5 0.771455 0.141758 0.246143
O O6 0.796359 0.239061 0.002269
O O7 0.682631 0.364882 0.023859
O O8 0.947223 0.887859 0.228203
O O9 0.313306 0.181889 0.049063
O O10 0.086130 0.288296 0.957949
O O11 0.000000 0.000000 0.000000
O O12 0.925944 0.381149 0.265157
O O13 0.842508 0.039081 0.634731
O O14 0.413644 0.384958 0.210245
O O15 0.500000 0.500000 0.000000
O O16 0.541207 0.166699 0.309015
O O17 0.647362 0.939710 0.507692
#
# Coordination Sequence:
#
# PCOD9074916 Si02
#       8
#     2   2   2   2   2   2   2   2
#     4  11  22  40  63  90 121 166 199 247 308 364
#     4  12  24  42  61  91 128 164 198 245 311 369
#     4  12  22  37  61  97 119 153 211 252 292 353
#     4  12  24  40  61  92 130 160 197 250 306 369
#     4  11  21  38  65  91 122 154 208 258 299 349
#     4  12  20  39  63  89 120 160 206 250 294 356
#     4  11  22  38  60  95 118 160 205 251 305 350
#     4  11  21  37  66  91 122 153 209 261 295 349
#
# _framework density 21.064219999999999
#
# number of rings (size 3 to 8) (size 9 to 14) (size 15 to 20)
#    0.000    0.500    8.750    0.750    0.000    1.000 
#    0.000    2.500    0.000    0.000    0.000    0.000 
#    0.000    0.000    0.000    0.000    0.000    0.000 
#
# Total GULP energy -89193.590103 kJ/mol
# GULP energy per Si atom -5574.599381 kJ/mol
# Density = 2.101628 g / cm^3
# Si number density = 21.064220 Si / 1000 Ang^3
#
#
#
# Elastic Constant Matrix: (Units=GPa)
#
#
# Indices 1 2 3 4 5 6 
#
# 1 12.9182 6.4962 19.0437 2.5478 -12.0642 -5.7337
# 2 6.4962 61.8005 16.6717 -7.7132 -1.0477 11.6970
# 3 19.0437 16.6717 167.7456 -6.7074 0.4038 -10.7411
# 4 2.5478 -7.7132 -6.7074 37.8211 1.0781 -3.9321
# 5 -12.0642 -1.0477 0.4038 1.0781 26.2812 3.0915
# 6 -5.7337 11.6970 -10.7411 -3.9321 3.0915 2.3899
#
#
#
# Elastic Compliance Matrix: (Units=1/GPa)
#
#
# Indices 1 2 3 4 5 6 
#
# 1 0.082265 0.029550 -0.024716 -0.024039 0.061124 -0.176963
# 2 0.029550 0.002558 0.000312 0.004499 0.006575 0.058678
# 3 -0.024716 0.000312 0.008959 0.003726 -0.011708 0.000715
# 4 -0.024039 0.004499 0.003726 0.030321 -0.012526 0.003140
# 5 0.061124 0.006575 -0.011708 -0.012526 0.073379 -0.053685
# 6 -0.176963 0.058678 0.000715 0.003140 -0.053685 -0.215494
#
#
# Mechanical properties :
#
#
# Convention : Reuss Voigt Hill
#
# Bulk Modulus (GPa) = 9.60843 36.32082 22.96463
# Shear Modulus (GPa) = 782.85577 26.64862 404.75219
#
# Velocity S-wave (km/s) = 19.29919 3.56070 13.87691
# Velocity P-wave (km/s) = 22.38712 5.84680 16.36105
#
# Compressibility (1/GPa) = 0.10407526
#
# Stress axis : x y z
#
# Youngs Moduli (GPa) = 12.15585 390.97060 111.61731
#
# Poissons Ratio (x) = -11.55323 2.75871
# Poissons Ratio (y) = -0.35921 -0.03487
# Poissons Ratio (z) = 0.30044 -0.12213
#
# Static dielectric constant tensor:
#      x y z
#    x 1.783560 0.017610 0.047930 
#    y 0.017610 1.805090 0.042600 
#    z 0.047930 0.042600 1.770540 
# 
# From -- ./inp_files/186722.got.cif
#   From: 2010.05.17/outbox.ucp.g08.bks.cvg/sg2_94_cif.got.tgz:186722.got - 2010.06.11 11:32:03.
