data_PCOD9074686
_publ_section_title
;
Structure prediction by ZEFSAII (Michael W. Deem and Ramdas Pophale) SiO2 
 PCOD9074686
Probable space group: P -1
;
_chemical_formula_sum "Si O2"
_cell_formula_units_Z 10
_cell_length_a 15.000000
_cell_length_b 15.000000
_cell_length_c 9.000000
_cell_angle_alpha 40.000000
_cell_angle_beta 50.000000
_cell_angle_gamma 20.000000
_cell_volume 416.945272
_symmetry_space_group_name_H-M "P -1"
_symmetry_group_IT_number 2
_symmetry_cell_setting 'triclinic'
loop_
_space_group_symop_operation_xyz
x,y,z
-x,-y,-z
loop_
_atom_site_type_symbol
_atom_site_label
_atom_site_fract_x
_atom_site_fract_y
_atom_site_fract_z
Si Si1 0.711821 0.898381 0.269157
Si Si2 0.430144 0.643887 0.237080
Si Si3 0.673254 0.854678 0.859169
Si Si4 0.863826 0.152697 0.137161
Si Si5 0.547893 0.219734 0.333849
O O1 0.000000 0.500000 0.500000
O O2 0.472466 0.075996 0.206242
O O3 0.616904 0.045062 0.347229
O O4 0.711372 0.049907 0.994198
O O5 0.500000 0.500000 0.500000
O O6 0.701259 0.350971 0.215055
O O7 0.189778 0.802287 0.236494
O O8 0.608680 0.081799 0.597415
O O9 0.000000 0.500000 0.000000
O O10 0.500000 0.000000 0.000000
O O11 0.735713 0.152385 0.208964
O O12 0.764049 0.394000 0.844700
#
# Coordination Sequence:
#
# PCOD9074686 Si02
#       5
#     2   2   2   2   2
#     4  11  25  48  76 105 147 197 245 291 362 443
#     4  11  25  43  72 107 146 181 236 302 361 416
#     4  12  28  44  70 105 146 185 234 303 357 417
#     4  10  24  44  75 103 137 191 237 292 351 436
#     4  10  24  47  74 103 144 190 244 286 358 438
#
# _framework density 23.983962999999999
#
# number of rings (size 3 to 8) (size 9 to 14) (size 15 to 20)
#    0.000    1.200    0.000    3.600    5.600   15.200 
#    0.000    0.000    0.000    0.000    0.000    0.000 
#    0.000    0.000    0.000    0.000    0.000    0.000 
#
# Total GULP energy -55809.389049 kJ/mol
# GULP energy per Si atom -5580.938905 kJ/mol
# Density = 2.392937 g / cm^3
# Si number density = 23.983963 Si / 1000 Ang^3
#
#
#
# Elastic Constant Matrix: (Units=GPa)
#
#
# Indices 1 2 3 4 5 6 
#
# 1 97.0855 30.8286 70.6589 -24.9519 -19.4202 -5.4000
# 2 30.8286 114.2201 97.8356 3.6120 0.4287 -4.0569
# 3 70.6589 97.8356 192.5997 20.0998 35.9236 13.1008
# 4 -24.9519 3.6120 20.0998 12.6011 -7.2519 3.2536
# 5 -19.4202 0.4287 35.9236 -7.2519 11.7415 -7.2483
# 6 -5.4000 -4.0569 13.1008 3.2536 -7.2483 35.4589
#
#
#
# Elastic Compliance Matrix: (Units=1/GPa)
#
#
# Indices 1 2 3 4 5 6 
#
# 1 0.003756 -0.005003 0.004769 -0.005981 -0.014462 -0.004170
# 2 -0.005003 0.013532 -0.003492 -0.010673 -0.003193 0.002403
# 3 0.004769 -0.003492 0.002084 0.012565 0.009630 0.000372
# 4 -0.005981 -0.010673 0.012565 0.032928 -0.038517 -0.017669
# 5 -0.014462 -0.003193 0.009630 -0.038517 0.007454 -0.001068
# 6 -0.004170 0.002403 0.000372 -0.017669 -0.001068 0.029107
#
#
# Mechanical properties :
#
#
# Convention : Reuss Voigt Hill
#
# Bulk Modulus (GPa) = 83.90539 89.17238 86.53889
# Shear Modulus (GPa) = 49.85709 25.59912 37.72811
#
# Velocity S-wave (km/s) = 4.56430 3.27057 3.97048
# Velocity P-wave (km/s) = 7.92698 7.17794 7.56174
#
# Compressibility (1/GPa) = 0.01191819
#
# Stress axis : x y z
#
# Youngs Moduli (GPa) = 266.21761 73.90085 479.87037
#
# Poissons Ratio (x) = 0.36974 -2.28835
# Poissons Ratio (y) = 1.33193 1.67587
# Poissons Ratio (z) = -1.26951 0.25809
#
# Static dielectric constant tensor:
#      x y z
#    x 2.107530 -0.038020 -0.022310 
#    y -0.038020 1.915970 0.006680 
#    z -0.022310 0.006680 1.995080 
# 
# From -- ./inp_files/16039.got.cif
#   From: 2010.05.17/outbox.ucp.g08.bks.cvg/sg2_9_cif.got.tgz:16039.got - 2010.06.11 11:32:03.
