data_PCOD9074710
_publ_section_title
;
Structure prediction by ZEFSAII (Michael W. Deem and Ramdas Pophale) SiO2 
 PCOD9074710
Probable space group: P -1
;
_chemical_formula_sum "Si O2"
_cell_formula_units_Z 12
_cell_length_a 15.000000
_cell_length_b 9.000000
_cell_length_c 12.000000
_cell_angle_alpha 140.000000
_cell_angle_beta 30.000000
_cell_angle_gamma 130.000000
_cell_volume 519.584618
_symmetry_space_group_name_H-M "P -1"
_symmetry_group_IT_number 2
_symmetry_cell_setting 'triclinic'
loop_
_space_group_symop_operation_xyz
x,y,z
-x,-y,-z
loop_
_atom_site_type_symbol
_atom_site_label
_atom_site_fract_x
_atom_site_fract_y
_atom_site_fract_z
Si Si1 0.889011 0.856273 0.123134
Si Si2 0.275690 0.395528 0.208421
Si Si3 0.235690 0.582916 0.599448
Si Si4 0.357742 0.106384 0.299764
Si Si5 0.510814 0.064125 0.356680
Si Si6 0.095248 0.803621 0.493023
O O1 0.677091 0.872271 0.337600
O O2 0.907238 0.995025 0.296660
O O3 0.019054 0.625484 0.854461
O O4 0.000000 0.000000 0.000000
O O5 0.311373 0.529738 0.362007
O O6 0.206196 0.581005 0.297377
O O7 0.103589 0.257685 0.348810
O O8 0.418862 0.205194 0.893194
O O9 0.281785 0.357161 0.491521
O O10 0.335849 0.792088 0.669860
O O11 0.451996 0.129177 0.331202
O O12 0.206704 0.921078 0.347134
O O13 0.500000 0.000000 0.000000
#
# Coordination Sequence:
#
# PCOD9074710 Si02
#       6
#     2   2   2   2   2   2
#     4  11  24  46  70 111 143 184 244 297 360 424
#     4  11  23  48  77 106 143 196 239 302 358 425
#     4  12  25  47  76 104 148 191 238 292 369 426
#     4  11  25  47  72 109 145 194 244 291 361 434
#     4  11  26  47  74 108 146 188 244 299 353 433
#     4  10  24  45  74 107 150 184 245 300 359 423
#
# _framework density 23.095372000000001
#
# number of rings (size 3 to 8) (size 9 to 14) (size 15 to 20)
#    0.000    1.000    5.000    0.500    0.000    9.333 
#    3.000    0.000    0.000    0.000    0.000    0.000 
#    0.000    0.000    0.000    0.000    0.000    0.000 
#
# Total GULP energy -67033.391045 kJ/mol
# GULP energy per Si atom -5586.115920 kJ/mol
# Density = 2.304281 g / cm^3
# Si number density = 23.095372 Si / 1000 Ang^3
#
#
#
# Elastic Constant Matrix: (Units=GPa)
#
#
# Indices 1 2 3 4 5 6 
#
# 1 58.5206 17.6204 32.7462 -1.0433 -12.3478 6.6556
# 2 17.6204 72.3982 73.8097 -14.4814 -5.2209 1.6443
# 3 32.7462 73.8097 159.7754 -0.4116 -26.2313 -5.4638
# 4 -1.0433 -14.4814 -0.4116 45.1379 1.0953 -7.9035
# 5 -12.3478 -5.2209 -26.2313 1.0953 30.3546 7.6910
# 6 6.6556 1.6443 -5.4638 -7.9035 7.6910 39.0764
#
#
#
# Elastic Compliance Matrix: (Units=1/GPa)
#
#
# Indices 1 2 3 4 5 6 
#
# 1 0.021339 -0.002815 -0.001958 -0.001619 0.008005 -0.005693
# 2 -0.002815 0.031848 -0.015693 0.010422 -0.009856 0.000993
# 3 -0.001958 -0.015693 0.015559 -0.005159 0.010102 0.000138
# 4 -0.001619 0.010422 -0.005159 0.026533 -0.005701 0.005604
# 5 0.008005 -0.009856 0.010102 -0.005701 0.045904 -0.009724
# 6 -0.005693 0.000993 0.000138 0.005604 -0.009724 0.029585
#
#
# Mechanical properties :
#
#
# Convention : Reuss Voigt Hill
#
# Bulk Modulus (GPa) = 35.95166 59.89408 47.92287
# Shear Modulus (GPa) = 22.62743 34.01497 28.32120
#
# Velocity S-wave (km/s) = 3.13347 3.84188 3.50562
# Velocity P-wave (km/s) = 5.35649 6.75794 6.09761
#
# Compressibility (1/GPa) = 0.02781513
#
# Stress axis : x y z
#
# Youngs Moduli (GPa) = 46.86344 31.39939 64.27022
#
# Poissons Ratio (x) = 0.08838 0.12582
# Poissons Ratio (y) = 0.13191 1.00858
# Poissons Ratio (z) = 0.09174 0.49274
#
# Static dielectric constant tensor:
#      x y z
#    x 1.875720 -0.054050 -0.021100 
#    y -0.054050 1.916200 -0.016940 
#    z -0.021100 -0.016940 1.843960 
# 
# From -- ./inp_files/262642.got.cif
#   From: 2010.05.17/outbox.ucp.g08.bks.cvg/sg2_132_cif.got.tgz:262642.got - 2010.06.11 11:32:03.
