data_PCOD9074489
_publ_section_title
;
Structure prediction by ZEFSAII (Michael W. Deem and Ramdas Pophale) SiO2 
 PCOD9074489
Probable space group: P -1
;
_chemical_formula_sum "Si O2"
_cell_formula_units_Z 16
_cell_length_a 9.000000
_cell_length_b 15.000000
_cell_length_c 15.000000
_cell_angle_alpha 150.000000
_cell_angle_beta 70.000000
_cell_angle_gamma 90.000000
_cell_volume 738.562284
_symmetry_space_group_name_H-M "P -1"
_symmetry_group_IT_number 2
_symmetry_cell_setting 'triclinic'
loop_
_space_group_symop_operation_xyz
x,y,z
-x,-y,-z
loop_
_atom_site_type_symbol
_atom_site_label
_atom_site_fract_x
_atom_site_fract_y
_atom_site_fract_z
Si Si1 0.662275 0.628106 0.640734
Si Si2 0.539675 0.680370 0.248287
Si Si3 0.825605 0.142568 0.732620
Si Si4 0.016130 0.584493 0.445643
Si Si5 0.223422 0.094645 0.903301
Si Si6 0.429439 0.001642 0.378424
Si Si7 0.104724 0.901089 0.619900
Si Si8 0.751355 0.166827 0.169033
O O1 0.802182 0.519096 0.607416
O O2 0.705106 0.409127 0.393601
O O3 0.411312 0.794358 0.840884
O O4 0.787784 0.702422 0.631803
O O5 0.499003 0.823471 0.291346
O O6 0.325814 0.766344 0.410137
O O7 0.642800 0.757307 0.357581
O O8 0.673367 0.410279 0.971760
O O9 0.725703 0.018951 0.656123
O O10 0.000000 0.000000 0.500000
O O11 0.938155 0.107585 0.769938
O O12 0.041552 0.744256 0.520201
O O13 0.076609 0.357610 0.189618
O O14 0.389085 0.070174 0.785269
O O15 0.113360 0.015276 0.804128
O O16 0.321317 0.919754 0.814346
O O17 0.000000 0.000000 0.000000
#
# Coordination Sequence:
#
# PCOD9074489 Si02
#       8
#     2   2   2   2   2   2   2   2
#     4  10  24  44  71  97 136 180 217 285 346 408
#     4  10  23  47  65  93 143 177 219 281 336 403
#     4  12  25  41  70 100 130 183 229 277 340 401
#     4  11  23  45  69 103 135 174 233 281 341 416
#     4  11  24  43  69  97 132 178 220 279 339 399
#     4  10  23  44  67  97 135 181 224 275 340 404
#     4  11  25  45  64  99 139 171 227 283 332 404
#     4  11  22  47  68  96 138 176 224 277 344 411
#
# _framework density 21.663710999999999
#
# number of rings (size 3 to 8) (size 9 to 14) (size 15 to 20)
#    0.000    1.250    3.750    1.125    3.500    2.000 
#    6.750    0.000    0.000    0.000    0.000    0.000 
#    0.000    0.000    0.000    0.000    0.000    0.000 
#
# Total GULP energy -89102.629653 kJ/mol
# GULP energy per Si atom -5568.914353 kJ/mol
# Density = 2.161440 g / cm^3
# Si number density = 21.663711 Si / 1000 Ang^3
#
#
#
# Elastic Constant Matrix: (Units=GPa)
#
#
# Indices 1 2 3 4 5 6 
#
# 1 101.5733 23.4118 58.3749 17.3104 -13.7466 12.5977
# 2 23.4118 90.8040 11.6047 10.7079 5.0872 24.0857
# 3 58.3749 11.6047 70.6316 8.6148 16.4904 11.9287
# 4 17.3104 10.7079 8.6148 21.6089 7.5215 5.8747
# 5 -13.7466 5.0872 16.4904 7.5215 25.4570 11.2433
# 6 12.5977 24.0857 11.9287 5.8747 11.2433 45.4910
#
#
#
# Elastic Compliance Matrix: (Units=1/GPa)
#
#
# Indices 1 2 3 4 5 6 
#
# 1 -5.973381 0.262166 6.229855 5.050126 -9.502645 1.578223
# 2 0.262166 0.001916 -0.274427 -0.226931 0.419588 -0.076052
# 3 6.229855 -0.274427 -6.480258 -5.269615 9.901123 -1.647235
# 4 5.050126 -0.226931 -5.269615 -4.214929 8.020662 -1.334579
# 5 -9.502645 0.419588 9.901123 8.020662-15.063686 2.500353
# 6 1.578223 -0.076052 -1.647235 -1.334579 2.500353 -0.388487
#
#
# Mechanical properties :
#
#
# Convention : Reuss Voigt Hill
#
# Bulk Modulus (GPa) = -60.47804 49.97684 -5.25060
# Shear Modulus (GPa) = -0.11221 29.81922 14.85350
#
# Velocity S-wave (km/s) = -0.22783 3.71409 2.62131
# Velocity P-wave (km/s) = 5.29590 6.44299 2.59476
#
# Compressibility (1/GPa) = -0.01653493
#
# Stress axis : x y z
#
# Youngs Moduli (GPa) = -0.16741 521.79179 -0.15431
#
# Poissons Ratio (x) = -136.79590 0.96136
# Poissons Ratio (y) = 0.04389 -0.04235
# Poissons Ratio (z) = 1.04294 143.19360
#
# Static dielectric constant tensor:
#      x y z
#    x 1.818960 -0.049720 -0.014170 
#    y -0.049720 1.835870 -0.077970 
#    z -0.014170 -0.077970 1.858050 
# 
# From -- ./inp_files/505739.got.cif
#   From: 2010.05.17/outbox.ucp.g08.bks.cvg/sg2_253_cif.got.tgz:505739.got - 2010.06.11 11:32:03.
