data_PCOD9074745
_publ_section_title
;
Structure prediction by ZEFSAII (Michael W. Deem and Ramdas Pophale) SiO2 
 PCOD9074745
Probable space group: P -1
;
_chemical_formula_sum "Si O2"
_cell_formula_units_Z 14
_cell_length_a 9.000000
_cell_length_b 15.000000
_cell_length_c 12.000000
_cell_angle_alpha 30.000000
_cell_angle_beta 50.000000
_cell_angle_gamma 60.000000
_cell_volume 613.666794
_symmetry_space_group_name_H-M "P -1"
_symmetry_group_IT_number 2
_symmetry_cell_setting 'triclinic'
loop_
_space_group_symop_operation_xyz
x,y,z
-x,-y,-z
loop_
_atom_site_type_symbol
_atom_site_label
_atom_site_fract_x
_atom_site_fract_y
_atom_site_fract_z
Si Si1 0.774704 0.200000 0.893576
Si Si2 0.439139 0.573931 0.832879
Si Si3 0.679643 0.159808 0.229792
Si Si4 0.787486 0.777133 0.301981
Si Si5 0.807639 0.541966 0.114251
Si Si6 0.327855 0.822745 0.283818
Si Si7 0.879672 0.855882 0.925872
O O1 0.677310 0.238041 0.018327
O O2 0.775183 0.984023 0.117062
O O3 0.695318 0.244901 0.761190
O O4 0.004135 0.278100 0.705863
O O5 0.321166 0.723312 0.782349
O O6 0.620911 0.664869 0.575393
O O7 0.324197 0.431881 0.958021
O O8 0.500000 0.500000 0.000000
O O9 0.894391 0.106198 0.188427
O O10 0.500000 0.000000 0.500000
O O11 0.770598 0.766730 0.187111
O O12 0.702878 0.360324 0.427904
O O13 0.839673 0.712467 0.999053
O O14 0.000000 0.500000 0.000000
O O15 0.171241 0.942335 0.280951
O O16 0.500000 0.000000 0.000000
#
# Coordination Sequence:
#
# PCOD9074745 Si02
#       7
#     2   2   2   2   2   2   2
#     4   9  19  38  67  98 133 178 233 292 340 422
#     4  12  27  43  66 102 144 186 237 296 364 429
#     4  11  22  41  72 104 144 188 239 291 361 433
#     4   9  19  39  66  98 132 178 235 283 347 422
#     4  12  27  48  69 107 155 184 243 311 366 437
#     4  11  26  44  75 105 141 196 251 293 367 436
#     4  10  24  47  74 105 143 198 236 302 369 427
#
# _framework density 22.813683000000001
#
# number of rings (size 3 to 8) (size 9 to 14) (size 15 to 20)
#    0.000    1.429    2.857    2.571    2.000    5.143 
#    0.000    2.857    0.000    0.000    0.000    0.000 
#    0.000    0.000    0.000    0.000    0.000    0.000 
#
# Total GULP energy -78021.335415 kJ/mol
# GULP energy per Si atom -5572.952530 kJ/mol
# Density = 2.276176 g / cm^3
# Si number density = 22.813683 Si / 1000 Ang^3
#
#
#
# Elastic Constant Matrix: (Units=GPa)
#
#
# Indices 1 2 3 4 5 6 
#
# 1 107.4729 43.5853 16.7022 4.9082 9.1349 28.3433
# 2 43.5853 116.4948 21.2441 18.1477 -3.3585 32.2660
# 3 16.7022 21.2441 38.9319 18.6077 7.7420 -7.2627
# 4 4.9082 18.1477 18.6077 46.8125 2.3526 1.3075
# 5 9.1349 -3.3585 7.7420 2.3526 19.8142 8.1240
# 6 28.3433 32.2660 -7.2627 1.3075 8.1240 55.5270
#
#
#
# Elastic Compliance Matrix: (Units=1/GPa)
#
#
# Indices 1 2 3 4 5 6 
#
# 1 0.012784 -0.002627 -0.005707 0.002207 -0.002122 -0.005486
# 2 -0.002627 0.015106 -0.010833 -0.001608 0.012564 -0.010654
# 3 -0.005707 -0.010833 0.049421 -0.014144 -0.024892 0.019647
# 4 0.002207 -0.001608 -0.014144 0.027349 0.002224 -0.003011
# 5 -0.002122 0.012564 -0.024892 0.002224 0.071216 -0.019945
# 6 -0.005486 -0.010654 0.019647 -0.003011 -0.019945 0.032560
#
#
# Mechanical properties :
#
#
# Convention : Reuss Voigt Hill
#
# Bulk Modulus (GPa) = 25.65672 47.32919 36.49295
# Shear Modulus (GPa) = 19.24835 36.52195 27.88515
#
# Velocity S-wave (km/s) = 2.90784 4.00544 3.49993
# Velocity P-wave (km/s) = 4.74812 6.49480 5.68889
#
# Compressibility (1/GPa) = 0.03897615
#
# Stress axis : x y z
#
# Youngs Moduli (GPa) = 78.22534 66.19706 20.23427
#
# Poissons Ratio (x) = 0.17393 0.11547
# Poissons Ratio (y) = 0.20553 0.21920
# Poissons Ratio (z) = 0.44641 0.71713
#
# Static dielectric constant tensor:
#      x y z
#    x 2.086330 -0.230150 0.042070 
#    y -0.230150 1.682270 0.028340 
#    z 0.042070 0.028340 1.812410 
# 
# From -- ./inp_files/398029.got.cif
#   From: 2010.05.17/outbox.ucp.g08.bks.cvg/sg2_200_cif.got.tgz:398029.got - 2010.06.11 11:32:03.
