data_PCOD9074432
_publ_section_title
;
Structure prediction by ZEFSAII (Michael W. Deem and Ramdas Pophale) SiO2 
 PCOD9074432
Probable space group: P -1
;
_chemical_formula_sum "Si O2"
_cell_formula_units_Z 16
_cell_length_a 9.000000
_cell_length_b 12.000000
_cell_length_c 18.000000
_cell_angle_alpha 50.000000
_cell_angle_beta 40.000000
_cell_angle_gamma 80.000000
_cell_volume 729.599496
_symmetry_space_group_name_H-M "P -1"
_symmetry_group_IT_number 2
_symmetry_cell_setting 'triclinic'
loop_
_space_group_symop_operation_xyz
x,y,z
-x,-y,-z
loop_
_atom_site_type_symbol
_atom_site_label
_atom_site_fract_x
_atom_site_fract_y
_atom_site_fract_z
Si Si1 0.836246 0.249515 0.855895
Si Si2 0.071325 0.521847 0.143749
Si Si3 0.631027 0.854082 0.698612
Si Si4 0.163227 0.176450 0.647788
Si Si5 0.385392 0.262167 0.931929
Si Si6 0.581373 0.394368 0.260046
Si Si7 0.649212 0.881260 0.154461
Si Si8 0.344417 0.797983 0.457919
O O1 0.994217 0.376112 0.814980
O O2 0.659477 0.305207 0.856439
O O3 0.045887 0.256089 0.712339
O O4 0.629139 0.034914 0.060343
O O5 0.861780 0.455060 0.178956
O O6 0.968104 0.345663 0.312658
O O7 0.419968 0.683046 0.913618
O O8 0.516778 0.751657 0.706161
O O9 0.557948 0.995040 0.673078
O O10 0.000000 0.000000 0.500000
O O11 0.297477 0.287618 0.471514
O O12 0.426518 0.199461 0.580325
O O13 0.897956 0.948756 0.840240
O O14 0.352448 0.421852 0.880825
O O15 0.406574 0.241079 0.843861
O O16 0.407319 0.765552 0.363656
O O17 0.000000 0.000000 0.000000
#
# Coordination Sequence:
#
# PCOD9074432 Si02
#       8
#     2   2   2   2   2   2   2   2
#     4  11  23  41  69 109 153 176 229 292 359 424
#     4  11  26  47  73 107 138 188 246 290 349 432
#     4  12  29  49  72  99 144 189 243 300 355 413
#     4  10  23  42  71 110 141 186 230 290 356 428
#     4  11  24  40  68 106 152 185 225 293 353 416
#     4  11  27  46  74 102 143 190 244 284 349 428
#     4  11  19  41  73 105 147 188 228 284 361 428
#     4  11  24  43  75 102 140 190 239 292 353 417
#
# _framework density 21.929839999999999
#
# number of rings (size 3 to 8) (size 9 to 14) (size 15 to 20)
#    0.000    1.000    3.750    3.375    5.250    6.000 
#    0.000    0.000    0.000    0.000    0.000    0.000 
#    0.000    0.000    0.000    0.000    0.000    0.000 
#
# Total GULP energy -89402.995662 kJ/mol
# GULP energy per Si atom -5587.687229 kJ/mol
# Density = 2.187993 g / cm^3
# Si number density = 21.929840 Si / 1000 Ang^3
#
#
#
# Elastic Constant Matrix: (Units=GPa)
#
#
# Indices 1 2 3 4 5 6 
#
# 1 79.4593 4.2789 32.1629 3.0103 0.2916 3.9757
# 2 4.2789 51.0968 30.8220 -11.2991 -2.9805 13.2550
# 3 32.1629 30.8220 136.7616 14.9970 8.3713 16.6427
# 4 3.0103 -11.2991 14.9970 31.1492 5.4812 2.7978
# 5 0.2916 -2.9805 8.3713 5.4812 33.4499 -1.4094
# 6 3.9757 13.2550 16.6427 2.7978 -1.4094 28.3949
#
#
#
# Elastic Compliance Matrix: (Units=1/GPa)
#
#
# Indices 1 2 3 4 5 6 
#
# 1 0.013992 0.001416 -0.003688 0.000847 0.000767 -0.000504
# 2 0.001416 0.030467 -0.007589 0.015309 0.001613 -0.011401
# 3 -0.003688 -0.007589 0.011036 -0.007139 -0.002313 -0.001820
# 4 0.000847 0.015309 -0.007139 0.042407 -0.004120 -0.007463
# 5 0.000767 0.001613 -0.002313 -0.004120 0.031390 0.002459
# 6 -0.000504 -0.011401 -0.001820 -0.007463 0.002459 0.042534
#
#
# Mechanical properties :
#
#
# Convention : Reuss Voigt Hill
#
# Bulk Modulus (GPa) = 27.95559 44.64949 36.30254
# Shear Modulus (GPa) = 24.57320 31.93573 28.25446
#
# Velocity S-wave (km/s) = 3.35107 3.82025 3.59333
# Velocity P-wave (km/s) = 5.26767 6.31375 5.81428
#
# Compressibility (1/GPa) = 0.03577103
#
# Stress axis : x y z
#
# Youngs Moduli (GPa) = 71.46948 32.82256 90.61438
#
# Poissons Ratio (x) = -0.04647 0.33421
# Poissons Ratio (y) = -0.10119 0.68771
# Poissons Ratio (z) = 0.26360 0.24910
#
# Static dielectric constant tensor:
#      x y z
#    x 1.767810 -0.005520 -0.030800 
#    y -0.005520 1.827580 -0.023080 
#    z -0.030800 -0.023080 1.881550 
# 
# From -- ./inp_files/559746.got.cif
#   From: 2010.05.17/outbox.ucp.g08.bks.cvg/sg2_280_cif.got.tgz:559746.got - 2010.06.11 11:32:03.
