data_PCOD9074467
_publ_section_title
;
Structure prediction by ZEFSAII (Michael W. Deem and Ramdas Pophale) SiO2 
 PCOD9074467
Probable space group: P -1
;
_chemical_formula_sum "Si O2"
_cell_formula_units_Z 15
_cell_length_a 9.000000
_cell_length_b 24.000000
_cell_length_c 18.000000
_cell_angle_alpha 160.000000
_cell_angle_beta 30.000000
_cell_angle_gamma 140.000000
_cell_volume 638.438402
_symmetry_space_group_name_H-M "P -1"
_symmetry_group_IT_number 2
_symmetry_cell_setting 'triclinic'
loop_
_space_group_symop_operation_xyz
x,y,z
-x,-y,-z
loop_
_atom_site_type_symbol
_atom_site_label
_atom_site_fract_x
_atom_site_fract_y
_atom_site_fract_z
Si Si1 0.917426 0.757774 0.137187
Si Si2 0.219327 0.551716 0.550554
Si Si3 0.578976 0.816517 0.937542
Si Si4 0.789138 0.638087 0.478003
Si Si5 0.444691 0.180329 0.476822
Si Si6 0.500000 0.000000 0.500000
Si Si7 0.379098 0.513719 0.267452
Si Si8 0.968378 0.231915 0.613798
O O1 0.792426 0.775793 0.297855
O O2 0.654601 0.863623 0.328978
O O3 0.217836 0.828754 0.096251
O O4 0.024082 0.554064 0.821672
O O5 0.313705 0.348570 0.264159
O O6 0.441077 0.626174 0.597450
O O7 0.289986 0.585408 0.478080
O O8 0.858109 0.599796 0.786176
O O9 0.754852 0.766393 0.721187
O O10 0.631270 0.984500 0.159713
O O11 0.926558 0.701216 0.424947
O O12 0.626903 0.322698 0.573967
O O13 0.258403 0.184037 0.484612
O O14 0.209886 0.909546 0.501353
O O15 0.719083 0.389037 0.957723
#
# Coordination Sequence:
#
# PCOD9074467 Si02
#       8
#     2   2   2   2   2   1   2   2
#     4  11  24  48  74 106 141 191 238 296 353 426
#     4  10  23  43  69 105 139 184 236 298 350 420
#     4  11  25  43  70 105 145 190 236 288 363 423
#     4  11  24  47  76  98 148 191 234 284 369 427
#     4  12  24  47  75 104 144 192 240 290 356 428
#     4  12  30  42  72 114 140 174 246 308 348 404
#     4  11  24  43  74 105 138 183 245 295 348 424
#     4  12  25  47  74 106 144 190 239 292 356 429
#
# _framework density 23.494827000000001
#
# number of rings (size 3 to 8) (size 9 to 14) (size 15 to 20)
#    0.000    0.800    4.000    4.000    5.600    2.667 
#    4.800    0.000    0.000    0.000    0.000    0.000 
#    0.000    0.000    0.000    0.000    0.000    0.000 
#
# Total GULP energy -83707.339663 kJ/mol
# GULP energy per Si atom -5580.489311 kJ/mol
# Density = 2.344135 g / cm^3
# Si number density = 23.494827 Si / 1000 Ang^3
#
#
#
# Elastic Constant Matrix: (Units=GPa)
#
#
# Indices 1 2 3 4 5 6 
#
# 1 75.0754 20.3032 -20.5587 -27.3752 -8.6276 -13.8061
# 2 20.3032 130.8147 14.5638 -12.7532 9.2970 -10.1036
# 3 -20.5587 14.5638 11.5824 -22.1676 19.2596 -13.2042
# 4 -27.3752 -12.7532 -22.1676 18.6081 3.9232 2.5872
# 5 -8.6276 9.2970 19.2596 3.9232 34.6640 0.0386
# 6 -13.8061 -10.1036 -13.2042 2.5872 0.0386 36.9146
#
#
#
# Elastic Compliance Matrix: (Units=1/GPa)
#
#
# Indices 1 2 3 4 5 6 
#
# 1 0.008816 -0.001325 -0.013376 -0.005918 0.010653 -0.001446
# 2 -0.001325 0.008552 -0.000733 0.003401 -0.002603 0.001347
# 3 -0.013376 -0.000733 -0.007906 -0.029748 0.004634 -0.005951
# 4 -0.005918 0.003401 -0.029748 0.010969 0.012916 -0.012706
# 5 0.010653 -0.002603 0.004634 0.012916 0.028157 0.003994
# 6 -0.001446 0.001347 -0.005951 -0.012706 0.003994 0.025675
#
#
# Mechanical properties :
#
#
# Convention : Reuss Voigt Hill
#
# Bulk Modulus (GPa) = -46.71765 27.34323 -9.68721
# Shear Modulus (GPa) = 51.02285 31.58161 41.30223
#
# Velocity S-wave (km/s) = 4.66517 3.67030 4.19731
# Velocity P-wave (km/s) = 3.01512 5.44286 4.39976
#
# Compressibility (1/GPa) = -0.02140518
#
# Stress axis : x y z
#
# Youngs Moduli (GPa) = 113.43517 116.92913 -126.48663
#
# Poissons Ratio (x) = 0.15491 -1.69186
# Poissons Ratio (y) = 0.15028 -0.09270
# Poissons Ratio (z) = 1.51728 0.08570
#
# Static dielectric constant tensor:
#      x y z
#    x 1.878790 0.025840 -0.026590 
#    y 0.025840 1.858020 -0.026160 
#    z -0.026590 -0.026160 1.918110 
# 
# From -- ./inp_files/185303.got.cif
#   From: 2010.05.17/outbox.ucp.g08.bks.cvg/sg2_93_cif.got.tgz:185303.got - 2010.06.11 11:32:03.
