data_PCOD9074407
_publ_section_title
;
Structure prediction by ZEFSAII (Michael W. Deem and Ramdas Pophale) SiO2 
 PCOD9074407
Probable space group: P -1
;
_chemical_formula_sum "Si O2"
_cell_formula_units_Z 16
_cell_length_a 12.000000
_cell_length_b 12.000000
_cell_length_c 12.000000
_cell_angle_alpha 140.000000
_cell_angle_beta 110.000000
_cell_angle_gamma 100.000000
_cell_volume 722.981415
_symmetry_space_group_name_H-M "P -1"
_symmetry_group_IT_number 2
_symmetry_cell_setting 'triclinic'
loop_
_space_group_symop_operation_xyz
x,y,z
-x,-y,-z
loop_
_atom_site_type_symbol
_atom_site_label
_atom_site_fract_x
_atom_site_fract_y
_atom_site_fract_z
Si Si1 0.507883 0.071461 0.762356
Si Si2 0.785068 0.790421 0.963717
Si Si3 0.358599 0.675739 0.581529
Si Si4 0.454782 0.599185 0.783117
Si Si5 0.842405 0.888834 0.575617
Si Si6 0.861391 0.579284 0.217029
Si Si7 0.850138 0.213780 0.690886
Si Si8 0.095295 0.696882 0.585731
O O1 0.492088 0.885974 0.694877
O O2 0.323782 0.889511 0.497760
O O3 0.516207 0.241154 0.981762
O O4 0.682996 0.283630 0.912068
O O5 0.739683 0.598003 0.708747
O O6 0.612551 0.632569 0.855629
O O7 0.828124 0.038621 0.142494
O O8 0.956823 0.905748 0.170303
O O9 0.441868 0.699691 0.743526
O O10 0.232269 0.705939 0.587078
O O11 0.276817 0.310441 0.519853
O O12 0.809843 0.721609 0.335023
O O13 0.795281 0.029979 0.630316
O O14 0.029087 0.763439 0.337035
O O15 0.947992 0.589735 0.364917
O O16 0.000000 0.500000 0.000000
O O17 0.000000 0.500000 0.500000
#
# Coordination Sequence:
#
# PCOD9074407 Si02
#       8
#     2   2   2   2   2   2   2   2
#     4  11  23  43  70  97 133 179 226 279 343 404
#     4  11  24  43  65 101 139 176 228 277 340 396
#     4  12  23  43  69 100 145 178 220 284 333 410
#     4  11  24  43  67 102 134 178 228 274 344 404
#     4  10  24  43  68  95 132 176 231 282 331 405
#     4  10  23  42  66  99 129 179 229 271 345 397
#     4  12  25  44  66  96 135 178 228 287 338 395
#     4  11  23  42  70  98 137 186 221 271 337 404
#
# _framework density 22.130583000000001
#
# number of rings (size 3 to 8) (size 9 to 14) (size 15 to 20)
#    0.000    1.000    2.500    4.875    1.750    6.500 
#    0.000    0.000    0.000    0.000    0.000    0.000 
#    0.000    0.000    0.000    0.000    0.000    0.000 
#
# Total GULP energy -89330.100042 kJ/mol
# GULP energy per Si atom -5583.131253 kJ/mol
# Density = 2.208021 g / cm^3
# Si number density = 22.130583 Si / 1000 Ang^3
#
#
#
# Elastic Constant Matrix: (Units=GPa)
#
#
# Indices 1 2 3 4 5 6 
#
# 1 46.3081 13.7141 16.5785 5.5602 7.4169 -1.3190
# 2 13.7141 71.1763 21.3291 8.8855 5.9459 -20.7361
# 3 16.5785 21.3291 108.4250 3.1957 7.1943 -8.1809
# 4 5.5602 8.8855 3.1957 26.6651 -0.5928 5.4798
# 5 7.4169 5.9459 7.1943 -0.5928 49.2561 4.5021
# 6 -1.3190 -20.7361 -8.1809 5.4798 4.5021 18.4288
#
#
#
# Elastic Compliance Matrix: (Units=1/GPa)
#
#
# Indices 1 2 3 4 5 6 
#
# 1 0.024515 -0.004002 -0.002891 -0.002972 -0.002592 -0.002515
# 2 -0.004002 0.028967 -0.001283 -0.016669 -0.006404 0.038259
# 3 -0.002891 -0.001283 0.010293 -0.000951 -0.001245 0.003505
# 4 -0.002972 -0.016669 -0.000951 0.051389 0.006532 -0.036267
# 5 -0.002592 -0.006404 -0.001245 0.006532 0.023146 -0.015541
# 6 -0.002515 0.038259 0.003505 -0.036267 -0.015541 0.113268
#
#
# Mechanical properties :
#
#
# Convention : Reuss Voigt Hill
#
# Bulk Modulus (GPa) = 21.08759 36.57253 28.83006
# Shear Modulus (GPa) = 17.62176 30.48918 24.05547
#
# Velocity S-wave (km/s) = 2.82487 3.71576 3.30051
# Velocity P-wave (km/s) = 4.49325 5.91361 5.25167
#
# Compressibility (1/GPa) = 0.04742126
#
# Stress axis : x y z
#
# Youngs Moduli (GPa) = 40.79090 34.52152 97.15713
#
# Poissons Ratio (x) = 0.13816 0.28091
# Poissons Ratio (y) = 0.16325 0.12470
# Poissons Ratio (z) = 0.11794 0.04431
#
# Static dielectric constant tensor:
#      x y z
#    x 2.021980 0.216760 -0.074000 
#    y 0.216760 2.057000 -0.061330 
#    z -0.074000 -0.061330 1.844430 
# 
# From -- ./inp_files/429111.got.cif
#   From: 2010.05.17/outbox.ucp.g08.bks.cvg/sg2_215_cif.got.tgz:429111.got - 2010.06.11 11:32:03.
