data_PCOD9074975
_publ_section_title
;
Structure prediction by ZEFSAII (Michael W. Deem and Ramdas Pophale) SiO2 
 PCOD9074975
Probable space group: P -1
;
_chemical_formula_sum "Si O2"
_cell_formula_units_Z 16
_cell_length_a 15.000000
_cell_length_b 12.000000
_cell_length_c 6.000000
_cell_angle_alpha 60.000000
_cell_angle_beta 120.000000
_cell_angle_gamma 120.000000
_cell_volume 763.675324
_symmetry_space_group_name_H-M "P -1"
_symmetry_group_IT_number 2
_symmetry_cell_setting 'triclinic'
loop_
_space_group_symop_operation_xyz
x,y,z
-x,-y,-z
loop_
_atom_site_type_symbol
_atom_site_label
_atom_site_fract_x
_atom_site_fract_y
_atom_site_fract_z
Si Si1 0.861449 0.254063 0.591006
Si Si2 0.655283 0.980811 0.177004
Si Si3 0.562774 0.892995 0.650315
Si Si4 0.425064 0.594436 0.879399
Si Si5 0.046184 0.215802 0.526650
Si Si6 0.803299 0.473943 0.571847
Si Si7 0.872145 0.035839 0.161307
Si Si8 0.675267 0.278252 0.001965
O O1 0.874838 0.391038 0.619940
O O2 0.759365 0.253982 0.312286
O O3 0.961975 0.240392 0.581622
O O4 0.830142 0.120049 0.841404
O O5 0.621992 0.923448 0.447170
O O6 0.784159 0.003778 0.283565
O O7 0.627076 0.123731 0.996522
O O8 0.615395 0.903760 0.961321
O O9 0.482519 0.737967 0.685277
O O10 0.500000 0.000000 0.500000
O O11 0.301056 0.525123 0.707353
O O12 0.404027 0.649771 0.047271
O O13 0.500000 0.500000 0.000000
O O14 0.129058 0.369313 0.441730
O O15 0.979612 0.148135 0.288464
O O16 0.102771 0.098504 0.764512
O O17 0.748388 0.381573 0.807707
#
# Coordination Sequence:
#
# PCOD9074975 Si02
#       8
#     2   2   2   2   2   2   2   2
#     4  11  21  44  69 100 140 184 236 296 349 435
#     4  12  24  45  74 108 139 188 245 303 355 431
#     4  12  26  44  78 105 138 191 251 298 365 427
#     4  11  28  47  66 105 141 188 236 305 361 435
#     4  11  25  43  66 105 139 188 231 295 369 429
#     4  11  25  44  71  97 140 186 238 290 365 434
#     4  11  25  42  69 102 144 179 238 297 360 429
#     4  11  23  44  74 100 142 183 241 299 359 431
#
# _framework density 20.951312000000001
#
# number of rings (size 3 to 8) (size 9 to 14) (size 15 to 20)
#    0.000    0.750    3.750    2.625    3.500    5.500 
#    0.000    0.000    0.000    0.000    0.000    0.000 
#    0.000    0.000    0.000    0.000    0.000    0.000 
#
# Total GULP energy -89208.568371 kJ/mol
# GULP energy per Si atom -5575.535523 kJ/mol
# Density = 2.090363 g / cm^3
# Si number density = 20.951312 Si / 1000 Ang^3
#
#
#
# Elastic Constant Matrix: (Units=GPa)
#
#
# Indices 1 2 3 4 5 6 
#
# 1 150.1501 48.6962 21.0796 -14.6253 -10.9081 -31.3368
# 2 48.6962 153.1833 22.0655 -15.3941 -4.4143 -10.2911
# 3 21.0796 22.0655 70.1658 -0.6619 -8.1830 -3.0393
# 4 -14.6253 -15.3941 -0.6619 35.4706 -5.5852 7.7167
# 5 -10.9081 -4.4143 -8.1830 -5.5852 44.6979 -12.2004
# 6 -31.3368 -10.2911 -3.0393 7.7167 -12.2004 48.4261
#
#
#
# Elastic Compliance Matrix: (Units=1/GPa)
#
#
# Indices 1 2 3 4 5 6 
#
# 1 0.009262 -0.002002 -0.001434 0.002190 0.003730 0.006068
# 2 -0.002002 0.007672 -0.001766 0.002534 0.000229 -0.000122
# 3 -0.001434 -0.001766 0.015518 -0.000785 0.002322 0.000381
# 4 0.002190 0.002534 -0.000785 0.031258 0.003981 -0.002071
# 5 0.003730 0.000229 0.002322 0.003981 0.026596 0.008674
# 6 0.006068 -0.000122 0.000381 -0.002071 0.008674 0.027090
#
#
# Mechanical properties :
#
#
# Convention : Reuss Voigt Hill
#
# Bulk Modulus (GPa) = 45.35777 61.90907 53.63342
# Shear Modulus (GPa) = 36.99623 44.49612 40.74617
#
# Velocity S-wave (km/s) = 4.20672 4.61346 4.41478
# Velocity P-wave (km/s) = 6.72990 7.61523 7.18621
#
# Compressibility (1/GPa) = 0.02204694
#
# Stress axis : x y z
#
# Youngs Moduli (GPa) = 107.97366 130.34360 64.44103
#
# Poissons Ratio (x) = 0.26099 0.09242
# Poissons Ratio (y) = 0.21620 0.11379
# Poissons Ratio (z) = 0.15486 0.23016
#
# Static dielectric constant tensor:
#      x y z
#    x 1.784700 0.050140 0.006890 
#    y 0.050140 1.797880 0.067660 
#    z 0.006890 0.067660 1.813380 
# 
# From -- ./inp_files/94509.got.cif
#   From: 2010.05.17/outbox.ucp.g08.bks.cvg/sg2_48_cif.got.tgz:94509.got - 2010.06.11 11:32:03.
