data_PCOD9074153
_publ_section_title
;
Structure prediction by ZEFSAII (Michael W. Deem and Ramdas Pophale) SiO2 
 PCOD9074153
Probable space group: P -1
;
_chemical_formula_sum "Si O2"
_cell_formula_units_Z 16
_cell_length_a 9.000000
_cell_length_b 9.000000
_cell_length_c 24.000000
_cell_angle_alpha 140.000000
_cell_angle_beta 140.000000
_cell_angle_gamma 40.000000
_cell_volume 723.717541
_symmetry_space_group_name_H-M "P -1"
_symmetry_group_IT_number 2
_symmetry_cell_setting 'triclinic'
loop_
_space_group_symop_operation_xyz
x,y,z
-x,-y,-z
loop_
_atom_site_type_symbol
_atom_site_label
_atom_site_fract_x
_atom_site_fract_y
_atom_site_fract_z
Si Si1 0.147605 0.147347 0.295478
Si Si2 0.461588 0.134571 0.585766
Si Si3 0.512363 0.231825 0.795795
Si Si4 0.271233 0.108353 0.127713
Si Si5 0.668950 0.324479 0.293543
Si Si6 0.287335 0.654305 0.936797
Si Si7 0.037365 0.687675 0.383281
Si Si8 0.062319 0.820933 0.550519
O O1 0.138005 0.383587 0.323381
O O2 0.891963 0.229812 0.283177
O O3 0.375065 0.080520 0.385999
O O4 0.245240 0.893951 0.212078
O O5 0.523783 0.374477 0.678738
O O6 0.155380 0.277881 0.543512
O O7 0.500000 0.000000 0.500000
O O8 0.399180 0.520123 0.871273
O O9 0.272361 0.216256 0.689273
O O10 0.609168 0.059372 0.829970
O O11 0.489522 0.185394 0.193573
O O12 0.993125 0.334917 0.129023
O O13 0.232231 0.945487 0.018674
O O14 0.779121 0.270665 0.373712
O O15 0.500000 0.500000 0.000000
O O16 0.156731 0.744823 0.491742
O O17 0.083469 0.867575 0.402864
#
# Coordination Sequence:
#
# PCOD9074153 Si02
#       8
#     2   2   2   2   2   2   2   2
#     4  12  24  40  63  95 140 185 218 275 337 388
#     4  12  24  38  61  90 136 189 227 272 327 381
#     4  11  21  41  66 100 132 175 217 280 336 396
#     4  10  22  42  73 102 124 175 219 281 338 398
#     4  12  24  43  66  99 139 177 231 273 332 405
#     4   9  21  42  71 100 132 159 223 278 342 407
#     4  11  23  40  62  94 137 177 237 278 322 387
#     4  11  22  42  61  93 135 182 238 279 313 383
#
# _framework density 22.108073000000001
#
# number of rings (size 3 to 8) (size 9 to 14) (size 15 to 20)
#    0.000    1.000    5.000    1.875    0.000    4.500 
#    0.000    0.625    0.000   12.750    0.000    0.000 
#    0.000    0.000    0.000    0.000    0.000    0.000 
#
# Total GULP energy -89114.864601 kJ/mol
# GULP energy per Si atom -5569.679038 kJ/mol
# Density = 2.205775 g / cm^3
# Si number density = 22.108073 Si / 1000 Ang^3
#
#
#
# Elastic Constant Matrix: (Units=GPa)
#
#
# Indices 1 2 3 4 5 6 
#
# 1 68.7441 30.7616 43.9337 21.6557 -16.0591 -16.7277
# 2 30.7616 90.2312 20.1213 4.0342 -11.9405 -5.3431
# 3 43.9337 20.1213 91.7219 1.1441 -9.2379 -12.6870
# 4 21.6557 4.0342 1.1441 23.4589 -8.1741 -6.7249
# 5 -16.0591 -11.9405 -9.2379 -8.1741 29.1685 2.0707
# 6 -16.7277 -5.3431 -12.6870 -6.7249 2.0707 33.9305
#
#
#
# Elastic Compliance Matrix: (Units=1/GPa)
#
#
# Indices 1 2 3 4 5 6 
#
# 1 0.041596 -0.008054 -0.016391 -0.032730 0.004792 0.006331
# 2 -0.008054 0.013730 0.001038 0.006029 0.003235 -0.000423
# 3 -0.016391 0.001038 0.018759 0.015112 0.001434 0.002005
# 4 -0.032730 0.006029 0.015112 0.076027 0.010191 0.004910
# 5 0.004792 0.003235 0.001434 0.010191 0.041350 0.002904
# 6 0.006331 -0.000423 0.002005 0.004910 0.002904 0.034072
#
#
# Mechanical properties :
#
#
# Convention : Reuss Voigt Hill
#
# Bulk Modulus (GPa) = 36.66745 48.92561 42.79653
# Shear Modulus (GPa) = 17.76587 27.70362 22.73475
#
# Velocity S-wave (km/s) = 2.83785 3.54376 3.21026
# Velocity P-wave (km/s) = 5.23062 6.23879 5.75682
#
# Compressibility (1/GPa) = 0.02727214
#
# Stress axis : x y z
#
# Youngs Moduli (GPa) = 24.04071 72.83134 53.30740
#
# Poissons Ratio (x) = 0.58655 0.87375
# Poissons Ratio (y) = 0.19361 -0.05531
# Poissons Ratio (z) = 0.39405 -0.07557
#
# Static dielectric constant tensor:
#      x y z
#    x 1.459280 -0.026160 0.053660 
#    y -0.026160 1.842440 0.053830 
#    z 0.053660 0.053830 1.831330 
# 
# From -- ./inp_files/46607.got.cif
#   From: 2010.05.17/outbox.ucp.g08.bks.cvg/sg2_24_cif.got.tgz:46607.got - 2010.06.11 11:32:03.
