data_PCOD9074775
_publ_section_title
;
Structure prediction by ZEFSAII (Michael W. Deem and Ramdas Pophale) SiO2 
 PCOD9074775
Probable space group: P -1
;
_chemical_formula_sum "Si O2"
_cell_formula_units_Z 14
_cell_length_a 8.240280
_cell_length_b 13.456468
_cell_length_c 11.190504
_cell_angle_alpha 147.426454
_cell_angle_beta 57.243680
_cell_angle_gamma 120.954250
_cell_volume 557.129121
_symmetry_space_group_name_H-M "P -1"
_symmetry_group_IT_number 2
_symmetry_cell_setting 'triclinic'
loop_
_space_group_symop_operation_xyz
x,y,z
-x,-y,-z
loop_
_atom_site_type_symbol
_atom_site_label
_atom_site_fract_x
_atom_site_fract_y
_atom_site_fract_z
Si Si1 0.731079 0.073524 0.774676
Si Si2 0.721091 0.353564 0.634376
Si Si3 0.726777 0.604981 0.665339
Si Si4 0.707747 0.687647 0.132879
Si Si5 0.303462 0.053932 0.830111
Si Si6 0.738176 0.447229 0.248272
Si Si7 0.047623 0.244721 0.674879
O O1 0.505827 0.018799 0.777008
O O2 0.823257 0.174341 0.717778
O O3 0.838550 0.899120 0.589042
O O4 0.758264 0.229865 0.024165
O O5 0.778655 0.461200 0.598488
O O6 0.487949 0.339687 0.737957
O O7 0.782749 0.148637 0.390655
O O8 0.781271 0.498508 0.863985
O O9 0.794583 0.554590 0.456704
O O10 0.490083 0.561822 0.703819
O O11 0.786547 0.814060 0.903341
O O12 0.666945 0.811033 0.160163
O O13 0.869302 0.780835 0.251188
O O14 0.866687 0.554874 0.202970
#
# Coordination Sequence:
#
# PCOD9074775 Si02
#       7
#     2   2   2   2   2   2   2
#     4  10  22  34  54  80 110 140 176 208 271 317
#     4  10  18  32  52  79 109 135 169 223 263 303
#     4   9  19  32  53  78 105 138 181 215 258 311
#     4  10  20  31  54  81 111 133 176 217 266 313
#     4  10  19  34  55  83 105 137 174 220 264 312
#     4  10  19  35  51  75 110 143 172 216 262 311
#     4  11  21  36  52  83 112 137 171 220 262 321
#
# _framework density 25.128824999999999
#
# number of rings (size 3 to 8) (size 9 to 14) (size 15 to 20)
#    0.000    2.000    2.857    0.857    2.000    1.143 
#    0.000    4.286    0.000    3.429    0.000   10.000 
#    0.000    0.000    0.000    0.000    0.000    0.000 
#
# Total GULP energy -78259.569788 kJ/mol
# GULP energy per Si atom -5589.969271 kJ/mol
# Density = 2.507163 g / cm^3
# Si number density = 25.128825 Si / 1000 Ang^3
#
#
#
# Elastic Constant Matrix: (Units=GPa)
#
#
# Indices 1 2 3 4 5 6 
#
# 1 43.5207 1.0088 12.2664 -0.8368 -0.7120 -1.7583
# 2 1.0088 39.2169 41.9496 -2.8385 2.9185 -3.2689
# 3 12.2664 41.9496 191.7988 22.8176 22.7267 -13.6545
# 4 -0.8368 -2.8385 22.8176 45.6661 -0.3043 0.8301
# 5 -0.7120 2.9185 22.7267 -0.3043 25.3510 -8.4667
# 6 -1.7583 -3.2689 -13.6545 0.8301 -8.4667 19.3456
#
#
#
# Elastic Compliance Matrix: (Units=1/GPa)
#
#
# Indices 1 2 3 4 5 6 
#
# 1 0.023788 0.002032 -0.002415 0.001752 0.003353 0.002193
# 2 0.002032 0.035521 -0.009170 0.006831 0.004775 0.001511
# 3 -0.002415 -0.009170 0.008878 -0.005128 -0.006391 0.001920
# 4 0.001752 0.006831 -0.005128 0.024974 0.003550 -0.001823
# 5 0.003353 0.004775 -0.006391 0.003550 0.051037 0.018785
# 6 0.002193 0.001511 0.001920 -0.001823 0.018785 0.061801
#
#
# Mechanical properties :
#
#
# Convention : Reuss Voigt Hill
#
# Bulk Modulus (GPa) = 20.37480 42.77623 31.57551
# Shear Modulus (GPa) = 20.70691 32.69330 26.70011
#
# Velocity S-wave (km/s) = 2.87371 3.61089 3.26318
# Velocity P-wave (km/s) = 4.37455 5.86894 5.17596
#
# Compressibility (1/GPa) = 0.04908024
#
# Stress axis : x y z
#
# Youngs Moduli (GPa) = 42.03739 28.15248 112.63925
#
# Poissons Ratio (x) = -0.05720 0.27206
# Poissons Ratio (y) = -0.08541 1.03289
# Poissons Ratio (z) = 0.10153 0.25815
#
# Static dielectric constant tensor:
#      x y z
#    x 2.005900 0.076870 -0.031540 
#    y 0.076870 1.929410 -0.021310 
#    z -0.031540 -0.021310 2.037550 
# 
# From -- ./inp_files/278458.got.cif
#   From: 2010.05.17/outbox.cif.g08.bks.cpg/sg2_140_cif.got.tgz:278458.got - 2010.06.03 11:33:40.
