data_PCOD9074375
_publ_section_title
;
Structure prediction by ZEFSAII (Michael W. Deem and Ramdas Pophale) SiO2 
 PCOD9074375
Probable space group: P -1
;
_chemical_formula_sum "Si O2"
_cell_formula_units_Z 16
_cell_length_a 21.000000
_cell_length_b 18.000000
_cell_length_c 12.000000
_cell_angle_alpha 30.000000
_cell_angle_beta 40.000000
_cell_angle_gamma 20.000000
_cell_volume 744.844803
_symmetry_space_group_name_H-M "P -1"
_symmetry_group_IT_number 2
_symmetry_cell_setting 'triclinic'
loop_
_space_group_symop_operation_xyz
x,y,z
-x,-y,-z
loop_
_atom_site_type_symbol
_atom_site_label
_atom_site_fract_x
_atom_site_fract_y
_atom_site_fract_z
Si Si1 0.577218 0.609135 0.588195
Si Si2 0.874306 0.453702 0.294870
Si Si3 0.096414 0.553930 0.166120
Si Si4 0.569096 0.491332 0.165023
Si Si5 0.098746 0.879177 0.649593
Si Si6 0.187206 0.278276 0.183326
Si Si7 0.260076 0.068702 0.700142
Si Si8 0.801490 0.156867 0.065706
O O1 0.722110 0.556136 0.436304
O O2 0.570713 0.473751 0.690241
O O3 0.643409 0.451825 0.820602
O O4 0.370090 0.951634 0.406077
O O5 0.009908 0.393353 0.256563
O O6 0.778827 0.676774 0.035588
O O7 0.006502 0.151982 0.460599
O O8 0.131850 0.468846 0.101781
O O9 0.251709 0.244957 0.426614
O O10 0.902945 0.734265 0.242293
O O11 0.068147 0.770786 0.911395
O O12 0.670951 0.394518 0.272499
O O13 0.729563 0.243287 0.177244
O O14 0.453673 0.773658 0.891795
O O15 0.000000 0.000000 0.500000
O O16 0.200441 0.007417 0.774323
O O17 0.000000 0.000000 0.000000
#
# Coordination Sequence:
#
# PCOD9074375 Si02
#       8
#     2   2   2   2   2   2   2   2
#     4  11  22  40  71 104 132 175 237 278 340 408
#     4  11  24  44  70  97 135 183 238 278 343 401
#     4  11  23  43  66  96 147 174 224 280 351 409
#     4  11  22  43  68 100 139 176 232 286 333 415
#     4  12  24  45  66  97 134 188 223 277 348 402
#     4  11  23  44  68  98 139 182 227 294 330 407
#     4  10  23  41  66 101 137 179 221 283 350 404
#     4  11  22  39  71 105 136 178 226 283 345 409
#
# _framework density 21.480985
#
# number of rings (size 3 to 8) (size 9 to 14) (size 15 to 20)
#    0.000    1.000    2.500    6.375    1.750    0.500 
#    2.250    3.750    0.000    0.000    0.000    0.000 
#    0.000    0.000    0.000    0.000    0.000    0.000 
#
# Total GULP energy -89184.097956 kJ/mol
# GULP energy per Si atom -5574.006122 kJ/mol
# Density = 2.143209 g / cm^3
# Si number density = 21.480985 Si / 1000 Ang^3
#
#
#
# Elastic Constant Matrix: (Units=GPa)
#
#
# Indices 1 2 3 4 5 6 
#
# 1 43.4377 -9.9766 13.3915 -11.5824 29.9067 -26.9187
# 2 -9.9766 27.4970 13.7043 -2.9443 11.5063 -12.5490
# 3 13.3915 13.7043 144.6550 0.3915 10.7767 -24.4838
# 4 -11.5824 -2.9443 0.3915 43.8800 -9.1898 -4.6388
# 5 29.9067 11.5063 10.7767 -9.1898 37.0591 5.7231
# 6 -26.9187 -12.5490 -24.4838 -4.6388 5.7231 15.8638
#
#
#
# Elastic Compliance Matrix: (Units=1/GPa)
#
#
# Indices 1 2 3 4 5 6 
#
# 1 -0.001929 -0.014625 -0.003297 -0.001855 0.010334 -0.024202
# 2 -0.014625 0.019413 -0.004787 -0.002708 0.009764 -0.021164
# 3 -0.003297 -0.004787 0.007947 -0.000757 0.001311 0.002189
# 4 -0.001855 -0.002708 -0.000757 0.023691 0.008854 -0.002724
# 5 0.010334 0.009764 0.001311 0.008854 0.013570 0.024976
# 6 -0.024202 -0.021164 0.002189 -0.002724 0.024976 -0.001202
#
#
# Mechanical properties :
#
#
# Convention : Reuss Voigt Hill
#
# Bulk Modulus (GPa) = -50.02707 27.75869 -11.13419
# Shear Modulus (GPa) = 49.87743 32.59195 41.23469
#
# Velocity S-wave (km/s) = 4.82387 3.89941 4.38607
# Velocity P-wave (km/s) = 2.77250 5.76406 4.52278
#
# Compressibility (1/GPa) = -0.01998918
#
# Stress axis : x y z
#
# Youngs Moduli (GPa) = -518.33273 51.51235 125.83912
#
# Poissons Ratio (x) = 0.75338 0.41490
# Poissons Ratio (y) = -7.58073 0.60244
# Poissons Ratio (z) = -1.70900 0.24661
#
# Static dielectric constant tensor:
#      x y z
#    x 1.809860 -0.003090 -0.003280 
#    y -0.003090 1.857010 -0.034520 
#    z -0.003280 -0.034520 1.786900 
# 
# From -- ./inp_files/472330.got.cif
#   From: 2010.05.17/outbox.ucp.g08.bks.cvg/sg2_237_cif.got.tgz:472330.got - 2010.06.11 11:32:03.
