data_PCOD9074028
_publ_section_title
;
Structure prediction by ZEFSAII (Michael W. Deem and Ramdas Pophale) SiO2 
 PCOD9074028
Probable space group: P -1
;
_chemical_formula_sum "Si O2"
_cell_formula_units_Z 16
_cell_length_a 6.000000
_cell_length_b 12.000000
_cell_length_c 12.000000
_cell_angle_alpha 90.000000
_cell_angle_beta 100.000000
_cell_angle_gamma 60.000000
_cell_volume 733.050061
_symmetry_space_group_name_H-M "P -1"
_symmetry_group_IT_number 2
_symmetry_cell_setting 'triclinic'
loop_
_space_group_symop_operation_xyz
x,y,z
-x,-y,-z
loop_
_atom_site_type_symbol
_atom_site_label
_atom_site_fract_x
_atom_site_fract_y
_atom_site_fract_z
Si Si1 0.571790 0.063413 0.289263
Si Si2 0.025583 0.499177 0.820631
Si Si3 0.790668 0.397373 0.984864
Si Si4 0.123152 0.001070 0.269888
Si Si5 0.603226 0.284710 0.805950
Si Si6 0.071340 0.134769 0.494585
Si Si7 0.427681 0.632138 0.430832
Si Si8 0.247150 0.310411 0.395871
O O1 0.299786 0.062390 0.236582
O O2 0.705578 0.949411 0.394702
O O3 0.811353 0.040957 0.225819
O O4 0.483032 0.200449 0.341510
O O5 0.303676 0.368184 0.822851
O O6 0.869191 0.461158 0.892546
O O7 0.900763 0.563680 0.692932
O O8 0.046812 0.610915 0.891509
O O9 0.781754 0.279869 0.925278
O O10 0.500000 0.500000 0.000000
O O11 0.293709 0.854531 0.239678
O O12 0.101474 0.030779 0.402394
O O13 0.611320 0.370369 0.703820
O O14 0.099635 0.237013 0.420147
O O15 0.817599 0.236921 0.542045
O O16 0.500000 0.500000 0.500000
O O17 0.666761 0.653576 0.482331
#
# Coordination Sequence:
#
# PCOD9074028 Si02
#       8
#     2   2   2   2   2   2   2   2
#     4  11  22  39  61  89 129 182 222 252 307 387
#     4  10  22  41  64  92 123 165 212 274 333 385
#     4   9  21  43  65  89 117 162 217 271 334 394
#     4  11  22  37  63  90 125 175 223 262 306 377
#     4  11  22  36  62  94 124 163 217 268 318 387
#     4  11  22  39  57  86 133 182 219 248 309 388
#     4  12  23  34  55  93 133 168 206 262 321 382
#     4  11  23  38  59  90 132 169 214 261 321 385
#
# _framework density 21.826612999999998
#
# number of rings (size 3 to 8) (size 9 to 14) (size 15 to 20)
#    0.000    1.250    2.500    4.875    1.750    5.000 
#    0.000    0.000    0.000    3.750    0.000    0.000 
#    0.000    0.000    0.000    0.000    0.000    0.000 
#
# Total GULP energy -89101.960048 kJ/mol
# GULP energy per Si atom -5568.872503 kJ/mol
# Density = 2.177693 g / cm^3
# Si number density = 21.826613 Si / 1000 Ang^3
#
#
#
# Elastic Constant Matrix: (Units=GPa)
#
#
# Indices 1 2 3 4 5 6 
#
# 1 106.5568 25.1358 17.1125 14.6802 -16.9925 -15.5685
# 2 25.1358 77.0871 3.3643 28.9764 -4.5743 -6.7924
# 3 17.1125 3.3643 47.4092 30.3361 3.7843 -9.7753
# 4 14.6802 28.9764 30.3361 33.7074 0.2516 0.7879
# 5 -16.9925 -4.5743 3.7843 0.2516 23.1028 5.6829
# 6 -15.5685 -6.7924 -9.7753 0.7879 5.6829 24.3289
#
#
#
# Elastic Compliance Matrix: (Units=1/GPa)
#
#
# Indices 1 2 3 4 5 6 
#
# 1 0.014347 -0.023908 -0.043827 0.054106 0.017564 -0.020958
# 2 -0.023908 0.275517 0.497642 -0.680706 -0.113418 0.310112
# 3 -0.043827 0.497642 0.970676 -1.294538 -0.225064 0.595404
# 4 0.054106 -0.680706 -1.294538 1.772872 0.295011 -0.801893
# 5 0.017564 -0.113418 -0.225064 0.295011 0.102934 -0.144454
# 6 -0.020958 0.310112 0.595404 -0.801893 -0.144454 0.413217
#
#
# Mechanical properties :
#
#
# Convention : Reuss Voigt Hill
#
# Bulk Modulus (GPa) = 0.47162 35.80870 18.14016
# Shear Modulus (GPa) = 1.47209 28.59052 15.03130
#
# Velocity S-wave (km/s) = 0.82214 3.62317 2.62710
# Velocity P-wave (km/s) = 1.05724 5.82621 4.18703
#
# Compressibility (1/GPa) = 2.12035420
#
# Stress axis : x y z
#
# Youngs Moduli (GPa) = 69.69893 3.62954 1.03021
#
# Poissons Ratio (x) = 0.08678 0.04515
# Poissons Ratio (y) = 1.66637 -0.51268
# Poissons Ratio (z) = 3.05470 -1.80621
#
# Static dielectric constant tensor:
#      x y z
#    x 1.933130 0.020920 0.062410 
#    y 0.020920 1.779360 0.015610 
#    z 0.062410 0.015610 1.778030 
# 
# From -- ./inp_files/70276.got.cif
#   From: 2010.05.17/outbox.ucp.g08.bks.cvg/sg2_36_cif.got.tgz:70276.got - 2010.06.11 11:32:03.
