data_PCOD9074577
_publ_section_title
;
Structure prediction by ZEFSAII (Michael W. Deem and Ramdas Pophale) SiO2 
 PCOD9074577
Probable space group: P -1
;
_chemical_formula_sum "Si O2"
_cell_formula_units_Z 14
_cell_length_a 9.000000
_cell_length_b 6.000000
_cell_length_c 12.000000
_cell_angle_alpha 80.000000
_cell_angle_beta 80.000000
_cell_angle_gamma 100.000000
_cell_volume 614.427936
_symmetry_space_group_name_H-M "P -1"
_symmetry_group_IT_number 2
_symmetry_cell_setting 'triclinic'
loop_
_space_group_symop_operation_xyz
x,y,z
-x,-y,-z
loop_
_atom_site_type_symbol
_atom_site_label
_atom_site_fract_x
_atom_site_fract_y
_atom_site_fract_z
Si Si1 0.179139 0.557680 0.514548
Si Si2 0.842274 0.823192 0.756187
Si Si3 0.162094 0.160389 0.719388
Si Si4 0.358250 0.884704 0.106984
Si Si5 0.036890 0.599598 0.109085
Si Si6 0.601376 0.515487 0.688854
Si Si7 0.378115 0.864833 0.620771
O O1 0.209020 0.341519 0.599425
O O2 0.325160 0.616951 0.406122
O O3 0.220725 0.761981 0.581722
O O4 0.000000 0.500000 0.500000
O O5 0.912657 0.610109 0.812529
O O6 0.751163 0.723872 0.667562
O O7 0.706550 0.921462 0.829521
O O8 0.993647 0.020146 0.715507
O O9 0.101882 0.294259 0.824192
O O10 0.303651 0.017147 0.711569
O O11 0.199870 0.783339 0.068952
O O12 0.406832 0.672334 0.191300
O O13 0.500000 0.000000 0.000000
O O14 0.000000 0.500000 0.000000
O O15 0.460816 0.653349 0.674403
O O16 0.500000 0.000000 0.500000
#
# Coordination Sequence:
#
# PCOD9074577 Si02
#       7
#     2   2   2   2   2   2   2
#     4  12  25  44  71 107 144 193 243 285 354 445
#     4  10  23  48  70 103 140 192 240 296 365 434
#     4  11  24  44  72 102 148 192 238 288 368 432
#     4  10  24  48  75 105 138 189 244 303 369 417
#     4  10  23  48  73 105 139 186 253 302 349 438
#     4  11  25  44  73 104 152 184 241 299 352 437
#     4  12  27  45  67 111 152 190 237 295 361 426
#
# _framework density 22.785422000000001
#
# number of rings (size 3 to 8) (size 9 to 14) (size 15 to 20)
#    0.000    1.143    1.429    4.714    4.000    5.714 
#   15.429    0.000    0.000    0.000    0.000    0.000 
#    0.000    0.000    0.000    0.000    0.000    0.000 
#
# Total GULP energy -77973.613297 kJ/mol
# GULP energy per Si atom -5569.543807 kJ/mol
# Density = 2.273356 g / cm^3
# Si number density = 22.785422 Si / 1000 Ang^3
#
#
#
# Elastic Constant Matrix: (Units=GPa)
#
#
# Indices 1 2 3 4 5 6 
#
# 1 150.6293 32.3754 50.0680 8.3718 -9.8586 -32.8316
# 2 32.3754 80.6336 32.8889 16.7428 -2.1894 -20.0508
# 3 50.0680 32.8889 98.3612 6.4544 -24.3018 -8.4607
# 4 8.3718 16.7428 6.4544 41.9351 7.2966 -5.6671
# 5 -9.8586 -2.1894 -24.3018 7.2966 45.2507 10.7663
# 6 -32.8316 -20.0508 -8.4607 -5.6671 10.7663 64.6459
#
#
#
# Elastic Compliance Matrix: (Units=1/GPa)
#
#
# Indices 1 2 3 4 5 6 
#
# 1 0.009037 -0.000936 -0.004269 -0.000011 -0.001309 0.003957
# 2 -0.000936 0.016764 -0.005031 -0.004791 -0.002280 0.004025
# 3 -0.004269 -0.005031 0.015912 -0.001471 0.008363 -0.003168
# 4 -0.000011 -0.004791 -0.001471 0.027225 -0.005812 0.001671
# 5 -0.001309 -0.002280 0.008363 -0.005812 0.028447 -0.005525
# 6 0.003957 0.004025 -0.003168 0.001671 -0.005525 0.019379
#
#
# Mechanical properties :
#
#
# Convention : Reuss Voigt Hill
#
# Bulk Modulus (GPa) = 47.08316 62.25431 54.66873
# Shear Modulus (GPa) = 34.64616 44.65246 39.64931
#
# Velocity S-wave (km/s) = 3.90364 4.43165 4.17600
# Velocity P-wave (km/s) = 6.40519 7.31897 6.87727
#
# Compressibility (1/GPa) = 0.02123901
#
# Stress axis : x y z
#
# Youngs Moduli (GPa) = 110.66211 59.65250 62.84449
#
# Poissons Ratio (x) = 0.05585 0.26829
# Poissons Ratio (y) = 0.10361 0.31620
# Poissons Ratio (z) = 0.47242 0.30014
#
# Static dielectric constant tensor:
#      x y z
#    x 1.863730 0.027670 0.006430 
#    y 0.027670 2.071060 0.066690 
#    z 0.006430 0.066690 1.888130 
# 
# From -- ./inp_files/372933.got.cif
#   From: 2010.05.17/outbox.ucp.g08.bks.cvg/sg2_187_cif.got.tgz:372933.got - 2010.06.11 11:32:03.
