data_PCOD9074259
_publ_section_title
;
Structure prediction by ZEFSAII (Michael W. Deem and Ramdas Pophale) SiO2 
 PCOD9074259
Probable space group: P -1
;
_chemical_formula_sum "Si O2"
_cell_formula_units_Z 14
_cell_length_a 24.000000
_cell_length_b 9.000000
_cell_length_c 9.000000
_cell_angle_alpha 50.000000
_cell_angle_beta 150.000000
_cell_angle_gamma 140.000000
_cell_volume 623.501542
_symmetry_space_group_name_H-M "P -1"
_symmetry_group_IT_number 2
_symmetry_cell_setting 'triclinic'
loop_
_space_group_symop_operation_xyz
x,y,z
-x,-y,-z
loop_
_atom_site_type_symbol
_atom_site_label
_atom_site_fract_x
_atom_site_fract_y
_atom_site_fract_z
Si Si1 0.684571 0.359619 0.233486
Si Si2 0.749545 0.179565 0.223403
Si Si3 0.152984 0.780290 0.120349
Si Si4 0.011123 0.337630 0.906249
Si Si5 0.506828 0.277509 0.154351
Si Si6 0.659919 0.687286 0.754590
Si Si7 0.261001 0.475078 0.237210
O O1 0.669580 0.192822 0.171855
O O2 0.798775 0.369411 0.588777
O O3 0.569027 0.277996 0.138888
O O4 0.711623 0.585635 0.064404
O O5 0.887641 0.228321 0.576188
O O6 0.779665 0.388266 0.052462
O O7 0.643071 0.945159 0.042888
O O8 0.053179 0.782888 0.006658
O O9 0.279654 0.045584 0.232206
O O10 0.076425 0.616409 0.907495
O O11 0.133196 0.321376 0.144819
O O12 0.612016 0.334065 0.493802
O O13 0.500000 0.500000 0.000000
O O14 0.500000 0.500000 0.500000
O O15 0.705266 0.668887 0.704363
#
# Coordination Sequence:
#
# PCOD9074259 Si02
#       7
#     2   2   2   2   2   2   2
#     4  10  23  43  69  97 132 184 223 277 347 394
#     4  10  24  43  69  97 134 180 229 280 339 413
#     4  10  23  45  72  98 139 181 231 281 338 417
#     4  10  22  44  72  98 137 187 223 279 348 406
#     4  12  25  41  66 100 139 175 228 287 340 397
#     4  11  26  42  70 107 137 177 235 285 339 407
#     4  11  24  43  67 104 135 178 227 279 351 399
#
# _framework density 22.453834000000001
#
# number of rings (size 3 to 8) (size 9 to 14) (size 15 to 20)
#    0.000    1.429    1.429    2.143   12.000    2.857 
#    0.000   11.429    0.000    0.000    0.000    0.000 
#    0.000    0.000    0.000    0.000    0.000    0.000 
#
# Total GULP energy -78169.906250 kJ/mol
# GULP energy per Si atom -5583.564732 kJ/mol
# Density = 2.240273 g / cm^3
# Si number density = 22.453834 Si / 1000 Ang^3
#
#
#
# Elastic Constant Matrix: (Units=GPa)
#
#
# Indices 1 2 3 4 5 6 
#
# 1 86.5865 -0.4086 20.7799 14.5471 16.3462 0.3239
# 2 -0.4086 90.3813 42.8526 26.7293 4.4819 -4.9349
# 3 20.7799 42.8526 107.6049 16.4972 -7.6012 -1.1958
# 4 14.5471 26.7293 16.4972 31.5212 2.8738 0.1917
# 5 16.3462 4.4819 -7.6012 2.8738 35.5820 3.6890
# 6 0.3239 -4.9349 -1.1958 0.1917 3.6890 16.3371
#
#
#
# Elastic Compliance Matrix: (Units=1/GPa)
#
#
# Indices 1 2 3 4 5 6 
#
# 1 0.015649 0.005277 -0.004354 -0.008671 -0.008390 0.002961
# 2 0.005277 0.019336 -0.006788 -0.014790 -0.005813 0.006725
# 3 -0.004354 -0.006788 0.013173 0.000349 0.005883 -0.002332
# 4 -0.008671 -0.014790 0.000349 0.047881 0.002616 -0.005423
# 5 -0.008390 -0.005813 0.005883 0.002616 0.034671 -0.009018
# 6 0.002961 0.006725 -0.002332 -0.005423 -0.009018 0.065112
#
#
# Mechanical properties :
#
#
# Convention : Reuss Voigt Hill
#
# Bulk Modulus (GPa) = 27.45051 45.66894 36.55972
# Shear Modulus (GPa) = 22.75892 31.44465 27.10179
#
# Velocity S-wave (km/s) = 3.18714 3.74627 3.47796
# Velocity P-wave (km/s) = 5.07895 6.25267 5.69612
#
# Compressibility (1/GPa) = 0.03642919
#
# Stress axis : x y z
#
# Youngs Moduli (GPa) = 63.90307 51.71720 75.91019
#
# Poissons Ratio (x) = -0.27293 0.33051
# Poissons Ratio (y) = -0.33724 0.51526
# Poissons Ratio (z) = 0.27823 0.35104
#
# Static dielectric constant tensor:
#      x y z
#    x 1.910630 -0.003080 0.026280 
#    y -0.003080 1.846350 0.009090 
#    z 0.026280 0.009090 1.878340 
# 
# From -- ./inp_files/352089.got.cif
#   From: 2010.05.17/outbox.ucp.g08.bks.cvg/sg2_177_cif.got.tgz:352089.got - 2010.06.11 11:32:03.
