data_PCOD9074138
_publ_section_title
;
Structure prediction by ZEFSAII (Michael W. Deem and Ramdas Pophale) SiO2 
 PCOD9074138
Probable space group: P -1
;
_chemical_formula_sum "Si O2"
_cell_formula_units_Z 16
_cell_length_a 12.000000
_cell_length_b 9.000000
_cell_length_c 9.000000
_cell_angle_alpha 130.000000
_cell_angle_beta 100.000000
_cell_angle_gamma 80.000000
_cell_volume 730.800219
_symmetry_space_group_name_H-M "P -1"
_symmetry_group_IT_number 2
_symmetry_cell_setting 'triclinic'
loop_
_space_group_symop_operation_xyz
x,y,z
-x,-y,-z
loop_
_atom_site_type_symbol
_atom_site_label
_atom_site_fract_x
_atom_site_fract_y
_atom_site_fract_z
Si Si1 0.745190 0.838866 0.280534
Si Si2 0.626456 0.438286 0.432324
Si Si3 0.223962 0.906156 0.270997
Si Si4 0.025292 0.052317 0.710204
Si Si5 0.968814 0.302425 0.286473
Si Si6 0.266456 0.579713 0.857557
Si Si7 0.380604 0.004209 0.892137
Si Si8 0.784115 0.772280 0.772828
O O1 0.756784 0.630324 0.223846
O O2 0.633741 0.858433 0.165597
O O3 0.741655 0.017457 0.511422
O O4 0.857531 0.850157 0.212749
O O5 0.500000 0.500000 0.500000
O O6 0.637622 0.453918 0.267084
O O7 0.719982 0.574132 0.609671
O O8 0.647061 0.206800 0.309457
O O9 0.222275 0.103414 0.300571
O O10 0.294202 0.731654 0.089788
O O11 0.095350 0.839574 0.202135
O O12 0.039392 0.864549 0.699393
O O13 0.000000 0.000000 0.500000
O O14 0.848987 0.333559 0.196289
O O15 0.000000 0.500000 0.500000
O O16 0.081007 0.252810 0.179153
O O17 0.287718 0.090596 0.042296
O O18 0.500000 0.000000 0.000000
#
# Coordination Sequence:
#
# PCOD9074138 Si02
#       8
#     2   2   2   2   2   2   2   2
#     4  11  25  46  67 102 151 185 233 299 353 424
#     4  12  24  46  76  99 137 182 240 300 352 423
#     4  10  22  42  69  99 150 185 228 288 350 428
#     4   9  20  38  61 103 147 187 227 279 351 415
#     4  11  21  38  71 105 148 194 236 290 350 432
#     4  12  24  43  70 108 144 192 240 284 361 431
#     4  12  27  48  73 103 134 184 248 301 359 426
#     4  11  23  43  72 105 140 187 241 289 355 424
#
# _framework density 21.893808
#
# number of rings (size 3 to 8) (size 9 to 14) (size 15 to 20)
#    0.000    1.000    5.000    2.250    1.750    2.500 
#    2.250    3.125    0.000    0.000    0.000    0.000 
#    0.000    0.000    0.000    0.000    0.000    0.000 
#
# Total GULP energy -89381.822329 kJ/mol
# GULP energy per Si atom -5586.363896 kJ/mol
# Density = 2.184398 g / cm^3
# Si number density = 21.893808 Si / 1000 Ang^3
#
#
#
# Elastic Constant Matrix: (Units=GPa)
#
#
# Indices 1 2 3 4 5 6 
#
# 1 121.8587 47.8314 46.1009 -12.1730 -17.0272 2.1915
# 2 47.8314 96.5357 44.9279 -5.1304 -4.8754 7.3724
# 3 46.1009 44.9279 81.1282 -1.0657 -19.3478 -9.2274
# 4 -12.1730 -5.1304 -1.0657 36.6751 -2.5369 8.1288
# 5 -17.0272 -4.8754 -19.3478 -2.5369 39.2480 -1.8060
# 6 2.1915 7.3724 -9.2274 8.1288 -1.8060 27.1193
#
#
#
# Elastic Compliance Matrix: (Units=1/GPa)
#
#
# Indices 1 2 3 4 5 6 
#
# 1 0.012104 -0.003230 -0.004715 0.004233 0.002671 -0.002795
# 2 -0.003230 0.016984 -0.009528 0.002658 -0.004215 -0.008675
# 3 -0.004715 -0.009528 0.023803 -0.004478 0.008814 0.012999
# 4 0.004233 0.002658 -0.004478 0.031670 0.001455 -0.011984
# 5 0.002671 -0.004215 0.008814 0.001455 0.030808 0.005545
# 6 -0.002795 -0.008675 0.012999 -0.011984 0.005545 0.047843
#
#
# Mechanical properties :
#
#
# Convention : Reuss Voigt Hill
#
# Bulk Modulus (GPa) = 55.71890 64.13812 59.92851
# Shear Modulus (GPa) = 24.49313 31.31930 27.90622
#
# Velocity S-wave (km/s) = 3.34836 3.78631 3.57405
# Velocity P-wave (km/s) = 6.36031 6.96230 6.66810
#
# Compressibility (1/GPa) = 0.01794723
#
# Stress axis : x y z
#
# Youngs Moduli (GPa) = 82.61811 58.87848 42.01083
#
# Poissons Ratio (x) = 0.19015 0.19808
# Poissons Ratio (y) = 0.26682 0.40026
# Poissons Ratio (z) = 0.38954 0.56097
#
# Static dielectric constant tensor:
#      x y z
#    x 1.827100 -0.013850 -0.029790 
#    y -0.013850 1.833060 -0.030250 
#    z -0.029790 -0.030250 1.828610 
# 
# From -- ./inp_files/246061.got.cif
#   From: 2010.05.17/outbox.ucp.g08.bks.cvg/sg2_124_cif.got.tgz:246061.got - 2010.06.11 11:32:03.
