data_PCOD9074545
_publ_section_title
;
Structure prediction by ZEFSAII (Michael W. Deem and Ramdas Pophale) SiO2 
 PCOD9074545
Probable space group: P -1
;
_chemical_formula_sum "Si O2"
_cell_formula_units_Z 16
_cell_length_a 18.945647
_cell_length_b 8.847193
_cell_length_c 12.169694
_cell_angle_alpha 65.179877
_cell_angle_beta 45.531750
_cell_angle_gamma 100.605299
_cell_volume 891.395079
_symmetry_space_group_name_H-M "P -1"
_symmetry_group_IT_number 2
_symmetry_cell_setting 'triclinic'
loop_
_space_group_symop_operation_xyz
x,y,z
-x,-y,-z
loop_
_atom_site_type_symbol
_atom_site_label
_atom_site_fract_x
_atom_site_fract_y
_atom_site_fract_z
Si Si1 0.074544 0.963094 0.010940
Si Si2 0.756547 0.283754 0.347819
Si Si3 0.355886 0.486357 0.573801
Si Si4 0.120476 0.397062 0.226896
Si Si5 0.994853 0.497709 0.835727
Si Si6 0.540078 0.176193 0.301106
Si Si7 0.064102 0.999684 0.269783
Si Si8 0.388954 0.385981 0.812428
O O1 0.033817 0.729891 0.089050
O O2 0.040617 0.958826 0.177442
O O3 0.247365 0.207966 0.736400
O O4 0.000000 0.000000 0.000000
O O5 0.724543 0.436737 0.367161
O O6 0.848155 0.301157 0.336352
O O7 0.595801 0.016686 0.574186
O O8 0.866940 0.406340 0.085323
O O9 0.386623 0.479260 0.668961
O O10 0.505880 0.642115 0.299035
O O11 0.023942 0.429580 0.279744
O O12 0.088293 0.216448 0.223536
O O13 0.291919 0.658030 0.965429
O O14 0.062902 0.246776 0.448175
O O15 0.554965 0.393079 0.241165
O O16 0.500000 0.000000 0.500000
O O17 0.222714 0.120790 0.091212
#
# Coordination Sequence:
#
# PCOD9074545 Si02
#       8
#     2   2   2   2   2   2   2   2
#     4  11  21  34  56  85 118 148 190 237 290 342
#     4  11  21  33  52  85 119 143 191 242 294 335
#     4  10  18  32  51  81 112 144 184 242 287 337
#     4  10  21  39  64  82 116 155 199 234 287 345
#     4  11  22  34  56  85 116 156 185 243 292 346
#     4  11  18  32  56  87 112 145 191 247 282 341
#     4   9  21  40  60  85 112 154 196 241 280 350
#     4   9  18  31  55  80 110 143 191 237 293 330
#
# _framework density 17.949390999999999
#
# number of rings (size 3 to 8) (size 9 to 14) (size 15 to 20)
#    0.000    1.750    3.750    2.250    1.750    1.500 
#    0.000    0.000    2.750    3.750    0.000    0.000 
#    0.000    0.000    0.000    0.000    0.000    0.000 
#
# Total GULP energy -89111.861811 kJ/mol
# GULP energy per Si atom -5569.491363 kJ/mol
# Density = 1.790854 g / cm^3
# Si number density = 17.949391 Si / 1000 Ang^3
#
#
#
# Elastic Constant Matrix: (Units=GPa)
#
#
# Indices 1 2 3 4 5 6 
#
# 1 95.2795 34.9680 43.9788 -6.7144 -19.0014 -0.6101
# 2 34.9680 52.4385 27.2000 -0.3770 -11.3148 -0.4956
# 3 43.9788 27.2000 108.5076 -8.8911 -11.7253 6.8844
# 4 -6.7144 -0.3770 -8.8911 23.6738 4.7795 -11.3853
# 5 -19.0014 -11.3148 -11.7253 4.7795 19.5502 -5.1587
# 6 -0.6101 -0.4956 6.8844 -11.3853 -5.1587 27.7545
#
#
#
# Elastic Compliance Matrix: (Units=1/GPa)
#
#
# Indices 1 2 3 4 5 6 
#
# 1 0.017415 -0.007074 -0.004144 0.003336 0.010759 0.004652
# 2 -0.007074 0.027335 -0.003506 -0.004013 0.008104 0.001062
# 3 -0.004144 -0.003506 0.012106 0.002229 0.000070 -0.002229
# 4 0.003336 -0.004013 0.002229 0.055232 -0.005693 0.021047
# 5 0.010759 0.008104 0.000070 -0.005693 0.070677 0.011165
# 6 0.004652 0.001062 -0.002229 0.021047 0.011165 0.047413
#
#
# Mechanical properties :
#
#
# Convention : Reuss Voigt Hill
#
# Bulk Modulus (GPa) = 36.48500 52.05767 44.27133
# Shear Modulus (GPa) = 18.60375 24.20097 21.40236
#
# Velocity S-wave (km/s) = 3.22290 3.67589 3.45682
# Velocity P-wave (km/s) = 5.84980 6.86161 6.37580
#
# Compressibility (1/GPa) = 0.02740853
#
# Stress axis : x y z
#
# Youngs Moduli (GPa) = 57.42178 36.58272 82.60235
#
# Poissons Ratio (x) = 0.25878 0.34234
# Poissons Ratio (y) = 0.40619 0.28958
# Poissons Ratio (z) = 0.23798 0.12825
#
# Static dielectric constant tensor:
#      x y z
#    x 1.641620 0.015750 -0.035320 
#    y 0.015750 1.671080 0.001860 
#    z -0.035320 0.001860 1.633780 
# 
# From -- ./inp_files/252580.got.cif
#   From: 2010.05.17/outbox.cif.g08.bks.cpg/sg2_127_cif.got.tgz:252580.got - 2010.06.03 11:33:40.
