data_PCOD9074368
_publ_section_title
;
Structure prediction by ZEFSAII (Michael W. Deem and Ramdas Pophale) SiO2 
 PCOD9074368
Probable space group: P -1
;
_chemical_formula_sum "Si O2"
_cell_formula_units_Z 16
_cell_length_a 15.658571
_cell_length_b 10.697694
_cell_length_c 8.960890
_cell_angle_alpha 76.692052
_cell_angle_beta 34.143463
_cell_angle_gamma 77.202047
_cell_volume 818.541164
_symmetry_space_group_name_H-M "P -1"
_symmetry_group_IT_number 2
_symmetry_cell_setting 'triclinic'
loop_
_space_group_symop_operation_xyz
x,y,z
-x,-y,-z
loop_
_atom_site_type_symbol
_atom_site_label
_atom_site_fract_x
_atom_site_fract_y
_atom_site_fract_z
Si Si1 0.040057 0.922442 0.684459
Si Si2 0.434081 0.130994 0.738712
Si Si3 0.405939 0.197186 0.100696
Si Si4 0.795638 0.761854 0.184429
Si Si5 0.635956 0.335259 0.913571
Si Si6 0.728676 0.000255 0.436393
Si Si7 0.296470 0.417286 0.398565
Si Si8 0.213663 0.902282 0.124994
O O1 0.142395 0.921316 0.388763
O O2 0.137733 0.934509 0.688610
O O3 0.920048 0.045734 0.805978
O O4 0.940515 0.796848 0.867886
O O5 0.355869 0.221861 0.701904
O O6 0.614055 0.097112 0.485472
O O7 0.396534 0.185820 0.941939
O O8 0.350996 0.996607 0.881738
O O9 0.368397 0.066464 0.274371
O O10 0.292807 0.310628 0.301488
O O11 0.569380 0.240806 0.909943
O O12 0.781571 0.880935 0.288830
O O13 0.798026 0.632503 0.312717
O O14 0.731461 0.442124 0.667255
O O15 0.724136 0.244773 0.929280
O O16 0.477838 0.404182 0.184739
#
# Coordination Sequence:
#
# PCOD9074368 Si02
#       8
#     2   2   2   2   2   2   2   2
#     4  10  21  30  48  77 114 134 161 198 267 310
#     4  11  18  30  54  82 102 126 169 217 261 292
#     4   9  16  28  53  78  97 121 168 214 247 293
#     4  10  21  33  46  75 110 138 160 208 256 307
#     4   9  16  33  58  75  97 132 179 214 243 292
#     4  11  18  31  50  77 107 132 165 206 260 310
#     4   8  18  34  54  77  96 136 174 213 248 288
#     4  10  18  32  50  83 102 132 167 214 249 302
#
# _framework density 19.546969000000001
#
# number of rings (size 3 to 8) (size 9 to 14) (size 15 to 20)
#    0.750    1.500    2.500    1.875    0.000    1.000 
#    0.000    1.250    0.000    3.000    3.250    0.000 
#    0.000    0.000    0.000    0.000    0.000    0.000 
#
# Total GULP energy -89174.405968 kJ/mol
# GULP energy per Si atom -5573.400373 kJ/mol
# Density = 1.950248 g / cm^3
# Si number density = 19.546969 Si / 1000 Ang^3
#
#
#
# Elastic Constant Matrix: (Units=GPa)
#
#
# Indices 1 2 3 4 5 6 
#
# 1 72.4744 6.8791 19.3990 -3.3672 -12.0228 -4.7481
# 2 6.8791 59.5478 13.4507 -22.7005 -4.9088 -15.5875
# 3 19.3990 13.4507 31.9331 -11.7273 3.5836 -10.0888
# 4 -3.3672 -22.7005 -11.7273 25.7889 -5.2207 4.0057
# 5 -12.0228 -4.9088 3.5836 -5.2207 25.0678 3.5945
# 6 -4.7481 -15.5875 -10.0888 4.0057 3.5945 13.5855
#
#
#
# Elastic Compliance Matrix: (Units=1/GPa)
#
#
# Indices 1 2 3 4 5 6 
#
# 1 0.019729 -0.000209 -0.016487 -0.001182 0.012768 -0.008617
# 2 -0.000209 0.037856 0.006785 0.032232 0.007773 0.036840
# 3 -0.016487 0.006785 0.063451 0.021661 -0.017950 0.047505
# 4 -0.001182 0.032232 0.021661 0.075692 0.014617 0.026469
# 5 0.012768 0.007773 -0.017950 0.014617 0.055878 -0.019044
# 6 -0.008617 0.036840 0.047505 0.026469 -0.019044 0.145378
#
#
# Mechanical properties :
#
#
# Convention : Reuss Voigt Hill
#
# Bulk Modulus (GPa) = 9.87988 27.04587 18.46287
# Shear Modulus (GPa) = 11.07311 21.17021 16.12166
#
# Velocity S-wave (km/s) = 2.38268 3.29453 2.87499
# Velocity P-wave (km/s) = 3.55457 5.32337 4.52622
#
# Compressibility (1/GPa) = 0.10121583
#
# Stress axis : x y z
#
# Youngs Moduli (GPa) = 50.68586 26.41569 15.76022
#
# Poissons Ratio (x) = 0.00552 0.25984
# Poissons Ratio (y) = 0.01059 -0.10694
# Poissons Ratio (z) = 0.83565 -0.17924
#
# Static dielectric constant tensor:
#      x y z
#    x 1.684630 -0.018950 -0.008230 
#    y -0.018950 1.694200 0.021460 
#    z -0.008230 0.021460 1.765420 
# 
# From -- ./inp_files/267574.got.cif
#   From: 2010.05.17/outbox.cif.g08.bks.cpg/sg2_134_cif.got.tgz:267574.got - 2010.06.03 11:33:40.
