data_PCOD9074386
_publ_section_title
;
Structure prediction by ZEFSAII (Michael W. Deem and Ramdas Pophale) SiO2 
 PCOD9074386
Probable space group: P -1
;
_chemical_formula_sum "Si O2"
_cell_formula_units_Z 14
_cell_length_a 12.000000
_cell_length_b 12.000000
_cell_length_c 9.000000
_cell_angle_alpha 80.000000
_cell_angle_beta 80.000000
_cell_angle_gamma 30.000000
_cell_volume 637.442765
_symmetry_space_group_name_H-M "P -1"
_symmetry_group_IT_number 2
_symmetry_cell_setting 'triclinic'
loop_
_space_group_symop_operation_xyz
x,y,z
-x,-y,-z
loop_
_atom_site_type_symbol
_atom_site_label
_atom_site_fract_x
_atom_site_fract_y
_atom_site_fract_z
Si Si1 0.878877 0.156568 0.352267
Si Si2 0.940113 0.684901 0.968497
Si Si3 0.644543 0.979584 0.655985
Si Si4 0.678998 0.956627 0.292820
Si Si5 0.264891 0.768464 0.130041
Si Si6 0.341220 0.436474 0.753941
Si Si7 0.460601 0.672262 0.796805
O O1 0.807696 0.346542 0.354305
O O2 0.663200 0.269345 0.333286
O O3 0.000000 0.000000 0.500000
O O4 0.047326 0.000984 0.209473
O O5 0.178066 0.535039 0.901471
O O6 0.791548 0.840997 0.812493
O O7 0.835847 0.806993 0.132882
O O8 0.000000 0.500000 0.000000
O O9 0.492335 0.998988 0.684121
O O10 0.469971 0.231790 0.674745
O O11 0.745431 0.902864 0.475289
O O12 0.547453 0.186845 0.243497
O O13 0.468201 0.652941 0.194225
O O14 0.308807 0.595737 0.175252
O O15 0.306809 0.768125 0.951106
#
# Coordination Sequence:
#
# PCOD9074386 Si02
#       7
#     2   2   2   2   2   2   2
#     4  11  25  41  69 103 135 179 225 282 347 409
#     4  12  26  47  73 104 140 187 233 286 351 412
#     4  11  26  47  70 106 144 183 235 288 342 425
#     4  11  25  46  71 104 144 185 231 286 354 409
#     4  10  23  44  68  98 136 178 235 282 342 414
#     4  11  24  44  74  98 140 187 230 284 346 412
#     4  10  23  41  68  98 134 183 224 287 344 410
#
# _framework density 21.962755999999999
#
# number of rings (size 3 to 8) (size 9 to 14) (size 15 to 20)
#    0.000    1.143    1.429    3.429    8.000    4.000 
#    0.000    0.000    0.000    0.000    0.000    0.000 
#    0.000    0.000    0.000    0.000    0.000    0.000 
#
# Total GULP energy -78009.074015 kJ/mol
# GULP energy per Si atom -5572.076715 kJ/mol
# Density = 2.191277 g / cm^3
# Si number density = 21.962756 Si / 1000 Ang^3
#
#
#
# Elastic Constant Matrix: (Units=GPa)
#
#
# Indices 1 2 3 4 5 6 
#
# 1 91.2013 48.8402 13.4569 -8.2269 -0.1910 34.5790
# 2 48.8402 126.2394 39.9231 -2.6342 -1.8888 38.6900
# 3 13.4569 39.9231 133.5502 -2.2644 13.5013 13.0110
# 4 -8.2269 -2.6342 -2.2644 49.5994 4.6715 -5.0083
# 5 -0.1910 -1.8888 13.5013 4.6715 30.7898 -3.5911
# 6 34.5790 38.6900 13.0110 -5.0083 -3.5911 49.6603
#
#
#
# Elastic Compliance Matrix: (Units=1/GPa)
#
#
# Indices 1 2 3 4 5 6 
#
# 1 0.016318 -0.003893 0.000534 0.001829 -0.001629 -0.008403
# 2 -0.003893 0.012164 -0.002812 -0.000866 0.001385 -0.006016
# 3 0.000534 -0.002812 0.008781 0.000663 -0.004204 -0.000718
# 4 0.001829 -0.000866 0.000663 0.020877 -0.003373 0.001089
# 5 -0.001629 0.001385 -0.004204 -0.003373 0.035301 0.003369
# 6 -0.008403 -0.006016 -0.000718 0.001089 0.003369 0.031216
#
#
# Mechanical properties :
#
#
# Convention : Reuss Voigt Hill
#
# Bulk Modulus (GPa) = 40.12919 61.71460 50.92189
# Shear Modulus (GPa) = 34.40982 42.59462 38.50222
#
# Velocity S-wave (km/s) = 3.96249 4.40864 4.19151
# Velocity P-wave (km/s) = 6.26469 7.35360 6.83088
#
# Compressibility (1/GPa) = 0.02491952
#
# Stress axis : x y z
#
# Youngs Moduli (GPa) = 61.28085 82.21306 113.88209
#
# Poissons Ratio (x) = 0.32006 -0.06080
# Poissons Ratio (y) = 0.23857 0.32029
# Poissons Ratio (z) = -0.03271 0.23122
#
# Static dielectric constant tensor:
#      x y z
#    x 1.849160 -0.005750 0.012710 
#    y -0.005750 1.850540 -0.015630 
#    z 0.012710 -0.015630 1.892100 
# 
# From -- ./inp_files/229717.got.cif
#   From: 2010.05.17/outbox.ucp.g08.bks.cvg/sg2_115_cif.got.tgz:229717.got - 2010.06.11 11:32:03.
