data_PCOD9074877
_publ_section_title
;
Structure prediction by ZEFSAII (Michael W. Deem and Ramdas Pophale) SiO2 
 PCOD9074877
Probable space group: P -1
;
_chemical_formula_sum "Si O2"
_cell_formula_units_Z 14
_cell_length_a 15.000000
_cell_length_b 9.000000
_cell_length_c 9.000000
_cell_angle_alpha 80.000000
_cell_angle_beta 140.000000
_cell_angle_gamma 120.000000
_cell_volume 626.690879
_symmetry_space_group_name_H-M "P -1"
_symmetry_group_IT_number 2
_symmetry_cell_setting 'triclinic'
loop_
_space_group_symop_operation_xyz
x,y,z
-x,-y,-z
loop_
_atom_site_type_symbol
_atom_site_label
_atom_site_fract_x
_atom_site_fract_y
_atom_site_fract_z
Si Si1 0.563397 0.362841 0.767613
Si Si2 0.646364 0.046546 0.365340
Si Si3 0.507950 0.605413 0.846936
Si Si4 0.818902 0.317700 0.264745
Si Si5 0.109034 0.786445 0.100293
Si Si6 0.303834 0.994970 0.042994
Si Si7 0.748502 0.456571 0.685305
O O1 0.540448 0.515264 0.767753
O O2 0.608190 0.381760 0.648337
O O3 0.411509 0.163699 0.672544
O O4 0.723850 0.393497 0.050264
O O5 0.691246 0.167374 0.253063
O O6 0.823495 0.156651 0.658275
O O7 0.484965 0.018472 0.254750
O O8 0.654885 0.820682 0.009193
O O9 0.336907 0.583593 0.578921
O O10 0.500000 0.500000 0.000000
O O11 0.000000 0.500000 0.500000
O O12 0.831924 0.188666 0.188120
O O13 0.168442 0.653877 0.158649
O O14 0.226361 0.962042 0.113163
O O15 0.906703 0.671454 0.854350
#
# Coordination Sequence:
#
# PCOD9074877 Si02
#       7
#     2   2   2   2   2   2   2
#     4  11  23  42  63  95 129 170 214 257 318 385
#     4  11  20  38  65  93 125 166 218 261 308 378
#     4  12  25  43  65  93 132 172 211 257 322 391
#     4  11  23  39  63  95 129 163 214 269 317 365
#     4  11  22  39  69  98 124 163 221 272 311 363
#     4  11  22  41  65  94 123 168 220 258 314 381
#     4  11  23  41  65  96 131 167 210 269 322 369
#
# _framework density 22.339562000000001
#
# number of rings (size 3 to 8) (size 9 to 14) (size 15 to 20)
#    0.000    0.857    4.286    6.000    2.000    0.000 
#    0.000    7.143    0.000    0.000    0.000    0.000 
#    0.000    0.000    0.000    0.000    0.000    0.000 
#
# Total GULP energy -78079.424931 kJ/mol
# GULP energy per Si atom -5577.101781 kJ/mol
# Density = 2.228872 g / cm^3
# Si number density = 22.339562 Si / 1000 Ang^3
#
#
#
# Elastic Constant Matrix: (Units=GPa)
#
#
# Indices 1 2 3 4 5 6 
#
# 1 14.3451 33.3980 -12.1521 -15.7379 -6.5078 20.8359
# 2 33.3980 93.1977 90.7428 3.9877 17.3881 2.8533
# 3 -12.1521 90.7428 51.1723 2.1087 -26.3619 38.4279
# 4 -15.7379 3.9877 2.1087 33.3907 11.3879 -14.0268
# 5 -6.5078 17.3881 -26.3619 11.3879 3.9273 2.5500
# 6 20.8359 2.8533 38.4279 -14.0268 2.5500 33.4408
#
#
#
# Elastic Compliance Matrix: (Units=1/GPa)
#
#
# Indices 1 2 3 4 5 6 
#
# 1 0.189247 -0.016838 -0.021653 0.153220 -0.193318 -0.012585
# 2 -0.016838 0.008239 0.003834 -0.022882 0.032028 -0.006657
# 3 -0.021653 0.003834 0.004380 -0.008906 -0.000503 0.004433
# 4 0.153220 -0.022882 -0.008906 0.158343 -0.160731 -0.004606
# 5 -0.193318 0.032028 -0.000503 -0.160731 0.233711 0.033055
# 6 -0.012585 -0.006657 0.004433 -0.004606 0.033055 0.028766
#
#
# Mechanical properties :
#
#
# Convention : Reuss Voigt Hill
#
# Bulk Modulus (GPa) = 7.54427 42.52139 25.03283
# Shear Modulus (GPa) = 6.79178 17.26687 12.02932
#
# Velocity S-wave (km/s) = 1.74552 2.78317 2.32303
# Velocity P-wave (km/s) = 2.72890 5.42250 4.29246
#
# Compressibility (1/GPa) = 0.13255088
#
# Stress axis : x y z
#
# Youngs Moduli (GPa) = 5.28411 121.37897 228.28788
#
# Poissons Ratio (x) = 2.04381 4.94308
# Poissons Ratio (y) = 0.08898 -0.87517
# Poissons Ratio (z) = 0.11442 -0.46532
#
# Static dielectric constant tensor:
#      x y z
#    x 1.877730 -0.052460 -0.010020 
#    y -0.052460 1.879450 0.028850 
#    z -0.010020 0.028850 1.870670 
# 
# From -- ./inp_files/157404.got.cif
#   From: 2010.05.17/outbox.ucp.g08.bks.cvg/sg2_79_cif.got.tgz:157404.got - 2010.06.11 11:32:03.
