data_PCOD9074103
_publ_section_title
;
Structure prediction by ZEFSAII (Michael W. Deem and Ramdas Pophale) SiO2 
 PCOD9074103
Probable space group: P -1
;
_chemical_formula_sum "Si O2"
_cell_formula_units_Z 12
_cell_length_a 8.126009
_cell_length_b 17.339622
_cell_length_c 9.531819
_cell_angle_alpha 34.573367
_cell_angle_beta 66.263011
_cell_angle_gamma 90.784909
_cell_volume 521.384222
_symmetry_space_group_name_H-M "P -1"
_symmetry_group_IT_number 2
_symmetry_cell_setting 'triclinic'
loop_
_space_group_symop_operation_xyz
x,y,z
-x,-y,-z
loop_
_atom_site_type_symbol
_atom_site_label
_atom_site_fract_x
_atom_site_fract_y
_atom_site_fract_z
Si Si1 0.170511 0.882168 0.016221
Si Si2 0.212144 0.224266 0.891934
Si Si3 0.282334 0.378417 0.907111
Si Si4 0.524554 0.859127 0.254814
Si Si5 0.777053 0.622229 0.753069
Si Si6 0.116666 0.579523 0.620066
O O1 0.046974 0.857164 0.950850
O O2 0.613721 0.919142 0.293891
O O3 0.952994 0.796426 0.332172
O O4 0.219143 0.744171 0.228307
O O5 0.236126 0.229552 0.043530
O O6 0.433259 0.440280 0.454001
O O7 0.287701 0.128787 0.923838
O O8 0.151348 0.440664 0.781219
O O9 0.182824 0.321547 0.182985
O O10 0.272810 0.670979 0.572409
O O11 0.500000 0.000000 0.000000
O O12 0.858686 0.511711 0.844863
O O13 0.500000 0.500000 0.000000
#
# Coordination Sequence:
#
# PCOD9074103 Si02
#       6
#     2   2   2   2   2   2
#     4   9  18  31  51  75  94 132 167 198 235 287
#     4  10  19  30  52  75 101 128 160 208 244 284
#     4  10  18  32  48  77 104 127 158 201 255 286
#     4   9  17  34  51  74  94 131 172 198 234 293
#     4  10  18  32  50  74 101 129 165 197 243 295
#     4   8  18  30  54  72  98 130 166 200 235 292
#
# _framework density 23.015656
#
# number of rings (size 3 to 8) (size 9 to 14) (size 15 to 20)
#    1.000    1.667    1.667    1.000    0.000    0.667 
#    0.000    2.500    0.000    1.000    0.000    0.000 
#    0.000    0.000    0.000    0.000    0.000    0.000 
#
# Total GULP energy -66837.573570 kJ/mol
# GULP energy per Si atom -5569.797797 kJ/mol
# Density = 2.296327 g / cm^3
# Si number density = 23.015656 Si / 1000 Ang^3
#
#
#
# Elastic Constant Matrix: (Units=GPa)
#
#
# Indices 1 2 3 4 5 6 
#
# 1 115.0854 23.8505 -11.5151 -8.2529 -2.9262 3.4931
# 2 23.8505 83.4944 5.4780 1.4054 15.4791 12.9404
# 3 -11.5151 5.4780 26.4060 -0.5827 -2.6966 0.3121
# 4 -8.2529 1.4054 -0.5827 20.5042 4.8182 -0.1893
# 5 -2.9262 15.4791 -2.6966 4.8182 24.4461 0.2451
# 6 3.4931 12.9404 0.3121 -0.1893 0.2451 30.5529
#
#
#
# Elastic Compliance Matrix: (Units=1/GPa)
#
#
# Indices 1 2 3 4 5 6 
#
# 1 0.010520 -0.004256 0.005942 0.003793 0.003857 0.000532
# 2 -0.004256 0.016800 -0.006470 -0.000353 -0.011726 -0.006471
# 3 0.005942 -0.006470 0.042760 0.001919 0.009131 0.001563
# 4 0.003793 -0.000353 0.001919 0.052605 -0.009480 0.000098
# 5 0.003857 -0.011726 0.009131 -0.009480 0.051629 0.003960
# 6 0.000532 -0.006471 0.001563 0.000098 0.003960 0.035363
#
#
# Mechanical properties :
#
#
# Convention : Reuss Voigt Hill
#
# Bulk Modulus (GPa) = 16.52605 28.95696 22.74150
# Shear Modulus (GPa) = 20.88426 28.91214 24.89820
#
# Velocity S-wave (km/s) = 3.01557 3.54813 3.29263
# Velocity P-wave (km/s) = 4.39554 5.42166 4.93534
#
# Compressibility (1/GPa) = 0.06051053
#
# Stress axis : x y z
#
# Youngs Moduli (GPa) = 95.05995 59.52426 23.38643
#
# Poissons Ratio (x) = 0.25334 -0.13895
# Poissons Ratio (y) = 0.40458 0.15131
# Poissons Ratio (z) = -0.56481 0.38512
#
# Static dielectric constant tensor:
#      x y z
#    x 1.912870 -0.010570 -0.000680 
#    y -0.010570 1.970050 -0.037520 
#    z -0.000680 -0.037520 1.922170 
# 
# From -- ./inp_files/209667.got.cif
#   From: 2010.05.17/outbox.cif.g08.bks.cpg/sg2_105_cif.got.tgz:209667.got - 2010.06.03 11:33:40.
