data_PCOD9074815
_publ_section_title
;
Structure prediction by ZEFSAII (Michael W. Deem and Ramdas Pophale) SiO2 
 PCOD9074815
Probable space group: P -1
;
_chemical_formula_sum "Si O2"
_cell_formula_units_Z 16
_cell_length_a 18.000000
_cell_length_b 12.000000
_cell_length_c 21.000000
_cell_angle_alpha 40.000000
_cell_angle_beta 160.000000
_cell_angle_gamma 150.000000
_cell_volume 744.844803
_symmetry_space_group_name_H-M "P -1"
_symmetry_group_IT_number 2
_symmetry_cell_setting 'triclinic'
loop_
_space_group_symop_operation_xyz
x,y,z
-x,-y,-z
loop_
_atom_site_type_symbol
_atom_site_label
_atom_site_fract_x
_atom_site_fract_y
_atom_site_fract_z
Si Si1 0.767844 0.064615 0.145156
Si Si2 0.246714 0.206037 0.263541
Si Si3 0.652768 0.452487 0.361044
Si Si4 0.572543 0.646721 0.090337
Si Si5 0.874502 0.027610 0.449651
Si Si6 0.235958 0.758998 0.105417
Si Si7 0.339450 0.567657 0.379562
Si Si8 0.013192 0.298543 0.703680
O O1 0.640911 0.880139 0.066029
O O2 0.997118 0.042951 0.366202
O O3 0.994603 0.342081 0.198693
O O4 0.500000 0.000000 0.000000
O O5 0.410662 0.335788 0.272733
O O6 0.495421 0.343345 0.458954
O O7 0.137526 0.952008 0.280116
O O8 0.967665 0.178611 0.071719
O O9 0.537430 0.505322 0.185754
O O10 0.940971 0.701404 0.510390
O O11 0.775981 0.327556 0.495396
O O12 0.835810 0.694291 0.242577
O O13 0.285315 0.496118 0.881206
O O14 0.531310 0.889562 0.242328
O O15 0.000000 0.000000 0.500000
O O16 0.359958 0.756971 0.274011
O O17 0.000000 0.500000 0.000000
O O18 0.500000 0.500000 0.500000
#
# Coordination Sequence:
#
# PCOD9074815 Si02
#       8
#     2   2   2   2   2   2   2   2
#     4  11  25  42  72 105 143 185 231 300 357 429
#     4  12  28  46  73 110 143 193 244 299 371 429
#     4  11  26  47  71 104 145 183 247 308 356 428
#     4  10  26  46  72 110 139 194 248 289 369 430
#     4  11  25  42  67 106 142 186 238 295 363 430
#     4  12  26  42  70 103 148 192 237 300 362 438
#     4  12  24  45  69 103 149 188 239 288 369 432
#     4  11  26  47  76 100 146 197 245 294 359 441
#
# _framework density 21.480985
#
# number of rings (size 3 to 8) (size 9 to 14) (size 15 to 20)
#    0.000    0.750    2.500    3.000   14.000    1.500 
#    0.000    0.000    0.000    0.000    0.000    0.000 
#    0.000    0.000    0.000    0.000    0.000    0.000 
#
# Total GULP energy -89324.240012 kJ/mol
# GULP energy per Si atom -5582.765001 kJ/mol
# Density = 2.143209 g / cm^3
# Si number density = 21.480985 Si / 1000 Ang^3
#
#
#
# Elastic Constant Matrix: (Units=GPa)
#
#
# Indices 1 2 3 4 5 6 
#
# 1 135.0505 30.3424 49.3912 4.0803 18.4367 9.7306
# 2 30.3424 72.0920 25.8215 0.5532 18.1608 -2.1915
# 3 49.3912 25.8215 118.0911 -9.5840 28.0937 6.7184
# 4 4.0803 0.5532 -9.5840 48.4241 2.1562 7.4862
# 5 18.4367 18.1608 28.0937 2.1562 51.8748 -0.9548
# 6 9.7306 -2.1915 6.7184 7.4862 -0.9548 44.3974
#
#
#
# Elastic Compliance Matrix: (Units=1/GPa)
#
#
# Indices 1 2 3 4 5 6 
#
# 1 0.009412 -0.002690 -0.003197 -0.001129 -0.000653 -0.001536
# 2 -0.002690 0.016653 -0.001714 -0.000384 -0.003899 0.001652
# 3 -0.003197 -0.001714 0.011658 0.003081 -0.004738 -0.001769
# 4 -0.001129 -0.000384 0.003081 0.022074 -0.002124 -0.004006
# 5 -0.000653 -0.003899 -0.004738 -0.002124 0.023557 0.001532
# 6 -0.001536 0.001652 -0.001769 -0.004006 0.001532 0.023918
#
#
# Mechanical properties :
#
#
# Convention : Reuss Voigt Hill
#
# Bulk Modulus (GPa) = 44.40291 59.59374 51.99832
# Shear Modulus (GPa) = 38.46748 43.58449 41.02599
#
# Velocity S-wave (km/s) = 4.23634 4.50931 4.37495
# Velocity P-wave (km/s) = 6.68165 7.41044 7.05546
#
# Compressibility (1/GPa) = 0.02252105
#
# Stress axis : x y z
#
# Youngs Moduli (GPa) = 106.24504 60.05097 85.77919
#
# Poissons Ratio (x) = 0.16152 0.27426
# Poissons Ratio (y) = 0.28577 0.14700
# Poissons Ratio (z) = 0.33970 0.10291
#
# Static dielectric constant tensor:
#      x y z
#    x 2.090760 0.154680 -0.367810 
#    y 0.154680 1.881090 -0.111870 
#    z -0.367810 -0.111870 2.147800 
# 
# From -- ./inp_files/600070.got.cif
#   From: 2010.05.17/outbox.ucp.g08.bks.cvg/sg2_301_cif.got.tgz:600070.got - 2010.06.11 11:32:03.
