data_PCOD9074607
_publ_section_title
;
Structure prediction by ZEFSAII (Michael W. Deem and Ramdas Pophale) SiO2 
 PCOD9074607
Probable space group: P -1
;
_chemical_formula_sum "Si O2"
_cell_formula_units_Z 16
_cell_length_a 9.000000
_cell_length_b 12.000000
_cell_length_c 15.000000
_cell_angle_alpha 150.000000
_cell_angle_beta 100.000000
_cell_angle_gamma 90.000000
_cell_volume 759.581896
_symmetry_space_group_name_H-M "P -1"
_symmetry_group_IT_number 2
_symmetry_cell_setting 'triclinic'
loop_
_space_group_symop_operation_xyz
x,y,z
-x,-y,-z
loop_
_atom_site_type_symbol
_atom_site_label
_atom_site_fract_x
_atom_site_fract_y
_atom_site_fract_z
Si Si1 0.045078 0.971679 0.737968
Si Si2 0.364338 0.405194 0.845759
Si Si3 0.493222 0.781751 0.420524
Si Si4 0.664685 0.002755 0.897182
Si Si5 0.325723 0.891876 0.828195
Si Si6 0.301909 0.347425 0.487482
Si Si7 0.908826 0.386580 0.074302
Si Si8 0.823154 0.132476 0.508123
O O1 0.172412 0.920530 0.782942
O O2 0.115373 0.944486 0.630487
O O3 0.881641 0.764594 0.585598
O O4 0.998174 0.213850 0.917411
O O5 0.471349 0.414366 0.774859
O O6 0.240879 0.554675 0.946735
O O7 0.250987 0.130376 0.639066
O O8 0.500000 0.500000 0.000000
O O9 0.606206 0.760891 0.502093
O O10 0.325099 0.763082 0.435420
O O11 0.500000 0.000000 0.500000
O O12 0.485665 0.014575 0.873525
O O13 0.673638 0.776435 0.687723
O O14 0.671894 0.982981 0.990105
O O15 0.810696 0.224834 0.033626
O O16 0.330959 0.626042 0.668054
O O17 0.034612 0.643805 0.284492
#
# Coordination Sequence:
#
# PCOD9074607 Si02
#       8
#     2   2   2   2   2   2   2   2
#     4  11  26  40  72 102 144 186 235 285 359 418
#     4  11  26  45  75 101 138 185 235 292 352 422
#     4  10  24  44  73 102 139 182 237 286 351 412
#     4  10  24  41  70  95 139 185 239 285 351 411
#     4  11  23  42  67 103 136 186 237 293 346 417
#     4  11  23  44  68 101 143 185 233 292 350 420
#     4  11  26  45  68  99 145 182 235 291 351 423
#     4  11  25  46  70 103 142 185 233 287 356 418
#
# _framework density 21.064219999999999
#
# number of rings (size 3 to 8) (size 9 to 14) (size 15 to 20)
#    0.000    1.250    0.000    4.125   10.500    6.500 
#    0.000    0.000    0.000    0.000    0.000    0.000 
#    0.000    0.000    0.000    0.000    0.000    0.000 
#
# Total GULP energy -89077.768431 kJ/mol
# GULP energy per Si atom -5567.360527 kJ/mol
# Density = 2.101628 g / cm^3
# Si number density = 21.064220 Si / 1000 Ang^3
#
#
#
# Elastic Constant Matrix: (Units=GPa)
#
#
# Indices 1 2 3 4 5 6 
#
# 1 190.3857 41.8342 33.8881 -11.6097 -14.2914 -10.8464
# 2 41.8342 25.6073 34.6926 3.5928 -21.5304 -5.1564
# 3 33.8881 34.6926 105.7898 3.2197 -15.5464 -1.4103
# 4 -11.6097 3.5928 3.2197 31.2408 6.0264 -8.4061
# 5 -14.2914 -21.5304 -15.5464 6.0264 40.0414 -5.0589
# 6 -10.8464 -5.1564 -1.4103 -8.4061 -5.0589 46.0583
#
#
#
# Elastic Compliance Matrix: (Units=1/GPa)
#
#
# Indices 1 2 3 4 5 6 
#
# 1 0.028284 -0.140585 0.026919 0.033314 -0.061184 -0.008894
# 2 -0.140585 0.884491 -0.180495 -0.192774 0.392989 0.068370
# 3 0.026919 -0.180495 0.047497 0.036800 -0.076321 -0.014080
# 4 0.033314 -0.192774 0.036800 0.077944 -0.090256 -0.008298
# 5 -0.061184 0.392989 -0.076321 -0.090256 0.202573 0.033029
# 6 -0.008894 0.068370 -0.014080 -0.008298 0.033029 0.028954
#
#
# Mechanical properties :
#
#
# Convention : Reuss Voigt Hill
#
# Bulk Modulus (GPa) = 2.68852 60.29029 31.48941
# Shear Modulus (GPa) = 2.52264 37.55930 20.04097
#
# Velocity S-wave (km/s) = 1.09553 4.22724 3.08786
# Velocity P-wave (km/s) = 1.69687 7.24640 5.26259
#
# Compressibility (1/GPa) = 0.37195133
#
# Stress axis : x y z
#
# Youngs Moduli (GPa) = 35.35539 1.13059 21.05378
#
# Poissons Ratio (x) = 0.15894 -0.56675
# Poissons Ratio (y) = 4.97045 3.80010
# Poissons Ratio (z) = -0.95174 0.20407
#
# Static dielectric constant tensor:
#      x y z
#    x 1.775120 0.010020 0.028370 
#    y 0.010020 1.841010 0.010570 
#    z 0.028370 0.010570 1.780360 
# 
# From -- ./inp_files/501238.got.cif
#   From: 2010.05.17/outbox.ucp.g08.bks.cvg/sg2_251_cif.got.tgz:501238.got - 2010.06.11 11:32:03.
