data_PCOD9074391
_publ_section_title
;
Structure prediction by ZEFSAII (Michael W. Deem and Ramdas Pophale) SiO2 
 PCOD9074391
Probable space group: P -1
;
_chemical_formula_sum "Si O2"
_cell_formula_units_Z 14
_cell_length_a 12.000000
_cell_length_b 6.000000
_cell_length_c 12.000000
_cell_angle_alpha 70.000000
_cell_angle_beta 130.000000
_cell_angle_gamma 110.000000
_cell_volume 612.923978
_symmetry_space_group_name_H-M "P -1"
_symmetry_group_IT_number 2
_symmetry_cell_setting 'triclinic'
loop_
_space_group_symop_operation_xyz
x,y,z
-x,-y,-z
loop_
_atom_site_type_symbol
_atom_site_label
_atom_site_fract_x
_atom_site_fract_y
_atom_site_fract_z
Si Si1 0.372621 0.649105 0.432936
Si Si2 0.631643 0.951898 0.816748
Si Si3 0.767112 0.658245 0.314299
Si Si4 0.440502 0.571094 0.069772
Si Si5 0.118168 0.239564 0.386032
Si Si6 0.311256 0.840367 0.599329
Si Si7 0.799790 0.107695 0.110792
O O1 0.500000 0.500000 0.500000
O O2 0.222807 0.462259 0.359918
O O3 0.376883 0.729490 0.550599
O O4 0.361710 0.888358 0.316311
O O5 0.641312 0.668857 0.878636
O O6 0.459696 0.950806 0.741239
O O7 0.756144 0.081873 0.957973
O O8 0.592137 0.658644 0.218888
O O9 0.864973 0.735499 0.472923
O O10 0.776337 0.380284 0.349066
O O11 0.801522 0.840530 0.204913
O O12 0.500000 0.500000 0.000000
O O13 0.332649 0.762505 0.952492
O O14 0.958139 0.234389 0.233289
O O15 0.200070 0.010891 0.459106
#
# Coordination Sequence:
#
# PCOD9074391 Si02
#       7
#     2   2   2   2   2   2   2
#     4  11  24  43  71  94 123 166 223 265 311 380
#     4  11  24  40  69  97 122 168 217 270 311 373
#     4  10  23  42  66  95 129 171 217 259 306 389
#     4  11  24  41  67  95 129 169 217 258 313 380
#     4  11  25  43  64  95 133 171 209 265 321 378
#     4  10  23  41  70  95 121 165 227 259 314 376
#     4  12  26  41  63  98 138 166 207 265 327 374
#
# _framework density 22.841332000000001
#
# number of rings (size 3 to 8) (size 9 to 14) (size 15 to 20)
#    0.000    1.143    2.857    2.143    8.000    3.429 
#    0.000    1.429    0.000    0.000    0.000    0.000 
#    0.000    0.000    0.000    0.000    0.000    0.000 
#
# Total GULP energy -78120.789384 kJ/mol
# GULP energy per Si atom -5580.056385 kJ/mol
# Density = 2.278934 g / cm^3
# Si number density = 22.841332 Si / 1000 Ang^3
#
#
#
# Elastic Constant Matrix: (Units=GPa)
#
#
# Indices 1 2 3 4 5 6 
#
# 1 10.3518 0.9750 25.2229 0.4133 8.8981 14.7903
# 2 0.9750 60.0264 13.0283 -12.3355 -1.2158 31.3656
# 3 25.2229 13.0283 116.5687 22.7174 19.9781 29.5839
# 4 0.4133 -12.3355 22.7174 45.7146 18.8162 -7.2508
# 5 8.8981 -1.2158 19.9781 18.8162 42.5777 0.2458
# 6 14.7903 31.3656 29.5839 -7.2508 0.2458 26.8883
#
#
#
# Elastic Compliance Matrix: (Units=1/GPa)
#
#
# Indices 1 2 3 4 5 6 
#
# 1 -0.082636 -0.069236 -0.015068 0.004269 0.019646 0.143770
# 2 -0.069236 -0.000303 0.005075 -0.002168 0.012852 0.032152
# 3 -0.015068 0.005075 0.019001 -0.011109 -0.000588 -0.021529
# 4 0.004269 -0.002168 -0.011109 0.034895 -0.011289 0.021917
# 5 0.019646 0.012852 -0.000588 -0.011289 0.025177 -0.028426
# 6 0.143770 0.032152 -0.021529 0.021917 -0.028426 -0.049541
#
#
# Mechanical properties :
#
#
# Convention : Reuss Voigt Hill
#
# Bulk Modulus (GPa) = -4.49649 29.48881 12.49616
# Shear Modulus (GPa) = 161.71824 32.88416 97.30120
#
# Velocity S-wave (km/s) = 8.42344 3.79843 6.53385
# Velocity P-wave (km/s) = 9.62461 5.67236 7.89964
#
# Compressibility (1/GPa) = -0.22239582
#
# Stress axis : x y z
#
# Youngs Moduli (GPa) = -12.10130 -3295.90596 52.62802
#
# Poissons Ratio (x) = -228.19668 0.79298
# Poissons Ratio (y) = -0.83785 -0.26709
# Poissons Ratio (z) = -0.18234 16.72702
#
# Static dielectric constant tensor:
#      x y z
#    x 1.889490 0.020180 -0.032140 
#    y 0.020180 1.976090 0.064810 
#    z -0.032140 0.064810 1.840040 
# 
# From -- ./inp_files/70249.got.cif
#   From: 2010.05.17/outbox.ucp.g08.bks.cvg/sg2_36_cif.got.tgz:70249.got - 2010.06.11 11:32:03.
