data_PCOD9074993
_publ_section_title
;
Structure prediction by ZEFSAII (Michael W. Deem and Ramdas Pophale) SiO2 
 PCOD9074993
Probable space group: P -1
;
_chemical_formula_sum "Si O2"
_cell_formula_units_Z 14
_cell_length_a 30.000000
_cell_length_b 30.000000
_cell_length_c 12.000000
_cell_angle_alpha 160.000000
_cell_angle_beta 160.000000
_cell_angle_gamma 10.000000
_cell_volume 622.618477
_symmetry_space_group_name_H-M "P -1"
_symmetry_group_IT_number 2
_symmetry_cell_setting 'triclinic'
loop_
_space_group_symop_operation_xyz
x,y,z
-x,-y,-z
loop_
_atom_site_type_symbol
_atom_site_label
_atom_site_fract_x
_atom_site_fract_y
_atom_site_fract_z
Si Si1 0.890729 0.243320 0.032128
Si Si2 0.487211 0.841150 0.204771
Si Si3 0.987955 0.279953 0.701532
Si Si4 0.884971 0.277671 0.845712
Si Si5 0.702303 0.320520 0.278543
Si Si6 0.547353 0.834794 0.071100
Si Si7 0.810969 0.788207 0.226629
O O1 0.065802 0.223119 0.413967
O O2 0.879396 0.213464 0.803339
O O3 0.592638 0.486965 0.954935
O O4 0.073411 0.982684 0.913037
O O5 0.577963 0.780439 0.146975
O O6 0.482838 0.984825 0.589620
O O7 0.702696 0.561800 0.110568
O O8 0.190000 0.044166 0.987214
O O9 0.782398 0.347499 0.427047
O O10 0.102098 0.209473 0.678805
O O11 0.806171 0.561231 0.971225
O O12 0.263841 0.021491 0.809065
O O13 0.751912 0.339545 0.564060
O O14 0.000000 0.500000 0.000000
O O15 0.500000 0.000000 0.000000
#
# Coordination Sequence:
#
# PCOD9074993 Si02
#       7
#     2   2   2   2   2   2   2
#     4  12  28  46  73 103 150 195 234 298 352 427
#     4  11  22  37  66 103 152 181 240 283 367 429
#     4  12  25  45  76 101 146 186 240 306 345 419
#     4  12  23  42  69 109 145 192 228 298 361 424
#     4  12  24  47  72 108 145 187 247 283 364 428
#     4  11  22  40  64 109 141 191 232 297 357 418
#     4  12  30  53  75 107 141 188 246 298 366 422
#
# _framework density 22.485679999999999
#
# number of rings (size 3 to 8) (size 9 to 14) (size 15 to 20)
#    0.000    0.286    2.857    6.000    6.000    3.429 
#    0.000    0.000    0.000    0.000    0.000    0.000 
#    0.000    0.000    0.000    0.000    0.000    0.000 
#
# Total GULP energy -78149.914978 kJ/mol
# GULP energy per Si atom -5582.136784 kJ/mol
# Density = 2.243450 g / cm^3
# Si number density = 22.485680 Si / 1000 Ang^3
#
#
#
# Elastic Constant Matrix: (Units=GPa)
#
#
# Indices 1 2 3 4 5 6 
#
# 1 86.2347 27.7583 11.8348 -13.7825 15.6556 -19.1243
# 2 27.7583 145.6188 22.7541 -5.5279 11.3969 -22.3688
# 3 11.8348 22.7541 79.1771 -12.2450 16.3425 1.5869
# 4 -13.7825 -5.5279 -12.2450 44.9226 -3.1677 19.3059
# 5 15.6556 11.3969 16.3425 -3.1677 28.9905 0.0948
# 6 -19.1243 -22.3688 1.5869 19.3059 0.0948 41.1802
#
#
#
# Elastic Compliance Matrix: (Units=1/GPa)
#
#
# Indices 1 2 3 4 5 6 
#
# 1 0.014816 -0.001322 -0.000234 0.001442 -0.007210 0.005512
# 2 -0.001322 0.008291 -0.002334 -0.002303 -0.001498 0.005063
# 3 -0.000234 -0.002334 0.015745 0.005345 -0.007233 -0.004472
# 4 0.001442 -0.002303 0.005345 0.030367 0.000481 -0.015025
# 5 -0.007210 -0.001498 -0.007233 0.000481 0.043120 -0.004208
# 6 0.005512 0.005063 -0.004472 -0.015025 -0.004208 0.036820
#
#
# Mechanical properties :
#
#
# Convention : Reuss Voigt Hill
#
# Bulk Modulus (GPa) = 32.18249 48.41387 40.29818
# Shear Modulus (GPa) = 29.88723 39.59757 34.74240
#
# Velocity S-wave (km/s) = 3.64973 4.20099 3.93503
# Velocity P-wave (km/s) = 5.66606 6.71631 6.21342
#
# Compressibility (1/GPa) = 0.03107279
#
# Stress axis : x y z
#
# Youngs Moduli (GPa) = 67.49627 120.60610 63.51354
#
# Poissons Ratio (x) = 0.15943 0.01486
# Poissons Ratio (y) = 0.08922 0.14821
# Poissons Ratio (z) = 0.01580 0.28144
#
# Static dielectric constant tensor:
#      x y z
#    x 1.871610 0.034950 0.015220 
#    y 0.034950 1.792100 0.048470 
#    z 0.015220 0.048470 1.975200 
# 
# From -- ./inp_files/477840.got.cif
#   From: 2010.05.17/outbox.ucp.g08.bks.cvg/sg2_239_cif.got.tgz:477840.got - 2010.06.11 11:32:03.
