data_PCOD9074172
_publ_section_title
;
Structure prediction by ZEFSAII (Michael W. Deem and Ramdas Pophale) SiO2 
 PCOD9074172
Probable space group: P -1
;
_chemical_formula_sum "Si O2"
_cell_formula_units_Z 16
_cell_length_a 15.000000
_cell_length_b 12.000000
_cell_length_c 9.000000
_cell_angle_alpha 120.000000
_cell_angle_beta 110.000000
_cell_angle_gamma 120.000000
_cell_volume 745.925389
_symmetry_space_group_name_H-M "P -1"
_symmetry_group_IT_number 2
_symmetry_cell_setting 'triclinic'
loop_
_space_group_symop_operation_xyz
x,y,z
-x,-y,-z
loop_
_atom_site_type_symbol
_atom_site_label
_atom_site_fract_x
_atom_site_fract_y
_atom_site_fract_z
Si Si1 0.558508 0.055104 0.242710
Si Si2 0.720199 0.426323 0.133263
Si Si3 0.824545 0.575931 0.754781
Si Si4 0.687151 0.695765 0.666822
Si Si5 0.470365 0.536266 0.853146
Si Si6 0.761296 0.034358 0.278277
Si Si7 0.049404 0.201282 0.713454
Si Si8 0.948530 0.208019 0.231244
O O1 0.671362 0.305017 0.515207
O O2 0.679125 0.065771 0.326941
O O3 0.500000 0.000000 0.000000
O O4 0.392979 0.828592 0.091625
O O5 0.615154 0.423311 0.141899
O O6 0.778570 0.551618 0.094644
O O7 0.888282 0.608697 0.448401
O O8 0.743487 0.610453 0.653473
O O9 0.966163 0.665782 0.793016
O O10 0.920661 0.745832 0.061491
O O11 0.500000 0.500000 0.500000
O O12 0.647793 0.681070 0.462470
O O13 0.841597 0.956618 0.982562
O O14 0.500000 0.500000 0.000000
O O15 0.639710 0.773514 0.028019
O O16 0.818307 0.140452 0.215335
O O17 0.910624 0.144327 0.535128
O O18 0.000000 0.000000 0.500000
#
# Coordination Sequence:
#
# PCOD9074172 Si02
#       8
#     2   2   2   2   2   2   2   2
#     4  11  23  46  71  95 135 180 232 278 328 395
#     4  10  22  43  65  93 133 176 219 275 330 396
#     4  12  25  43  71  96 131 185 224 273 340 399
#     4  12  25  40  62  98 137 165 227 285 329 408
#     4  11  22  37  61  93 130 176 211 274 344 387
#     4  10  23  43  64  97 136 171 224 274 330 404
#     4  11  25  43  68 102 137 175 222 279 348 397
#     4  11  22  41  67  97 128 173 218 284 334 391
#
# _framework density 21.449867000000001
#
# number of rings (size 3 to 8) (size 9 to 14) (size 15 to 20)
#    0.000    1.000    3.750    3.375    5.250    1.500 
#    0.000    0.000    0.000    0.000    0.000    0.000 
#    0.000    0.000    0.000    0.000    0.000    0.000 
#
# Total GULP energy -89141.149550 kJ/mol
# GULP energy per Si atom -5571.321847 kJ/mol
# Density = 2.140105 g / cm^3
# Si number density = 21.449867 Si / 1000 Ang^3
#
#
#
# Elastic Constant Matrix: (Units=GPa)
#
#
# Indices 1 2 3 4 5 6 
#
# 1 30.2614 12.3772 36.6585 -3.0467 5.0774 -1.5240
# 2 12.3772 84.7036 38.6114 10.9571 3.1914 12.0559
# 3 36.6585 38.6114 108.7169 15.5781 -7.8417 -0.6641
# 4 -3.0467 10.9571 15.5781 51.3952 3.8617 -3.2427
# 5 5.0774 3.1914 -7.8417 3.8617 24.0115 6.3169
# 6 -1.5240 12.0559 -0.6641 -3.2427 6.3169 32.1399
#
#
#
# Elastic Compliance Matrix: (Units=1/GPa)
#
#
# Indices 1 2 3 4 5 6 
#
# 1 0.078804 0.000205 -0.031414 0.017310 -0.032675 0.011179
# 2 0.000205 0.015380 -0.005458 -0.001811 -0.002094 -0.005643
# 3 -0.031414 -0.005458 0.024371 -0.009636 0.017772 -0.003404
# 4 0.017310 -0.001811 -0.009636 0.025104 -0.012245 0.006241
# 5 -0.032675 -0.002094 0.017772 -0.012245 0.060147 -0.013454
# 6 0.011179 -0.005643 -0.003404 0.006241 -0.013454 0.036964
#
#
# Mechanical properties :
#
#
# Convention : Reuss Voigt Hill
#
# Bulk Modulus (GPa) = 22.11271 44.33068 33.22170
# Shear Modulus (GPa) = 15.18941 30.57833 22.88387
#
# Velocity S-wave (km/s) = 2.66397 3.77977 3.26982
# Velocity P-wave (km/s) = 4.44901 6.30562 5.45686
#
# Compressibility (1/GPa) = 0.04522286
#
# Stress axis : x y z
#
# Youngs Moduli (GPa) = 12.68971 65.01924 41.03262
#
# Poissons Ratio (x) = -0.01336 1.28900
# Poissons Ratio (y) = -0.00261 0.22394
# Poissons Ratio (z) = 0.39863 0.35485
#
# Static dielectric constant tensor:
#      x y z
#    x 1.816970 0.094320 0.036470 
#    y 0.094320 1.829000 0.034760 
#    z 0.036470 0.034760 1.789600 
# 
# From -- ./inp_files/308358.got.cif
#   From: 2010.05.17/outbox.ucp.g08.bks.cvg/sg2_155_cif.got.tgz:308358.got - 2010.06.11 11:32:03.
