data_PCOD9074601
_publ_section_title
;
Structure prediction by ZEFSAII (Michael W. Deem and Ramdas Pophale) SiO2 
 PCOD9074601
Probable space group: P -1
;
_chemical_formula_sum "Si O2"
_cell_formula_units_Z 16
_cell_length_a 10.389157
_cell_length_b 15.658720
_cell_length_c 10.419735
_cell_angle_alpha 138.731762
_cell_angle_beta 71.963033
_cell_angle_gamma 135.821158
_cell_volume 675.193679
_symmetry_space_group_name_H-M "P -1"
_symmetry_group_IT_number 2
_symmetry_cell_setting 'triclinic'
loop_
_space_group_symop_operation_xyz
x,y,z
-x,-y,-z
loop_
_atom_site_type_symbol
_atom_site_label
_atom_site_fract_x
_atom_site_fract_y
_atom_site_fract_z
Si Si1 0.419137 0.990347 0.378885
Si Si2 0.701914 0.391625 0.665544
Si Si3 0.280301 0.764912 0.769300
Si Si4 0.424396 0.606009 0.836991
Si Si5 0.735484 0.043787 0.180950
Si Si6 0.097091 0.580552 0.893950
Si Si7 0.813220 0.755863 0.954450
Si Si8 0.132482 0.202861 0.325476
O O1 0.500000 0.000000 0.500000
O O2 0.467933 0.176193 0.544702
O O3 0.574901 0.024991 0.274696
O O4 0.187848 0.767212 0.159705
O O5 0.713236 0.339714 0.459097
O O6 0.775131 0.592984 0.854031
O O7 0.851808 0.426429 0.762228
O O8 0.154105 0.794601 0.783358
O O9 0.181504 0.643932 0.793259
O O10 0.500000 0.000000 0.000000
O O11 0.225348 0.550624 0.876571
O O12 0.602161 0.687059 0.973327
O O13 0.320786 0.406569 0.575384
O O14 0.579732 0.810313 0.929742
O O15 0.920166 0.135347 0.321385
O O16 0.813282 0.751274 0.791651
O O17 0.038665 0.997707 0.175538
#
# Coordination Sequence:
#
# PCOD9074601 Si02
#       8
#     2   2   2   2   2   2   2   2
#     4  10  22  39  58  84 112 142 191 246 286 329
#     4  11  22  36  56  85 118 147 184 237 283 331
#     4  11  17  32  53  84 114 144 180 226 276 343
#     4  10  18  32  52  73 110 153 184 213 265 332
#     4   9  19  33  53  81 109 144 187 227 279 337
#     4  11  21  35  60  86 110 152 188 226 286 344
#     4  10  22  32  48  82 118 150 180 222 271 334
#     4  10  19  33  49  76 115 155 184 217 266 339
#
# _framework density 23.696904
#
# number of rings (size 3 to 8) (size 9 to 14) (size 15 to 20)
#    0.000    1.750    3.750    3.750    0.000    1.500 
#    0.000    0.000    0.000    6.750    0.000   13.125 
#    0.000    0.000    0.000    0.000    0.000    0.000 
#
# Total GULP energy -89143.562672 kJ/mol
# GULP energy per Si atom -5571.472667 kJ/mol
# Density = 2.364297 g / cm^3
# Si number density = 23.696904 Si / 1000 Ang^3
#
#
#
# Elastic Constant Matrix: (Units=GPa)
#
#
# Indices 1 2 3 4 5 6 
#
# 1 75.2582 20.0675 14.7174 14.8849 -9.7705 -6.4675
# 2 20.0675 59.2575 35.8547 9.5085 -5.1016 -20.3581
# 3 14.7174 35.8547 125.8244 32.2309 12.7069 -13.2506
# 4 14.8849 9.5085 32.2309 32.8381 -8.4390 1.1978
# 5 -9.7705 -5.1016 12.7069 -8.4390 31.6686 13.9239
# 6 -6.4675 -20.3581 -13.2506 1.1978 13.9239 24.9820
#
#
#
# Elastic Compliance Matrix: (Units=1/GPa)
#
#
# Indices 1 2 3 4 5 6 
#
# 1 0.015871 -0.004868 0.000661 -0.005733 0.002626 -0.000696
# 2 -0.004868 0.029820 -0.001453 -0.008944 -0.011230 0.028958
# 3 0.000661 -0.001453 0.021870 -0.029883 -0.029212 0.028301
# 4 -0.005733 -0.008944 -0.029883 0.081863 0.057153 -0.060403
# 5 0.002626 -0.011230 -0.029212 0.057153 0.091757 -0.077848
# 6 -0.000696 0.028958 0.028301 -0.060403 -0.077848 0.124743
#
#
# Mechanical properties :
#
#
# Convention : Reuss Voigt Hill
#
# Bulk Modulus (GPa) = 17.78074 44.62435 31.20255
# Shear Modulus (GPa) = 12.62656 30.54443 21.58549
#
# Velocity S-wave (km/s) = 2.31083 3.59411 3.02138
# Velocity P-wave (km/s) = 3.82617 6.00797 5.03663
#
# Compressibility (1/GPa) = 0.05624064
#
# Stress axis : x y z
#
# Youngs Moduli (GPa) = 63.00665 33.53437 45.72529
#
# Poissons Ratio (x) = 0.16324 -0.03022
# Poissons Ratio (y) = 0.30670 0.06646
# Poissons Ratio (z) = -0.04164 0.04874
#
# Static dielectric constant tensor:
#      x y z
#    x 2.040180 -0.003770 -0.037640 
#    y -0.003770 1.998040 0.036960 
#    z -0.037640 0.036960 1.955880 
# 
# From -- ./inp_files/436059.got.cif
#   From: 2010.05.17/outbox.cif.g08.bks.cpg/sg2_219_cif.got.tgz:436059.got - 2010.06.03 11:33:40.
