data_PCOD9074683
_publ_section_title
;
Structure prediction by ZEFSAII (Michael W. Deem and Ramdas Pophale) SiO2 
 PCOD9074683
Probable space group: P -1
;
_chemical_formula_sum "Si O2"
_cell_formula_units_Z 14
_cell_length_a 7.868925
_cell_length_b 10.857996
_cell_length_c 11.949582
_cell_angle_alpha 75.665210
_cell_angle_beta 45.447740
_cell_angle_gamma 59.152010
_cell_volume 614.050862
_symmetry_space_group_name_H-M "P -1"
_symmetry_group_IT_number 2
_symmetry_cell_setting 'triclinic'
loop_
_space_group_symop_operation_xyz
x,y,z
-x,-y,-z
loop_
_atom_site_type_symbol
_atom_site_label
_atom_site_fract_x
_atom_site_fract_y
_atom_site_fract_z
Si Si1 0.964783 0.690093 0.778120
Si Si2 0.354976 0.437523 0.161084
Si Si3 0.709404 0.945662 0.680672
Si Si4 0.824144 0.787908 0.072878
Si Si5 0.321846 0.925238 0.558832
Si Si6 0.783769 0.615317 0.335329
Si Si7 0.279692 0.839513 0.828972
O O1 0.710895 0.665216 0.866059
O O2 0.929273 0.822875 0.687140
O O3 0.215884 0.533882 0.661431
O O4 0.936250 0.723637 0.914017
O O5 0.532256 0.338042 0.204055
O O6 0.049053 0.563466 0.304983
O O7 0.500000 0.500000 0.000000
O O8 0.498419 0.888939 0.752681
O O9 0.496990 0.093644 0.809100
O O10 0.817923 0.984486 0.509107
O O11 0.857470 0.667913 0.173897
O O12 0.007750 0.860397 0.012933
O O13 0.526136 0.756805 0.469720
O O14 0.174382 0.913765 0.740012
O O15 0.500000 0.000000 0.500000
#
# Coordination Sequence:
#
# PCOD9074683 Si02
#       7
#     2   2   2   2   2   2   2
#     4   9  19  32  51  76 102 132 162 203 251 297
#     4   9  17  32  51  77 103 122 164 212 244 287
#     4   9  19  34  51  72 103 133 165 205 247 288
#     4  11  18  31  54  77 100 131 166 203 250 293
#     4   9  19  35  50  73  98 134 166 203 246 297
#     4   9  19  32  53  72 102 130 162 202 255 287
#     4  10  18  32  52  76  99 129 173 205 238 293
#
# _framework density 22.799413999999999
#
# number of rings (size 3 to 8) (size 9 to 14) (size 15 to 20)
#    0.857    1.714    1.429    1.286    0.000    0.571 
#    0.000    1.429    0.000    0.000    0.000    0.000 
#    0.000    0.000    0.000    0.000    0.000    0.000 
#
# Total GULP energy -77960.013677 kJ/mol
# GULP energy per Si atom -5568.572406 kJ/mol
# Density = 2.274752 g / cm^3
# Si number density = 22.799414 Si / 1000 Ang^3
#
#
#
# Elastic Constant Matrix: (Units=GPa)
#
#
# Indices 1 2 3 4 5 6 
#
# 1 71.2927 15.6139 11.9774 -9.3929 8.2220 -3.0313
# 2 15.6139 127.8910 34.8327 -15.4630 5.5817 -15.1262
# 3 11.9774 34.8327 61.4546 -13.8248 0.3162 -10.7196
# 4 -9.3929 -15.4630 -13.8248 29.9814 3.8887 5.5046
# 5 8.2220 5.5817 0.3162 3.8887 25.5007 -1.8100
# 6 -3.0313 -15.1262 -10.7196 5.5046 -1.8100 24.6595
#
#
#
# Elastic Compliance Matrix: (Units=1/GPa)
#
#
# Indices 1 2 3 4 5 6 
#
# 1 0.015701 -0.000733 -0.001700 0.004617 -0.005635 -0.000703
# 2 -0.000733 0.009869 -0.004281 0.002525 -0.002015 0.003391
# 3 -0.001700 -0.004281 0.021279 0.006047 0.000662 0.005114
# 4 0.004617 0.002525 0.006047 0.040946 -0.008718 -0.005035
# 5 -0.005635 -0.002015 0.000662 -0.008718 0.043039 0.003464
# 6 -0.000703 0.003391 0.005114 -0.005035 0.003464 0.046147
#
#
# Mechanical properties :
#
#
# Convention : Reuss Voigt Hill
#
# Bulk Modulus (GPa) = 29.92062 42.83179 36.37620
# Shear Modulus (GPa) = 24.80783 29.24262 27.02522
#
# Velocity S-wave (km/s) = 3.30220 3.58523 3.44662
# Velocity P-wave (km/s) = 5.26225 5.99714 5.64167
#
# Compressibility (1/GPa) = 0.03342177
#
# Stress axis : x y z
#
# Youngs Moduli (GPa) = 63.69015 101.32807 46.99513
#
# Poissons Ratio (x) = 0.07427 0.07987
# Poissons Ratio (y) = 0.04668 0.20119
# Poissons Ratio (z) = 0.10825 0.43379
#
# Static dielectric constant tensor:
#      x y z
#    x 1.915240 0.017960 -0.016600 
#    y 0.017960 1.911210 0.053500 
#    z -0.016600 0.053500 1.842900 
# 
# From -- ./inp_files/182668.got.cif
#   From: 2010.05.17/outbox.cif.g08.bks.cpg/sg2_92_cif.got.tgz:182668.got - 2010.06.03 11:33:40.
