data_PCOD9074326
_publ_section_title
;
Structure prediction by ZEFSAII (Michael W. Deem and Ramdas Pophale) SiO2 
 PCOD9074326
Probable space group: P -1
;
_chemical_formula_sum "Si O2"
_cell_formula_units_Z 14
_cell_length_a 21.000000
_cell_length_b 12.000000
_cell_length_c 15.000000
_cell_angle_alpha 150.000000
_cell_angle_beta 160.000000
_cell_angle_gamma 30.000000
_cell_volume 615.533390
_symmetry_space_group_name_H-M "P -1"
_symmetry_group_IT_number 2
_symmetry_cell_setting 'triclinic'
loop_
_space_group_symop_operation_xyz
x,y,z
-x,-y,-z
loop_
_atom_site_type_symbol
_atom_site_label
_atom_site_fract_x
_atom_site_fract_y
_atom_site_fract_z
Si Si1 0.839549 0.727223 0.680724
Si Si2 0.030851 0.943628 0.792732
Si Si3 0.427713 0.909589 0.932424
Si Si4 0.106761 0.330771 0.882819
Si Si5 0.766968 0.683572 0.343952
Si Si6 0.429699 0.675580 0.111046
Si Si7 0.785534 0.349775 0.625281
O O1 0.816789 0.716783 0.536374
O O2 0.619683 0.743322 0.437558
O O3 0.991040 0.498365 0.766629
O O4 0.917860 0.934247 0.965463
O O5 0.941763 0.731640 0.549754
O O6 0.239150 0.881239 0.972538
O O7 0.875865 0.126401 0.653558
O O8 0.391939 0.674548 0.684320
O O9 0.225966 0.086487 0.826654
O O10 0.579724 0.879989 0.192312
O O11 0.500000 0.000000 0.000000
O O12 0.947076 0.338979 0.754443
O O13 0.249646 0.439643 0.204325
O O14 0.679861 0.464002 0.066609
O O15 0.500000 0.500000 0.000000
#
# Coordination Sequence:
#
# PCOD9074326 Si02
#       7
#     2   2   2   2   2   2   2
#     4  10  23  44  67  97 127 173 224 271 333 389
#     4  11  22  42  67  97 132 172 216 278 328 397
#     4  12  25  42  67  99 135 177 218 274 337 398
#     4  10  24  44  71  96 135 174 224 280 325 403
#     4  11  24  42  64  99 133 170 218 268 340 392
#     4  10  23  37  64  95 130 167 220 268 325 390
#     4  10  23  44  69  97 132 177 228 266 341 388
#
# _framework density 22.744501
#
# number of rings (size 3 to 8) (size 9 to 14) (size 15 to 20)
#    0.000    1.429    1.429    2.571    8.000    1.714 
#    5.143    0.000    0.000    0.000    0.000    0.000 
#    0.000    0.000    0.000    0.000    0.000    0.000 
#
# Total GULP energy -78029.764904 kJ/mol
# GULP energy per Si atom -5573.554636 kJ/mol
# Density = 2.269273 g / cm^3
# Si number density = 22.744501 Si / 1000 Ang^3
#
#
#
# Elastic Constant Matrix: (Units=GPa)
#
#
# Indices 1 2 3 4 5 6 
#
# 1 76.2098 6.5438 22.0987 -5.9283 -27.4669 13.3088
# 2 6.5438 16.1560 16.0085 -9.5094 -9.3358 3.2694
# 3 22.0987 16.0085 124.3594 -8.6331 -20.0781 4.1400
# 4 -5.9283 -9.5094 -8.6331 35.2854 3.1642 0.5820
# 5 -27.4669 -9.3358 -20.0781 3.1642 46.7173 -1.2268
# 6 13.3088 3.2694 4.1400 0.5820 -1.2268 26.4156
#
#
#
# Elastic Compliance Matrix: (Units=1/GPa)
#
#
# Indices 1 2 3 4 5 6 
#
# 1 0.019026 0.003796 -0.001604 0.003013 0.010805 -0.009369
# 2 0.003796 0.093101 -0.008200 0.022532 0.015474 -0.011928
# 3 -0.001604 -0.008200 0.009604 -0.000277 0.001575 0.000397
# 4 0.003013 0.022532 -0.000277 0.034601 0.003684 -0.004854
# 5 0.010805 0.015474 0.001575 0.003684 0.031114 -0.006242
# 6 -0.009369 -0.011928 0.000397 -0.004854 -0.006242 0.043808
#
#
# Mechanical properties :
#
#
# Convention : Reuss Voigt Hill
#
# Bulk Modulus (GPa) = 9.11452 34.00302 21.55877
# Shear Modulus (GPa) = 17.86742 33.15529 25.51136
#
# Velocity S-wave (km/s) = 2.80584 3.82216 3.35274
# Velocity P-wave (km/s) = 3.80960 5.87035 4.94844
#
# Compressibility (1/GPa) = 0.10971500
#
# Stress axis : x y z
#
# Youngs Moduli (GPa) = 52.56103 10.74102 104.12790
#
# Poissons Ratio (x) = -0.04077 0.16702
# Poissons Ratio (y) = -0.19953 0.85382
# Poissons Ratio (z) = 0.08431 0.08807
#
# Static dielectric constant tensor:
#      x y z
#    x 1.812620 0.026310 0.058670 
#    y 0.026310 1.988350 0.014580 
#    z 0.058670 0.014580 1.901740 
# 
# From -- ./inp_files/154344.got.cif
#   From: 2010.05.17/outbox.ucp.g08.bks.cvg/sg2_78_cif.got.tgz:154344.got - 2010.06.11 11:32:03.
