data_PCOD9074720
_publ_section_title
;
Structure prediction by ZEFSAII (Michael W. Deem and Ramdas Pophale) SiO2 
 PCOD9074720
Probable space group: P -1
;
_chemical_formula_sum "Si O2"
_cell_formula_units_Z 15
_cell_length_a 9.000000
_cell_length_b 9.000000
_cell_length_c 21.000000
_cell_angle_alpha 130.000000
_cell_angle_beta 30.000000
_cell_angle_gamma 130.000000
_cell_volume 634.839654
_symmetry_space_group_name_H-M "P -1"
_symmetry_group_IT_number 2
_symmetry_cell_setting 'triclinic'
loop_
_space_group_symop_operation_xyz
x,y,z
-x,-y,-z
loop_
_atom_site_type_symbol
_atom_site_label
_atom_site_fract_x
_atom_site_fract_y
_atom_site_fract_z
Si Si1 0.498357 0.973512 0.716740
Si Si2 0.737521 0.332017 0.643962
Si Si3 0.454403 0.458813 0.432167
Si Si4 0.690838 0.104730 0.811092
Si Si5 0.661409 0.824894 0.371195
Si Si6 0.638357 0.430090 0.061139
Si Si7 0.082399 0.821240 0.012822
Si Si8 0.500000 0.500000 0.000000
O O1 0.418870 0.737758 0.679158
O O2 0.685652 0.109301 0.630071
O O3 0.722700 0.017080 0.705810
O O4 0.185050 0.056151 0.855271
O O5 0.535797 0.293274 0.645004
O O6 0.566915 0.472784 0.788119
O O7 0.098624 0.421392 0.532341
O O8 0.500000 0.500000 0.500000
O O9 0.639101 0.655783 0.385125
O O10 0.653449 0.325263 0.867859
O O11 0.973835 0.096408 0.749661
O O12 0.377044 0.958505 0.910149
O O13 0.500000 0.000000 0.500000
O O14 0.913183 0.612874 0.983990
O O15 0.793550 0.269604 0.994232
O O16 0.450592 0.369625 0.050585
#
# Coordination Sequence:
#
# PCOD9074720 Si02
#       8
#     2   2   2   2   2   2   2   1
#     4  11  24  47  71 107 145 189 242 303 365 429
#     4  11  24  49  73 104 146 188 244 308 361 427
#     4  12  27  46  79 104 140 192 247 303 369 429
#     4  12  27  43  74 106 148 194 239 300 361 438
#     4  12  29  48  70 108 144 194 249 302 361 438
#     4  10  25  46  74 105 147 187 242 296 369 429
#     4  10  24  46  70 106 145 191 231 303 366 428
#     4  12  26  46  72 110 148 184 248 286 366 440
#
# _framework density 23.628014
#
# number of rings (size 3 to 8) (size 9 to 14) (size 15 to 20)
#    0.000    0.800    2.667    3.600   11.200    0.533 
#    0.000    0.000    0.000    0.000    0.000    0.000 
#    0.000    0.000    0.000    0.000    0.000    0.000 
#
# Total GULP energy -83546.584059 kJ/mol
# GULP energy per Si atom -5569.772271 kJ/mol
# Density = 2.357424 g / cm^3
# Si number density = 23.628014 Si / 1000 Ang^3
#
#
#
# Elastic Constant Matrix: (Units=GPa)
#
#
# Indices 1 2 3 4 5 6 
#
# 1 89.5207 -6.0272 25.6504 15.1738 -1.3443 -2.7362
# 2 -6.0272 77.4354 19.1428 5.9876 -6.4324 -11.8138
# 3 25.6504 19.1428 55.7693 -10.2666 -22.1037 12.0397
# 4 15.1738 5.9876 -10.2666 42.2998 10.3439 -6.4916
# 5 -1.3443 -6.4324 -22.1037 10.3439 46.0799 -2.9186
# 6 -2.7362 -11.8138 12.0397 -6.4916 -2.9186 17.9643
#
#
#
# Elastic Compliance Matrix: (Units=1/GPa)
#
#
# Indices 1 2 3 4 5 6 
#
# 1 0.019470 0.009498 -0.019547 -0.009226 -0.004253 0.018287
# 2 0.009498 0.023316 -0.020893 -0.006720 -0.003219 0.027831
# 3 -0.019547 -0.020893 0.052360 0.011842 0.016127 -0.044909
# 4 -0.009226 -0.006720 0.011842 0.030967 -0.002669 -0.003004
# 5 -0.004253 -0.003219 0.016127 -0.002669 0.028839 -0.009852
# 6 0.018287 0.027831 -0.044909 -0.003004 -0.009852 0.104166
#
#
# Mechanical properties :
#
#
# Convention : Reuss Voigt Hill
#
# Bulk Modulus (GPa) = 30.06472 33.36194 31.71333
# Shear Modulus (GPa) = 15.05616 33.53275 24.29446
#
# Velocity S-wave (km/s) = 2.52705 3.77131 3.21004
# Velocity P-wave (km/s) = 4.61156 5.75447 5.21443
#
# Compressibility (1/GPa) = 0.03326157
#
# Stress axis : x y z
#
# Youngs Moduli (GPa) = 51.36151 42.88815 19.09862
#
# Poissons Ratio (x) = -0.40734 0.37332
# Poissons Ratio (y) = -0.48782 0.39903
# Poissons Ratio (z) = 1.00397 0.89606
#
# Static dielectric constant tensor:
#      x y z
#    x 2.081780 0.099500 0.208140 
#    y 0.099500 1.884720 0.067310 
#    z 0.208140 0.067310 2.237530 
# 
# From -- ./inp_files/189606.got.cif
#   From: 2010.05.17/outbox.ucp.g08.bks.cvg/sg2_95_cif.got.tgz:189606.got - 2010.06.11 11:32:03.
