data_PCOD9074669
_publ_section_title
;
Structure prediction by ZEFSAII (Michael W. Deem and Ramdas Pophale) SiO2 
 PCOD9074669
Probable space group: P -1
;
_chemical_formula_sum "Si O2"
_cell_formula_units_Z 12
_cell_length_a 18.000000
_cell_length_b 12.000000
_cell_length_c 21.000000
_cell_angle_alpha 160.000000
_cell_angle_beta 160.000000
_cell_angle_gamma 30.000000
_cell_volume 524.980204
_symmetry_space_group_name_H-M "P -1"
_symmetry_group_IT_number 2
_symmetry_cell_setting 'triclinic'
loop_
_space_group_symop_operation_xyz
x,y,z
-x,-y,-z
loop_
_atom_site_type_symbol
_atom_site_label
_atom_site_fract_x
_atom_site_fract_y
_atom_site_fract_z
Si Si1 0.425868 0.178377 0.227142
Si Si2 0.403867 0.385241 0.681006
Si Si3 0.085994 0.810187 0.408410
Si Si4 0.869731 0.145705 0.916229
Si Si5 0.727703 0.496411 0.218734
Si Si6 0.176741 0.963665 0.792945
O O1 0.500000 0.500000 0.500000
O O2 0.660480 0.062128 0.335577
O O3 0.269039 0.893840 0.985275
O O4 0.284002 0.208969 0.066004
O O5 0.654777 0.319495 0.854029
O O6 0.310836 0.390015 0.679720
O O7 0.363594 0.735224 0.806993
O O8 0.247711 0.120862 0.371154
O O9 0.000000 0.000000 0.500000
O O10 0.910966 0.841806 0.229700
O O11 0.056417 0.424495 0.190230
O O12 0.000000 0.000000 0.000000
O O13 0.953217 0.710539 0.493398
O O14 0.500000 0.500000 0.000000
#
# Coordination Sequence:
#
# PCOD9074669 Si02
#       6
#     2   2   2   2   2   2
#     4  11  26  43  69 108 140 181 231 288 350 410
#     4  10  24  44  70 102 133 185 234 276 352 408
#     4  12  26  44  70 102 140 185 235 287 350 410
#     4  11  26  44  70 100 140 183 230 290 341 415
#     4  11  23  44  73  99 138 188 226 281 349 417
#     4  11  25  46  73  99 144 182 232 286 345 420
#
# _framework density 22.858004999999999
#
# number of rings (size 3 to 8) (size 9 to 14) (size 15 to 20)
#    0.000    1.000    1.667    5.000    7.000    7.333 
#    0.000    0.000    0.000    0.000    0.000    0.000 
#    0.000    0.000    0.000    0.000    0.000    0.000 
#
# Total GULP energy -67010.625451 kJ/mol
# GULP energy per Si atom -5584.218788 kJ/mol
# Density = 2.280598 g / cm^3
# Si number density = 22.858005 Si / 1000 Ang^3
#
#
#
# Elastic Constant Matrix: (Units=GPa)
#
#
# Indices 1 2 3 4 5 6 
#
# 1 43.7897 65.7833 47.8874 17.3465 -18.1327 9.5156
# 2 65.7833 122.6834 44.8406 -32.3885 -14.0749 27.4646
# 3 47.8874 44.8406 153.0104 -9.8576 -32.2999 10.4336
# 4 17.3465 -32.3885 -9.8576 46.5330 3.3101 -7.2945
# 5 -18.1327 -14.0749 -32.2999 3.3101 44.9538 -11.4273
# 6 9.5156 27.4646 10.4336 -7.2945 -11.4273 47.2323
#
#
#
# Elastic Compliance Matrix: (Units=1/GPa)
#
#
# Indices 1 2 3 4 5 6 
#
# 1 -0.034799 0.025927 0.004323 0.031502 -0.006595 -0.005750
# 2 0.025927 -0.007072 -0.005995 -0.016382 0.004852 -0.001143
# 3 0.004323 -0.005995 0.007870 -0.004292 0.006278 0.001733
# 4 0.031502 -0.016382 -0.004292 -0.002169 0.005986 0.005240
# 5 -0.006595 0.004852 0.006278 0.005986 0.026294 0.004407
# 6 -0.005750 -0.001143 0.001733 0.005240 0.004407 0.024488
#
#
# Mechanical properties :
#
#
# Convention : Reuss Voigt Hill
#
# Bulk Modulus (GPa) = 68.92986 70.72289 69.82638
# Shear Modulus (GPa) = -172.05303 38.47529 -66.78887
#
# Velocity S-wave (km/s) = -8.68526 4.10717 -5.41133
# Velocity P-wave (km/s) = 8.38792 7.31431 2.90329
#
# Compressibility (1/GPa) = 0.01450750
#
# Stress axis : x y z
#
# Youngs Moduli (GPa) = -28.73627 -141.40065 127.06272
#
# Poissons Ratio (x) = 3.66606 -0.54923
# Poissons Ratio (y) = 0.74504 0.76174
# Poissons Ratio (z) = 0.12421 -0.84769
#
# Static dielectric constant tensor:
#      x y z
#    x 1.953030 -0.040790 -0.054450 
#    y -0.040790 1.997650 0.155580 
#    z -0.054450 0.155580 1.888910 
# 
# From -- ./inp_files/204656.got.cif
#   From: 2010.05.17/outbox.ucp.g08.bks.cvg/sg2_103_cif.got.tgz:204656.got - 2010.06.11 11:32:03.
