data_PCOD9074697
_publ_section_title
;
Structure prediction by ZEFSAII (Michael W. Deem and Ramdas Pophale) SiO2 
 PCOD9074697
Probable space group: P -1
;
_chemical_formula_sum "Si O2"
_cell_formula_units_Z 16
_cell_length_a 12.000000
_cell_length_b 9.000000
_cell_length_c 9.000000
_cell_angle_alpha 80.000000
_cell_angle_beta 50.000000
_cell_angle_gamma 80.000000
_cell_volume 730.800219
_symmetry_space_group_name_H-M "P -1"
_symmetry_group_IT_number 2
_symmetry_cell_setting 'triclinic'
loop_
_space_group_symop_operation_xyz
x,y,z
-x,-y,-z
loop_
_atom_site_type_symbol
_atom_site_label
_atom_site_fract_x
_atom_site_fract_y
_atom_site_fract_z
Si Si1 0.784193 0.548305 0.537890
Si Si2 0.150895 0.764880 0.045113
Si Si3 0.173226 0.164788 0.750786
Si Si4 0.884523 0.562076 0.778758
Si Si5 0.362330 0.897321 0.622451
Si Si6 0.391655 0.720757 0.340209
Si Si7 0.844727 0.076706 0.679137
Si Si8 0.290624 0.176774 0.976276
O O1 0.783252 0.694734 0.408601
O O2 0.798015 0.586266 0.693360
O O3 0.652506 0.446789 0.630771
O O4 0.942157 0.457524 0.389672
O O5 0.164221 0.585367 0.071680
O O6 0.121095 0.815068 0.231579
O O7 0.000665 0.819590 0.080287
O O8 0.292871 0.829360 0.841451
O O9 0.260625 0.149408 0.833302
O O10 0.231352 0.010378 0.647267
O O11 0.839716 0.700427 0.895531
O O12 0.394540 0.759741 0.505346
O O13 0.500000 0.000000 0.500000
O O14 0.259720 0.827372 0.361669
O O15 0.550804 0.763485 0.142384
O O16 0.000000 0.000000 0.500000
O O17 0.742549 0.959584 0.864344
#
# Coordination Sequence:
#
# PCOD9074697 Si02
#       8
#     2   2   2   2   2   2   2   2
#     4  10  24  45  70  97 132 178 232 274 332 398
#     4  11  24  45  71  98 133 177 230 281 332 396
#     4  11  25  43  67 102 134 175 226 279 332 401
#     4  10  24  45  68  99 135 175 229 283 325 395
#     4  12  25  45  67 100 140 177 216 282 339 402
#     4  12  26  45  69  99 138 182 220 275 340 403
#     4  12  25  45  73 100 131 177 233 282 329 395
#     4  12  27  43  65 103 139 176 223 273 342 405
#
# _framework density 21.893808
#
# number of rings (size 3 to 8) (size 9 to 14) (size 15 to 20)
#    0.000    0.750    3.750    2.250   10.500    3.000 
#    0.000    0.000    0.000    0.000    0.000    0.000 
#    0.000    0.000    0.000    0.000    0.000    0.000 
#
# Total GULP energy -89383.109391 kJ/mol
# GULP energy per Si atom -5586.444337 kJ/mol
# Density = 2.184398 g / cm^3
# Si number density = 21.893808 Si / 1000 Ang^3
#
#
#
# Elastic Constant Matrix: (Units=GPa)
#
#
# Indices 1 2 3 4 5 6 
#
# 1 54.3249 -24.1876 15.8877 -15.2372 -1.9450 12.0296
# 2 -24.1876 33.7981 -4.5867 -14.1876 16.6465 1.8643
# 3 15.8877 -4.5867 63.6965 -15.7402 4.7730 -8.9935
# 4 -15.2372 -14.1876 -15.7402 39.0215 8.4031 -3.3491
# 5 -1.9450 16.6465 4.7730 8.4031 15.5181 -3.4034
# 6 12.0296 1.8643 -8.9935 -3.3491 -3.4034 24.3103
#
#
#
# Elastic Compliance Matrix: (Units=1/GPa)
#
#
# Indices 1 2 3 4 5 6 
#
# 1 0.007728 -0.024454 -0.012162 -0.019896 0.040958 -0.003455
# 2 -0.024454 -0.034198 -0.007672 -0.036497 0.059060 0.015125
# 3 -0.012162 -0.007672 0.020359 0.001298 0.002971 0.014733
# 4 -0.019896 -0.036497 0.001298 -0.002238 0.041557 0.018634
# 5 0.040958 0.059060 0.002971 0.041557 -0.021808 -0.021025
# 6 -0.003455 0.015125 0.014733 0.018634 -0.021025 0.046759
#
#
# Mechanical properties :
#
#
# Convention : Reuss Voigt Hill
#
# Bulk Modulus (GPa) = -10.56113 14.00516 1.72201
# Shear Modulus (GPa) = 67.92062 26.75038 47.33550
#
# Velocity S-wave (km/s) = 5.57585 3.49925 4.65483
# Velocity P-wave (km/s) = 6.05138 4.76834 5.44777
#
# Compressibility (1/GPa) = -0.09468684
#
# Stress axis : x y z
#
# Youngs Moduli (GPa) = 129.40581 -29.24171 49.11846
#
# Poissons Ratio (x) = -0.71508 0.59737
# Poissons Ratio (y) = 3.16451 0.37683
# Poissons Ratio (z) = 1.57381 -0.22434
#
# Static dielectric constant tensor:
#      x y z
#    x 2.030300 -0.341780 0.341860 
#    y -0.341780 2.295280 -0.418970 
#    z 0.341860 -0.418970 2.186000 
# 
# From -- ./inp_files/182543.got.cif
#   From: 2010.05.17/outbox.ucp.g08.bks.cvg/sg2_92_cif.got.tgz:182543.got - 2010.06.11 11:32:03.
