data_PCOD9074659
_publ_section_title
;
Structure prediction by ZEFSAII (Michael W. Deem and Ramdas Pophale) SiO2 
 PCOD9074659
Probable space group: P -1
;
_chemical_formula_sum "Si O2"
_cell_formula_units_Z 14
_cell_length_a 18.000000
_cell_length_b 9.000000
_cell_length_c 15.000000
_cell_angle_alpha 130.000000
_cell_angle_beta 20.000000
_cell_angle_gamma 130.000000
_cell_volume 629.659215
_symmetry_space_group_name_H-M "P -1"
_symmetry_group_IT_number 2
_symmetry_cell_setting 'triclinic'
loop_
_space_group_symop_operation_xyz
x,y,z
-x,-y,-z
loop_
_atom_site_type_symbol
_atom_site_label
_atom_site_fract_x
_atom_site_fract_y
_atom_site_fract_z
Si Si1 0.205403 0.924368 0.876570
Si Si2 0.276154 0.574701 0.997092
Si Si3 0.587251 0.298189 0.583124
Si Si4 0.785423 0.016881 0.484301
Si Si5 0.926492 0.135844 0.558270
Si Si6 0.838980 0.442089 0.525982
Si Si7 0.397414 0.688413 0.724267
O O1 0.225727 0.804252 0.715953
O O2 0.282832 0.783173 0.809521
O O3 0.387238 0.118957 0.747538
O O4 0.970507 0.975852 0.188985
O O5 0.275645 0.764124 0.134022
O O6 0.077532 0.429163 0.208948
O O7 0.490619 0.471131 0.707670
O O8 0.225180 0.625637 0.973378
O O9 0.666166 0.402445 0.626111
O O10 0.574893 0.861856 0.634664
O O11 0.868278 0.003269 0.486429
O O12 0.768158 0.251151 0.592474
O O13 0.112181 0.331942 0.406514
O O14 0.000000 0.000000 0.500000
O O15 0.500000 0.500000 0.500000
#
# Coordination Sequence:
#
# PCOD9074659 Si02
#       7
#     2   2   2   2   2   2   2
#     4  11  24  40  68  98 136 170 226 266 330 398
#     4  10  24  44  66  94 140 162 229 269 331 389
#     4  11  22  42  68 100 128 179 219 270 330 392
#     4  12  25  45  68  97 136 175 221 275 324 386
#     4  10  24  45  70  97 133 172 222 274 333 387
#     4  10  24  44  70  95 132 176 221 273 324 393
#     4  12  26  42  65 103 134 173 219 271 336 393
#
# _framework density 22.234248999999998
#
# number of rings (size 3 to 8) (size 9 to 14) (size 15 to 20)
#    0.857    0.286    4.286    1.286    4.000    1.714 
#    2.571    1.429    0.000    0.000    0.000    0.000 
#    0.000    0.000    0.000    0.000    0.000    0.000 
#
# Total GULP energy -78086.512511 kJ/mol
# GULP energy per Si atom -5577.608037 kJ/mol
# Density = 2.218364 g / cm^3
# Si number density = 22.234249 Si / 1000 Ang^3
#
#
#
# Elastic Constant Matrix: (Units=GPa)
#
#
# Indices 1 2 3 4 5 6 
#
# 1 60.8801 5.2165 -20.7839 -6.2791 -1.6366 -3.5747
# 2 5.2165 77.7025 -15.4485 12.8296 -8.3350 -0.9504
# 3 -20.7839 -15.4485 20.6101 14.9246 12.8457 -1.4610
# 4 -6.2791 12.8296 14.9246 21.9675 -0.6210 -6.1480
# 5 -1.6366 -8.3350 12.8457 -0.6210 23.6279 0.5912
# 6 -3.5747 -0.9504 -1.4610 -6.1480 0.5912 36.6162
#
#
#
# Elastic Compliance Matrix: (Units=1/GPa)
#
#
# Indices 1 2 3 4 5 6 
#
# 1 0.009181 -0.012401 -0.037960 0.037582 0.017760 0.005083
# 2 -0.012401 0.002860 -0.046038 0.027119 0.025863 0.001162
# 3 -0.037960 -0.046038 -0.172421 0.138236 0.078249 0.010166
# 4 0.037582 0.027119 0.138236 -0.054831 -0.064469 0.001723
# 5 0.017760 0.025863 0.078249 -0.064469 0.008577 -0.005436
# 6 0.005083 0.001162 0.010166 0.001723 -0.005436 0.028619
#
#
# Mechanical properties :
#
#
# Convention : Reuss Voigt Hill
#
# Bulk Modulus (GPa) = -2.83143 10.79566 3.98212
# Shear Modulus (GPa) = -48.57099 29.12291 -9.72404
#
# Velocity S-wave (km/s) = -4.67895 3.62307 -2.09355
# Velocity P-wave (km/s) = 5.51963 4.72950 2.01223
#
# Compressibility (1/GPa) = -0.35317892
#
# Stress axis : x y z
#
# Youngs Moduli (GPa) = 108.92041 349.66551 -5.79977
#
# Poissons Ratio (x) = 4.33635 -0.22016
# Poissons Ratio (y) = 1.35077 -0.26701
# Poissons Ratio (z) = 4.13465 16.09784
#
# Static dielectric constant tensor:
#      x y z
#    x 1.907950 -0.067310 -0.004300 
#    y -0.067310 1.821280 0.003640 
#    z -0.004300 0.003640 1.827860 
# 
# From -- ./inp_files/49006.got.cif
#   From: 2010.05.17/outbox.ucp.g08.bks.cvg/sg2_25_cif.got.tgz:49006.got - 2010.06.11 11:32:03.
