data_PCOD9074587
_publ_section_title
;
Structure prediction by ZEFSAII (Michael W. Deem and Ramdas Pophale) SiO2 
 PCOD9074587
Probable space group: P -1
;
_chemical_formula_sum "Si O2"
_cell_formula_units_Z 16
_cell_length_a 18.000000
_cell_length_b 6.000000
_cell_length_c 9.000000
_cell_angle_alpha 50.000000
_cell_angle_beta 100.000000
_cell_angle_gamma 90.000000
_cell_volume 725.212580
_symmetry_space_group_name_H-M "P -1"
_symmetry_group_IT_number 2
_symmetry_cell_setting 'triclinic'
loop_
_space_group_symop_operation_xyz
x,y,z
-x,-y,-z
loop_
_atom_site_type_symbol
_atom_site_label
_atom_site_fract_x
_atom_site_fract_y
_atom_site_fract_z
Si Si1 0.245071 0.797952 0.175671
Si Si2 0.663321 0.701199 0.371953
Si Si3 0.742947 0.244639 0.142539
Si Si4 0.878205 0.975989 0.480097
Si Si5 0.089701 0.670320 0.171315
Si Si6 0.367438 0.241729 0.001562
Si Si7 0.494103 0.147321 0.603918
Si Si8 0.991192 0.942234 0.272720
O O1 0.292895 0.579064 0.404742
O O2 0.155027 0.870329 0.152055
O O3 0.296327 0.058100 0.072197
O O4 0.238996 0.683380 0.052166
O O5 0.593231 0.857013 0.378998
O O6 0.725893 0.912996 0.280773
O O7 0.626722 0.675849 0.206027
O O8 0.807959 0.227171 0.301575
O O9 0.664473 0.454389 0.060218
O O10 0.863996 0.658162 0.670696
O O11 0.938984 0.055111 0.588588
O O12 0.920637 0.902382 0.369197
O O13 0.024119 0.710957 0.257106
O O14 0.044414 0.773343 0.960673
O O15 0.441984 0.054294 0.185116
O O16 0.500000 0.500000 0.500000
O O17 0.500000 0.000000 0.500000
#
# Coordination Sequence:
#
# PCOD9074587 Si02
#       8
#     2   2   2   2   2   2   2   2
#     4  11  23  44  66  99 141 180 233 289 354 428
#     4  11  25  46  74 102 141 188 238 284 361 427
#     4  11  25  42  68 101 139 186 230 297 352 432
#     4  11  22  42  63  94 133 175 232 287 354 423
#     4  11  22  42  65  91 132 178 227 291 355 422
#     4  11  27  45  72 106 140 185 240 286 361 429
#     4  12  27  50  81 111 154 196 242 303 365 434
#     4  10  24  40  61  95 128 175 230 287 359 424
#
# _framework density 22.062495999999999
#
# number of rings (size 3 to 8) (size 9 to 14) (size 15 to 20)
#    0.000    1.000    3.750    1.875    5.250    2.500 
#    9.000    0.000    0.000    0.000    0.000    0.000 
#    0.000    0.000    0.000    0.000    0.000    0.000 
#
# Total GULP energy -89168.572745 kJ/mol
# GULP energy per Si atom -5573.035797 kJ/mol
# Density = 2.201228 g / cm^3
# Si number density = 22.062496 Si / 1000 Ang^3
#
#
#
# Elastic Constant Matrix: (Units=GPa)
#
#
# Indices 1 2 3 4 5 6 
#
# 1 57.1016 -9.2271 12.3948 4.4217 12.2567 -1.9754
# 2 -9.2271 42.0102 36.0377 7.8560 -5.8710 -7.1061
# 3 12.3948 36.0377 164.4781 9.1074 25.5343 -4.2124
# 4 4.4217 7.8560 9.1074 33.1999 -0.7091 2.2402
# 5 12.2567 -5.8710 25.5343 -0.7091 57.0443 6.5323
# 6 -1.9754 -7.1061 -4.2124 2.2402 6.5323 33.6477
#
#
#
# Elastic Compliance Matrix: (Units=1/GPa)
#
#
# Indices 1 2 3 4 5 6 
#
# 1 0.020294 0.007411 -0.002382 -0.004089 -0.002961 0.003305
# 2 0.007411 0.036104 -0.008694 -0.007471 0.005182 0.006463
# 3 -0.002382 -0.008694 0.008846 -0.000144 -0.004343 -0.000016
# 4 -0.004089 -0.007471 -0.000144 0.032780 0.001065 -0.004225
# 5 -0.002961 0.005182 -0.004343 0.001065 0.021091 -0.003788
# 6 0.003305 0.006463 -0.000016 -0.004225 -0.003788 0.032293
#
#
# Mechanical properties :
#
#
# Convention : Reuss Voigt Hill
#
# Bulk Modulus (GPa) = 17.26737 38.00007 27.63372
# Shear Modulus (GPa) = 28.08291 39.73734 33.91012
#
# Velocity S-wave (km/s) = 3.57161 4.24857 3.92472
# Velocity P-wave (km/s) = 4.98519 6.42871 5.75241
#
# Compressibility (1/GPa) = 0.05791269
#
# Stress axis : x y z
#
# Youngs Moduli (GPa) = 49.27610 27.69750 113.04471
#
# Poissons Ratio (x) = -0.20527 0.26932
# Poissons Ratio (y) = -0.36519 0.98286
# Poissons Ratio (z) = 0.11740 0.24081
#
# Static dielectric constant tensor:
#      x y z
#    x 1.834530 0.014520 -0.061380 
#    y 0.014520 1.865440 -0.020060 
#    z -0.061380 -0.020060 1.842160 
# 
# From -- ./inp_files/47729.got.cif
#   From: 2010.05.17/outbox.ucp.g08.bks.cvg/sg2_24_cif.got.tgz:47729.got - 2010.06.11 11:32:03.
