data_PCOD9074995
_publ_section_title
;
Structure prediction by ZEFSAII (Michael W. Deem and Ramdas Pophale) SiO2 
 PCOD9074995
Probable space group: P -1
;
_chemical_formula_sum "Si O2"
_cell_formula_units_Z 16
_cell_length_a 12.000000
_cell_length_b 9.000000
_cell_length_c 15.000000
_cell_angle_alpha 110.000000
_cell_angle_beta 70.000000
_cell_angle_gamma 50.000000
_cell_volume 728.972637
_symmetry_space_group_name_H-M "P -1"
_symmetry_group_IT_number 2
_symmetry_cell_setting 'triclinic'
loop_
_space_group_symop_operation_xyz
x,y,z
-x,-y,-z
loop_
_atom_site_type_symbol
_atom_site_label
_atom_site_fract_x
_atom_site_fract_y
_atom_site_fract_z
Si Si1 0.881001 0.220673 0.408759
Si Si2 0.467809 0.375193 0.245045
Si Si3 0.550192 0.756566 0.464617
Si Si4 0.926160 0.659132 0.196612
Si Si5 0.996698 0.279679 0.995542
Si Si6 0.854562 0.819174 0.578536
Si Si7 0.405640 0.427532 0.780172
Si Si8 0.909156 0.349508 0.704287
O O1 0.690306 0.438956 0.585315
O O2 0.757592 0.447684 0.405323
O O3 0.078679 0.116780 0.361277
O O4 0.989868 0.918613 0.323384
O O5 0.483889 0.528662 0.228766
O O6 0.338243 0.409359 0.219700
O O7 0.730177 0.035377 0.128198
O O8 0.581356 0.624480 0.338347
O O9 0.500000 0.000000 0.500000
O O10 0.318418 0.987674 0.632651
O O11 0.892747 0.518803 0.146098
O O12 0.091211 0.498303 0.201727
O O13 0.034960 0.618966 0.073532
O O14 0.849331 0.292091 0.052144
O O15 0.000000 0.500000 0.500000
O O16 0.928461 0.793691 0.454224
O O17 0.580254 0.102741 0.711708
#
# Coordination Sequence:
#
# PCOD9074995 Si02
#       8
#     2   2   2   2   2   2   2   2
#     4  11  22  41  70 101 132 174 220 283 335 380
#     4  11  22  44  65  96 132 182 218 265 338 404
#     4  12  23  40  71 102 129 167 230 280 320 385
#     4  11  24  44  64  97 133 176 222 268 335 400
#     4  11  26  41  66  94 139 179 211 273 340 397
#     4  11  22  37  69 104 135 167 217 284 334 380
#     4  12  23  43  68 101 134 167 226 279 329 391
#     4  11  23  44  70  95 132 176 228 273 328 394
#
# _framework density 21.948698
#
# number of rings (size 3 to 8) (size 9 to 14) (size 15 to 20)
#    0.000    0.750    6.250    1.875    1.750    2.500 
#    0.000    1.875    0.000    0.000    0.000    0.000 
#    0.000    0.000    0.000    0.000    0.000    0.000 
#
# Total GULP energy -89249.044591 kJ/mol
# GULP energy per Si atom -5578.065287 kJ/mol
# Density = 2.189874 g / cm^3
# Si number density = 21.948698 Si / 1000 Ang^3
#
#
#
# Elastic Constant Matrix: (Units=GPa)
#
#
# Indices 1 2 3 4 5 6 
#
# 1 63.2240 11.5205 5.5508 -14.5741 -22.1479 -13.2211
# 2 11.5205 78.3801 -25.0675 2.6423 -14.3159 -0.5601
# 3 5.5508 -25.0675 26.2130 -2.0462 -18.0557 -11.7397
# 4 -14.5741 2.6423 -2.0462 11.2574 -6.0712 -0.3056
# 5 -22.1479 -14.3159 -18.0557 -6.0712 20.5014 7.7651
# 6 -13.2211 -0.5601 -11.7397 -0.3056 7.7651 29.7971
#
#
#
# Elastic Compliance Matrix: (Units=1/GPa)
#
#
# Indices 1 2 3 4 5 6 
#
# 1 0.016816 -0.016956 -0.032997 0.009041 -0.019831 -0.000597
# 2 -0.016956 0.013639 0.001076 -0.034148 -0.016903 -0.002789
# 3 -0.032997 0.001076 0.008300 -0.067124 -0.047602 0.000366
# 4 0.009041 -0.034148 -0.067124 0.069711 -0.048909 -0.009616
# 5 -0.019831 -0.016903 -0.047602 -0.048909 -0.033408 -0.019667
# 6 -0.000597 -0.002789 0.000366 -0.009616 -0.019667 0.038414
#
#
# Mechanical properties :
#
#
# Convention : Reuss Voigt Hill
#
# Bulk Modulus (GPa) = -16.94925 16.86940 -0.03993
# Shear Modulus (GPa) = 26.10162 24.03206 25.06684
#
# Velocity S-wave (km/s) = 3.45223 3.31255 3.38311
# Velocity P-wave (km/s) = 2.85510 4.72580 3.90415
#
# Compressibility (1/GPa) = -0.05899965
#
# Stress axis : x y z
#
# Youngs Moduli (GPa) = 59.46831 73.32182 120.48013
#
# Poissons Ratio (x) = 1.24322 3.97546
# Poissons Ratio (y) = 1.00833 -0.12958
# Poissons Ratio (z) = 1.96227 -0.07886
#
# Static dielectric constant tensor:
#      x y z
#    x 1.845530 0.002910 -0.005660 
#    y 0.002910 1.853330 0.048050 
#    z -0.005660 0.048050 1.786130 
# 
# From -- ./inp_files/177786.got.cif
#   From: 2010.05.17/outbox.ucp.g08.bks.cvg/sg2_89_cif.got.tgz:177786.got - 2010.06.11 11:32:03.
