data_PCOD9074140
_publ_section_title
;
Structure prediction by ZEFSAII (Michael W. Deem and Ramdas Pophale) SiO2 
 PCOD9074140
Probable space group: P -1
;
_chemical_formula_sum "Si O2"
_cell_formula_units_Z 12
_cell_length_a 9.000000
_cell_length_b 9.000000
_cell_length_c 12.000000
_cell_angle_alpha 50.000000
_cell_angle_beta 50.000000
_cell_angle_gamma 50.000000
_cell_volume 524.916880
_symmetry_space_group_name_H-M "P -1"
_symmetry_group_IT_number 2
_symmetry_cell_setting 'triclinic'
loop_
_space_group_symop_operation_xyz
x,y,z
-x,-y,-z
loop_
_atom_site_type_symbol
_atom_site_label
_atom_site_fract_x
_atom_site_fract_y
_atom_site_fract_z
Si Si1 0.218940 0.936573 0.001273
Si Si2 0.831619 0.700785 0.547968
Si Si3 0.846036 0.296971 0.422630
Si Si4 0.490689 0.492932 0.835203
Si Si5 0.545114 0.741181 0.264827
Si Si6 0.876721 0.107331 0.255341
O O1 0.385713 0.691071 0.045050
O O2 0.106982 0.991944 0.148726
O O3 0.357317 0.080616 0.855049
O O4 0.000000 0.000000 0.000000
O O5 0.638204 0.626990 0.686625
O O6 0.000000 0.500000 0.500000
O O7 0.951335 0.723594 0.592155
O O8 0.784950 0.923282 0.400077
O O9 0.702943 0.544562 0.355942
O O10 0.689878 0.201913 0.601706
O O11 0.892026 0.196918 0.326373
O O12 0.464780 0.356533 0.806300
O O13 0.262136 0.690093 0.851322
#
# Coordination Sequence:
#
# PCOD9074140 Si02
#       6
#     2   2   2   2   2   2
#     4  12  26  45  70  98 141 184 225 285 347 401
#     4  12  21  41  73 102 138 177 227 280 340 402
#     4  10  22  42  72 104 133 181 228 280 339 405
#     4  11  24  43  68 103 138 180 228 282 340 405
#     4  10  22  42  70 101 140 178 226 280 346 403
#     4  11  26  44  70 102 137 180 232 281 338 407
#
# _framework density 22.860762000000001
#
# number of rings (size 3 to 8) (size 9 to 14) (size 15 to 20)
#    0.000    1.000    3.333    2.500    0.000    4.667 
#    0.000    3.333    0.000    0.000    0.000    0.000 
#    0.000    0.000    0.000    0.000    0.000    0.000 
#
# Total GULP energy -67049.124985 kJ/mol
# GULP energy per Si atom -5587.427082 kJ/mol
# Density = 2.280873 g / cm^3
# Si number density = 22.860762 Si / 1000 Ang^3
#
#
#
# Elastic Constant Matrix: (Units=GPa)
#
#
# Indices 1 2 3 4 5 6 
#
# 1 123.1319 28.4037 29.6718 -19.4690 -6.5179 1.9020
# 2 28.4037 143.2304 34.2918 -29.0643 5.8051 -8.1365
# 3 29.6718 34.2918 87.9142 -33.1379 -19.6540 11.6432
# 4 -19.4690 -29.0643 -33.1379 49.8361 5.1627 4.8331
# 5 -6.5179 5.8051 -19.6540 5.1627 49.9704 -13.2233
# 6 1.9020 -8.1365 11.6432 4.8331 -13.2233 44.5333
#
#
#
# Elastic Compliance Matrix: (Units=1/GPa)
#
#
# Indices 1 2 3 4 5 6 
#
# 1 0.009110 -0.001026 -0.001967 0.001632 0.000327 -0.000142
# 2 -0.001026 0.008552 -0.002489 0.003019 -0.002070 0.001315
# 3 -0.001967 -0.002489 0.018568 0.010076 0.005017 -0.004829
# 4 0.001632 0.003019 0.010076 0.029783 -0.000735 -0.005603
# 5 0.000327 -0.002070 0.005017 -0.000735 0.023783 0.005438
# 6 -0.000142 0.001315 -0.004829 -0.005603 0.005438 0.026187
#
#
# Mechanical properties :
#
#
# Convention : Reuss Voigt Hill
#
# Bulk Modulus (GPa) = 39.57678 59.89014 49.73346
# Shear Modulus (GPa) = 36.93619 46.32856 41.63237
#
# Velocity S-wave (km/s) = 4.02394 4.50661 4.27210
# Velocity P-wave (km/s) = 6.24012 7.30302 6.79239
#
# Compressibility (1/GPa) = 0.02526734
#
# Stress axis : x y z
#
# Youngs Moduli (GPa) = 109.77372 116.92924 53.85508
#
# Poissons Ratio (x) = 0.11992 0.10594
# Poissons Ratio (y) = 0.11259 0.13402
# Poissons Ratio (z) = 0.21595 0.29099
#
# Static dielectric constant tensor:
#      x y z
#    x 1.891510 -0.018390 0.057510 
#    y -0.018390 1.851880 0.012140 
#    z 0.057510 0.012140 1.901150 
# 
# From -- ./inp_files/148572.got.cif
#   From: 2010.05.17/outbox.ucp.g08.bks.cvg/sg2_75_cif.got.tgz:148572.got - 2010.06.11 11:32:03.
