data_PCOD9074168
_publ_section_title
;
Structure prediction by ZEFSAII (Michael W. Deem and Ramdas Pophale) SiO2 
 PCOD9074168
Probable space group: P -1
;
_chemical_formula_sum "Si O2"
_cell_formula_units_Z 15
_cell_length_a 15.000000
_cell_length_b 15.000000
_cell_length_c 9.000000
_cell_angle_alpha 110.000000
_cell_angle_beta 50.000000
_cell_angle_gamma 150.000000
_cell_volume 642.379314
_symmetry_space_group_name_H-M "P -1"
_symmetry_group_IT_number 2
_symmetry_cell_setting 'triclinic'
loop_
_space_group_symop_operation_xyz
x,y,z
-x,-y,-z
loop_
_atom_site_type_symbol
_atom_site_label
_atom_site_fract_x
_atom_site_fract_y
_atom_site_fract_z
Si Si1 0.901049 0.067967 0.577164
Si Si2 0.000000 0.500000 0.500000
Si Si3 0.121887 0.018134 0.762391
Si Si4 0.513062 0.761913 0.092625
Si Si5 0.802793 0.110808 0.217391
Si Si6 0.652476 0.066246 0.669894
Si Si7 0.661017 0.471162 0.572213
Si Si8 0.941103 0.347830 0.944845
O O1 0.947074 0.032148 0.366592
O O2 0.751617 0.046503 0.641036
O O3 0.718722 0.901390 0.815829
O O4 0.180242 0.313698 0.477255
O O5 0.762528 0.398034 0.759181
O O6 0.842095 0.292984 0.613053
O O7 0.425976 0.273127 0.598260
O O8 0.054771 0.867004 0.824690
O O9 0.000000 0.000000 0.000000
O O10 0.444010 0.625376 0.202743
O O11 0.624127 0.921406 0.183416
O O12 0.644348 0.043087 0.484505
O O13 0.959236 0.297693 0.048734
O O14 0.357555 0.877358 0.918968
O O15 0.874919 0.553864 0.327490
O O16 0.000000 0.500000 0.000000
#
# Coordination Sequence:
#
# PCOD9074168 Si02
#       8
#     2   1   2   2   2   2   2   2
#     4  11  23  45  67 100 136 174 224 281 337 412
#     4  12  22  32  60  92 140 184 218 258 320 394
#     4  10  25  50  74  97 126 168 233 298 355 405
#     4  11  23  40  62  94 143 176 223 270 326 401
#     4  10  22  43  63  93 135 177 223 283 324 396
#     4  11  24  37  61  99 138 182 231 264 326 406
#     4  11  24  44  67  98 137 180 220 285 337 399
#     4  12  23  37  66  97 143 189 227 259 328 404
#
# _framework density 23.35069
#
# number of rings (size 3 to 8) (size 9 to 14) (size 15 to 20)
#    0.000    1.067    4.000    2.800    3.733    2.667 
#    0.000    3.333    0.000    0.000    0.000    0.000 
#    0.000    0.000    0.000    0.000    0.000    0.000 
#
# Total GULP energy -83538.191470 kJ/mol
# GULP energy per Si atom -5569.212765 kJ/mol
# Density = 2.329754 g / cm^3
# Si number density = 23.350690 Si / 1000 Ang^3
#
#
#
# Elastic Constant Matrix: (Units=GPa)
#
#
# Indices 1 2 3 4 5 6 
#
# 1 44.9644 11.3581 19.1706 -10.6993 15.2683 -1.5995
# 2 11.3581 83.1029 57.0196 -6.4805 12.1582 0.0564
# 3 19.1706 57.0196 124.5226 -8.6419 28.4595 -14.6487
# 4 -10.6993 -6.4805 -8.6419 34.6389 -7.6968 17.5269
# 5 15.2683 12.1582 28.4595 -7.6968 32.5305 4.8838
# 6 -1.5995 0.0564 -14.6487 17.5269 4.8838 19.9872
#
#
#
# Elastic Compliance Matrix: (Units=1/GPa)
#
#
# Indices 1 2 3 4 5 6 
#
# 1 0.027981 -0.000398 -0.002249 0.008773 -0.008175 -0.005103
# 2 -0.000398 0.023137 -0.017244 0.022195 0.017347 -0.036437
# 3 -0.002249 -0.017244 0.029056 -0.035263 -0.035381 0.060732
# 4 0.008773 0.022195 -0.035263 0.112394 0.066033 -0.139899
# 5 -0.008175 0.017347 -0.035381 0.066033 0.090690 -0.106699
# 6 -0.005103 -0.036437 0.060732 -0.139899 -0.106699 0.242987
#
#
# Mechanical properties :
#
#
# Convention : Reuss Voigt Hill
#
# Bulk Modulus (GPa) = 24.75644 47.52070 36.13857
# Shear Modulus (GPa) = 8.62826 28.43410 18.53118
#
# Velocity S-wave (km/s) = 1.92434 3.49334 2.82015
# Velocity P-wave (km/s) = 3.94493 6.05527 5.11022
#
# Compressibility (1/GPa) = 0.04039353
#
# Stress axis : x y z
#
# Youngs Moduli (GPa) = 35.73848 43.22098 34.41583
#
# Poissons Ratio (x) = 0.01719 0.07739
# Poissons Ratio (y) = 0.01422 0.59347
# Poissons Ratio (z) = 0.08036 0.74530
#
# Static dielectric constant tensor:
#      x y z
#    x 1.934220 0.021910 -0.056720 
#    y 0.021910 1.952190 0.026690 
#    z -0.056720 0.026690 1.885920 
# 
# From -- ./inp_files/315553.got.cif
#   From: 2010.05.17/outbox.ucp.g08.bks.cvg/sg2_158_cif.got.tgz:315553.got - 2010.06.11 11:32:03.
