data_PCOD9074526
_publ_section_title
;
Structure prediction by ZEFSAII (Michael W. Deem and Ramdas Pophale) SiO2 
 PCOD9074526
Probable space group: P -1
;
_chemical_formula_sum "Si O2"
_cell_formula_units_Z 16
_cell_length_a 15.000000
_cell_length_b 15.000000
_cell_length_c 6.000000
_cell_angle_alpha 50.000000
_cell_angle_beta 100.000000
_cell_angle_gamma 130.000000
_cell_volume 723.213253
_symmetry_space_group_name_H-M "P -1"
_symmetry_group_IT_number 2
_symmetry_cell_setting 'triclinic'
loop_
_space_group_symop_operation_xyz
x,y,z
-x,-y,-z
loop_
_atom_site_type_symbol
_atom_site_label
_atom_site_fract_x
_atom_site_fract_y
_atom_site_fract_z
Si Si1 0.378243 0.968643 0.918921
Si Si2 0.180281 0.167450 0.457218
Si Si3 0.935144 0.078663 0.589640
Si Si4 0.719402 0.502238 0.155918
Si Si5 0.282207 0.660041 0.196458
Si Si6 0.316055 0.139860 0.885696
Si Si7 0.068224 0.437021 0.121505
Si Si8 0.506192 0.236820 0.169413
O O1 0.331068 0.021705 0.989142
O O2 0.416213 0.080185 0.542666
O O3 0.500000 0.000000 0.000000
O O4 0.274240 0.777571 0.120270
O O5 0.300900 0.219166 0.551725
O O6 0.065532 0.124529 0.617764
O O7 0.114256 0.009253 0.531343
O O8 0.224359 0.318384 0.087679
O O9 0.967604 0.243696 0.356147
O O10 0.818248 0.957535 0.898171
O O11 0.674271 0.403619 0.520625
O O12 0.603190 0.399468 0.098713
O O13 0.825109 0.504375 0.109915
O O14 0.151303 0.505331 0.273177
O O15 0.398499 0.769129 0.897304
O O16 0.426209 0.242453 0.954175
O O17 0.000000 0.500000 0.000000
#
# Coordination Sequence:
#
# PCOD9074526 Si02
#       8
#     2   2   2   2   2   2   2   2
#     4  12  24  42  68 100 138 179 216 271 338 406
#     4  10  24  47  69  95 136 177 231 274 324 394
#     4  10  24  45  68  96 134 179 227 274 328 390
#     4  10  23  45  67  97 134 179 218 277 335 391
#     4  11  24  42  68  95 137 178 216 272 337 394
#     4  12  25  39  71 102 130 181 224 273 332 397
#     4  10  25  40  66 100 136 169 221 280 335 396
#     4  11  23  42  66 102 131 170 222 269 339 395
#
# _framework density 22.123487999999998
#
# number of rings (size 3 to 8) (size 9 to 14) (size 15 to 20)
#    0.000    1.250    2.500    1.500    5.250    7.000 
#    0.000    4.375    0.000    0.000    0.000    0.000 
#    0.000    0.000    0.000    0.000    0.000    0.000 
#
# Total GULP energy -89317.378029 kJ/mol
# GULP energy per Si atom -5582.336127 kJ/mol
# Density = 2.207313 g / cm^3
# Si number density = 22.123488 Si / 1000 Ang^3
#
#
#
# Elastic Constant Matrix: (Units=GPa)
#
#
# Indices 1 2 3 4 5 6 
#
# 1 107.8940 28.2176 17.2471 4.1900 26.2509 -1.9105
# 2 28.2176 102.3024 22.2165 -12.1778 18.5253 -2.9384
# 3 17.2471 22.2165 27.6162 -7.8001 -1.9382 1.7087
# 4 4.1900 -12.1778 -7.8001 27.3392 -0.0165 9.2390
# 5 26.2509 18.5253 -1.9382 -0.0165 24.6798 2.8451
# 6 -1.9105 -2.9384 1.7087 9.2390 2.8451 32.6411
#
#
#
# Elastic Compliance Matrix: (Units=1/GPa)
#
#
# Indices 1 2 3 4 5 6 
#
# 1 0.017185 0.001995 -0.016726 -0.008702 -0.021837 0.006428
# 2 0.001995 0.015369 -0.014504 0.001308 -0.015167 0.003211
# 3 -0.016726 -0.014504 0.067482 0.020340 0.035683 -0.014685
# 4 -0.008702 0.001308 0.020340 0.049919 0.011821 -0.016616
# 5 -0.021837 -0.015167 0.035683 0.011821 0.079647 -0.014800
# 6 0.006428 0.003211 -0.014685 -0.016616 -0.014800 0.038063
#
#
# Mechanical properties :
#
#
# Convention : Reuss Voigt Hill
#
# Bulk Modulus (GPa) = 24.05733 41.46387 32.76060
# Shear Modulus (GPa) = 14.70634 28.27411 21.49023
#
# Velocity S-wave (km/s) = 2.58105 3.57881 3.12007
# Velocity P-wave (km/s) = 4.44749 5.98831 5.27447
#
# Compressibility (1/GPa) = 0.04156736
#
# Stress axis : x y z
#
# Youngs Moduli (GPa) = 58.19055 65.06771 14.81876
#
# Poissons Ratio (x) = -0.12983 0.24786
# Poissons Ratio (y) = -0.11610 0.21492
# Poissons Ratio (z) = 0.97328 0.94371
#
# Static dielectric constant tensor:
#      x y z
#    x 1.776260 -0.007010 -0.048950 
#    y -0.007010 1.862590 0.064790 
#    z -0.048950 0.064790 1.879690 
# 
# From -- ./inp_files/97505.got.cif
#   From: 2010.05.17/outbox.ucp.g08.bks.cvg/sg2_49_cif.got.tgz:97505.got - 2010.06.11 11:32:03.
