data_PCOD9074888
_publ_section_title
;
Structure prediction by ZEFSAII (Michael W. Deem and Ramdas Pophale) SiO2 
 PCOD9074888
Probable space group: P -1
;
_chemical_formula_sum "Si O2"
_cell_formula_units_Z 12
_cell_length_a 6.000000
_cell_length_b 9.000000
_cell_length_c 12.000000
_cell_angle_alpha 120.000000
_cell_angle_beta 70.000000
_cell_angle_gamma 90.000000
_cell_volume 515.566255
_symmetry_space_group_name_H-M "P -1"
_symmetry_group_IT_number 2
_symmetry_cell_setting 'triclinic'
loop_
_space_group_symop_operation_xyz
x,y,z
-x,-y,-z
loop_
_atom_site_type_symbol
_atom_site_label
_atom_site_fract_x
_atom_site_fract_y
_atom_site_fract_z
Si Si1 0.902491 0.249319 0.213612
Si Si2 0.436337 0.892800 0.641918
Si Si3 0.159936 0.113396 0.577348
Si Si4 0.722000 0.091434 0.962659
Si Si5 0.536879 0.723839 0.128008
Si Si6 0.850269 0.464759 0.822122
O O1 0.666750 0.254242 0.330861
O O2 0.044597 0.406073 0.231707
O O3 0.824100 0.187464 0.082997
O O4 0.076451 0.075852 0.170372
O O5 0.702064 0.818115 0.522786
O O6 0.301222 0.966048 0.580105
O O7 0.427955 0.081004 0.775511
O O8 0.050422 0.286239 0.732010
O O9 0.000000 0.000000 0.500000
O O10 0.636852 0.229856 0.932855
O O11 0.500000 0.000000 0.000000
O O12 0.387441 0.619841 0.197043
O O13 0.768860 0.589234 0.989597
#
# Coordination Sequence:
#
# PCOD9074888 Si02
#       6
#     2   2   2   2   2   2
#     4  11  23  38  66 102 129 170 215 271 320 383
#     4  11  24  44  71  91 127 181 218 253 338 392
#     4  11  25  48  67  90 131 181 218 263 323 399
#     4  11  20  40  64  98 141 168 205 262 340 387
#     4  11  22  41  70  98 129 173 211 271 323 388
#     4  11  24  40  66 102 131 162 225 272 320 370
#
# _framework density 23.275379000000001
#
# number of rings (size 3 to 8) (size 9 to 14) (size 15 to 20)
#    0.000    1.000    5.000    2.000    0.000    4.667 
#    0.000    0.833    0.000    0.000    0.000    0.000 
#    0.000    0.000    0.000    0.000    0.000    0.000 
#
# Total GULP energy -66877.293565 kJ/mol
# GULP energy per Si atom -5573.107797 kJ/mol
# Density = 2.322240 g / cm^3
# Si number density = 23.275379 Si / 1000 Ang^3
#
#
#
# Elastic Constant Matrix: (Units=GPa)
#
#
# Indices 1 2 3 4 5 6 
#
# 1 43.9165 32.3979 15.6856 -10.5224 -6.9217 19.9174
# 2 32.3979 128.1239 18.1011 -16.0745 -11.1219 41.0735
# 3 15.6856 18.1011 59.3183 -2.6059 -13.3010 16.3707
# 4 -10.5224 -16.0745 -2.6059 34.9606 9.7525 -17.3593
# 5 -6.9217 -11.1219 -13.3010 9.7525 30.0264 -14.7500
# 6 19.9174 41.0735 16.3707 -17.3593 -14.7500 49.2050
#
#
#
# Elastic Compliance Matrix: (Units=1/GPa)
#
#
# Indices 1 2 3 4 5 6 
#
# 1 0.031847 -0.005011 -0.005373 0.004352 -0.001119 -0.005720
# 2 -0.005011 0.011524 -0.000247 0.000185 -0.000836 -0.007695
# 3 -0.005373 -0.000247 0.020881 -0.004126 0.007390 -0.003806
# 4 0.004352 0.000185 -0.004126 0.036893 -0.007754 0.010148
# 5 -0.001119 -0.000836 0.007390 -0.007754 0.042852 0.008802
# 6 -0.005720 -0.007695 -0.003806 0.010148 0.008802 0.036547
#
#
# Mechanical properties :
#
#
# Convention : Reuss Voigt Hill
#
# Bulk Modulus (GPa) = 23.26174 40.41422 31.83798
# Shear Modulus (GPa) = 23.13349 33.85002 28.49176
#
# Velocity S-wave (km/s) = 3.15604 3.81770 3.50253
# Velocity P-wave (km/s) = 4.82666 6.06913 5.48320
#
# Compressibility (1/GPa) = 0.04298905
#
# Stress axis : x y z
#
# Youngs Moduli (GPa) = 31.39983 86.77302 47.89126
#
# Poissons Ratio (x) = 0.43483 0.25733
# Poissons Ratio (y) = 0.15735 0.01185
# Poissons Ratio (z) = 0.16872 0.02146
#
# Static dielectric constant tensor:
#      x y z
#    x 2.136200 0.020960 -0.136550 
#    y 0.020960 1.816000 -0.039910 
#    z -0.136550 -0.039910 1.966180 
# 
# From -- ./inp_files/25637.got.cif
#   From: 2010.05.17/outbox.ucp.g08.bks.cvg/sg2_13_cif.got.tgz:25637.got - 2010.06.11 11:32:03.
