data_PCOD9074468
_publ_section_title
;
Structure prediction by ZEFSAII (Michael W. Deem and Ramdas Pophale) SiO2 
 PCOD9074468
Probable space group: P -1
;
_chemical_formula_sum "Si O2"
_cell_formula_units_Z 16
_cell_length_a 15.000000
_cell_length_b 12.000000
_cell_length_c 15.000000
_cell_angle_alpha 40.000000
_cell_angle_beta 140.000000
_cell_angle_gamma 150.000000
_cell_volume 822.330465
_symmetry_space_group_name_H-M "P -1"
_symmetry_group_IT_number 2
_symmetry_cell_setting 'triclinic'
loop_
_space_group_symop_operation_xyz
x,y,z
-x,-y,-z
loop_
_atom_site_type_symbol
_atom_site_label
_atom_site_fract_x
_atom_site_fract_y
_atom_site_fract_z
Si Si1 0.728644 0.692246 0.065137
Si Si2 0.463703 0.638360 0.452969
Si Si3 0.891418 0.141948 0.814391
Si Si4 0.355508 0.953107 0.792057
Si Si5 0.467029 0.243016 0.881997
Si Si6 0.922798 0.571266 0.632177
Si Si7 0.117892 0.178075 0.708843
Si Si8 0.278458 0.210421 0.271890
O O1 0.779743 0.667754 0.217829
O O2 0.884825 0.717569 0.110255
O O3 0.500000 0.500000 0.000000
O O4 0.800656 0.949704 0.942192
O O5 0.500000 0.500000 0.500000
O O6 0.244283 0.497141 0.389779
O O7 0.566294 0.715284 0.580965
O O8 0.561809 0.881460 0.331167
O O9 0.879516 0.337915 0.706147
O O10 0.780250 0.968841 0.746217
O O11 0.128486 0.747579 0.730184
O O12 0.427535 0.131967 0.820998
O O13 0.455605 0.852658 0.943406
O O14 0.265893 0.158351 0.802665
O O15 0.625418 0.526375 0.843109
O O16 0.919446 0.704266 0.464931
O O17 0.917415 0.933218 0.736863
#
# Coordination Sequence:
#
# PCOD9074468 Si02
#       8
#     2   2   2   2   2   2   2   2
#     4  10  23  43  69  95 136 187 227 277 343 413
#     4  12  25  46  72 104 138 188 229 284 355 405
#     4  10  26  44  65 105 139 183 229 284 348 404
#     4  11  27  44  69 104 138 179 232 295 340 418
#     4  11  25  46  69 101 138 179 236 284 352 407
#     4  12  27  44  69 106 145 176 235 291 339 419
#     4  11  24  42  70 101 130 192 224 284 351 402
#     4  11  23  45  70  96 143 178 230 285 334 423
#
# _framework density 19.456897999999999
#
# number of rings (size 3 to 8) (size 9 to 14) (size 15 to 20)
#    0.000    1.000    3.750    0.750   10.500    3.500 
#    0.000    2.500    0.000    0.000    0.000    0.000 
#    0.000    0.000    0.000    0.000    0.000    0.000 
#
# Total GULP energy -89225.009462 kJ/mol
# GULP energy per Si atom -5576.563091 kJ/mol
# Density = 1.941261 g / cm^3
# Si number density = 19.456898 Si / 1000 Ang^3
#
#
#
# Elastic Constant Matrix: (Units=GPa)
#
#
# Indices 1 2 3 4 5 6 
#
# 1 79.6983 38.1706 35.9207 -16.4049 21.5196 2.4300
# 2 38.1706 123.9557 37.4403 7.6467 13.1793 4.4288
# 3 35.9207 37.4403 118.4030 7.2555 11.7291 -1.8086
# 4 -16.4049 7.6467 7.2555 36.0015 2.9746 -1.3485
# 5 21.5196 13.1793 11.7291 2.9746 30.3355 10.2037
# 6 2.4300 4.4288 -1.8086 -1.3485 10.2037 41.3178
#
#
#
# Elastic Compliance Matrix: (Units=1/GPa)
#
#
# Indices 1 2 3 4 5 6 
#
# 1 0.024601 -0.005410 -0.005055 0.014797 -0.015699 0.003272
# 2 -0.005410 0.010419 -0.001468 -0.004486 0.000717 -0.001186
# 3 -0.005055 -0.001468 0.010683 -0.004138 0.000255 0.000724
# 4 0.014797 -0.004486 -0.004138 0.037416 -0.011817 0.003569
# 5 -0.015699 0.000717 0.000255 -0.011817 0.048740 -0.011565
# 6 0.003272 -0.001186 0.000724 0.003569 -0.011565 0.027142
#
#
# Mechanical properties :
#
#
# Convention : Reuss Voigt Hill
#
# Bulk Modulus (GPa) = 45.78878 60.56894 53.17886
# Shear Modulus (GPa) = 26.29579 35.56599 30.93089
#
# Velocity S-wave (km/s) = 3.68025 4.28008 3.99145
# Velocity P-wave (km/s) = 6.45318 7.45807 6.97375
#
# Compressibility (1/GPa) = 0.02183941
#
# Stress axis : x y z
#
# Youngs Moduli (GPa) = 40.64835 95.97449 93.60930
#
# Poissons Ratio (x) = 0.51918 0.47315
# Poissons Ratio (y) = 0.21989 0.13741
# Poissons Ratio (z) = 0.20546 0.14088
#
# Static dielectric constant tensor:
#      x y z
#    x 1.741420 -0.009350 -0.038500 
#    y -0.009350 1.671410 0.004830 
#    z -0.038500 0.004830 1.715110 
# 
# From -- ./inp_files/447298.got.cif
#   From: 2010.05.17/outbox.ucp.g08.bks.cvg/sg2_224_cif.got.tgz:447298.got - 2010.06.11 11:32:03.
