data_PCOD9074285
_publ_section_title
;
Structure prediction by ZEFSAII (Michael W. Deem and Ramdas Pophale) SiO2 
 PCOD9074285
Probable space group: P -1
;
_chemical_formula_sum "Si O2"
_cell_formula_units_Z 12
_cell_length_a 9.000000
_cell_length_b 9.000000
_cell_length_c 21.000000
_cell_angle_alpha 140.000000
_cell_angle_beta 30.000000
_cell_angle_gamma 140.000000
_cell_volume 518.068193
_symmetry_space_group_name_H-M "P -1"
_symmetry_group_IT_number 2
_symmetry_cell_setting 'triclinic'
loop_
_space_group_symop_operation_xyz
x,y,z
-x,-y,-z
loop_
_atom_site_type_symbol
_atom_site_label
_atom_site_fract_x
_atom_site_fract_y
_atom_site_fract_z
Si Si1 0.342230 0.801854 0.047643
Si Si2 0.330147 0.616396 0.223834
Si Si3 0.034601 0.537642 0.575796
Si Si4 0.728471 0.534312 0.334633
Si Si5 0.341885 0.974580 0.862639
Si Si6 0.816144 0.933212 0.336476
O O1 0.482350 0.918895 0.102319
O O2 0.965647 0.764367 0.179609
O O3 0.458982 0.563930 0.919715
O O4 0.500000 0.000000 0.000000
O O5 0.493117 0.865702 0.207448
O O6 0.246689 0.639397 0.336484
O O7 0.984370 0.510344 0.283346
O O8 0.362219 0.515800 0.474133
O O9 0.000000 0.500000 0.500000
O O10 0.016740 0.809947 0.675844
O O11 0.866069 0.803487 0.341077
O O12 0.690090 0.307271 0.227173
O O13 0.000000 0.000000 0.000000
O O14 0.500000 0.000000 0.500000
#
# Coordination Sequence:
#
# PCOD9074285 Si02
#       6
#     2   2   2   2   2   2
#     4  12  23  45  74 102 146 186 235 298 355 421
#     4  12  25  46  74 103 146 190 238 303 361 420
#     4  11  25  47  71 108 143 191 245 295 359 434
#     4  11  24  46  74 100 146 190 238 290 364 425
#     4  12  25  46  71 108 141 184 244 294 357 435
#     4  10  22  45  72  99 144 187 230 297 353 420
#
# _framework density 23.162973999999998
#
# number of rings (size 3 to 8) (size 9 to 14) (size 15 to 20)
#    0.000    0.667    5.000    3.000    0.000    0.667 
#   15.000    1.667    0.000    0.000    0.000    0.000 
#    0.000    0.000    0.000    0.000    0.000    0.000 
#
# Total GULP energy -66817.419670 kJ/mol
# GULP energy per Si atom -5568.118306 kJ/mol
# Density = 2.311025 g / cm^3
# Si number density = 23.162974 Si / 1000 Ang^3
#
#
#
# Elastic Constant Matrix: (Units=GPa)
#
#
# Indices 1 2 3 4 5 6 
#
# 1 66.5080 25.9339 51.2588 -8.9198 -5.9757 -20.2893
# 2 25.9339 67.9278 29.8563 -6.4425 -3.4879 -28.5399
# 3 51.2588 29.8563 169.7162 -10.1192 -23.5262 -15.0616
# 4 -8.9198 -6.4425 -10.1192 57.1025 -16.5305 -2.4931
# 5 -5.9757 -3.4879 -23.5262 -16.5305 46.1701 -3.7607
# 6 -20.2893 -28.5399 -15.0616 -2.4931 -3.7607 42.8362
#
#
#
# Elastic Compliance Matrix: (Units=1/GPa)
#
#
# Indices 1 2 3 4 5 6 
#
# 1 0.023208 -0.002963 -0.005390 0.003177 0.001779 0.007464
# 2 -0.002963 0.022625 -0.001257 0.003331 0.002992 0.013685
# 3 -0.005390 -0.001257 0.008414 0.001697 0.004104 0.000027
# 4 0.003177 0.003331 0.001697 0.021823 0.009867 0.006456
# 5 0.001779 0.002992 0.004104 0.009867 0.028337 0.007341
# 6 0.007464 0.013685 0.000027 0.006456 0.007341 0.037028
#
#
# Mechanical properties :
#
#
# Convention : Reuss Voigt Hill
#
# Bulk Modulus (GPa) = 28.54985 57.58334 43.06660
# Shear Modulus (GPa) = 29.01415 42.36198 35.68806
#
# Velocity S-wave (km/s) = 3.54306 4.28116 3.92948
# Velocity P-wave (km/s) = 5.39352 7.02509 6.26267
#
# Compressibility (1/GPa) = 0.03502645
#
# Stress axis : x y z
#
# Youngs Moduli (GPa) = 43.08837 44.19974 118.85347
#
# Poissons Ratio (x) = 0.13095 0.64060
# Poissons Ratio (y) = 0.12766 0.14945
# Poissons Ratio (z) = 0.23224 0.05558
#
# Static dielectric constant tensor:
#      x y z
#    x 1.889530 0.049710 0.001040 
#    y 0.049710 1.895630 -0.058770 
#    z 0.001040 -0.058770 1.923900 
# 
# From -- ./inp_files/201176.got.cif
#   From: 2010.05.17/outbox.ucp.g08.bks.cvg/sg2_101_cif.got.tgz:201176.got - 2010.06.11 11:32:03.
