data_PCOD9074777
_publ_section_title
;
Structure prediction by ZEFSAII (Michael W. Deem and Ramdas Pophale) SiO2 
 PCOD9074777
Probable space group: P -1
;
_chemical_formula_sum "Si O2"
_cell_formula_units_Z 16
_cell_length_a 9.000000
_cell_length_b 21.000000
_cell_length_c 24.000000
_cell_angle_alpha 160.000000
_cell_angle_beta 40.000000
_cell_angle_gamma 150.000000
_cell_volume 744.844803
_symmetry_space_group_name_H-M "P -1"
_symmetry_group_IT_number 2
_symmetry_cell_setting 'triclinic'
loop_
_space_group_symop_operation_xyz
x,y,z
-x,-y,-z
loop_
_atom_site_type_symbol
_atom_site_label
_atom_site_fract_x
_atom_site_fract_y
_atom_site_fract_z
Si Si1 0.684498 0.457662 0.954097
Si Si2 0.208677 0.752457 0.343692
Si Si3 0.580433 0.695081 0.969262
Si Si4 0.394383 0.960989 0.188261
Si Si5 0.141381 0.732512 0.874240
Si Si6 0.238545 0.276053 0.632735
Si Si7 0.289264 0.555064 0.583975
Si Si8 0.248340 0.681806 0.529691
O O1 0.661597 0.257129 0.759850
O O2 0.500000 0.500000 0.000000
O O3 0.553494 0.358082 0.972476
O O4 0.044853 0.717150 0.071582
O O5 0.037678 0.484873 0.204444
O O6 0.931922 0.734716 0.383300
O O7 0.500000 0.000000 0.500000
O O8 0.322413 0.449112 0.804426
O O9 0.907035 0.766549 0.946799
O O10 0.607663 0.892632 0.083672
O O11 0.525288 0.188304 0.294924
O O12 0.444592 0.073505 0.327770
O O13 0.172893 0.599565 0.707648
O O14 0.500000 0.000000 0.000000
O O15 0.587184 0.395659 0.614592
O O16 0.000000 0.000000 0.500000
O O17 0.500000 0.500000 0.500000
O O18 0.979313 0.324711 0.450634
O O19 0.000000 0.500000 0.500000
#
# Coordination Sequence:
#
# PCOD9074777 Si02
#       8
#     2   2   2   2   2   2   2   2
#     4  12  26  47  73 111 150 189 253 310 386 456
#     4  12  29  49  76 113 151 203 252 319 388 459
#     4  12  26  48  76 109 149 199 256 317 377 460
#     4  11  26  46  74 108 145 203 248 310 382 451
#     4  12  28  49  73 112 150 200 257 313 390 450
#     4  12  26  48  76 108 157 200 263 317 380 468
#     4  11  27  48  72 107 150 199 254 312 383 460
#     4  10  25  46  69 106 147 198 251 311 384 450
#
# _framework density 21.480985
#
# number of rings (size 3 to 8) (size 9 to 14) (size 15 to 20)
#    0.000    0.500    3.750    2.625    8.750    1.500 
#    0.000    0.000    0.000    0.000    0.000    0.000 
#    0.000    0.000    0.000    0.000    0.000    0.000 
#
# Total GULP energy -89122.568545 kJ/mol
# GULP energy per Si atom -5570.160534 kJ/mol
# Density = 2.143209 g / cm^3
# Si number density = 21.480985 Si / 1000 Ang^3
#
#
#
# Elastic Constant Matrix: (Units=GPa)
#
#
# Indices 1 2 3 4 5 6 
#
# 1 212.8761 54.2599 50.2576 5.3232 -5.0397 25.8355
# 2 54.2599 106.0555 28.4468 -2.5287 -4.6195 8.3554
# 3 50.2576 28.4468 85.3134 4.1317 17.1905 -1.3042
# 4 5.3232 -2.5287 4.1317 39.7322 -1.7094 3.0854
# 5 -5.0397 -4.6195 17.1905 -1.7094 66.5123 -0.1563
# 6 25.8355 8.3554 -1.3042 3.0854 -0.1563 46.1048
#
#
#
# Elastic Compliance Matrix: (Units=1/GPa)
#
#
# Indices 1 2 3 4 5 6 
#
# 1 0.006472 -0.002096 -0.003391 -0.000339 0.001205 -0.003316
# 2 -0.002096 0.011482 -0.002972 0.001467 0.001442 -0.001084
# 3 -0.003391 -0.002972 0.015765 -0.001803 -0.004577 0.002990
# 4 -0.000339 0.001467 -0.001803 0.025689 0.001198 -0.001842
# 5 0.001205 0.001442 -0.004577 0.001198 0.016437 -0.001090
# 6 -0.003316 -0.001084 0.002990 -0.001842 -0.001090 0.023948
#
#
# Mechanical properties :
#
#
# Convention : Reuss Voigt Hill
#
# Bulk Modulus (GPa) = 59.51785 74.46374 66.99080
# Shear Modulus (GPa) = 40.87942 48.55524 44.71733
#
# Velocity S-wave (km/s) = 4.36713 4.75951 4.56753
# Velocity P-wave (km/s) = 7.29359 8.05879 7.68572
#
# Compressibility (1/GPa) = 0.01680168
#
# Stress axis : x y z
#
# Youngs Moduli (GPa) = 154.51908 87.09570 63.43111
#
# Poissons Ratio (x) = 0.18255 0.21507
# Poissons Ratio (y) = 0.32387 0.18851
# Poissons Ratio (z) = 0.52391 0.25883
#
# Static dielectric constant tensor:
#      x y z
#    x 1.839140 -0.007660 -0.052370 
#    y -0.007660 1.837240 -0.047720 
#    z -0.052370 -0.047720 1.961760 
# 
# From -- ./inp_files/608665.got.cif
#   From: 2010.05.17/outbox.ucp.g08.bks.cvg/sg2_305_cif.got.tgz:608665.got - 2010.06.11 11:32:03.
