data_PCOD9074124
_publ_section_title
;
Structure prediction by ZEFSAII (Michael W. Deem and Ramdas Pophale) SiO2 
 PCOD9074124
Probable space group: P -1
;
_chemical_formula_sum "Si O2"
_cell_formula_units_Z 14
_cell_length_a 9.000000
_cell_length_b 9.000000
_cell_length_c 12.000000
_cell_angle_alpha 120.000000
_cell_angle_beta 120.000000
_cell_angle_gamma 50.000000
_cell_volume 621.029576
_symmetry_space_group_name_H-M "P -1"
_symmetry_group_IT_number 2
_symmetry_cell_setting 'triclinic'
loop_
_space_group_symop_operation_xyz
x,y,z
-x,-y,-z
loop_
_atom_site_type_symbol
_atom_site_label
_atom_site_fract_x
_atom_site_fract_y
_atom_site_fract_z
Si Si1 0.105306 0.395357 0.358874
Si Si2 0.679986 0.786300 0.862916
Si Si3 0.298996 0.543616 0.088124
Si Si4 0.652679 0.593214 0.201480
Si Si5 0.895318 0.914964 0.157621
Si Si6 0.710222 0.935084 0.305825
Si Si7 0.032788 0.187930 0.434803
O O1 0.190124 0.309076 0.236424
O O2 0.171515 0.226762 0.415965
O O3 0.868759 0.477154 0.294709
O O4 0.109853 0.592054 0.475563
O O5 0.714331 0.616051 0.899539
O O6 0.455690 0.884839 0.764919
O O7 0.731388 0.934334 0.009462
O O8 0.493728 0.557684 0.189841
O O9 0.102632 0.759832 0.116598
O O10 0.319501 0.481248 0.943493
O O11 0.598223 0.821987 0.261211
O O12 0.872074 0.811590 0.222474
O O13 0.923425 0.091834 0.288730
O O14 0.824482 0.953342 0.462296
#
# Coordination Sequence:
#
# PCOD9074124 Si02
#       7
#     2   2   2   2   2   2   2
#     4  10  23  48  71  96 142 187 228 280 348 413
#     4  12  25  43  75 106 136 178 236 288 339 403
#     4  11  23  41  69 104 139 177 226 287 346 400
#     4  10  22  42  68 100 140 178 226 282 345 405
#     4  12  24  44  72 103 137 179 232 291 336 406
#     4  11  25  45  69 102 142 182 227 285 343 410
#     4  10  25  46  71  97 143 187 227 278 350 414
#
# _framework density 22.543209999999998
#
# number of rings (size 3 to 8) (size 9 to 14) (size 15 to 20)
#    0.000    1.143    2.857    3.000    4.000    2.286 
#    5.143    1.429    0.000    0.000    0.000    0.000 
#    0.000    0.000    0.000    0.000    0.000    0.000 
#
# Total GULP energy -78127.109064 kJ/mol
# GULP energy per Si atom -5580.507790 kJ/mol
# Density = 2.249190 g / cm^3
# Si number density = 22.543210 Si / 1000 Ang^3
#
#
#
# Elastic Constant Matrix: (Units=GPa)
#
#
# Indices 1 2 3 4 5 6 
#
# 1 85.6803 12.4647 44.6442 4.2847 1.2044 2.4277
# 2 12.4647 44.8124 39.9720 -5.4368 6.0292 4.7564
# 3 44.6442 39.9720 152.1452 4.5119 1.7508 18.7622
# 4 4.2847 -5.4368 4.5119 35.0748 12.3755 6.9626
# 5 1.2044 6.0292 1.7508 12.3755 42.4949 -1.1353
# 6 2.4277 4.7564 18.7622 6.9626 -1.1353 23.8844
#
#
#
# Elastic Compliance Matrix: (Units=1/GPa)
#
#
# Indices 1 2 3 4 5 6 
#
# 1 0.013973 -0.000758 -0.004170 -0.001995 0.000534 0.002614
# 2 -0.000758 0.032034 -0.008015 0.009130 -0.006932 -0.002997
# 3 -0.004170 -0.008015 0.010659 -0.001292 0.001034 -0.005928
# 4 -0.001995 0.009130 -0.001292 0.037054 -0.012297 -0.011986
# 5 0.000534 -0.006932 0.001034 -0.012297 0.028184 0.005438
# 6 0.002614 -0.002997 -0.005928 -0.011986 0.005438 0.050609
#
#
# Mechanical properties :
#
#
# Convention : Reuss Voigt Hill
#
# Bulk Modulus (GPa) = 32.48925 52.97774 42.73349
# Shear Modulus (GPa) = 23.96255 32.66128 28.31191
#
# Velocity S-wave (km/s) = 3.26384 3.81048 3.54771
# Velocity P-wave (km/s) = 5.35228 6.55067 5.98156
#
# Compressibility (1/GPa) = 0.03077941
#
# Stress axis : x y z
#
# Youngs Moduli (GPa) = 71.56828 31.21699 93.81387
#
# Poissons Ratio (x) = 0.02367 0.39121
# Poissons Ratio (y) = 0.05427 0.75191
# Poissons Ratio (z) = 0.29845 0.25020
#
# Static dielectric constant tensor:
#      x y z
#    x 1.884790 -0.005070 0.005760 
#    y -0.005070 1.943660 -0.006110 
#    z 0.005760 -0.006110 1.836170 
# 
# From -- ./inp_files/299131.got.cif
#   From: 2010.05.17/outbox.ucp.g08.bks.cvg/sg2_150_cif.got.tgz:299131.got - 2010.06.11 11:32:03.
