data_PCOD9074044
_publ_section_title
;
Structure prediction by ZEFSAII (Michael W. Deem and Ramdas Pophale) SiO2 
 PCOD9074044
Probable space group: P -1
;
_chemical_formula_sum "Si O2"
_cell_formula_units_Z 13
_cell_length_a 9.000000
_cell_length_b 12.000000
_cell_length_c 9.000000
_cell_angle_alpha 110.000000
_cell_angle_beta 130.000000
_cell_angle_gamma 100.000000
_cell_volume 585.899798
_symmetry_space_group_name_H-M "P -1"
_symmetry_group_IT_number 2
_symmetry_cell_setting 'triclinic'
loop_
_space_group_symop_operation_xyz
x,y,z
-x,-y,-z
loop_
_atom_site_type_symbol
_atom_site_label
_atom_site_fract_x
_atom_site_fract_y
_atom_site_fract_z
Si Si1 0.860827 0.644822 0.354440
Si Si2 0.231029 0.218850 0.186705
Si Si3 0.500000 0.500000 0.500000
Si Si4 0.551614 0.660765 0.934430
Si Si5 0.325011 0.988804 0.253452
Si Si6 0.969675 0.509221 0.810087
Si Si7 0.257822 0.773283 0.896647
O O1 0.743551 0.705951 0.205532
O O2 0.988587 0.598176 0.300768
O O3 0.052503 0.743596 0.642004
O O4 0.653634 0.499181 0.230117
O O5 0.336484 0.349565 0.424906
O O6 0.328297 0.125433 0.260004
O O7 0.337784 0.318861 0.149749
O O8 0.953438 0.121725 0.942438
O O9 0.715327 0.476237 0.620308
O O10 0.436224 0.750187 0.913108
O O11 0.500000 0.000000 0.500000
O O12 0.377473 0.924624 0.116763
O O13 0.148531 0.658430 0.909675
O O14 0.000000 0.500000 0.000000
#
# Coordination Sequence:
#
# PCOD9074044 Si02
#       7
#     2   2   1   2   2   2   2
#     4  10  22  41  66 107 150 176 228 295 358 416
#     4  11  25  45  71 105 138 186 237 294 349 426
#     4  12  22  38  72 106 132 170 236 292 344 400
#     4  10  22  41  71 102 140 180 232 291 355 418
#     4  11  28  49  66  98 151 191 236 287 354 422
#     4  11  23  37  67 108 144 182 230 290 355 412
#     4  11  23  44  66  98 141 191 230 290 354 415
#
# _framework density 22.188094
#
# number of rings (size 3 to 8) (size 9 to 14) (size 15 to 20)
#    0.000    1.231    1.538    4.615    2.154    6.769 
#    0.000    1.538    0.000    0.000    0.000    0.000 
#    0.000    0.000    0.000    0.000    0.000    0.000 
#
# Total GULP energy -72418.264562 kJ/mol
# GULP energy per Si atom -5570.635736 kJ/mol
# Density = 2.213759 g / cm^3
# Si number density = 22.188094 Si / 1000 Ang^3
#
#
#
# Elastic Constant Matrix: (Units=GPa)
#
#
# Indices 1 2 3 4 5 6 
#
# 1 91.4011 -7.8115 7.7182 -8.4506 11.7208 3.2233
# 2 -7.8115 52.7795 28.8227 -8.9838 15.8646 -6.8866
# 3 7.7182 28.8227 67.2644 -9.5207 5.3662 -30.5136
# 4 -8.4506 -8.9838 -9.5207 32.6058 -2.8835 3.6699
# 5 11.7208 15.8646 5.3662 -2.8835 39.9444 -9.5163
# 6 3.2233 -6.8866 -30.5136 3.6699 -9.5163 25.5075
#
#
#
# Elastic Compliance Matrix: (Units=1/GPa)
#
#
# Indices 1 2 3 4 5 6 
#
# 1 0.016501 0.013301 -0.016957 0.004558 -0.013333 -0.024409
# 2 0.013301 0.046094 -0.040057 0.007459 -0.027875 -0.048627
# 3 -0.016957 -0.040057 0.071758 -0.001684 0.032450 0.089518
# 4 0.004558 0.007459 -0.001684 0.033879 -0.003212 -0.006650
# 5 -0.013333 -0.027875 0.032450 -0.003212 0.047626 0.051207
# 6 -0.024409 -0.048627 0.089518 -0.006650 0.051207 0.156308
#
#
# Mechanical properties :
#
#
# Convention : Reuss Voigt Hill
#
# Bulk Modulus (GPa) = 21.30923 29.87820 25.59371
# Shear Modulus (GPa) = 10.52115 31.79257 21.15686
#
# Velocity S-wave (km/s) = 2.17993 3.78943 3.09127
# Velocity P-wave (km/s) = 3.99511 5.71327 4.92962
#
# Compressibility (1/GPa) = 0.04692803
#
# Stress axis : x y z
#
# Youngs Moduli (GPa) = 60.60109 21.69495 13.93571
#
# Poissons Ratio (x) = -0.28856 0.23630
# Poissons Ratio (y) = -0.80605 0.55822
# Poissons Ratio (z) = 1.02759 0.86903
#
# Static dielectric constant tensor:
#      x y z
#    x 2.001050 -0.148220 -0.600780 
#    y -0.148220 1.946610 0.537440 
#    z -0.600780 0.537440 3.964130 
# 
# From -- ./inp_files/182112.got.cif
#   From: 2010.05.17/outbox.ucp.g08.bks.cvg/sg2_92_cif.got.tgz:182112.got - 2010.06.11 11:32:03.
