data_PCOD9074049
_publ_section_title
;
Structure prediction by ZEFSAII (Michael W. Deem and Ramdas Pophale) SiO2 
 PCOD9074049
Probable space group: P -1
;
_chemical_formula_sum "Si O2"
_cell_formula_units_Z 16
_cell_length_a 18.328498
_cell_length_b 16.303996
_cell_length_c 6.905359
_cell_angle_alpha 137.059648
_cell_angle_beta 57.263406
_cell_angle_gamma 146.004810
_cell_volume 774.033137
_symmetry_space_group_name_H-M "P -1"
_symmetry_group_IT_number 2
_symmetry_cell_setting 'triclinic'
loop_
_space_group_symop_operation_xyz
x,y,z
-x,-y,-z
loop_
_atom_site_type_symbol
_atom_site_label
_atom_site_fract_x
_atom_site_fract_y
_atom_site_fract_z
Si Si1 0.435050 0.104589 0.769102
Si Si2 0.165367 0.105517 0.620784
Si Si3 0.324050 0.855990 0.193257
Si Si4 0.185959 0.927027 0.593634
Si Si5 0.465423 0.782381 0.745403
Si Si6 0.404746 0.518252 0.896691
Si Si7 0.634609 0.577158 0.670181
Si Si8 0.904593 0.975984 0.867044
O O1 0.309617 0.052918 0.784955
O O2 0.386909 0.927118 0.442230
O O3 0.456965 0.134829 0.017298
O O4 0.561435 0.304880 0.838933
O O5 0.205656 0.030772 0.556301
O O6 0.277687 0.325995 0.845189
O O7 0.140686 0.047491 0.330028
O O8 0.030455 0.022000 0.750069
O O9 0.188406 0.789726 0.285054
O O10 0.428668 0.050355 0.264037
O O11 0.341788 0.744183 0.885431
O O12 0.073916 0.877158 0.792707
O O13 0.410117 0.592408 0.454503
O O14 0.531139 0.571329 0.865331
O O15 0.385877 0.473718 0.616603
O O16 0.784779 0.781523 0.813471
#
# Coordination Sequence:
#
# PCOD9074049 Si02
#       8
#     2   2   2   2   2   2   2   2
#     4   9  19  30  48  73 102 128 156 199 250 285
#     4  10  21  32  50  72 105 128 164 197 238 295
#     4   9  20  30  48  74  98 130 165 195 251 282
#     4  10  20  30  50  72  96 132 165 194 240 293
#     4  10  18  32  47  72 106 125 159 209 239 287
#     4   9  16  29  48  77  96 127 157 196 244 294
#     4   9  16  28  52  71  99 127 158 195 249 286
#     4  10  20  36  48  73 101 135 157 197 249 289
#
# _framework density 20.670950999999999
#
# number of rings (size 3 to 8) (size 9 to 14) (size 15 to 20)
#    0.750    1.750    1.250    1.500    3.500    1.500 
#    0.000    0.000    0.000    0.750    0.000   15.750 
#    0.000    0.250    0.000    0.000    0.000    0.000 
#
# Total GULP energy -89098.043442 kJ/mol
# GULP energy per Si atom -5568.627715 kJ/mol
# Density = 2.062390 g / cm^3
# Si number density = 20.670951 Si / 1000 Ang^3
#
#
#
# Elastic Constant Matrix: (Units=GPa)
#
#
# Indices 1 2 3 4 5 6 
#
# 1 64.0012 -0.4546 1.6792 -6.8346 5.0475 -4.5392
# 2 -0.4546 51.2026 -5.0603 -6.2415 3.1818 6.9252
# 3 1.6792 -5.0603 62.0402 -6.5409 -14.2027 4.0000
# 4 -6.8346 -6.2415 -6.5409 20.7569 -2.0619 1.2529
# 5 5.0475 3.1818 -14.2027 -2.0619 31.9112 -9.5626
# 6 -4.5392 6.9252 4.0000 1.2529 -9.5626 23.7568
#
#
#
# Elastic Compliance Matrix: (Units=1/GPa)
#
#
# Indices 1 2 3 4 5 6 
#
# 1 0.016484 0.000581 -0.000424 0.005157 -0.001919 0.002007
# 2 0.000581 0.022064 0.002403 0.007770 -0.003250 -0.008444
# 3 -0.000424 0.002403 0.019136 0.007520 0.008542 -0.000962
# 4 0.005157 0.007770 0.007520 0.055225 0.004195 -0.003770
# 5 -0.001919 -0.003250 0.008542 0.004195 0.040613 0.015269
# 6 0.002007 -0.008444 -0.000962 -0.003770 0.015269 0.051445
#
#
# Mechanical properties :
#
#
# Convention : Reuss Voigt Hill
#
# Bulk Modulus (GPa) = 15.92208 18.84140 17.38174
# Shear Modulus (GPa) = 22.64674 27.35695 25.00184
#
# Velocity S-wave (km/s) = 3.31355 3.64187 3.48158
# Velocity P-wave (km/s) = 4.72851 5.17871 4.95872
#
# Compressibility (1/GPa) = 0.06280588
#
# Stress axis : x y z
#
# Youngs Moduli (GPa) = 60.66342 45.32255 52.25625
#
# Poissons Ratio (x) = -0.02633 0.02215
# Poissons Ratio (y) = -0.03524 -0.12559
# Poissons Ratio (z) = 0.02571 -0.10893
#
# Static dielectric constant tensor:
#      x y z
#    x 1.797860 -0.023220 0.005510 
#    y -0.023220 1.722990 -0.043480 
#    z 0.005510 -0.043480 1.806130 
# 
# From -- ./inp_files/348168.got.cif
#   From: 2010.05.17/outbox.cif.g08.bks.cpg/sg2_175_cif.got.tgz:348168.got - 2010.06.03 11:33:40.
