data_PCOD9074664
_publ_section_title
;
Structure prediction by ZEFSAII (Michael W. Deem and Ramdas Pophale) SiO2 
 PCOD9074664
Probable space group: P -1
;
_chemical_formula_sum "Si O2"
_cell_formula_units_Z 16
_cell_length_a 27.000000
_cell_length_b 9.000000
_cell_length_c 12.000000
_cell_angle_alpha 30.000000
_cell_angle_beta 30.000000
_cell_angle_gamma 40.000000
_cell_volume 727.497153
_symmetry_space_group_name_H-M "P -1"
_symmetry_group_IT_number 2
_symmetry_cell_setting 'triclinic'
loop_
_space_group_symop_operation_xyz
x,y,z
-x,-y,-z
loop_
_atom_site_type_symbol
_atom_site_label
_atom_site_fract_x
_atom_site_fract_y
_atom_site_fract_z
Si Si1 0.058417 0.173582 0.609435
Si Si2 0.244607 0.684697 0.259977
Si Si3 0.440866 0.784674 0.673361
Si Si4 0.552846 0.217507 0.838198
Si Si5 0.975443 0.547780 0.149050
Si Si6 0.156670 0.291558 0.114872
Si Si7 0.363885 0.174450 0.372644
Si Si8 0.758550 0.066248 0.447593
O O1 0.115727 0.141064 0.402470
O O2 0.000000 0.500000 0.500000
O O3 0.145035 0.129609 0.564132
O O4 0.986180 0.897831 0.933180
O O5 0.132543 0.575463 0.531068
O O6 0.295840 0.430209 0.405875
O O7 0.230098 0.032569 0.088761
O O8 0.341102 0.656961 0.006974
O O9 0.529103 0.544161 0.622314
O O10 0.500000 0.000000 0.500000
O O11 0.389960 0.920053 0.575270
O O12 0.667877 0.107875 0.687328
O O13 0.478120 0.240779 0.073622
O O14 0.500000 0.000000 0.000000
O O15 0.063922 0.375006 0.159032
O O16 0.000000 0.500000 0.000000
O O17 0.203830 0.600563 0.854825
O O18 0.294846 0.058219 0.479353
#
# Coordination Sequence:
#
# PCOD9074664 Si02
#       8
#     2   2   2   2   2   2   2   2
#     4  11  27  44  69 102 137 180 229 287 340 403
#     4  11  25  42  69 100 136 183 225 276 351 401
#     4  11  25  44  68 103 137 176 229 284 344 411
#     4   9  21  44  66  97 134 173 227 279 339 406
#     4  11  25  45  67  98 137 180 234 282 333 415
#     4  11  25  42  67 100 135 183 226 281 339 400
#     4  10  25  43  69 100 138 180 227 283 339 412
#     4  10  24  44  69 100 136 180 231 278 345 409
#
# _framework density 21.993213000000001
#
# number of rings (size 3 to 8) (size 9 to 14) (size 15 to 20)
#    0.000    1.500    1.250    1.125    5.250   11.000 
#    0.000    0.000    0.000    0.000    0.000    0.000 
#    0.000    0.000    0.000    0.000    0.000    0.000 
#
# Total GULP energy -89144.751885 kJ/mol
# GULP energy per Si atom -5571.546993 kJ/mol
# Density = 2.194316 g / cm^3
# Si number density = 21.993213 Si / 1000 Ang^3
#
#
#
# Elastic Constant Matrix: (Units=GPa)
#
#
# Indices 1 2 3 4 5 6 
#
# 1 107.4689 20.4535 25.1233 -6.6969 -14.5973 -10.0642
# 2 20.4535 136.6022 15.1772 -18.0115 -12.4240 -20.2218
# 3 25.1233 15.1772 94.7710 5.3521 -27.1264 -9.7102
# 4 -6.6969 -18.0115 5.3521 43.7134 2.1810 -4.7971
# 5 -14.5973 -12.4240 -27.1264 2.1810 32.1356 1.6139
# 6 -10.0642 -20.2218 -9.7102 -4.7971 1.6139 19.9518
#
#
#
# Elastic Compliance Matrix: (Units=1/GPa)
#
#
# Indices 1 2 3 4 5 6 
#
# 1 0.010697 -0.000166 -0.001558 0.002125 0.003098 0.004729
# 2 -0.000166 0.009901 0.000152 0.005095 0.002982 0.011009
# 3 -0.001558 0.000152 0.014990 -0.002032 0.011881 0.005214
# 4 0.002125 0.005095 -0.002032 0.026906 -0.001199 0.011813
# 5 0.003098 0.002982 0.011881 -0.001199 0.043459 0.006564
# 6 0.004729 0.011009 0.005214 0.011813 0.006564 0.068512
#
#
# Mechanical properties :
#
#
# Convention : Reuss Voigt Hill
#
# Bulk Modulus (GPa) = 30.82199 51.15001 40.98600
# Shear Modulus (GPa) = 26.53597 37.69937 32.11767
#
# Velocity S-wave (km/s) = 3.47732 4.14470 3.82559
# Velocity P-wave (km/s) = 5.49245 6.79797 6.17978
#
# Compressibility (1/GPa) = 0.03244437
#
# Stress axis : x y z
#
# Youngs Moduli (GPa) = 93.48428 100.99710 66.71137
#
# Poissons Ratio (x) = 0.01681 0.10392
# Poissons Ratio (y) = 0.01556 -0.01016
# Poissons Ratio (z) = 0.14563 -0.01539
#
# Static dielectric constant tensor:
#      x y z
#    x 1.801350 -0.000530 0.092830 
#    y -0.000530 1.927190 -0.093550 
#    z 0.092830 -0.093550 1.980980 
# 
# From -- ./inp_files/476350.got.cif
#   From: 2010.05.17/outbox.ucp.g08.bks.cvg/sg2_239_cif.got.tgz:476350.got - 2010.06.11 11:32:03.
