data_PCOD9074110
_publ_section_title
;
Structure prediction by ZEFSAII (Michael W. Deem and Ramdas Pophale) SiO2 
 PCOD9074110
Probable space group: P -1
;
_chemical_formula_sum "Si O2"
_cell_formula_units_Z 10
_cell_length_a 9.000000
_cell_length_b 12.000000
_cell_length_c 9.000000
_cell_angle_alpha 80.000000
_cell_angle_beta 50.000000
_cell_angle_gamma 120.000000
_cell_volume 429.280256
_symmetry_space_group_name_H-M "P -1"
_symmetry_group_IT_number 2
_symmetry_cell_setting 'triclinic'
loop_
_space_group_symop_operation_xyz
x,y,z
-x,-y,-z
loop_
_atom_site_type_symbol
_atom_site_label
_atom_site_fract_x
_atom_site_fract_y
_atom_site_fract_z
Si Si1 0.675325 0.854224 0.637085
Si Si2 0.311624 0.452735 0.985285
Si Si3 0.578684 0.377392 0.687047
Si Si4 0.715581 0.310980 0.331305
Si Si5 0.329435 0.796950 0.139954
O O1 0.552089 0.668316 0.731880
O O2 0.603407 0.876173 0.517609
O O3 0.412123 0.793627 0.923336
O O4 0.000000 0.000000 0.500000
O O5 0.315131 0.348686 0.897510
O O6 0.500000 0.500000 0.000000
O O7 0.936934 0.321808 0.273526
O O8 0.601233 0.351221 0.510222
O O9 0.522800 0.233852 0.845335
O O10 0.933356 0.598777 0.458186
O O11 0.000000 0.500000 0.000000
O O12 0.500000 0.000000 0.000000
#
# Coordination Sequence:
#
# PCOD9074110 Si02
#       5
#     2   2   2   2   2
#     4  11  23  43  64  98 139 173 223 286 338 394
#     4  11  20  40  71  95 130 176 224 272 333 408
#     4  11  21  42  73  96 132 183 224 275 344 398
#     4  10  22  42  67 100 135 176 229 274 335 410
#     4  11  22  41  66 102 137 172 229 280 334 406
#
# _framework density 23.294805
#
# number of rings (size 3 to 8) (size 9 to 14) (size 15 to 20)
#    0.000    1.200    6.000    2.400    0.000    3.200 
#    3.600    5.000    0.000    0.000    0.000    0.000 
#    0.000    0.000    0.000    0.000    0.000    0.000 
#
# Total GULP energy -55777.864652 kJ/mol
# GULP energy per Si atom -5577.786465 kJ/mol
# Density = 2.324179 g / cm^3
# Si number density = 23.294805 Si / 1000 Ang^3
#
#
#
# Elastic Constant Matrix: (Units=GPa)
#
#
# Indices 1 2 3 4 5 6 
#
# 1 109.4995 59.9245 19.0965 -7.6875 -25.0756 23.2620
# 2 59.9245 146.7566 60.6663 20.1112 6.8391 -5.3456
# 3 19.0965 60.6663 49.7948 4.7996 -6.5653 -0.9143
# 4 -7.6875 20.1112 4.7996 54.7088 -1.4326 2.0578
# 5 -25.0756 6.8391 -6.5653 -1.4326 40.2363 -6.1834
# 6 23.2620 -5.3456 -0.9143 2.0578 -6.1834 51.2358
#
#
#
# Elastic Compliance Matrix: (Units=1/GPa)
#
#
# Indices 1 2 3 4 5 6 
#
# 1 0.024130 -0.018630 0.014848 0.009845 0.019334 -0.010696
# 2 -0.018630 0.030200 -0.031088 -0.011877 -0.020854 0.009015
# 3 0.014848 -0.031088 0.054209 0.009604 0.022701 -0.006663
# 4 0.009845 -0.011877 0.009604 0.023641 0.009747 -0.005311
# 5 0.019334 -0.020854 0.022701 0.009747 0.043626 -0.005675
# 6 -0.010696 0.009015 -0.006663 -0.005311 -0.005675 0.024724
#
#
# Mechanical properties :
#
#
# Convention : Reuss Voigt Hill
#
# Bulk Modulus (GPa) = 25.77503 65.04726 45.41115
# Shear Modulus (GPa) = 17.65518 40.32709 28.99113
#
# Velocity S-wave (km/s) = 2.75599 4.16524 3.53162
# Velocity P-wave (km/s) = 4.60609 7.14957 6.01384
#
# Compressibility (1/GPa) = 0.03879723
#
# Stress axis : x y z
#
# Youngs Moduli (GPa) = 41.44298 33.11224 18.44712
#
# Poissons Ratio (x) = 0.61689 -0.27390
# Poissons Ratio (y) = 0.77209 0.57349
# Poissons Ratio (z) = -0.61533 1.02940
#
# Static dielectric constant tensor:
#      x y z
#    x 1.995720 0.033590 0.037350 
#    y 0.033590 1.866480 -0.010080 
#    z 0.037350 -0.010080 1.936060 
# 
# From -- ./inp_files/143958.got.cif
#   From: 2010.05.17/outbox.ucp.g08.bks.cvg/sg2_72_cif.got.tgz:143958.got - 2010.06.11 11:32:03.
