data_PCOD9074226
_publ_section_title
;
Structure prediction by ZEFSAII (Michael W. Deem and Ramdas Pophale) SiO2 
 PCOD9074226
Probable space group: P -1
;
_chemical_formula_sum "Si O2"
_cell_formula_units_Z 16
_cell_length_a 24.000000
_cell_length_b 15.000000
_cell_length_c 18.000000
_cell_angle_alpha 150.000000
_cell_angle_beta 160.000000
_cell_angle_gamma 20.000000
_cell_volume 749.971719
_symmetry_space_group_name_H-M "P -1"
_symmetry_group_IT_number 2
_symmetry_cell_setting 'triclinic'
loop_
_space_group_symop_operation_xyz
x,y,z
-x,-y,-z
loop_
_atom_site_type_symbol
_atom_site_label
_atom_site_fract_x
_atom_site_fract_y
_atom_site_fract_z
Si Si1 0.904214 0.268114 0.544209
Si Si2 0.921757 0.328973 0.306720
Si Si3 0.005178 0.921797 0.032473
Si Si4 0.616011 0.883519 0.336798
Si Si5 0.687233 0.601146 0.900870
Si Si6 0.839178 0.636662 0.971875
Si Si7 0.844248 0.822742 0.349872
Si Si8 0.534156 0.106036 0.552184
O O1 0.637937 0.578152 0.438979
O O2 0.982879 0.219179 0.522049
O O3 0.000000 0.000000 0.500000
O O4 0.065320 0.273262 0.797662
O O5 0.668076 0.634734 0.205763
O O6 0.119933 0.244198 0.435681
O O7 0.027673 0.286473 0.489463
O O8 0.914094 0.130910 0.131703
O O9 0.258348 0.632874 0.163638
O O10 0.809035 0.929760 0.784089
O O11 0.000000 0.000000 0.000000
O O12 0.432549 0.112251 0.213433
O O13 0.513836 0.016431 0.384726
O O14 0.823233 0.500502 0.918617
O O15 0.406810 0.869940 0.734767
O O16 0.783255 0.679820 0.133343
O O17 0.000000 0.500000 0.000000
O O18 0.500000 0.000000 0.500000
#
# Coordination Sequence:
#
# PCOD9074226 Si02
#       8
#     2   2   2   2   2   2   2   2
#     4  11  26  41  67  99 135 174 223 288 339 397
#     4  11  24  42  66 102 129 171 224 281 329 400
#     4  12  27  41  68 102 135 173 227 286 337 393
#     4  11  23  42  71  94 132 176 225 271 336 411
#     4  10  23  42  69  95 131 175 224 271 336 413
#     4  11  22  43  69  98 130 180 222 267 346 411
#     4  10  22  44  67  93 131 178 220 267 340 408
#     4  12  25  49  68  93 142 187 225 272 352 414
#
# _framework density 21.334137999999999
#
# number of rings (size 3 to 8) (size 9 to 14) (size 15 to 20)
#    0.000    1.000    3.750    3.000    5.250    1.500 
#    0.000    1.250    0.000    0.000    0.000    0.000 
#    0.000    0.000    0.000    0.000    0.000    0.000 
#
# Total GULP energy -89212.321369 kJ/mol
# GULP energy per Si atom -5575.770086 kJ/mol
# Density = 2.128558 g / cm^3
# Si number density = 21.334138 Si / 1000 Ang^3
#
#
#
# Elastic Constant Matrix: (Units=GPa)
#
#
# Indices 1 2 3 4 5 6 
#
# 1 136.5566 38.8384 2.0267 -4.7771 -18.4809 -5.6157
# 2 38.8384 128.0254 -9.2016 -10.0873 -4.8129 5.6277
# 3 2.0267 -9.2016 13.8784 -11.7424 -13.9379 2.5711
# 4 -4.7771 -10.0873 -11.7424 12.1206 -5.5664 -2.4080
# 5 -18.4809 -4.8129 -13.9379 -5.5664 29.4291 -5.5995
# 6 -5.6157 5.6277 2.5711 -2.4080 -5.5995 30.7840
#
#
#
# Elastic Compliance Matrix: (Units=1/GPa)
#
#
# Indices 1 2 3 4 5 6 
#
# 1 0.008552 -0.003463 -0.006341 -0.004460 0.001460 0.002639
# 2 -0.003463 0.007281 -0.009815 -0.009143 -0.007992 -0.003312
# 3 -0.006341 -0.009815 -0.051606 -0.084804 -0.048053 -0.010426
# 4 -0.004460 -0.009143 -0.084804 -0.033511 -0.051571 -0.004061
# 5 0.001460 -0.007992 -0.048053 -0.051571 0.001452 0.001971
# 6 0.002639 -0.003312 -0.010426 -0.004061 0.001971 0.034483
#
#
# Mechanical properties :
#
#
# Convention : Reuss Voigt Hill
#
# Bulk Modulus (GPa) = -13.33131 37.97636 12.32253
# Shear Modulus (GPa) = -261.57488 30.91987 -115.32751
#
# Velocity S-wave (km/s) = -11.08489 3.81112 -7.36037
# Velocity P-wave (km/s) = 13.04206 6.09963 8.15138
#
# Compressibility (1/GPa) = -0.07501138
#
# Stress axis : x y z
#
# Youngs Moduli (GPa) = 116.93225 137.34927 -19.37763
#
# Poissons Ratio (x) = 0.47559 -0.12288
# Poissons Ratio (y) = 0.40490 -0.19020
# Poissons Ratio (z) = 0.74148 1.34813
#
# Static dielectric constant tensor:
#      x y z
#    x 1.563050 -0.140410 0.087970 
#    y -0.140410 1.737350 0.020750 
#    z 0.087970 0.020750 1.817010 
# 
# From -- ./inp_files/332317.got.cif
#   From: 2010.05.17/outbox.ucp.g08.bks.cvg/sg2_167_cif.got.tgz:332317.got - 2010.06.11 11:32:03.
