data_PCOD9074756
_publ_section_title
;
Structure prediction by ZEFSAII (Michael W. Deem and Ramdas Pophale) SiO2 
 PCOD9074756
Probable space group: P -1
;
_chemical_formula_sum "Si O2"
_cell_formula_units_Z 16
_cell_length_a 6.798840
_cell_length_b 5.443772
_cell_length_c 26.151213
_cell_angle_alpha 110.648724
_cell_angle_beta 138.310559
_cell_angle_gamma 77.110572
_cell_volume 601.121740
_symmetry_space_group_name_H-M "P -1"
_symmetry_group_IT_number 2
_symmetry_cell_setting 'triclinic'
loop_
_space_group_symop_operation_xyz
x,y,z
-x,-y,-z
loop_
_atom_site_type_symbol
_atom_site_label
_atom_site_fract_x
_atom_site_fract_y
_atom_site_fract_z
Si Si1 0.371572 0.033411 0.853950
Si Si2 0.790607 0.070529 0.595664
Si Si3 0.891710 0.684227 0.836936
Si Si4 0.447515 0.378653 0.066808
Si Si5 0.047112 0.763124 0.120731
Si Si6 0.472072 0.512347 0.662637
Si Si7 0.976707 0.348032 0.322188
Si Si8 0.759212 0.044242 0.412577
O O1 0.502992 0.321522 0.882091
O O2 0.137997 0.126961 0.858962
O O3 0.585029 0.850312 0.914067
O O4 0.197706 0.840331 0.766215
O O5 0.857628 0.378772 0.645096
O O6 0.071623 0.021556 0.611047
O O7 0.500000 0.000000 0.500000
O O8 0.796499 0.841616 0.621657
O O9 0.783965 0.619039 0.754156
O O10 0.248334 0.682179 0.908671
O O11 0.767395 0.457394 0.834048
O O12 0.794904 0.971918 0.851328
O O13 0.177689 0.358322 0.973756
O O14 0.471361 0.199031 0.637751
O O15 0.245809 0.574402 0.669839
O O16 0.359185 0.672564 0.603654
O O17 0.000000 0.000000 0.500000
#
# Coordination Sequence:
#
# PCOD9074756 Si02
#       8
#     2   2   2   2   2   2   2   2
#     4  10  18  32  52  79 104 138 186 213 272 324
#     4  10  21  40  58  81 109 148 182 224 283 338
#     4  10  18  32  52  79 104 138 186 213 272 324
#     4  10  19  33  54  77 113 146 174 230 284 316
#     4  10  19  33  54  77 113 146 174 230 284 316
#     4  10  21  37  58  77 111 145 179 227 277 323
#     4  10  21  37  58  77 111 145 179 227 277 323
#     4  10  21  40  58  81 109 148 182 224 283 338
#
# _framework density 26.616907999999999
#
# number of rings (size 3 to 8) (size 9 to 14) (size 15 to 20)
#    0.000    2.000    0.000    6.000    0.000    0.000 
#   13.500    0.000    0.000    8.250    0.000    0.000 
#    0.000    0.000    0.000    0.000    0.000    0.000 
#
# Total GULP energy -89568.336292 kJ/mol
# GULP energy per Si atom -5598.021018 kJ/mol
# Density = 2.655633 g / cm^3
# Si number density = 26.616908 Si / 1000 Ang^3
#
#
#
# Elastic Constant Matrix: (Units=GPa)
#
#
# Indices 1 2 3 4 5 6 
#
# 1 75.6027 27.5184 -20.4039 2.9809 1.8539 4.9426
# 2 27.5184 178.6806 2.8203 0.3317 5.0039 21.8269
# 3 -20.4039 2.8203 82.9920 -0.0221 7.9039 12.0599
# 4 2.9809 0.3317 -0.0221 55.6527 5.4756 -4.1481
# 5 1.8539 5.0039 7.9039 5.4756 26.0385 6.9911
# 6 4.9426 21.8269 12.0599 -4.1481 6.9911 52.9798
#
#
#
# Elastic Compliance Matrix: (Units=1/GPa)
#
#
# Indices 1 2 3 4 5 6 
#
# 1 0.015312 -0.002220 0.004168 -0.000766 -0.001409 -0.001337
# 2 -0.002220 0.006226 -0.000404 -0.000055 -0.000306 -0.002230
# 3 0.004168 -0.000404 0.013855 -0.000075 -0.003630 -0.002903
# 4 -0.000766 -0.000055 -0.000075 0.018603 -0.004401 0.002148
# 5 -0.001409 -0.000306 -0.003630 -0.004401 0.041876 -0.004787
# 6 -0.001337 -0.002230 -0.002903 0.002148 -0.004787 0.021379
#
#
# Mechanical properties :
#
#
# Convention : Reuss Voigt Hill
#
# Bulk Modulus (GPa) = 25.98633 39.68275 32.83454
# Shear Modulus (GPa) = 39.37296 48.75691 44.06494
#
# Velocity S-wave (km/s) = 3.85027 4.28460 4.07323
# Velocity P-wave (km/s) = 5.43603 6.27840 5.87234
#
# Compressibility (1/GPa) = 0.03848178
#
# Stress axis : x y z
#
# Youngs Moduli (GPa) = 65.30773 160.62008 72.17409
#
# Poissons Ratio (x) = 0.35655 -0.30084
# Poissons Ratio (y) = 0.14497 0.02917
# Poissons Ratio (z) = -0.27222 0.06492
#
# Static dielectric constant tensor:
#      x y z
#    x 2.212460 -0.065510 -0.062150 
#    y -0.065510 2.101740 0.095990 
#    z -0.062150 0.095990 2.108260 
# 
# From -- ./inp_files/108800.got.cif
#   From: 2010.05.17/outbox.cif.g08.bks.cpg/sg2_55_cif.got.tgz:108800.got - 2010.06.03 11:33:40.
