data_PCOD9074331
_publ_section_title
;
Structure prediction by ZEFSAII (Michael W. Deem and Ramdas Pophale) SiO2 
 PCOD9074331
Probable space group: P -1
;
_chemical_formula_sum "Si O2"
_cell_formula_units_Z 14
_cell_length_a 12.000000
_cell_length_b 15.000000
_cell_length_c 21.000000
_cell_angle_alpha 20.000000
_cell_angle_beta 150.000000
_cell_angle_gamma 140.000000
_cell_volume 620.704002
_symmetry_space_group_name_H-M "P -1"
_symmetry_group_IT_number 2
_symmetry_cell_setting 'triclinic'
loop_
_space_group_symop_operation_xyz
x,y,z
-x,-y,-z
loop_
_atom_site_type_symbol
_atom_site_label
_atom_site_fract_x
_atom_site_fract_y
_atom_site_fract_z
Si Si1 0.522113 0.197917 0.609966
Si Si2 0.960480 0.258074 0.719522
Si Si3 0.716728 0.394441 0.376705
Si Si4 0.082456 0.214392 0.305833
Si Si5 0.353546 0.913703 0.828878
Si Si6 0.037729 0.181999 0.154379
Si Si7 0.341671 0.822960 0.122233
O O1 0.784560 0.177096 0.734627
O O2 0.490314 0.992126 0.785244
O O3 0.421069 0.500546 0.385021
O O4 0.351501 0.152750 0.499644
O O5 0.791317 0.405312 0.479559
O O6 0.107768 0.469950 0.666383
O O7 0.140234 0.993290 0.955459
O O8 0.763693 0.081047 0.593180
O O9 0.461480 0.593295 0.109754
O O10 0.058420 0.206886 0.222999
O O11 0.913124 0.028123 0.363395
O O12 0.973906 0.517182 0.077695
O O13 0.437525 0.067056 0.826410
O O14 0.795875 0.132160 0.043194
#
# Coordination Sequence:
#
# PCOD9074331 Si02
#       7
#     2   2   2   2   2   2   2
#     4  11  23  42  62  86 129 169 189 246 306 364
#     4   9  20  40  63  92 121 152 207 251 300 355
#     4   9  20  38  62  93 117 151 203 264 293 345
#     4  10  23  39  59  90 123 160 205 240 302 367
#     4  11  23  39  62  92 123 156 203 249 300 361
#     4   9  20  41  59  90 117 158 200 252 303 344
#     4   9  21  40  64  92 116 157 206 250 297 350
#
# _framework density 22.555033999999999
#
# number of rings (size 3 to 8) (size 9 to 14) (size 15 to 20)
#    0.000    2.286    0.000    1.714    8.000    3.429 
#    7.714    0.714    0.000    0.000    0.000    0.000 
#    0.000    0.000    0.000    0.000    0.000    0.000 
#
# Total GULP energy -78033.271110 kJ/mol
# GULP energy per Si atom -5573.805079 kJ/mol
# Density = 2.250370 g / cm^3
# Si number density = 22.555034 Si / 1000 Ang^3
#
#
#
# Elastic Constant Matrix: (Units=GPa)
#
#
# Indices 1 2 3 4 5 6 
#
# 1 23.1118 10.7128 -6.4357 17.7541 -16.0039 11.1445
# 2 10.7128 139.0981 13.8549 26.6571 -2.1572 -7.7803
# 3 -6.4357 13.8549 63.7543 3.8203 7.0273 -13.4043
# 4 17.7541 26.6571 3.8203 29.2498 -0.3880 6.6767
# 5 -16.0039 -2.1572 7.0273 -0.3880 12.6843 0.2298
# 6 11.1445 -7.7803 -13.4043 6.6767 0.2298 35.7804
#
#
#
# Elastic Compliance Matrix: (Units=1/GPa)
#
#
# Indices 1 2 3 4 5 6 
#
# 1 -0.107086 -0.004963 0.006975 0.061217 -0.138388 0.024353
# 2 -0.004963 0.008996 -0.000639 -0.006179 -0.004648 0.004445
# 3 0.006975 -0.000639 0.018442 -0.007454 -0.001862 0.006000
# 4 0.061217 -0.006179 -0.007454 0.010577 0.081106 -0.025698
# 5 -0.138388 -0.004648 -0.001862 0.081106 -0.093533 0.026862
# 6 0.024353 0.004445 0.006000 -0.025698 0.026862 0.028200
#
#
# Mechanical properties :
#
#
# Convention : Reuss Voigt Hill
#
# Bulk Modulus (GPa) = -13.00330 29.13648 8.06659
# Shear Modulus (GPa) = -30.71552 29.39837 -0.65857
#
# Velocity S-wave (km/s) = -3.69427 3.61419 -0.54094
# Velocity P-wave (km/s) = 4.89637 5.51022 1.78718
#
# Compressibility (1/GPa) = -0.07690357
#
# Stress axis : x y z
#
# Youngs Moduli (GPa) = -9.33826 111.16403 54.22514
#
# Poissons Ratio (x) = 0.55172 -0.37820
# Poissons Ratio (y) = -0.04635 0.03464
# Poissons Ratio (z) = 0.06513 0.07100
#
# Static dielectric constant tensor:
#      x y z
#    x 1.902450 0.023400 -0.031460 
#    y 0.023400 1.862740 0.038000 
#    z -0.031460 0.038000 1.876040 
# 
# From -- ./inp_files/154025.got.cif
#   From: 2010.05.17/outbox.ucp.g08.bks.cvg/sg2_78_cif.got.tgz:154025.got - 2010.06.11 11:32:03.
