data_PCOD9074297
_publ_section_title
;
Structure prediction by ZEFSAII (Michael W. Deem and Ramdas Pophale) SiO2 
 PCOD9074297
Probable space group: P -1
;
_chemical_formula_sum "Si O2"
_cell_formula_units_Z 16
_cell_length_a 9.000000
_cell_length_b 18.000000
_cell_length_c 6.000000
_cell_angle_alpha 60.000000
_cell_angle_beta 120.000000
_cell_angle_gamma 110.000000
_cell_volume 723.492119
_symmetry_space_group_name_H-M "P -1"
_symmetry_group_IT_number 2
_symmetry_cell_setting 'triclinic'
loop_
_space_group_symop_operation_xyz
x,y,z
-x,-y,-z
loop_
_atom_site_type_symbol
_atom_site_label
_atom_site_fract_x
_atom_site_fract_y
_atom_site_fract_z
Si Si1 0.702843 0.492835 0.211718
Si Si2 0.694592 0.157631 0.644752
Si Si3 0.302917 0.353248 0.701774
Si Si4 0.304186 0.659961 0.846204
Si Si5 0.939542 0.772396 0.976270
Si Si6 0.210657 0.020246 0.141122
Si Si7 0.951243 0.618550 0.912983
Si Si8 0.306752 0.107959 0.582116
O O1 0.733216 0.553759 0.359367
O O2 0.705069 0.391391 0.321303
O O3 0.500000 0.500000 0.000000
O O4 0.851946 0.536150 0.090091
O O5 0.694748 0.239585 0.359171
O O6 0.511837 0.145104 0.663384
O O7 0.704682 0.068343 0.659655
O O8 0.882137 0.173772 0.886671
O O9 0.205501 0.352612 0.396162
O O10 0.510912 0.351455 0.878825
O O11 0.200588 0.271577 0.881134
O O12 0.130688 0.621471 0.907146
O O13 0.999167 0.689895 0.027387
O O14 0.830248 0.822948 0.646066
O O15 0.262881 0.062736 0.364658
O O16 0.270982 0.063551 0.872569
O O17 0.000000 0.000000 0.000000
#
# Coordination Sequence:
#
# PCOD9074297 Si02
#       8
#     2   2   2   2   2   2   2   2
#     4   9  22  44  64  98 142 184 237 290 363 435
#     4  12  26  47  74 107 145 185 245 301 365 441
#     4  10  22  46  67  98 143 183 233 294 360 435
#     4  11  23  42  70 103 137 182 240 298 359 433
#     4  11  25  44  68 105 140 187 233 301 360 431
#     4  12  28  51  81 107 151 197 240 306 373 440
#     4  11  24  41  70  99 141 187 240 293 362 430
#     4  12  28  51  78 109 150 195 244 301 374 441
#
# _framework density 22.114961000000001
#
# number of rings (size 3 to 8) (size 9 to 14) (size 15 to 20)
#    0.000    1.000    3.750    1.500    3.500    4.500 
#    2.250    0.000    0.000    0.000    0.000    0.000 
#    0.000    0.000    0.000    0.000    0.000    0.000 
#
# Total GULP energy -89171.394121 kJ/mol
# GULP energy per Si atom -5573.212133 kJ/mol
# Density = 2.206463 g / cm^3
# Si number density = 22.114961 Si / 1000 Ang^3
#
#
#
# Elastic Constant Matrix: (Units=GPa)
#
#
# Indices 1 2 3 4 5 6 
#
# 1 148.8138 21.9318 12.1501 10.8719 22.5418 25.8045
# 2 21.9318 81.8687 17.2444 17.7001 2.3399 10.8374
# 3 12.1501 17.2444 60.1475 17.6968 13.6259 -2.3319
# 4 10.8719 17.7001 17.6968 11.3146 -4.5289 11.2506
# 5 22.5418 2.3399 13.6259 -4.5289 39.2858 4.0618
# 6 25.8045 10.8374 -2.3319 11.2506 4.0618 33.1649
#
#
#
# Elastic Compliance Matrix: (Units=1/GPa)
#
#
# Indices 1 2 3 4 5 6 
#
# 1 0.008512 -0.001873 -0.002692 0.005892 -0.002341 -0.007912
# 2 -0.001873 0.008500 -0.022429 0.053217 0.016862 -0.023015
# 3 -0.002692 -0.022429 -0.040498 0.176730 0.043369 -0.058687
# 4 0.005892 0.053217 0.176730 -0.519228 -0.146787 0.184567
# 5 -0.002341 0.016862 0.043369 -0.146787 -0.011397 0.050552
# 6 -0.007912 -0.023015 -0.058687 0.184567 0.050552 -0.029099
#
#
# Mechanical properties :
#
#
# Convention : Reuss Voigt Hill
#
# Bulk Modulus (GPa) = -12.90763 43.72028 15.40633
# Shear Modulus (GPa) = -9.00822 32.71997 11.85588
#
# Velocity S-wave (km/s) = -2.02045 3.85065 2.31790
# Velocity P-wave (km/s) = 3.36039 6.29146 3.76100
#
# Compressibility (1/GPa) = -0.07747358
#
# Stress axis : x y z
#
# Youngs Moduli (GPa) = 117.48399 117.65138 -24.69240
#
# Poissons Ratio (x) = 0.22032 -0.06648
# Poissons Ratio (y) = 0.22000 -0.55381
# Poissons Ratio (z) = 0.31630 2.63874
#
# Static dielectric constant tensor:
#      x y z
#    x 1.814620 -0.034120 -0.017100 
#    y -0.034120 1.862360 -0.013540 
#    z -0.017100 -0.013540 1.838910 
# 
# From -- ./inp_files/46838.got.cif
#   From: 2010.05.17/outbox.ucp.g08.bks.cvg/sg2_24_cif.got.tgz:46838.got - 2010.06.11 11:32:03.
