data_PCOD9074166
_publ_section_title
;
Structure prediction by ZEFSAII (Michael W. Deem and Ramdas Pophale) SiO2 
 PCOD9074166
Probable space group: P -1
;
_chemical_formula_sum "Si O2"
_cell_formula_units_Z 14
_cell_length_a 9.000000
_cell_length_b 15.000000
_cell_length_c 12.000000
_cell_angle_alpha 130.000000
_cell_angle_beta 80.000000
_cell_angle_gamma 60.000000
_cell_volume 715.467094
_symmetry_space_group_name_H-M "P -1"
_symmetry_group_IT_number 2
_symmetry_cell_setting 'triclinic'
loop_
_space_group_symop_operation_xyz
x,y,z
-x,-y,-z
loop_
_atom_site_type_symbol
_atom_site_label
_atom_site_fract_x
_atom_site_fract_y
_atom_site_fract_z
Si Si1 0.961140 0.197234 0.220312
Si Si2 0.544909 0.629556 0.584884
Si Si3 0.380119 0.970111 0.181450
Si Si4 0.482593 0.367734 0.140767
Si Si5 0.985976 0.908983 0.268841
Si Si6 0.931821 0.209457 0.587889
Si Si7 0.664540 0.030720 0.207189
O O1 0.816064 0.397652 0.347720
O O2 0.711318 0.277030 0.352468
O O3 0.164081 0.093947 0.209966
O O4 0.129901 0.050244 0.976246
O O5 0.517968 0.639775 0.731006
O O6 0.565221 0.738231 0.607056
O O7 0.208175 0.080020 0.403254
O O8 0.563244 0.965935 0.142361
O O9 0.543557 0.749870 0.986180
O O10 0.276613 0.579824 0.278356
O O11 0.760584 0.235138 0.955528
O O12 0.776391 0.977789 0.273201
O O13 0.063119 0.796534 0.283342
O O14 0.899399 0.094682 0.461721
#
# Coordination Sequence:
#
# PCOD9074166 Si02
#       7
#     2   2   2   2   2   2   2
#     4  11  22  38  56  90 121 151 197 238 289 346
#     4  11  22  35  64  87 117 155 196 244 288 341
#     4  11  24  38  58  87 126 160 187 233 298 354
#     4  11  20  39  63  87 115 154 198 243 292 338
#     4  10  23  40  65  87 114 152 200 250 288 337
#     4  10  22  43  63  87 113 152 205 246 286 340
#     4  12  24  38  57  91 125 156 189 235 297 357
#
# _framework density 19.567636
#
# number of rings (size 3 to 8) (size 9 to 14) (size 15 to 20)
#    0.000    1.143    4.286    3.000    2.000    2.286 
#    0.000    0.714    0.000    0.000    0.000    0.000 
#    0.000    0.000    0.000    0.000    0.000    0.000 
#
# Total GULP energy -78073.557391 kJ/mol
# GULP energy per Si atom -5576.682671 kJ/mol
# Density = 1.952310 g / cm^3
# Si number density = 19.567636 Si / 1000 Ang^3
#
#
#
# Elastic Constant Matrix: (Units=GPa)
#
#
# Indices 1 2 3 4 5 6 
#
# 1 42.1063 56.3446 24.3073 17.9758 6.1407 2.4131
# 2 56.3446 115.8161 8.6203 15.8301 13.8829 -15.3140
# 3 24.3073 8.6203 30.4284 21.8729 12.2115 -5.7540
# 4 17.9758 15.8301 21.8729 36.3520 7.2701 8.2206
# 5 6.1407 13.8829 12.2115 7.2701 8.7389 0.9342
# 6 2.4131 -15.3140 -5.7540 8.2206 0.9342 23.5000
#
#
#
# Elastic Compliance Matrix: (Units=1/GPa)
#
#
# Indices 1 2 3 4 5 6 
#
# 1 0.002487 0.010575 0.045383 -0.027416 -0.062343 0.029817
# 2 0.010575 -0.000943 -0.029664 0.010488 0.028263 -0.013756
# 3 0.045383 -0.029664 -0.016756 -0.001403 0.042950 -0.029310
# 4 -0.027416 0.010488 -0.001403 0.044963 -0.032293 -0.005139
# 5 -0.062343 0.028263 0.042950 -0.032293 0.075522 0.043630
# 6 0.029817 -0.013756 -0.029310 -0.005139 0.043630 0.023414
#
#
# Mechanical properties :
#
#
# Convention : Reuss Voigt Hill
#
# Bulk Modulus (GPa) = 26.75507 40.76614 33.76060
# Shear Modulus (GPa) = 56.46084 20.32343 38.39213
#
# Velocity S-wave (km/s) = 5.37744 3.22627 4.43428
# Velocity P-wave (km/s) = 7.22901 5.89551 6.59605
#
# Compressibility (1/GPa) = 0.03737610
#
# Stress axis : x y z
#
# Youngs Moduli (GPa) = 402.08437 -1060.52242 -59.67923
#
# Poissons Ratio (x) = 11.21520 2.70841
# Poissons Ratio (y) = -4.25211 -1.77031
# Poissons Ratio (z) = -18.24768 -31.45908
#
# Static dielectric constant tensor:
#      x y z
#    x 1.684510 0.017760 0.067790 
#    y 0.017760 1.673650 0.019370 
#    z 0.067790 0.019370 1.796580 
# 
# From -- ./inp_files/138197.got.cif
#   From: 2010.05.17/outbox.ucp.g08.bks.cvg/sg2_70_cif.got.tgz:138197.got - 2010.06.11 11:32:03.
