data_PCOD9074785
_publ_section_title
;
Structure prediction by ZEFSAII (Michael W. Deem and Ramdas Pophale) SiO2 
 PCOD9074785
Probable space group: P -1
;
_chemical_formula_sum "Si O2"
_cell_formula_units_Z 16
_cell_length_a 27.000000
_cell_length_b 9.000000
_cell_length_c 27.000000
_cell_angle_alpha 40.000000
_cell_angle_beta 10.000000
_cell_angle_gamma 40.000000
_cell_volume 728.340053
_symmetry_space_group_name_H-M "P -1"
_symmetry_group_IT_number 2
_symmetry_cell_setting 'triclinic'
loop_
_space_group_symop_operation_xyz
x,y,z
-x,-y,-z
loop_
_atom_site_type_symbol
_atom_site_label
_atom_site_fract_x
_atom_site_fract_y
_atom_site_fract_z
Si Si1 0.591172 0.617203 0.325748
Si Si2 0.585651 0.072657 0.674545
Si Si3 0.118171 0.154533 0.196282
Si Si4 0.049491 0.063049 0.054663
Si Si5 0.243356 0.914019 0.242704
Si Si6 0.510856 0.130603 0.507234
Si Si7 0.603928 0.570988 0.745461
Si Si8 0.085688 0.578427 0.188159
O O1 0.500000 0.500000 0.500000
O O2 0.427931 0.796979 0.399812
O O3 0.609833 0.383307 0.335611
O O4 0.871098 0.740462 0.034875
O O5 0.883763 0.062678 0.413734
O O6 0.511185 0.812124 0.802664
O O7 0.370622 0.182740 0.900928
O O8 0.015573 0.403370 0.258774
O O9 0.199843 0.004401 0.205196
O O10 0.726246 0.035682 0.363607
O O11 0.166298 0.817246 0.024599
O O12 0.203713 0.127515 0.836006
O O13 0.277603 0.633141 0.282136
O O14 0.000000 0.000000 0.500000
O O15 0.500000 0.000000 0.000000
O O16 0.500000 0.000000 0.500000
O O17 0.833855 0.623827 0.464119
O O18 0.351569 0.478400 0.985373
#
# Coordination Sequence:
#
# PCOD9074785 Si02
#       8
#     2   2   2   2   2   2   2   2
#     4  10  25  47  70  96 139 191 235 286 351 430
#     4  12  28  45  70 108 146 179 238 298 362 403
#     4  12  27  44  71 108 144 184 226 305 357 404
#     4  11  24  43  68  94 132 181 235 275 345 424
#     4  12  23  46  74 105 141 187 239 280 346 428
#     4  11  25  42  65 100 132 174 227 295 355 404
#     4  12  24  46  74 102 139 192 238 280 338 435
#     4  12  24  43  74 101 136 188 240 280 339 428
#
# _framework density 21.967760999999999
#
# number of rings (size 3 to 8) (size 9 to 14) (size 15 to 20)
#    0.000    0.500    3.750    3.750    5.250    3.000 
#    0.000    0.000    0.000    0.000    0.000    0.000 
#    0.000    0.000    0.000    0.000    0.000    0.000 
#
# Total GULP energy -89154.345712 kJ/mol
# GULP energy per Si atom -5572.146607 kJ/mol
# Density = 2.191776 g / cm^3
# Si number density = 21.967761 Si / 1000 Ang^3
#
#
#
# Elastic Constant Matrix: (Units=GPa)
#
#
# Indices 1 2 3 4 5 6 
#
# 1 149.3251 51.1722 25.7726 -10.5393 -11.0118 -7.1334
# 2 51.1722 128.4906 -9.0725 -12.1296 -6.0798 0.3232
# 3 25.7726 -9.0725 74.1822 3.0109 -3.8537 -2.5447
# 4 -10.5393 -12.1296 3.0109 13.7201 6.8488 -14.9233
# 5 -11.0118 -6.0798 -3.8537 6.8488 41.5178 1.4460
# 6 -7.1334 0.3232 -2.5447 -14.9233 1.4460 39.8454
#
#
#
# Elastic Compliance Matrix: (Units=1/GPa)
#
#
# Indices 1 2 3 4 5 6 
#
# 1 0.009546 -0.002926 -0.004007 0.012738 -0.000588 0.006269
# 2 -0.002926 0.010012 0.001885 0.010445 -0.000979 0.003463
# 3 -0.004007 0.001885 0.015506 -0.009829 0.002396 -0.003510
# 4 0.012738 0.010445 -0.009829 0.188557 -0.029660 0.073264
# 5 -0.000588 -0.000979 0.002396 -0.029660 0.029324 -0.012117
# 6 0.006269 0.003463 -0.003510 0.073264 -0.012117 0.053846
#
#
# Mechanical properties :
#
#
# Convention : Reuss Voigt Hill
#
# Bulk Modulus (GPa) = 40.05033 54.19360 47.12197
# Shear Modulus (GPa) = 15.37471 37.95837 26.66654
#
# Velocity S-wave (km/s) = 2.64839 4.16133 3.48788
# Velocity P-wave (km/s) = 5.25575 6.91462 6.14146
#
# Compressibility (1/GPa) = 0.02496858
#
# Stress axis : x y z
#
# Youngs Moduli (GPa) = 104.75405 99.87974 64.49147
#
# Poissons Ratio (x) = 0.29224 0.25841
# Poissons Ratio (y) = 0.30650 -0.12157
# Poissons Ratio (z) = 0.41974 -0.18827
#
# Static dielectric constant tensor:
#      x y z
#    x 1.748570 -0.042930 0.065250 
#    y -0.042930 1.870040 0.045810 
#    z 0.065250 0.045810 2.287140 
# 
# From -- ./inp_files/621134.got.cif
#   From: 2010.05.17/outbox.ucp.g08.bks.cvg/sg2_311_cif.got.tgz:621134.got - 2010.06.11 11:32:03.
