data_PCOD9074409
_publ_section_title
;
Structure prediction by ZEFSAII (Michael W. Deem and Ramdas Pophale) SiO2 
 PCOD9074409
Probable space group: P -1
;
_chemical_formula_sum "Si O2"
_cell_formula_units_Z 16
_cell_length_a 18.000000
_cell_length_b 21.000000
_cell_length_c 12.000000
_cell_angle_alpha 40.000000
_cell_angle_beta 30.000000
_cell_angle_gamma 20.000000
_cell_volume 744.844803
_symmetry_space_group_name_H-M "P -1"
_symmetry_group_IT_number 2
_symmetry_cell_setting 'triclinic'
loop_
_space_group_symop_operation_xyz
x,y,z
-x,-y,-z
loop_
_atom_site_type_symbol
_atom_site_label
_atom_site_fract_x
_atom_site_fract_y
_atom_site_fract_z
Si Si1 0.158436 0.651184 0.557420
Si Si2 0.326571 0.456720 0.210100
Si Si3 0.470410 0.194518 0.529405
Si Si4 0.917427 0.755456 0.959963
Si Si5 0.341466 0.332464 0.763188
Si Si6 0.547327 0.624054 0.099426
Si Si7 0.226347 0.948647 0.225445
Si Si8 0.929970 0.232850 0.730882
O O1 0.363095 0.439014 0.591067
O O2 0.330662 0.654395 0.348722
O O3 0.063240 0.714021 0.468643
O O4 0.914611 0.772431 0.806681
O O5 0.314470 0.365205 0.424708
O O6 0.098541 0.667969 0.269722
O O7 0.309945 0.449569 0.108898
O O8 0.643530 0.328049 0.984648
O O9 0.457705 0.235639 0.620118
O O10 0.326759 0.168911 0.764206
O O11 0.788012 0.997045 0.330340
O O12 0.211191 0.531045 0.912389
O O13 0.923086 0.862031 0.857148
O O14 0.528156 0.180058 0.825175
O O15 0.000000 0.500000 0.000000
O O16 0.367768 0.823119 0.099513
O O17 0.000000 0.000000 0.500000
#
# Coordination Sequence:
#
# PCOD9074409 Si02
#       8
#     2   2   2   2   2   2   2   2
#     4  11  20  41  68  94 132 165 215 269 341 388
#     4  10  24  45  65  91 130 178 223 269 329 383
#     4  12  25  41  68  98 135 168 222 278 325 396
#     4  12  25  41  66 101 132 173 215 276 339 396
#     4  12  24  40  69 102 140 174 208 278 349 397
#     4  11  24  45  66  92 135 178 217 272 327 398
#     4  12  25  42  68  99 134 174 223 268 332 406
#     4  10  23  42  67  95 126 171 221 276 322 391
#
# _framework density 21.480985
#
# number of rings (size 3 to 8) (size 9 to 14) (size 15 to 20)
#    0.000    0.750    5.000    2.250    3.500    3.500 
#    0.000    1.250    0.000    0.000    0.000    0.000 
#    0.000    0.000    0.000    0.000    0.000    0.000 
#
# Total GULP energy -89414.065299 kJ/mol
# GULP energy per Si atom -5588.379081 kJ/mol
# Density = 2.143209 g / cm^3
# Si number density = 21.480985 Si / 1000 Ang^3
#
#
#
# Elastic Constant Matrix: (Units=GPa)
#
#
# Indices 1 2 3 4 5 6 
#
# 1 66.7858 -6.2024 26.9239 10.9083 28.4003 16.3886
# 2 -6.2024 31.2675 8.5348 16.7243 7.2253 28.7008
# 3 26.9239 8.5348 88.4668 -8.7404 12.9102 8.7529
# 4 10.9083 16.7243 -8.7404 34.0458 -2.9002 3.9292
# 5 28.4003 7.2253 12.9102 -2.9002 30.0871 3.5033
# 6 16.3886 28.7008 8.7529 3.9292 3.5033 39.0134
#
#
#
# Elastic Compliance Matrix: (Units=1/GPa)
#
#
# Indices 1 2 3 4 5 6 
#
# 1 -0.004248 -0.039354 0.002688 0.019178 0.010987 0.027215
# 2 -0.039354 -0.038905 0.009433 0.033530 0.041491 0.035934
# 3 0.002688 0.009433 0.011613 -0.002154 -0.008869 -0.009661
# 4 0.019178 0.033530 -0.002154 0.008028 -0.020826 -0.031178
# 5 0.010987 0.041491 -0.008869 -0.020826 0.018509 -0.032714
# 6 0.027215 0.035934 -0.009661 -0.031178 -0.032714 -0.003990
#
#
# Mechanical properties :
#
#
# Convention : Reuss Voigt Hill
#
# Bulk Modulus (GPa) = -11.62701 27.22588 7.79943
# Shear Modulus (GPa) = 297.57339 31.11352 164.34346
#
# Velocity S-wave (km/s) = 11.78259 3.80994 8.75629
# Velocity P-wave (km/s) = 13.40453 5.66181 10.28926
#
# Compressibility (1/GPa) = -0.08600661
#
# Stress axis : x y z
#
# Youngs Moduli (GPa) = -235.39905 -25.70336 86.11277
#
# Poissons Ratio (x) = -1.01153 -0.23150
# Poissons Ratio (y) = -9.26391 -0.81229
# Poissons Ratio (z) = 0.63283 0.24246
#
# Static dielectric constant tensor:
#      x y z
#    x 1.808800 0.022070 -0.035100 
#    y 0.022070 1.757620 0.036770 
#    z -0.035100 0.036770 1.740140 
# 
# From -- ./inp_files/438589.got.cif
#   From: 2010.05.17/outbox.ucp.g08.bks.cvg/sg2_220_cif.got.tgz:438589.got - 2010.06.11 11:32:03.
