data_PCOD9074581
_publ_section_title
;
Structure prediction by ZEFSAII (Michael W. Deem and Ramdas Pophale) SiO2 
 PCOD9074581
Probable space group: P -1
;
_chemical_formula_sum "Si O2"
_cell_formula_units_Z 16
_cell_length_a 12.000000
_cell_length_b 9.000000
_cell_length_c 9.000000
_cell_angle_alpha 130.000000
_cell_angle_beta 90.000000
_cell_angle_gamma 80.000000
_cell_volume 725.212580
_symmetry_space_group_name_H-M "P -1"
_symmetry_group_IT_number 2
_symmetry_cell_setting 'triclinic'
loop_
_space_group_symop_operation_xyz
x,y,z
-x,-y,-z
loop_
_atom_site_type_symbol
_atom_site_label
_atom_site_fract_x
_atom_site_fract_y
_atom_site_fract_z
Si Si1 0.733466 0.207002 0.543924
Si Si2 0.854726 0.548357 0.167642
Si Si3 0.972708 0.919001 0.787668
Si Si4 0.686197 0.823269 0.125884
Si Si5 0.728648 0.881305 0.809341
Si Si6 0.444754 0.889573 0.296857
Si Si7 0.183088 0.564158 0.574906
Si Si8 0.963103 0.218391 0.735897
O O1 0.631622 0.236612 0.690243
O O2 0.739270 0.333056 0.471388
O O3 0.846569 0.222109 0.647839
O O4 0.718748 0.000475 0.337241
O O5 0.771158 0.637897 0.087901
O O6 0.799325 0.481373 0.275302
O O7 0.936402 0.703596 0.299808
O O8 0.936107 0.359314 0.971494
O O9 0.835217 0.977199 0.834284
O O10 0.054091 0.696709 0.645322
O O11 0.004733 0.012681 0.693422
O O12 0.000000 0.000000 0.000000
O O13 0.558851 0.793369 0.141246
O O14 0.696669 0.877659 0.984423
O O15 0.789294 0.654081 0.631650
O O16 0.633925 0.970093 0.739112
O O17 0.500000 0.000000 0.500000
#
# Coordination Sequence:
#
# PCOD9074581 Si02
#       8
#     2   2   2   2   2   2   2   2
#     4  11  24  43  70 103 135 185 237 285 347 422
#     4  11  25  43  66 104 145 184 227 293 350 415
#     4  12  24  42  67 103 142 184 227 279 353 429
#     4  11  25  47  72 100 139 188 238 290 347 415
#     4  12  25  45  69 104 140 186 233 290 351 413
#     4  10  23  49  74  99 135 187 241 293 351 410
#     4  12  26  40  67 105 144 184 228 285 353 421
#     4  11  24  43  69  97 145 183 231 286 356 416
#
# _framework density 22.062495999999999
#
# number of rings (size 3 to 8) (size 9 to 14) (size 15 to 20)
#    0.000    0.750    2.500    5.250    5.250    1.000 
#    0.000    8.125    0.000    0.000    0.000    0.000 
#    0.000    0.000    0.000    0.000    0.000    0.000 
#
# Total GULP energy -89121.372021 kJ/mol
# GULP energy per Si atom -5570.085751 kJ/mol
# Density = 2.201228 g / cm^3
# Si number density = 22.062496 Si / 1000 Ang^3
#
#
#
# Elastic Constant Matrix: (Units=GPa)
#
#
# Indices 1 2 3 4 5 6 
#
# 1 147.9762 49.1253 25.1873 -12.6802 -3.4037 4.8710
# 2 49.1253 132.2339 16.5556 -29.1316 0.7495 13.1869
# 3 25.1873 16.5556 81.9895 -8.1748 -1.4076 6.1521
# 4 -12.6802 -29.1316 -8.1748 44.0332 5.1478 -11.1451
# 5 -3.4037 0.7495 -1.4076 5.1478 32.9484 -19.1389
# 6 4.8710 13.1869 6.1521 -11.1451 -19.1389 48.2380
#
#
#
# Elastic Compliance Matrix: (Units=1/GPa)
#
#
# Indices 1 2 3 4 5 6 
#
# 1 0.008027 -0.002785 -0.001921 0.000151 0.001197 0.000706
# 2 -0.002785 0.010120 -0.000515 0.005554 -0.002687 -0.002202
# 3 -0.001921 -0.000515 0.013104 0.001285 -0.000561 -0.001262
# 4 0.000151 0.005554 0.001285 0.027904 -0.002153 0.003896
# 5 0.001197 -0.002687 -0.000561 -0.002153 0.040228 0.016149
# 6 0.000706 -0.002202 -0.001262 0.003896 0.016149 0.028730
#
#
# Mechanical properties :
#
#
# Convention : Reuss Voigt Hill
#
# Bulk Modulus (GPa) = 48.05691 60.43731 54.24711
# Shear Modulus (GPa) = 34.36643 43.13269 38.74956
#
# Velocity S-wave (km/s) = 3.95103 4.42636 4.19543
# Velocity P-wave (km/s) = 6.53021 7.31961 6.93615
#
# Compressibility (1/GPa) = 0.02080866
#
# Stress axis : x y z
#
# Youngs Moduli (GPa) = 124.58424 98.81330 76.31307
#
# Poissons Ratio (x) = 0.27523 0.14658
# Poissons Ratio (y) = 0.34702 0.03929
# Poissons Ratio (z) = 0.23929 0.05088
#
# Static dielectric constant tensor:
#      x y z
#    x 1.885050 0.096070 0.028690 
#    y 0.096070 1.941020 0.090470 
#    z 0.028690 0.090470 1.896660 
# 
# From -- ./inp_files/245947.got.cif
#   From: 2010.05.17/outbox.ucp.g08.bks.cvg/sg2_123_cif.got.tgz:245947.got - 2010.06.11 11:32:03.
