data_PCOD9074886
_publ_section_title
;
Structure prediction by ZEFSAII (Michael W. Deem and Ramdas Pophale) SiO2 
 PCOD9074886
Probable space group: P -1
;
_chemical_formula_sum "Si O2"
_cell_formula_units_Z 16
_cell_length_a 12.000000
_cell_length_b 6.000000
_cell_length_c 15.000000
_cell_angle_alpha 90.000000
_cell_angle_beta 50.000000
_cell_angle_gamma 110.000000
_cell_volume 740.289630
_symmetry_space_group_name_H-M "P -1"
_symmetry_group_IT_number 2
_symmetry_cell_setting 'triclinic'
loop_
_space_group_symop_operation_xyz
x,y,z
-x,-y,-z
loop_
_atom_site_type_symbol
_atom_site_label
_atom_site_fract_x
_atom_site_fract_y
_atom_site_fract_z
Si Si1 0.653554 0.553650 0.114448
Si Si2 0.298962 0.435629 0.720666
Si Si3 0.319922 0.517214 0.376074
Si Si4 0.841207 0.403536 0.702569
Si Si5 0.465758 0.040447 0.619404
Si Si6 0.893335 0.736094 0.362001
Si Si7 0.551971 0.898286 0.886600
Si Si8 0.797969 0.754542 0.854095
O O1 0.765638 0.629952 0.144641
O O2 0.482115 0.541003 0.240078
O O3 0.593303 0.279216 0.102058
O O4 0.745524 0.733886 0.984408
O O5 0.375404 0.230807 0.664838
O O6 0.189873 0.392171 0.688451
O O7 0.389899 0.744140 0.686538
O O8 0.181177 0.455507 0.371984
O O9 0.380856 0.781267 0.397951
O O10 0.248787 0.309093 0.492029
O O11 0.813319 0.516916 0.808842
O O12 0.006387 0.386053 0.636736
O O13 0.690841 0.133058 0.766347
O O14 0.500000 0.000000 0.500000
O O15 0.034053 0.008076 0.260774
O O16 0.647459 0.751934 0.876328
O O17 0.500000 0.000000 0.000000
#
# Coordination Sequence:
#
# PCOD9074886 Si02
#       8
#     2   2   2   2   2   2   2   2
#     4  11  23  43  74 105 132 181 242 302 354 415
#     4  11  26  46  71 106 144 191 239 296 354 428
#     4  11  23  44  74 103 138 178 242 298 356 420
#     4  11  23  43  65 102 138 186 230 289 360 432
#     4  11  23  44  75 105 142 185 241 300 359 413
#     4  11  27  44  66  99 145 193 228 284 362 433
#     4  11  20  39  72  99 137 175 236 299 360 414
#     4  11  24  43  67  98 143 181 230 292 360 424
#
# _framework density 21.613161999999999
#
# number of rings (size 3 to 8) (size 9 to 14) (size 15 to 20)
#    0.000    1.000    3.750    2.625    3.500    2.000 
#    2.250    0.625    0.000    0.000    0.000    0.000 
#    0.000    0.000    0.000    0.000    0.000    0.000 
#
# Total GULP energy -89078.416181 kJ/mol
# GULP energy per Si atom -5567.401011 kJ/mol
# Density = 2.156397 g / cm^3
# Si number density = 21.613162 Si / 1000 Ang^3
#
#
#
# Elastic Constant Matrix: (Units=GPa)
#
#
# Indices 1 2 3 4 5 6 
#
# 1 92.0351 10.1671 29.5801 1.6070 25.2995 21.6501
# 2 10.1671 98.0380 30.4703 6.4691 -1.6295 11.0117
# 3 29.5801 30.4703 137.8312 0.1856 33.0237 8.0720
# 4 1.6070 6.4691 0.1856 40.1060 5.1773 5.9835
# 5 25.2995 -1.6295 33.0237 5.1773 43.9035 9.2115
# 6 21.6501 11.0117 8.0720 5.9835 9.2115 37.2917
#
#
#
# Elastic Compliance Matrix: (Units=1/GPa)
#
#
# Indices 1 2 3 4 5 6 
#
# 1 0.014582 -0.000621 -0.001076 0.001341 -0.006371 -0.006691
# 2 -0.000621 0.011838 -0.003295 -0.001938 0.004163 -0.003139
# 3 -0.001076 -0.003295 0.009908 0.001318 -0.007331 0.001052
# 4 0.001341 -0.001938 0.001318 0.026273 -0.004163 -0.003679
# 5 -0.006371 0.004163 -0.007331 -0.004163 0.033345 -0.003512
# 6 -0.006691 -0.003139 0.001052 -0.003679 -0.003512 0.032857
#
#
# Mechanical properties :
#
#
# Convention : Reuss Voigt Hill
#
# Bulk Modulus (GPa) = 37.95782 52.03768 44.99775
# Shear Modulus (GPa) = 33.88305 41.43939 37.66122
#
# Velocity S-wave (km/s) = 3.96372 4.38347 4.17887
# Velocity P-wave (km/s) = 6.20875 7.05329 6.64445
#
# Compressibility (1/GPa) = 0.02634503
#
# Stress axis : x y z
#
# Youngs Moduli (GPa) = 68.57992 84.47231 100.93334
#
# Poissons Ratio (x) = 0.05244 0.10857
# Poissons Ratio (y) = 0.04257 0.33255
# Poissons Ratio (z) = 0.07377 0.27831
#
# Static dielectric constant tensor:
#      x y z
#    x 1.844250 -0.062980 -0.017340 
#    y -0.062980 1.834190 -0.023760 
#    z -0.017340 -0.023760 1.854620 
# 
# From -- ./inp_files/510942.got.cif
#   From: 2010.05.17/outbox.ucp.g08.bks.cvg/sg2_256_cif.got.tgz:510942.got - 2010.06.11 11:32:03.
