data_PCOD9074915
_publ_section_title
;
Structure prediction by ZEFSAII (Michael W. Deem and Ramdas Pophale) SiO2 
 PCOD9074915
Probable space group: P -1
;
_chemical_formula_sum "Si O2"
_cell_formula_units_Z 16
_cell_length_a 12.000000
_cell_length_b 12.000000
_cell_length_c 9.000000
_cell_angle_alpha 90.000000
_cell_angle_beta 130.000000
_cell_angle_gamma 120.000000
_cell_volume 752.153660
_symmetry_space_group_name_H-M "P -1"
_symmetry_group_IT_number 2
_symmetry_cell_setting 'triclinic'
loop_
_space_group_symop_operation_xyz
x,y,z
-x,-y,-z
loop_
_atom_site_type_symbol
_atom_site_label
_atom_site_fract_x
_atom_site_fract_y
_atom_site_fract_z
Si Si1 0.085498 0.426458 0.727259
Si Si2 0.553433 0.408116 0.477058
Si Si3 0.301245 0.185006 0.482511
Si Si4 0.503207 0.614284 0.093964
Si Si5 0.911967 0.131840 0.700894
Si Si6 0.080915 0.883555 0.939311
Si Si7 0.697035 0.804462 0.998958
Si Si8 0.052975 0.392504 0.352936
O O1 0.110764 0.405193 0.575400
O O2 0.925601 0.263213 0.652499
O O3 0.039660 0.531991 0.714397
O O4 0.291996 0.514994 0.980235
O O5 0.500000 0.500000 0.500000
O O6 0.485567 0.281652 0.535732
O O7 0.421318 0.322685 0.222450
O O8 0.767682 0.509736 0.604174
O O9 0.340113 0.292297 0.645747
O O10 0.115943 0.141971 0.240036
O O11 0.252731 0.036166 0.491036
O O12 0.500000 0.500000 0.000000
O O13 0.562885 0.739982 0.028382
O O14 0.899376 0.130941 0.869180
O O15 0.107135 0.168019 0.810845
O O16 0.066976 0.768617 0.821694
O O17 0.243173 0.047071 0.015678
#
# Coordination Sequence:
#
# PCOD9074915 Si02
#       8
#     2   2   2   2   2   2   2   2
#     4  11  26  44  62  90 128 165 207 256 308 369
#     4  12  20  39  66  94 120 164 210 250 306 365
#     4  11  23  37  64  97 126 158 201 261 313 361
#     4  12  23  39  62  97 123 160 214 258 300 365
#     4  11  22  40  62  94 129 157 204 258 312 365
#     4  11  22  40  62  94 127 162 202 252 317 365
#     4  11  21  37  64  93 127 159 201 262 306 363
#     4  11  25  44  65  88 124 170 206 252 315 367
#
# _framework density 21.272248999999999
#
# number of rings (size 3 to 8) (size 9 to 14) (size 15 to 20)
#    0.000    0.750    6.250    2.250    3.500    1.500 
#    0.000    2.500    0.000    0.000    0.000    0.000 
#    0.000    0.000    0.000    0.000    0.000    0.000 
#
# Total GULP energy -89316.535824 kJ/mol
# GULP energy per Si atom -5582.283489 kJ/mol
# Density = 2.122383 g / cm^3
# Si number density = 21.272249 Si / 1000 Ang^3
#
#
#
# Elastic Constant Matrix: (Units=GPa)
#
#
# Indices 1 2 3 4 5 6 
#
# 1 56.1524 6.7285 4.8783 9.5175 -13.2233 -7.6424
# 2 6.7285 87.8941 9.1617 15.1042 -0.0158 3.4575
# 3 4.8783 9.1617 47.5733 17.8604 -12.6138 -6.9211
# 4 9.5175 15.1042 17.8604 23.8389 -3.8855 -3.0756
# 5 -13.2233 -0.0158 -12.6138 -3.8855 17.1005 3.9641
# 6 -7.6424 3.4575 -6.9211 -3.0756 3.9641 33.4655
#
#
#
# Elastic Compliance Matrix: (Units=1/GPa)
#
#
# Indices 1 2 3 4 5 6 
#
# 1 0.024797 -0.000939 0.008274 -0.011459 0.021783 0.003837
# 2 -0.000939 0.012986 -0.000165 -0.008366 -0.002251 -0.002092
# 3 0.008274 -0.000165 0.038136 -0.026762 0.027502 0.004076
# 4 -0.011459 -0.008366 -0.026762 0.069859 -0.012889 0.000660
# 5 0.021783 -0.002251 0.027502 -0.012889 0.092980 -0.001303
# 6 0.003837 -0.002092 0.004076 0.000660 -0.001303 0.032032
#
#
# Mechanical properties :
#
#
# Convention : Reuss Voigt Hill
#
# Bulk Modulus (GPa) = 11.07915 25.90630 18.49273
# Shear Modulus (GPa) = 17.44984 26.27108 21.86046
#
# Velocity S-wave (km/s) = 2.86721 3.51806 3.20918
# Velocity P-wave (km/s) = 4.02253 5.35791 4.73751
#
# Compressibility (1/GPa) = 0.09025961
#
# Stress axis : x y z
#
# Youngs Moduli (GPa) = 40.32818 77.00589 26.22187
#
# Poissons Ratio (x) = 0.07228 -0.21696
# Poissons Ratio (y) = 0.03785 0.00432
# Poissons Ratio (z) = -0.33368 0.01270
#
# Static dielectric constant tensor:
#      x y z
#    x 1.747220 0.045100 -0.003510 
#    y 0.045100 1.845580 -0.018480 
#    z -0.003510 -0.018480 1.805550 
# 
# From -- ./inp_files/182360.got.cif
#   From: 2010.05.17/outbox.ucp.g08.bks.cvg/sg2_92_cif.got.tgz:182360.got - 2010.06.11 11:32:03.
