data_PCOD9074965
_publ_section_title
;
Structure prediction by ZEFSAII (Michael W. Deem and Ramdas Pophale) SiO2 
 PCOD9074965
Probable space group: P -1
;
_chemical_formula_sum "Si O2"
_cell_formula_units_Z 16
_cell_length_a 15.000000
_cell_length_b 9.000000
_cell_length_c 12.000000
_cell_angle_alpha 130.000000
_cell_angle_beta 40.000000
_cell_angle_gamma 110.000000
_cell_volume 759.581896
_symmetry_space_group_name_H-M "P -1"
_symmetry_group_IT_number 2
_symmetry_cell_setting 'triclinic'
loop_
_space_group_symop_operation_xyz
x,y,z
-x,-y,-z
loop_
_atom_site_type_symbol
_atom_site_label
_atom_site_fract_x
_atom_site_fract_y
_atom_site_fract_z
Si Si1 0.766896 0.098383 0.043965
Si Si2 0.003623 0.172969 0.991454
Si Si3 0.254907 0.085717 0.541848
Si Si4 0.109877 0.186491 0.387612
Si Si5 0.233356 0.420380 0.539274
Si Si6 0.199894 0.791822 0.271109
Si Si7 0.508865 0.113573 0.434529
Si Si8 0.434907 0.573517 0.773044
O O1 0.902537 0.173152 0.980255
O O2 0.675264 0.083421 0.231973
O O3 0.650473 0.257629 0.153640
O O4 0.840612 0.879710 0.815337
O O5 0.909195 0.385370 0.235840
O O6 0.161756 0.137246 0.769473
O O7 0.000000 0.000000 0.000000
O O8 0.217147 0.282840 0.593410
O O9 0.425203 0.030349 0.379646
O O10 0.223358 0.904048 0.415412
O O11 0.218025 0.296486 0.385853
O O12 0.937907 0.291008 0.619370
O O13 0.147368 0.972729 0.316772
O O14 0.393522 0.446531 0.400253
O O15 0.346814 0.641131 0.005384
O O16 0.427912 0.353709 0.638010
O O17 0.500000 0.000000 0.500000
#
# Coordination Sequence:
#
# PCOD9074965 Si02
#       8
#     2   2   2   2   2   2   2   2
#     4  11  21  43  67  87 126 163 205 252 307 361
#     4  12  25  42  62  89 129 166 204 256 305 360
#     4  11  23  40  66  92 120 167 207 251 305 363
#     4   9  20  37  64  92 121 157 202 258 303 359
#     4  11  23  40  65  96 122 158 209 254 307 366
#     4   9  20  38  61  94 123 152 206 258 303 357
#     4  12  25  41  61  91 128 164 205 252 309 366
#     4  11  23  40  66  94 124 158 204 260 305 365
#
# _framework density 21.064219999999999
#
# number of rings (size 3 to 8) (size 9 to 14) (size 15 to 20)
#    0.000    1.250    3.750    2.250    5.250    1.500 
#    0.000    2.500    0.000    0.000    0.000    0.000 
#    0.000    0.000    0.000    0.000    0.000    0.000 
#
# Total GULP energy -89241.736196 kJ/mol
# GULP energy per Si atom -5577.608512 kJ/mol
# Density = 2.101628 g / cm^3
# Si number density = 21.064220 Si / 1000 Ang^3
#
#
#
# Elastic Constant Matrix: (Units=GPa)
#
#
# Indices 1 2 3 4 5 6 
#
# 1 25.6164 24.7913 9.3065 -8.7158 -18.6751 21.2236
# 2 24.7913 32.7320 9.1007 -12.0795 10.6537 8.2374
# 3 9.3065 9.1007 83.8508 -20.8875 13.9617 3.0640
# 4 -8.7158 -12.0795 -20.8875 -2.1092 -0.5034 -4.4908
# 5 -18.6751 10.6537 13.9617 -0.5034 7.3205 -5.8391
# 6 21.2236 8.2374 3.0640 -4.4908 -5.8391 20.1474
#
#
#
# Elastic Compliance Matrix: (Units=1/GPa)
#
#
# Indices 1 2 3 4 5 6 
#
# 1 -0.002276 0.014783 0.001679 -0.026383 -0.052208 -0.024914
# 2 0.014783 0.013939 -0.009710 -0.014319 0.021625 -0.016719
# 3 0.001679 -0.009710 0.007961 -0.021013 -0.001506 -0.004130
# 4 -0.026383 -0.014319 -0.021013 -0.102362 -0.002917 0.013181
# 5 -0.052208 0.021625 -0.001506 -0.002917 0.014434 0.049918
# 6 -0.024914 -0.016719 -0.004130 0.013181 0.049918 0.100748
#
#
# Mechanical properties :
#
#
# Convention : Reuss Voigt Hill
#
# Bulk Modulus (GPa) = 30.18564 25.39959 27.79262
# Shear Modulus (GPa) = 166.76464 11.67178 89.21821
#
# Velocity S-wave (km/s) = 8.90738 2.35650 6.51516
# Velocity P-wave (km/s) = 10.96130 4.41457 8.35579
#
# Compressibility (1/GPa) = 0.03312833
#
# Stress axis : x y z
#
# Youngs Moduli (GPa) = -439.44178 71.74000 125.61393
#
# Poissons Ratio (x) = -1.06052 -0.21095
# Poissons Ratio (y) = 6.49617 1.21974
# Poissons Ratio (z) = 0.73798 0.69661
#
# Static dielectric constant tensor:
#      x y z
#    x 1.806450 0.013300 0.067660 
#    y 0.013300 1.862750 0.096820 
#    z 0.067660 0.096820 1.813480 
# 
# From -- ./inp_files/179198.got.cif
#   From: 2010.05.17/outbox.ucp.g08.bks.cvg/sg2_90_cif.got.tgz:179198.got - 2010.06.11 11:32:03.
