data_PCOD9074056
_publ_section_title
;
Structure prediction by ZEFSAII (Michael W. Deem and Ramdas Pophale) SiO2 
 PCOD9074056
Probable space group: P -1
;
_chemical_formula_sum "Si O2"
_cell_formula_units_Z 16
_cell_length_a 5.161280
_cell_length_b 20.919015
_cell_length_c 12.192034
_cell_angle_alpha 63.003263
_cell_angle_beta 115.891683
_cell_angle_gamma 75.440489
_cell_volume 873.573364
_symmetry_space_group_name_H-M "P -1"
_symmetry_group_IT_number 2
_symmetry_cell_setting 'triclinic'
loop_
_space_group_symop_operation_xyz
x,y,z
-x,-y,-z
loop_
_atom_site_type_symbol
_atom_site_label
_atom_site_fract_x
_atom_site_fract_y
_atom_site_fract_z
Si Si1 0.387593 0.354209 0.725809
Si Si2 0.295623 0.630970 0.660385
Si Si3 0.381005 0.589214 0.465557
Si Si4 0.348942 0.996644 0.091172
Si Si5 0.758406 0.808287 0.304304
Si Si6 0.845448 0.592818 0.953455
Si Si7 0.413877 0.452301 0.853457
Si Si8 0.933349 0.184429 0.880398
O O1 0.420238 0.377203 0.589720
O O2 0.349833 0.427446 0.741555
O O3 0.764751 0.262934 0.876139
O O4 0.039425 0.355566 0.669991
O O5 0.473470 0.584612 0.613192
O O6 0.517576 0.649318 0.769562
O O7 0.257131 0.555032 0.761795
O O8 0.982269 0.724853 0.487837
O O9 0.500000 0.500000 0.500000
O O10 0.635569 0.900939 0.263739
O O11 0.225906 0.088127 0.052908
O O12 0.500000 0.000000 0.000000
O O13 0.000000 0.000000 0.000000
O O14 0.405435 0.815366 0.209081
O O15 0.938745 0.801550 0.224676
O O16 0.730716 0.585133 0.058684
O O17 0.000000 0.500000 0.000000
O O18 0.169923 0.600456 0.011197
#
# Coordination Sequence:
#
# PCOD9074056 Si02
#       8
#     2   2   2   2   2   2   2   2
#     4  12  22  35  52  75 106 137 170 203 252 314
#     4  11  21  35  56  72 105 132 174 210 254 295
#     4  12  24  34  49  78 108 136 163 206 261 306
#     4   8  16  29  46  67 103 132 157 195 243 307
#     4  10  19  30  49  76 101 131 163 203 254 302
#     4  10  23  39  52  70  93 140 181 216 246 282
#     4  11  24  37  52  70 101 138 179 211 246 290
#     4  10  18  32  47  75 104 133 162 195 252 315
#
# _framework density 18.315576
#
# number of rings (size 3 to 8) (size 9 to 14) (size 15 to 20)
#    0.000    1.500    3.750    2.625    1.750    4.000 
#    0.000    0.000    0.000    0.000    0.000    1.750 
#    0.000    0.000    0.000    0.375    0.000    0.000 
#
# Total GULP energy -89070.023990 kJ/mol
# GULP energy per Si atom -5566.876499 kJ/mol
# Density = 1.827389 g / cm^3
# Si number density = 18.315576 Si / 1000 Ang^3
#
#
#
# Elastic Constant Matrix: (Units=GPa)
#
#
# Indices 1 2 3 4 5 6 
#
# 1 92.4480 14.6757 3.6887 -1.6342 8.3666 -11.0981
# 2 14.6757 62.4243 26.3963 -33.7149 3.5962 -6.3074
# 3 3.6887 26.3963 60.6452 -15.5491 9.8842 -4.2114
# 4 -1.6342 -33.7149 -15.5491 36.2406 -2.6672 2.1645
# 5 8.3666 3.5962 9.8842 -2.6672 18.8589 3.5793
# 6 -11.0981 -6.3074 -4.2114 2.1645 3.5793 17.8812
#
#
#
# Elastic Compliance Matrix: (Units=1/GPa)
#
#
# Indices 1 2 3 4 5 6 
#
# 1 0.013321 -0.004936 0.002299 -0.004187 -0.008527 0.009282
# 2 -0.004936 0.037935 -0.008367 0.031469 0.003046 0.003928
# 3 0.002299 -0.008367 0.022626 0.000749 -0.012351 0.006186
# 4 -0.004187 0.031469 0.000749 0.057183 0.003345 0.001087
# 5 -0.008527 0.003046 -0.012351 0.003345 0.067155 -0.020975
# 6 0.009282 0.003928 0.006186 0.001087 -0.020975 0.068595
#
#
# Mechanical properties :
#
#
# Convention : Reuss Voigt Hill
#
# Bulk Modulus (GPa) = 19.27728 33.89318 26.58523
# Shear Modulus (GPa) = 16.33382 25.97991 21.15687
#
# Velocity S-wave (km/s) = 2.98954 3.77033 3.40241
# Velocity P-wave (km/s) = 4.73966 6.12365 5.47556
#
# Compressibility (1/GPa) = 0.05187454
#
# Stress axis : x y z
#
# Youngs Moduli (GPa) = 75.07134 26.36081 44.19704
#
# Poissons Ratio (x) = 0.13012 -0.10161
# Poissons Ratio (y) = 0.37056 0.36978
# Poissons Ratio (z) = -0.17259 0.22055
#
# Static dielectric constant tensor:
#      x y z
#    x 1.690610 -0.004010 0.009250 
#    y -0.004010 1.732010 -0.069720 
#    z 0.009250 -0.069720 1.729780 
# 
# From -- ./inp_files/368999.got.cif
#   From: 2010.05.17/outbox.cif.g08.bks.cpg/sg2_185_cif.got.tgz:368999.got - 2010.06.03 11:33:40.
