data_PCOD9074606
_publ_section_title
;
Structure prediction by ZEFSAII (Michael W. Deem and Ramdas Pophale) SiO2 
 PCOD9074606
Probable space group: P -1
;
_chemical_formula_sum "Si O2"
_cell_formula_units_Z 16
_cell_length_a 12.129743
_cell_length_b 8.766487
_cell_length_c 7.382864
_cell_angle_alpha 70.546153
_cell_angle_beta 85.151221
_cell_angle_gamma 71.692429
_cell_volume 702.594652
_symmetry_space_group_name_H-M "P -1"
_symmetry_group_IT_number 2
_symmetry_cell_setting 'triclinic'
loop_
_space_group_symop_operation_xyz
x,y,z
-x,-y,-z
loop_
_atom_site_type_symbol
_atom_site_label
_atom_site_fract_x
_atom_site_fract_y
_atom_site_fract_z
Si Si1 0.804482 0.069063 0.081560
Si Si2 0.734383 0.665438 0.546280
Si Si3 0.410129 0.684172 0.945739
Si Si4 0.634675 0.838925 0.154829
Si Si5 0.437345 0.117629 0.246623
Si Si6 0.615053 0.389025 0.633618
Si Si7 0.073675 0.174721 0.516548
Si Si8 0.155623 0.866932 0.359438
O O1 0.727025 0.251422 0.098941
O O2 0.853809 0.101245 0.868661
O O3 0.710167 0.969453 0.095641
O O4 0.886306 0.950233 0.265057
O O5 0.703181 0.685449 0.330891
O O6 0.654370 0.832736 0.599837
O O7 0.687389 0.509077 0.664163
O O8 0.863045 0.679620 0.548746
O O9 0.416057 0.708996 0.152367
O O10 0.500000 0.500000 0.000000
O O11 0.465669 0.791364 0.762818
O O12 0.513641 0.933180 0.239083
O O13 0.622843 0.797659 0.964680
O O14 0.500000 0.500000 0.500000
O O15 0.713123 0.245691 0.569604
O O16 0.934912 0.229405 0.524136
O O17 0.118408 0.048935 0.390654
#
# Coordination Sequence:
#
# PCOD9074606 Si02
#       8
#     2   2   2   2   2   2   2   2
#     4   9  19  35  58  81 109 144 191 240 277 331
#     4  11  21  35  55  84 112 152 185 231 287 338
#     4  10  19  33  50  79 112 151 184 218 285 346
#     4   9  19  31  49  82 107 145 187 232 280 331
#     4  10  18  32  52  73 114 147 187 232 273 335
#     4  11  24  37  58  87 121 150 185 238 293 346
#     4  10  22  39  64  82 111 155 199 237 277 333
#     4  10  22  41  59  87 113 150 198 238 280 336
#
# _framework density 22.772732000000001
#
# number of rings (size 3 to 8) (size 9 to 14) (size 15 to 20)
#    0.000    2.000    1.250    2.250    1.750    4.500 
#    0.000    0.000    0.000    0.000    0.000   12.250 
#    0.000    0.000    0.000    0.000    0.000    0.000 
#
# Total GULP energy -89163.971030 kJ/mol
# GULP energy per Si atom -5572.748189 kJ/mol
# Density = 2.272090 g / cm^3
# Si number density = 22.772732 Si / 1000 Ang^3
#
#
#
# Elastic Constant Matrix: (Units=GPa)
#
#
# Indices 1 2 3 4 5 6 
#
# 1 91.1130 12.6133 9.4700 5.4762 -17.1304 -5.3611
# 2 12.6133 43.4596 -1.4584 3.6812 -8.2088 -2.5822
# 3 9.4700 -1.4584 63.5179 10.3193 5.3283 -9.4364
# 4 5.4762 3.6812 10.3193 31.5030 -0.1783 -6.2179
# 5 -17.1304 -8.2088 5.3283 -0.1783 30.9643 -0.9276
# 6 -5.3611 -2.5822 -9.4364 -6.2179 -0.9276 34.3921
#
#
#
# Elastic Compliance Matrix: (Units=1/GPa)
#
#
# Indices 1 2 3 4 5 6 
#
# 1 0.012976 -0.002370 -0.002232 -0.000962 0.006967 0.001246
# 2 -0.002370 0.025015 0.001133 -0.002558 0.005156 0.001496
# 3 -0.002232 0.001133 0.017760 -0.004869 -0.003910 0.003624
# 4 -0.000962 -0.002558 -0.004869 0.034711 -0.000035 0.004597
# 5 0.006967 0.005156 -0.003910 -0.000035 0.038231 0.001425
# 6 0.001246 0.001496 0.003624 0.004597 0.001425 0.031247
#
#
# Mechanical properties :
#
#
# Convention : Reuss Voigt Hill
#
# Bulk Modulus (GPa) = 20.48592 26.59335 23.53964
# Shear Modulus (GPa) = 27.30014 31.20294 29.25154
#
# Velocity S-wave (km/s) = 3.46614 3.70562 3.58788
# Velocity P-wave (km/s) = 5.00341 5.47831 5.24624
#
# Compressibility (1/GPa) = 0.04881401
#
# Stress axis : x y z
#
# Youngs Moduli (GPa) = 77.06309 39.97600 56.30694
#
# Poissons Ratio (x) = 0.09473 0.12568
# Poissons Ratio (y) = 0.18261 -0.06380
# Poissons Ratio (z) = 0.17200 -0.04529
#
# Static dielectric constant tensor:
#      x y z
#    x 1.903060 -0.007130 0.001780 
#    y -0.007130 1.978100 -0.041390 
#    z 0.001780 -0.041390 1.849370 
# 
# From -- ./inp_files/242991.got.cif
#   From: 2010.05.17/outbox.cif.g08.bks.cpg/sg2_122_cif.got.tgz:242991.got - 2010.06.03 11:33:40.
