data_PCOD9074195
_publ_section_title
;
Structure prediction by ZEFSAII (Michael W. Deem and Ramdas Pophale) SiO2 
 PCOD9074195
Probable space group: P -1
;
_chemical_formula_sum "Si O2"
_cell_formula_units_Z 16
_cell_length_a 12.000000
_cell_length_b 18.000000
_cell_length_c 15.000000
_cell_angle_alpha 30.000000
_cell_angle_beta 50.000000
_cell_angle_gamma 30.000000
_cell_volume 731.734496
_symmetry_space_group_name_H-M "P -1"
_symmetry_group_IT_number 2
_symmetry_cell_setting 'triclinic'
loop_
_space_group_symop_operation_xyz
x,y,z
-x,-y,-z
loop_
_atom_site_type_symbol
_atom_site_label
_atom_site_fract_x
_atom_site_fract_y
_atom_site_fract_z
Si Si1 0.682437 0.315145 0.924272
Si Si2 0.898537 0.697724 0.569734
Si Si3 0.561699 0.738638 0.815678
Si Si4 0.353046 0.812719 0.457926
Si Si5 0.251405 0.920241 0.050201
Si Si6 0.356367 0.158086 0.817087
Si Si7 0.270502 0.601709 0.592712
Si Si8 0.063878 0.620377 0.849379
O O1 0.509758 0.587161 0.685150
O O2 0.714340 0.176604 0.966188
O O3 0.572642 0.314838 0.066519
O O4 0.957525 0.145345 0.984603
O O5 0.742327 0.702761 0.703335
O O6 0.087636 0.442184 0.683557
O O7 0.076299 0.685933 0.533346
O O8 0.678898 0.961007 0.356971
O O9 0.746929 0.534284 0.007834
O O10 0.509976 0.815152 0.328604
O O11 0.258145 0.775482 0.467445
O O12 0.140603 0.084642 0.333269
O O13 0.431926 0.677722 0.278079
O O14 0.329861 0.027553 0.910443
O O15 0.500000 0.000000 0.000000
O O16 0.200016 0.551347 0.762009
O O17 0.000000 0.500000 0.000000
#
# Coordination Sequence:
#
# PCOD9074195 Si02
#       8
#     2   2   2   2   2   2   2   2
#     4  10  24  45  71 101 135 171 227 297 338 383
#     4  11  26  43  67 102 139 190 216 270 349 409
#     4  11  24  45  68  98 138 178 228 276 338 406
#     4  11  26  40  71 106 127 176 234 280 340 397
#     4  10  22  43  69 101 133 176 223 285 340 393
#     4  12  25  43  65  99 139 179 228 270 337 418
#     4  11  22  43  70  99 133 176 229 277 335 405
#     4  12  22  42  74  96 133 176 227 287 332 395
#
# _framework density 21.865853999999999
#
# number of rings (size 3 to 8) (size 9 to 14) (size 15 to 20)
#    0.000    1.000    5.000    1.875    5.250    3.000 
#    0.000    1.250    0.000    0.000    0.000    0.000 
#    0.000    0.000    0.000    0.000    0.000    0.000 
#
# Total GULP energy -89097.181096 kJ/mol
# GULP energy per Si atom -5568.573818 kJ/mol
# Density = 2.181609 g / cm^3
# Si number density = 21.865854 Si / 1000 Ang^3
#
#
#
# Elastic Constant Matrix: (Units=GPa)
#
#
# Indices 1 2 3 4 5 6 
#
# 1 104.3688 26.6439 27.4264 -8.7620 -40.1536 -25.2455
# 2 26.6439 65.2619 28.7176 -30.1049 4.9731 -25.6562
# 3 27.4264 28.7176 127.5922 -29.9409 -9.3022 -8.1408
# 4 -8.7620 -30.1049 -29.9409 42.5318 -7.0231 -7.7869
# 5 -40.1536 4.9731 -9.3022 -7.0231 42.4345 1.6568
# 6 -25.2455 -25.6562 -8.1408 -7.7869 1.6568 35.0445
#
#
#
# Elastic Compliance Matrix: (Units=1/GPa)
#
#
# Indices 1 2 3 4 5 6 
#
# 1 0.026049 0.007566 0.001402 0.021225 0.026485 0.028094
# 2 0.007566 0.069784 0.003911 0.068306 0.008323 0.072232
# 3 0.001402 0.003911 0.010654 0.013034 0.005009 0.009008
# 4 0.021225 0.068306 0.013034 0.106812 0.029074 0.090684
# 5 0.026485 0.008323 0.005009 0.029074 0.052378 0.030320
# 6 0.028094 0.072232 0.009008 0.090684 0.030320 0.122464
#
#
# Mechanical properties :
#
#
# Convention : Reuss Voigt Hill
#
# Bulk Modulus (GPa) = 7.56170 51.42207 29.49189
# Shear Modulus (GPa) = 12.30119 38.29782 25.29950
#
# Velocity S-wave (km/s) = 2.37444 4.18962 3.40521
# Velocity P-wave (km/s) = 3.31406 6.85361 5.38308
#
# Compressibility (1/GPa) = 0.13224536
#
# Stress axis : x y z
#
# Youngs Moduli (GPa) = 38.38992 14.32987 93.85922
#
# Poissons Ratio (x) = -0.10842 -0.13160
# Poissons Ratio (y) = -0.29045 -0.36711
# Poissons Ratio (z) = -0.05383 -0.05605
#
# Static dielectric constant tensor:
#      x y z
#    x 2.341760 -0.220150 -0.267940 
#    y -0.220150 1.977650 0.114870 
#    z -0.267940 0.114870 1.960040 
# 
# From -- ./inp_files/523428.got.cif
#   From: 2010.05.17/outbox.ucp.g08.bks.cvg/sg2_262_cif.got.tgz:523428.got - 2010.06.11 11:32:03.
