data_PCOD9074344
_publ_section_title
;
Structure prediction by ZEFSAII (Michael W. Deem and Ramdas Pophale) SiO2 
 PCOD9074344
Probable space group: P -1
;
_chemical_formula_sum "Si O2"
_cell_formula_units_Z 16
_cell_length_a 18.000000
_cell_length_b 9.000000
_cell_length_c 9.000000
_cell_angle_alpha 80.000000
_cell_angle_beta 140.000000
_cell_angle_gamma 120.000000
_cell_volume 752.029055
_symmetry_space_group_name_H-M "P -1"
_symmetry_group_IT_number 2
_symmetry_cell_setting 'triclinic'
loop_
_space_group_symop_operation_xyz
x,y,z
-x,-y,-z
loop_
_atom_site_type_symbol
_atom_site_label
_atom_site_fract_x
_atom_site_fract_y
_atom_site_fract_z
Si Si1 0.371076 0.630633 0.877839
Si Si2 0.882178 0.533238 0.349663
Si Si3 0.391379 0.563842 0.579510
Si Si4 0.948224 0.135460 0.904728
Si Si5 0.169180 0.535926 0.034075
Si Si6 0.321714 0.169645 0.619309
Si Si7 0.902249 0.164471 0.169139
Si Si8 0.297836 0.230409 0.919197
O O1 0.243479 0.641768 0.722815
O O2 0.381137 0.619782 0.720589
O O3 0.317185 0.425637 0.889982
O O4 0.520591 0.779464 0.153479
O O5 0.000000 0.500000 0.500000
O O6 0.962277 0.716518 0.537844
O O7 0.820412 0.534262 0.097772
O O8 0.302634 0.596672 0.327215
O O9 0.333928 0.348110 0.537604
O O10 0.557541 0.693125 0.782605
O O11 0.796837 0.014997 0.612396
O O12 0.943343 0.160197 0.066615
O O13 0.039409 0.344115 0.942507
O O14 0.000000 0.000000 0.000000
O O15 0.158721 0.708724 0.960277
O O16 0.292692 0.168278 0.750961
O O17 0.815542 0.957241 0.136354
#
# Coordination Sequence:
#
# PCOD9074344 Si02
#       8
#     2   2   2   2   2   2   2   2
#     4   9  19  37  66  90 123 165 201 256 309 357
#     4  10  23  40  61  89 125 166 208 247 309 369
#     4   9  18  38  64  93 125 160 204 253 309 364
#     4  12  24  38  63  93 123 160 210 259 302 364
#     4  11  23  41  62  86 128 166 202 259 308 360
#     4   9  19  39  62  95 124 156 208 256 302 367
#     4  11  25  41  59  88 127 166 205 253 313 366
#     4   9  20  37  63  93 125 162 204 252 307 371
#
# _framework density 21.275773999999998
#
# number of rings (size 3 to 8) (size 9 to 14) (size 15 to 20)
#    0.000    2.000    1.250    3.375    3.500    3.000 
#    0.000    3.750    0.000   10.500    0.000    0.000 
#    0.000    0.000    0.000    0.000    0.000    0.000 
#
# Total GULP energy -89118.974535 kJ/mol
# GULP energy per Si atom -5569.935908 kJ/mol
# Density = 2.122735 g / cm^3
# Si number density = 21.275774 Si / 1000 Ang^3
#
#
#
# Elastic Constant Matrix: (Units=GPa)
#
#
# Indices 1 2 3 4 5 6 
#
# 1 27.4340 -28.6385 14.8708 17.6915 -18.7616 -5.6660
# 2 -28.6385 -6.1010 14.4368 1.3134 -27.1764 10.1136
# 3 14.8708 14.4368 124.9867 11.5461 -7.1468 -9.6538
# 4 17.6915 1.3134 11.5461 27.0371 -1.5769 2.2113
# 5 -18.7616 -27.1764 -7.1468 -1.5769 25.2906 1.9769
# 6 -5.6660 10.1136 -9.6538 2.2113 1.9769 16.3099
#
#
#
# Elastic Compliance Matrix: (Units=1/GPa)
#
#
# Indices 1 2 3 4 5 6 
#
# 1 0.023188 -0.021930 0.003030 -0.018117 -0.008744 0.026964
# 2 -0.021930 -0.000691 -0.000064 0.014095 -0.015583 -0.007250
# 3 0.003030 -0.000064 0.008954 -0.006135 0.003798 0.006764
# 4 -0.018117 0.014095 -0.006135 0.053260 0.005367 -0.026537
# 5 -0.008744 -0.015583 0.003798 0.005367 0.017243 0.006056
# 6 0.026964 -0.007250 0.006764 -0.026537 0.006056 0.082043
#
#
# Mechanical properties :
#
#
# Convention : Reuss Voigt Hill
#
# Bulk Modulus (GPa) = -154.43743 16.40643 -69.01550
# Shear Modulus (GPa) = 22.75142 23.43754 23.09448
#
# Velocity S-wave (km/s) = 3.27365 3.32265 3.29824
# Velocity P-wave (km/s) = 7.64571 4.73794 4.24316
#
# Compressibility (1/GPa) = -0.00647511
#
# Stress axis : x y z
#
# Youngs Moduli (GPa) = 43.12516 -1448.02475 111.68080
#
# Poissons Ratio (x) = -31.75485 -0.33844
# Poissons Ratio (y) = 0.94572 0.00716
# Poissons Ratio (z) = -0.13069 -0.09285
#
# Static dielectric constant tensor:
#      x y z
#    x 1.969250 -0.061430 0.109020 
#    y -0.061430 1.650290 -0.021620 
#    z 0.109020 -0.021620 1.796050 
# 
# From -- ./inp_files/182409.got.cif
#   From: 2010.05.17/outbox.ucp.g08.bks.cvg/sg2_92_cif.got.tgz:182409.got - 2010.06.11 11:32:03.
