data_PCOD9074206
_publ_section_title
;
Structure prediction by ZEFSAII (Michael W. Deem and Ramdas Pophale) SiO2 
 PCOD9074206
Probable space group: P -1
;
_chemical_formula_sum "Si O2"
_cell_formula_units_Z 14
_cell_length_a 12.000000
_cell_length_b 9.000000
_cell_length_c 12.000000
_cell_angle_alpha 50.000000
_cell_angle_beta 40.000000
_cell_angle_gamma 60.000000
_cell_volume 638.079485
_symmetry_space_group_name_H-M "P -1"
_symmetry_group_IT_number 2
_symmetry_cell_setting 'triclinic'
loop_
_space_group_symop_operation_xyz
x,y,z
-x,-y,-z
loop_
_atom_site_type_symbol
_atom_site_label
_atom_site_fract_x
_atom_site_fract_y
_atom_site_fract_z
Si Si1 0.569645 0.034377 0.777463
Si Si2 0.635224 0.029992 0.481904
Si Si3 0.270987 0.564212 0.870288
Si Si4 0.004300 0.562258 0.278016
Si Si5 0.222157 0.129069 0.119089
Si Si6 0.381982 0.524300 0.461732
Si Si7 0.034000 0.195282 0.596090
O O1 0.535125 0.035760 0.672277
O O2 0.648888 0.245931 0.636928
O O3 0.704801 0.882024 0.803812
O O4 0.383311 0.026954 0.981350
O O5 0.741344 0.229620 0.283779
O O6 0.500000 0.000000 0.500000
O O7 0.772903 0.860595 0.484680
O O8 0.481372 0.534509 0.712802
O O9 0.206059 0.351313 0.981811
O O10 0.156902 0.583649 0.060013
O O11 0.809083 0.570153 0.365195
O O12 0.016220 0.359605 0.435471
O O13 0.039368 0.719339 0.272485
O O14 0.057750 0.997829 0.285955
O O15 0.500000 0.500000 0.500000
#
# Coordination Sequence:
#
# PCOD9074206 Si02
#       7
#     2   2   2   2   2   2   2
#     4  10  22  43  71 101 141 182 238 295 350 428
#     4  12  27  46  68 107 145 189 230 302 369 428
#     4  11  26  44  74 105 137 191 237 288 367 424
#     4  11  26  48  72 105 144 190 241 296 354 431
#     4  10  23  44  73 106 132 189 243 293 351 423
#     4  11  22  43  72 104 141 183 235 299 349 425
#     4  11  26  47  69 103 148 186 238 302 353 422
#
# _framework density 21.940840000000001
#
# number of rings (size 3 to 8) (size 9 to 14) (size 15 to 20)
#    0.000    1.143    2.857    1.714    4.000    5.143 
#    0.000    2.857    0.000    0.000    0.000    0.000 
#    0.000    0.000    0.000    0.000    0.000    0.000 
#
# Total GULP energy -78059.774487 kJ/mol
# GULP energy per Si atom -5575.698178 kJ/mol
# Density = 2.189090 g / cm^3
# Si number density = 21.940840 Si / 1000 Ang^3
#
#
#
# Elastic Constant Matrix: (Units=GPa)
#
#
# Indices 1 2 3 4 5 6 
#
# 1 139.9070 17.5883 45.4992 9.0101 12.3450 -6.3202
# 2 17.5883 55.2550 14.0226 6.7963 6.7895 -7.6213
# 3 45.4992 14.0226 102.6631 18.9474 16.3024 3.8500
# 4 9.0101 6.7963 18.9474 50.4523 4.4581 2.5177
# 5 12.3450 6.7895 16.3024 4.4581 27.2127 0.9455
# 6 -6.3202 -7.6213 3.8500 2.5177 0.9455 21.1202
#
#
#
# Elastic Compliance Matrix: (Units=1/GPa)
#
#
# Indices 1 2 3 4 5 6 
#
# 1 0.008735 -0.001280 -0.003537 -0.000060 -0.001614 0.002876
# 2 -0.001280 0.020671 -0.001610 -0.002025 -0.003550 0.007770
# 3 -0.003537 -0.001610 0.013112 -0.003450 -0.005166 -0.003387
# 4 -0.000060 -0.002025 -0.003450 0.021608 -0.000848 -0.002658
# 5 -0.001614 -0.003550 -0.005166 -0.000848 0.041689 -0.002588
# 6 0.002876 0.007770 -0.003387 -0.002658 -0.002588 0.052062
#
#
# Mechanical properties :
#
#
# Convention : Reuss Voigt Hill
#
# Bulk Modulus (GPa) = 33.71065 50.22727 41.96896
# Shear Modulus (GPa) = 27.68248 34.47138 31.07693
#
# Velocity S-wave (km/s) = 3.55588 3.96802 3.76759
# Velocity P-wave (km/s) = 5.67950 6.62838 6.17220
#
# Compressibility (1/GPa) = 0.02966421
#
# Stress axis : x y z
#
# Youngs Moduli (GPa) = 114.48173 48.37677 76.26554
#
# Poissons Ratio (x) = 0.06194 0.26973
# Poissons Ratio (y) = 0.14659 0.12277
# Poissons Ratio (z) = 0.40490 0.07788
#
# Static dielectric constant tensor:
#      x y z
#    x 1.800290 0.025990 0.032370 
#    y 0.025990 1.925560 0.050800 
#    z 0.032370 0.050800 1.800260 
# 
# From -- ./inp_files/159781.got.cif
#   From: 2010.05.17/outbox.ucp.g08.bks.cvg/sg2_80_cif.got.tgz:159781.got - 2010.06.11 11:32:03.
