data_PCOD9074946
_publ_section_title
;
Structure prediction by ZEFSAII (Michael W. Deem and Ramdas Pophale) SiO2 
 PCOD9074946
Probable space group: P -1
;
_chemical_formula_sum "Si O2"
_cell_formula_units_Z 14
_cell_length_a 18.000000
_cell_length_b 12.000000
_cell_length_c 18.000000
_cell_angle_alpha 160.000000
_cell_angle_beta 150.000000
_cell_angle_gamma 40.000000
_cell_volume 638.438402
_symmetry_space_group_name_H-M "P -1"
_symmetry_group_IT_number 2
_symmetry_cell_setting 'triclinic'
loop_
_space_group_symop_operation_xyz
x,y,z
-x,-y,-z
loop_
_atom_site_type_symbol
_atom_site_label
_atom_site_fract_x
_atom_site_fract_y
_atom_site_fract_z
Si Si1 0.197627 0.077199 0.363042
Si Si2 0.113598 0.339113 0.151356
Si Si3 0.509283 0.088179 0.435752
Si Si4 0.455120 0.765302 0.886679
Si Si5 0.608949 0.251430 0.452017
Si Si6 0.816562 0.351620 0.172325
Si Si7 0.116913 0.478595 0.416786
O O1 0.192198 0.383386 0.605231
O O2 0.143751 0.152032 0.280238
O O3 0.366185 0.029912 0.482002
O O4 0.068864 0.751289 0.078979
O O5 0.224610 0.557105 0.321363
O O6 0.127518 0.474998 0.334082
O O7 0.151730 0.977597 0.967010
O O8 0.473287 0.408692 0.646909
O O9 0.585573 0.170057 0.469292
O O10 0.348748 0.796420 0.102942
O O11 0.278792 0.749308 0.746113
O O12 0.500000 0.000000 0.000000
O O13 0.551043 0.922853 0.141817
O O14 0.500000 0.500000 0.500000
O O15 0.957967 0.506366 0.333920
#
# Coordination Sequence:
#
# PCOD9074946 Si02
#       7
#     2   2   2   2   2   2   2
#     4  11  26  40  65 100 137 170 212 274 342 379
#     4  11  22  43  66 100 124 178 222 269 321 388
#     4  12  26  45  64 103 135 172 218 273 333 388
#     4  12  23  42  71 100 125 179 220 270 329 380
#     4  12  23  43  72  95 132 167 233 270 311 401
#     4  11  21  41  68  95 128 174 220 265 325 391
#     4  11  22  42  69  95 132 165 229 267 318 400
#
# _framework density 21.928505000000001
#
# number of rings (size 3 to 8) (size 9 to 14) (size 15 to 20)
#    0.000    0.571    5.714    4.714    2.000    1.143 
#    5.143    0.714    0.000    0.000    0.000    0.000 
#    0.000    0.000    0.000    0.000    0.000    0.000 
#
# Total GULP energy -78250.536160 kJ/mol
# GULP energy per Si atom -5589.324011 kJ/mol
# Density = 2.187860 g / cm^3
# Si number density = 21.928505 Si / 1000 Ang^3
#
#
#
# Elastic Constant Matrix: (Units=GPa)
#
#
# Indices 1 2 3 4 5 6 
#
# 1 157.4580 20.5067 44.2575 -1.4161 14.1286 -6.0783
# 2 20.5067 49.9129 8.4379 -25.0839 3.5761 -10.7999
# 3 44.2575 8.4379 106.2531 -19.6246 9.1765 -15.3584
# 4 -1.4161 -25.0839 -19.6246 25.8803 -11.5172 6.3323
# 5 14.1286 3.5761 9.1765 -11.5172 66.9632 -4.5529
# 6 -6.0783 -10.7999 -15.3584 6.3323 -4.5529 31.0491
#
#
#
# Elastic Compliance Matrix: (Units=1/GPa)
#
#
# Indices 1 2 3 4 5 6 
#
# 1 0.009584 -0.011111 -0.006061 -0.015833 -0.003475 -0.002268
# 2 -0.011111 0.058043 0.013356 0.067110 0.009798 0.012370
# 3 -0.006061 0.013356 0.016137 0.024517 0.003039 0.006887
# 4 -0.015833 0.067110 0.024517 0.127617 0.018967 0.009125
# 5 -0.003475 0.009798 0.003039 0.018967 0.018195 0.003031
# 6 -0.002268 0.012370 0.006887 0.009125 0.003031 0.038056
#
#
# Mechanical properties :
#
#
# Convention : Reuss Voigt Hill
#
# Bulk Modulus (GPa) = 13.13553 51.11427 32.12490
# Shear Modulus (GPa) = 16.63107 40.80663 28.71885
#
# Velocity S-wave (km/s) = 2.75693 4.31849 3.62285
# Velocity P-wave (km/s) = 4.01714 6.94449 5.67289
#
# Compressibility (1/GPa) = 0.07612942
#
# Stress axis : x y z
#
# Youngs Moduli (GPa) = 104.34451 17.22855 61.97038
#
# Poissons Ratio (x) = 0.19143 0.37563
# Poissons Ratio (y) = 1.15941 -0.82766
# Poissons Ratio (z) = 0.63248 -0.23010
#
# Static dielectric constant tensor:
#      x y z
#    x 1.792610 0.003240 0.039960 
#    y 0.003240 1.804160 -0.019860 
#    z 0.039960 -0.019860 1.899430 
# 
# From -- ./inp_files/426029.got.cif
#   From: 2010.05.17/outbox.ucp.g08.bks.cvg/sg2_214_cif.got.tgz:426029.got - 2010.06.11 11:32:03.
