data_PCOD9074123
_publ_section_title
;
Structure prediction by ZEFSAII (Michael W. Deem and Ramdas Pophale) SiO2 
 PCOD9074123
Probable space group: P -1
;
_chemical_formula_sum "Si O2"
_cell_formula_units_Z 16
_cell_length_a 21.000000
_cell_length_b 18.000000
_cell_length_c 9.000000
_cell_angle_alpha 150.000000
_cell_angle_beta 30.000000
_cell_angle_gamma 150.000000
_cell_volume 753.357562
_symmetry_space_group_name_H-M "P -1"
_symmetry_group_IT_number 2
_symmetry_cell_setting 'triclinic'
loop_
_space_group_symop_operation_xyz
x,y,z
-x,-y,-z
loop_
_atom_site_type_symbol
_atom_site_label
_atom_site_fract_x
_atom_site_fract_y
_atom_site_fract_z
Si Si1 0.366996 0.301296 0.748410
Si Si2 0.266435 0.509232 0.125148
Si Si3 0.000533 0.420771 0.704623
Si Si4 0.118191 0.956114 0.263679
Si Si5 0.898958 0.617081 0.058208
Si Si6 0.118330 0.955798 0.614699
Si Si7 0.349504 0.369020 0.230909
Si Si8 0.452172 0.150602 0.836844
O O1 0.536671 0.432893 0.637501
O O2 0.282612 0.100210 0.559305
O O3 0.316530 0.372557 0.835345
O O4 0.312549 0.337571 0.078217
O O5 0.163907 0.506083 0.461137
O O6 0.405476 0.684215 0.107415
O O7 0.161706 0.434550 0.070466
O O8 0.924592 0.222834 0.537073
O O9 0.000000 0.500000 0.000000
O O10 0.904856 0.464743 0.863604
O O11 0.094900 0.943552 0.464692
O O12 0.060819 0.767522 0.992991
O O13 0.000000 0.000000 0.500000
O O14 0.289091 0.069590 0.090728
O O15 0.789718 0.666101 0.452604
O O16 0.000000 0.000000 0.000000
O O17 0.421321 0.247854 0.923825
O O18 0.500000 0.000000 0.500000
#
# Coordination Sequence:
#
# PCOD9074123 Si02
#       8
#     2   2   2   2   2   2   2   2
#     4  10  22  42  67  98 135 183 233 282 355 419
#     4  11  25  44  70 102 141 189 233 296 358 427
#     4  12  25  45  70 102 146 187 235 295 362 423
#     4  12  25  44  73 106 140 188 240 296 353 425
#     4  12  24  43  69 103 138 183 241 289 358 421
#     4  12  25  43  72 102 138 183 243 295 349 423
#     4  10  23  43  69  97 140 187 232 290 355 425
#     4  11  26  44  70 102 147 185 235 295 364 423
#
# _framework density 21.238254999999999
#
# number of rings (size 3 to 8) (size 9 to 14) (size 15 to 20)
#    0.000    0.750    3.750    3.375    1.750    2.000 
#    0.000    0.625    0.000    0.000    0.000    0.000 
#    0.000    0.000    0.000    0.000    0.000    0.000 
#
# Total GULP energy -89188.144997 kJ/mol
# GULP energy per Si atom -5574.259062 kJ/mol
# Density = 2.118992 g / cm^3
# Si number density = 21.238255 Si / 1000 Ang^3
#
#
#
# Elastic Constant Matrix: (Units=GPa)
#
#
# Indices 1 2 3 4 5 6 
#
# 1 109.1823 42.6902 22.7276 8.2503 5.6638 1.3331
# 2 42.6902 180.5250 49.5775 9.4475 3.6898 8.5058
# 3 22.7276 49.5775 55.0247 0.5600 -13.1248 -3.6617
# 4 8.2503 9.4475 0.5600 44.7778 -9.9070 -7.7204
# 5 5.6638 3.6898 -13.1248 -9.9070 31.8336 9.0586
# 6 1.3331 8.5058 -3.6617 -7.7204 9.0586 34.0239
#
#
#
# Elastic Compliance Matrix: (Units=1/GPa)
#
#
# Indices 1 2 3 4 5 6 
#
# 1 0.010995 -0.001087 -0.004631 -0.002763 -0.004581 -0.000065
# 2 -0.001087 0.008446 -0.008351 -0.002878 -0.004430 -0.002441
# 3 -0.004631 -0.008351 0.031535 0.006234 0.015926 0.002837
# 4 -0.002763 -0.002878 0.006234 0.026466 0.010275 0.004769
# 5 -0.004581 -0.004430 0.015926 0.010275 0.044348 -0.006475
# 6 -0.000065 -0.002441 0.002837 0.004769 -0.006475 0.033115
#
#
# Mechanical properties :
#
#
# Convention : Reuss Voigt Hill
#
# Bulk Modulus (GPa) = 43.78576 63.85807 53.82191
# Shear Modulus (GPa) = 26.22527 37.44287 31.83407
#
# Velocity S-wave (km/s) = 3.51780 4.20335 3.87577
# Velocity P-wave (km/s) = 6.09599 7.32737 6.73986
#
# Compressibility (1/GPa) = 0.02283848
#
# Stress axis : x y z
#
# Youngs Moduli (GPa) = 90.94821 118.39979 31.71126
#
# Poissons Ratio (x) = 0.12870 0.14686
# Poissons Ratio (y) = 0.09886 0.26481
# Poissons Ratio (z) = 0.42119 0.98871
#
# Static dielectric constant tensor:
#      x y z
#    x 1.766090 -0.021950 -0.015340 
#    y -0.021950 1.784050 0.015160 
#    z -0.015340 0.015160 1.781530 
# 
# From -- ./inp_files/348981.got.cif
#   From: 2010.05.17/outbox.ucp.g08.bks.cvg/sg2_175_cif.got.tgz:348981.got - 2010.06.11 11:32:03.
