data_PCOD9074325
_publ_section_title
;
Structure prediction by ZEFSAII (Michael W. Deem and Ramdas Pophale) SiO2 
 PCOD9074325
Probable space group: P -1
;
_chemical_formula_sum "Si O2"
_cell_formula_units_Z 16
_cell_length_a 12.000000
_cell_length_b 24.000000
_cell_length_c 18.000000
_cell_angle_alpha 20.000000
_cell_angle_beta 30.000000
_cell_angle_gamma 30.000000
_cell_volume 844.160077
_symmetry_space_group_name_H-M "P -1"
_symmetry_group_IT_number 2
_symmetry_cell_setting 'triclinic'
loop_
_space_group_symop_operation_xyz
x,y,z
-x,-y,-z
loop_
_atom_site_type_symbol
_atom_site_label
_atom_site_fract_x
_atom_site_fract_y
_atom_site_fract_z
Si Si1 0.486605 0.529562 0.596984
Si Si2 0.947900 0.647144 0.708185
Si Si3 0.255888 0.997519 0.679271
Si Si4 0.566667 0.783461 0.888417
Si Si5 0.532112 0.161701 0.684970
Si Si6 0.112579 0.093564 0.095182
Si Si7 0.154075 0.352730 0.860504
Si Si8 0.245752 0.042057 0.310624
O O1 0.525999 0.645222 0.497239
O O2 0.657083 0.562585 0.391465
O O3 0.214896 0.603723 0.636623
O O4 0.504632 0.344916 0.852646
O O5 0.762979 0.687257 0.833252
O O6 0.955610 0.484348 0.858078
O O7 0.895304 0.804605 0.483925
O O8 0.337361 0.896174 0.835263
O O9 0.109036 0.917525 0.808335
O O10 0.500000 0.000000 0.500000
O O11 0.685661 0.901758 0.719623
O O12 0.767812 0.058180 0.724931
O O13 0.573731 0.125045 0.620508
O O14 0.326052 0.089536 0.922078
O O15 0.058263 0.267209 0.955466
O O16 0.257594 0.195212 0.055484
O O17 0.000000 0.000000 0.500000
#
# Coordination Sequence:
#
# PCOD9074325 Si02
#       8
#     2   2   2   2   2   2   2   2
#     4  11  20  39  64  94 121 151 217 254 303 359
#     4  11  21  39  62  87 125 166 203 249 305 365
#     4  10  23  40  60  85 128 171 199 242 313 375
#     4  11  25  39  59  94 126 161 203 255 309 362
#     4   9  19  34  64  90 113 161 200 256 301 348
#     4   9  18  39  60  87 120 157 209 243 300 365
#     4  10  23  36  65  94 117 158 204 263 305 350
#     4  11  23  36  59  95 129 149 208 258 306 354
#
# _framework density 18.953751
#
# number of rings (size 3 to 8) (size 9 to 14) (size 15 to 20)
#    0.000    1.750    2.500    2.250    7.000    0.000 
#    0.000    8.750    0.000    0.000    0.000    0.000 
#    0.000    0.000    0.000    0.000    0.000    0.000 
#
# Total GULP energy -89122.709322 kJ/mol
# GULP energy per Si atom -5570.169333 kJ/mol
# Density = 1.891061 g / cm^3
# Si number density = 18.953751 Si / 1000 Ang^3
#
#
#
# Elastic Constant Matrix: (Units=GPa)
#
#
# Indices 1 2 3 4 5 6 
#
# 1 113.2411 45.6758 40.1408 -1.0855 -19.5211 -5.8577
# 2 45.6758 51.1693 7.2556 0.8422 -5.2562 20.5921
# 3 40.1408 7.2556 80.0016 3.2231 -2.4074 -7.4588
# 4 -1.0855 0.8422 3.2231 27.4164 -0.1103 1.1433
# 5 -19.5211 -5.2562 -2.4074 -0.1103 33.5184 -7.7000
# 6 -5.8577 20.5921 -7.4588 1.1433 -7.7000 43.8285
#
#
#
# Elastic Compliance Matrix: (Units=1/GPa)
#
#
# Indices 1 2 3 4 5 6 
#
# 1 0.027125 -0.028767 -0.008955 0.002313 0.014823 0.018161
# 2 -0.028767 0.055519 0.006115 -0.002312 -0.014838 -0.031435
# 3 -0.008955 0.006115 0.016255 -0.002390 -0.003524 -0.001860
# 4 0.002313 -0.002312 -0.002390 0.036914 0.000980 0.000198
# 5 0.014823 -0.014838 -0.003524 0.000980 0.039393 0.015248
# 6 0.018161 -0.031435 -0.001860 0.000198 0.015248 0.042370
#
#
# Mechanical properties :
#
#
# Convention : Reuss Voigt Hill
#
# Bulk Modulus (GPa) = 28.02353 47.83959 37.93156
# Shear Modulus (GPa) = 17.08317 31.04198 24.06258
#
# Velocity S-wave (km/s) = 3.00544 4.05133 3.56693
# Velocity P-wave (km/s) = 5.18274 6.86872 6.08442
#
# Compressibility (1/GPa) = 0.03568430
#
# Stress axis : x y z
#
# Youngs Moduli (GPa) = 36.86633 18.01187 61.51884
#
# Poissons Ratio (x) = 0.51815 0.55090
# Poissons Ratio (y) = 1.06053 -0.37616
# Poissons Ratio (z) = 0.33014 -0.11013
#
# Static dielectric constant tensor:
#      x y z
#    x 1.677410 0.037160 0.001030 
#    y 0.037160 1.698170 -0.027720 
#    z 0.001030 -0.027720 1.716460 
# 
# From -- ./inp_files/257404.got.cif
#   From: 2010.05.17/outbox.ucp.g08.bks.cvg/sg2_129_cif.got.tgz:257404.got - 2010.06.11 11:32:03.
