data_PCOD9074102
_publ_section_title
;
Structure prediction by ZEFSAII (Michael W. Deem and Ramdas Pophale) SiO2 
 PCOD9074102
Probable space group: P -1
;
_chemical_formula_sum "Si O2"
_cell_formula_units_Z 14
_cell_length_a 15.000000
_cell_length_b 12.000000
_cell_length_c 21.000000
_cell_angle_alpha 30.000000
_cell_angle_beta 20.000000
_cell_angle_gamma 40.000000
_cell_volume 620.704002
_symmetry_space_group_name_H-M "P -1"
_symmetry_group_IT_number 2
_symmetry_cell_setting 'triclinic'
loop_
_space_group_symop_operation_xyz
x,y,z
-x,-y,-z
loop_
_atom_site_type_symbol
_atom_site_label
_atom_site_fract_x
_atom_site_fract_y
_atom_site_fract_z
Si Si1 0.083950 0.415602 0.081222
Si Si2 0.700611 0.183124 0.161480
Si Si3 0.891135 0.734951 0.273513
Si Si4 0.282259 0.001771 0.200822
Si Si5 0.625723 0.043793 0.077431
Si Si6 0.325554 0.255351 0.271076
Si Si7 0.651670 0.577504 0.238350
O O1 0.769918 0.403381 0.286863
O O2 0.156332 0.215329 0.170157
O O3 0.221808 0.650575 0.911564
O O4 0.194866 0.393950 0.946306
O O5 0.433455 0.221975 0.286471
O O6 0.722448 0.928429 0.292382
O O7 0.922575 0.242685 0.925619
O O8 0.658891 0.500096 0.535428
O O9 0.090937 0.774563 0.180523
O O10 0.000005 0.791179 0.492222
O O11 0.464796 0.056683 0.114485
O O12 0.500000 0.000000 0.000000
O O13 0.418486 0.064477 0.261435
O O14 0.699585 0.803949 0.137471
O O15 0.500000 0.500000 0.000000
#
# Coordination Sequence:
#
# PCOD9074102 Si02
#       7
#     2   2   2   2   2   2   2
#     4  11  24  44  65 102 138 181 227 283 348 409
#     4  10  22  42  66 101 134 170 233 282 336 414
#     4  10  23  42  68 102 134 177 224 286 348 403
#     4  12  26  44  69 101 142 180 233 284 344 412
#     4  11  24  45  70 102 137 178 231 286 343 416
#     4  11  26  45  71 102 139 187 231 284 350 413
#     4  11  24  43  71  98 140 180 226 283 350 413
#
# _framework density 22.555033999999999
#
# number of rings (size 3 to 8) (size 9 to 14) (size 15 to 20)
#    0.000    1.143    2.857    2.143    6.000    2.286 
#    0.000    2.143    0.000    0.000    0.000    0.000 
#    0.000    0.000    0.000    0.000    0.000    0.000 
#
# Total GULP energy -78141.715052 kJ/mol
# GULP energy per Si atom -5581.551075 kJ/mol
# Density = 2.250370 g / cm^3
# Si number density = 22.555034 Si / 1000 Ang^3
#
#
#
# Elastic Constant Matrix: (Units=GPa)
#
#
# Indices 1 2 3 4 5 6 
#
# 1 36.6469 63.0822 88.6767 21.1982 -37.5902 -33.4317
# 2 63.0822 96.3420 -15.5636 -1.9900 -7.2123 9.8886
# 3 88.6767 -15.5636 8.7464 4.5642 -26.5483 21.9794
# 4 21.1982 -1.9900 4.5642 24.8421 -6.7979 -7.2209
# 5 -37.5902 -7.2123 -26.5483 -6.7979 36.3001 3.8648
# 6 -33.4317 9.8886 21.9794 -7.2209 3.8648 55.8766
#
#
#
# Elastic Compliance Matrix: (Units=1/GPa)
#
#
# Indices 1 2 3 4 5 6 
#
# 1 0.004628 0.000836 0.014405 -0.003675 0.015293 -0.004578
# 2 0.000836 0.008355 -0.006846 0.001124 -0.002487 0.002032
# 3 0.014405 -0.006846 0.010337 -0.008526 0.019165 0.003337
# 4 -0.003675 0.001124 -0.008526 0.046607 -0.001846 0.007107
# 5 0.015293 -0.002487 0.019165 -0.001846 0.056787 -0.002115
# 6 -0.004578 0.002032 0.003337 0.007107 -0.002115 0.014550
#
#
# Mechanical properties :
#
#
# Convention : Reuss Voigt Hill
#
# Bulk Modulus (GPa) = 24.93143 46.01399 35.47271
# Shear Modulus (GPa) = 36.27258 23.77311 30.02284
#
# Velocity S-wave (km/s) = 4.01456 3.25007 3.65237
# Velocity P-wave (km/s) = 5.70671 5.87613 5.79204
#
# Compressibility (1/GPa) = 0.04011001
#
# Stress axis : x y z
#
# Youngs Moduli (GPa) = 216.06740 119.68712 96.73760
#
# Poissons Ratio (x) = -0.10000 -1.39354
# Poissons Ratio (y) = -0.18053 0.66228
# Poissons Ratio (z) = -3.11252 0.81939
#
# Static dielectric constant tensor:
#      x y z
#    x 1.823100 -0.049290 -0.005960 
#    y -0.049290 1.865080 -0.036000 
#    z -0.005960 -0.036000 1.897120 
# 
# From -- ./inp_files/191115.got.cif
#   From: 2010.05.17/outbox.ucp.g08.bks.cvg/sg2_96_cif.got.tgz:191115.got - 2010.06.11 11:32:03.
