data_PCOD9074799
_publ_section_title
;
Structure prediction by ZEFSAII (Michael W. Deem and Ramdas Pophale) SiO2 
 PCOD9074799
Probable space group: P -1
;
_chemical_formula_sum "Si O2"
_cell_formula_units_Z 16
_cell_length_a 12.000000
_cell_length_b 9.000000
_cell_length_c 18.000000
_cell_angle_alpha 50.000000
_cell_angle_beta 40.000000
_cell_angle_gamma 80.000000
_cell_volume 729.599496
_symmetry_space_group_name_H-M "P -1"
_symmetry_group_IT_number 2
_symmetry_cell_setting 'triclinic'
loop_
_space_group_symop_operation_xyz
x,y,z
-x,-y,-z
loop_
_atom_site_type_symbol
_atom_site_label
_atom_site_fract_x
_atom_site_fract_y
_atom_site_fract_z
Si Si1 0.848650 0.438991 0.916555
Si Si2 0.469345 0.276674 0.549213
Si Si3 0.803061 0.206140 0.707786
Si Si4 0.261076 0.627958 0.754977
Si Si5 0.016959 0.957006 0.660773
Si Si6 0.460676 0.072569 0.348171
Si Si7 0.969699 0.879528 0.886155
Si Si8 0.295738 0.932601 0.022817
O O1 0.828378 0.280122 0.909081
O O2 0.070388 0.568641 0.814599
O O3 0.862085 0.666864 0.807248
O O4 0.631002 0.259913 0.137665
O O5 0.500000 0.500000 0.500000
O O6 0.568845 0.364263 0.387478
O O7 0.599143 0.194957 0.551168
O O8 0.199625 0.051929 0.759553
O O9 0.765831 0.165437 0.829002
O O10 0.000000 0.500000 0.500000
O O11 0.897041 0.072499 0.670051
O O12 0.565817 0.096739 0.827318
O O13 0.412036 0.866458 0.656665
O O14 0.139035 0.403267 0.948758
O O15 0.028124 0.951185 0.746901
O O16 0.261978 0.082596 0.460647
O O17 0.789726 0.910442 0.992041
#
# Coordination Sequence:
#
# PCOD9074799 Si02
#       8
#     2   2   2   2   2   2   2   2
#     4  12  24  41  66 101 141 174 224 274 325 394
#     4  12  25  37  58  95 140 184 229 267 309 386
#     4  10  25  51  77  94 126 171 226 285 357 403
#     4  12  23  40  66  94 146 190 222 255 323 401
#     4  11  24  43  69  99 128 180 228 277 330 397
#     4  12  24  40  63  96 142 188 223 261 324 393
#     4  11  23  41  66  97 135 186 222 263 328 394
#     4  10  26  45  70 102 132 167 227 290 335 394
#
# _framework density 21.929839999999999
#
# number of rings (size 3 to 8) (size 9 to 14) (size 15 to 20)
#    0.000    0.750    5.000    2.250    3.500    3.500 
#    0.000    1.250    0.000    0.000    0.000    0.000 
#    0.000    0.000    0.000    0.000    0.000    0.000 
#
# Total GULP energy -89342.453555 kJ/mol
# GULP energy per Si atom -5583.903347 kJ/mol
# Density = 2.187993 g / cm^3
# Si number density = 21.929840 Si / 1000 Ang^3
#
#
#
# Elastic Constant Matrix: (Units=GPa)
#
#
# Indices 1 2 3 4 5 6 
#
# 1 40.1439 46.7853 19.4708 18.1975 -20.8520 -19.6813
# 2 46.7853 150.7315 35.4974 6.6599 -24.9583 -22.8025
# 3 19.4708 35.4974 89.0952 10.6778 -15.0772 -24.5280
# 4 18.1975 6.6599 10.6778 16.9726 -10.0624 -9.7297
# 5 -20.8520 -24.9583 -15.0772 -10.0624 18.7816 7.8454
# 6 -19.6813 -22.8025 -24.5280 -9.7297 7.8454 35.7108
#
#
#
# Elastic Compliance Matrix: (Units=1/GPa)
#
#
# Indices 1 2 3 4 5 6 
#
# 1 0.143371 -0.026810 0.010103 -0.091228 0.070919 0.028400
# 2 -0.026810 0.014578 -0.003048 0.024934 0.000924 -0.000970
# 3 0.010103 -0.003048 0.015840 -0.006670 0.012122 0.010021
# 4 -0.091228 0.024934 -0.006670 0.158551 0.010638 0.001923
# 5 0.070919 0.000924 0.012122 0.010638 0.140247 0.020089
# 6 0.028400 -0.000970 0.010021 0.001923 0.020089 0.046029
#
#
# Mechanical properties :
#
#
# Convention : Reuss Voigt Hill
#
# Bulk Modulus (GPa) = 7.44722 53.71975 30.58348
# Shear Modulus (GPa) = 8.29343 26.17415 17.23379
#
# Velocity S-wave (km/s) = 1.94680 3.45851 2.80636
# Velocity P-wave (km/s) = 2.90803 6.36379 4.94745
#
# Compressibility (1/GPa) = 0.13427837
#
# Stress axis : x y z
#
# Youngs Moduli (GPa) = 6.97492 68.59563 63.13086
#
# Poissons Ratio (x) = 1.83904 -0.63780
# Poissons Ratio (y) = 0.18700 0.19244
# Poissons Ratio (z) = -0.07047 0.20910
#
# Static dielectric constant tensor:
#      x y z
#    x 1.766130 0.021940 0.017990 
#    y 0.021940 1.933650 -0.047870 
#    z 0.017990 -0.047870 1.758420 
# 
# From -- ./inp_files/259246.got.cif
#   From: 2010.05.17/outbox.ucp.g08.bks.cvg/sg2_130_cif.got.tgz:259246.got - 2010.06.11 11:32:03.
