data_PCOD9074734
_publ_section_title
;
Structure prediction by ZEFSAII (Michael W. Deem and Ramdas Pophale) SiO2 
 PCOD9074734
Probable space group: P -1
;
_chemical_formula_sum "Si O2"
_cell_formula_units_Z 14
_cell_length_a 12.836235
_cell_length_b 12.607873
_cell_length_c 9.804614
_cell_angle_alpha 110.461591
_cell_angle_beta 142.401597
_cell_angle_gamma 43.831735
_cell_volume 570.493896
_symmetry_space_group_name_H-M "P -1"
_symmetry_group_IT_number 2
_symmetry_cell_setting 'triclinic'
loop_
_space_group_symop_operation_xyz
x,y,z
-x,-y,-z
loop_
_atom_site_type_symbol
_atom_site_label
_atom_site_fract_x
_atom_site_fract_y
_atom_site_fract_z
Si Si1 0.307436 0.048060 0.990504
Si Si2 0.741124 0.288070 0.625742
Si Si3 0.313468 0.498170 0.870077
Si Si4 0.684545 0.144736 0.280374
Si Si5 0.917501 0.186714 0.070522
Si Si6 0.579610 0.717080 0.319158
Si Si7 0.524889 0.880715 0.577664
O O1 0.469130 0.874838 0.179085
O O2 0.371744 0.131198 0.174617
O O3 0.367329 0.959780 0.864407
O O4 0.980892 0.209905 0.742022
O O5 0.500000 0.500000 0.500000
O O6 0.644996 0.223283 0.421757
O O7 0.879713 0.205664 0.878857
O O8 0.497845 0.321392 0.072669
O O9 0.109960 0.673464 0.831156
O O10 0.500000 0.500000 0.000000
O O11 0.211191 0.471543 0.628999
O O12 0.000000 0.000000 0.500000
O O13 0.686261 0.224684 0.907297
O O14 0.219456 0.995058 0.327861
O O15 0.677565 0.710470 0.564788
O O16 0.500000 0.000000 0.500000
#
# Coordination Sequence:
#
# PCOD9074734 Si02
#       7
#     2   2   2   2   2   2   2
#     4   9  19  35  52  77 102 136 172 210 264 300
#     4  11  19  30  51  77 104 133 174 211 247 314
#     4   9  18  32  49  77 108 127 171 221 262 294
#     4   9  18  32  50  74 101 140 170 206 253 317
#     4  11  19  31  53  84 101 132 172 214 266 299
#     4   9  18  32  53  78 102 131 170 216 259 301
#     4  10  18  32  52  78 107 131 168 221 256 310
#
# _framework density 24.540140999999998
#
# number of rings (size 3 to 8) (size 9 to 14) (size 15 to 20)
#    0.000    2.286    4.286    0.429    0.000    0.000 
#    0.000    7.857    0.000    1.714    0.000    0.000 
#    0.000    0.000    0.000    0.000    0.000    0.000 
#
# Total GULP energy -78099.755203 kJ/mol
# GULP energy per Si atom -5578.553943 kJ/mol
# Density = 2.448429 g / cm^3
# Si number density = 24.540141 Si / 1000 Ang^3
#
#
#
# Elastic Constant Matrix: (Units=GPa)
#
#
# Indices 1 2 3 4 5 6 
#
# 1 38.5914 36.4339 21.6295 14.3554 -12.6880 -22.6526
# 2 36.4339 227.1953 60.6697 61.2694 -30.6538 -51.9745
# 3 21.6295 60.6697 84.8941 42.3688 -17.5542 -15.7607
# 4 14.3554 61.2694 42.3688 52.5029 -9.8474 -19.9052
# 5 -12.6880 -30.6538 -17.5542 -9.8474 28.0122 17.4537
# 6 -22.6526 -51.9745 -15.7607 -19.9052 17.4537 39.3692
#
#
#
# Elastic Compliance Matrix: (Units=1/GPa)
#
#
# Indices 1 2 3 4 5 6 
#
# 1 0.042991 -0.000569 -0.008278 0.004271 0.001297 0.022256
# 2 -0.000569 0.007945 -0.001313 -0.005401 0.001952 0.006040
# 3 -0.008278 -0.001313 0.023580 -0.017228 0.009848 -0.010132
# 4 0.004271 -0.005401 -0.017228 0.041487 -0.008356 0.013111
# 5 0.001297 0.001952 0.009848 -0.008356 0.054936 -0.021315
# 6 0.022256 0.006040 -0.010132 0.013111 -0.021315 0.058202
#
#
# Mechanical properties :
#
#
# Convention : Reuss Voigt Hill
#
# Bulk Modulus (GPa) = 18.45156 65.34968 41.90062
# Shear Modulus (GPa) = 18.68981 39.44003 29.06492
#
# Velocity S-wave (km/s) = 2.76271 4.01329 3.44522
# Velocity P-wave (km/s) = 4.20856 6.93995 5.73911
#
# Compressibility (1/GPa) = 0.05419595
#
# Stress axis : x y z
#
# Youngs Moduli (GPa) = 23.26073 125.87032 42.40954
#
# Poissons Ratio (x) = 0.07162 0.35107
# Poissons Ratio (y) = 0.01324 0.05566
# Poissons Ratio (z) = 0.19256 0.16521
#
# Static dielectric constant tensor:
#      x y z
#    x 2.001780 -0.001820 0.059310 
#    y -0.001820 1.999410 0.079430 
#    z 0.059310 0.079430 1.933840 
# 
# From -- ./inp_files/281918.got.cif
#   From: 2010.05.17/outbox.cif.g08.bks.cpg/sg2_141_cif.got.tgz:281918.got - 2010.06.03 11:33:40.
