data_PCOD9074187
_publ_section_title
;
Structure prediction by ZEFSAII (Michael W. Deem and Ramdas Pophale) SiO2 
 PCOD9074187
Probable space group: P -1
;
_chemical_formula_sum "Si O2"
_cell_formula_units_Z 16
_cell_length_a 15.000000
_cell_length_b 24.000000
_cell_length_c 9.000000
_cell_angle_alpha 50.000000
_cell_angle_beta 150.000000
_cell_angle_gamma 150.000000
_cell_volume 731.734496
_symmetry_space_group_name_H-M "P -1"
_symmetry_group_IT_number 2
_symmetry_cell_setting 'triclinic'
loop_
_space_group_symop_operation_xyz
x,y,z
-x,-y,-z
loop_
_atom_site_type_symbol
_atom_site_label
_atom_site_fract_x
_atom_site_fract_y
_atom_site_fract_z
Si Si1 0.199257 0.418478 0.299739
Si Si2 0.301168 0.497887 0.644956
Si Si3 0.755178 0.859689 0.554386
Si Si4 0.214576 0.877774 0.202469
Si Si5 0.775892 0.284191 0.448856
Si Si6 0.794679 0.861516 0.279307
Si Si7 0.810023 0.143518 0.149120
Si Si8 0.267176 0.649380 0.419831
O O1 0.500000 0.500000 0.500000
O O2 0.298828 0.477749 0.503679
O O3 0.957928 0.270007 0.199956
O O4 0.032603 0.433071 0.964188
O O5 0.385378 0.606642 0.635521
O O6 0.964828 0.380270 0.424573
O O7 0.500000 0.500000 0.000000
O O8 0.637251 0.806968 0.307469
O O9 0.521747 0.783284 0.481687
O O10 0.919321 0.990859 0.553238
O O11 0.979628 0.866329 0.895077
O O12 0.125411 0.767439 0.313958
O O13 0.500000 0.000000 0.500000
O O14 0.250387 0.875370 0.082422
O O15 0.811476 0.345855 0.539798
O O16 0.425367 0.174171 0.093470
O O17 0.918193 0.823493 0.482193
O O18 0.500000 0.000000 0.000000
#
# Coordination Sequence:
#
# PCOD9074187 Si02
#       8
#     2   2   2   2   2   2   2   2
#     4  12  28  48  75 104 143 188 238 292 355 423
#     4  12  29  47  72 100 141 183 240 292 356 417
#     4  10  22  43  67  99 136 185 230 280 351 417
#     4  11  23  43  70 102 146 180 227 291 354 420
#     4  12  25  44  68 103 139 180 233 291 351 418
#     4  10  23  39  69  99 138 178 229 286 348 417
#     4  11  26  45  72 104 142 182 235 286 350 422
#     4  12  26  46  72  97 139 186 238 287 350 421
#
# _framework density 21.865853999999999
#
# number of rings (size 3 to 8) (size 9 to 14) (size 15 to 20)
#    0.000    0.750    2.500    3.750    8.750    1.500 
#    0.000    0.000    0.000    0.000    0.000    0.000 
#    0.000    0.000    0.000    0.000    0.000    0.000 
#
# Total GULP energy -89265.241070 kJ/mol
# GULP energy per Si atom -5579.077567 kJ/mol
# Density = 2.181609 g / cm^3
# Si number density = 21.865854 Si / 1000 Ang^3
#
#
#
# Elastic Constant Matrix: (Units=GPa)
#
#
# Indices 1 2 3 4 5 6 
#
# 1 97.4824 11.0790 15.9821 -6.1283 -4.5506 -12.0734
# 2 11.0790 79.5576 -5.5829 -9.9951 11.6263 -15.0117
# 3 15.9821 -5.5829 82.7962 -19.0877 -15.4163 -17.4790
# 4 -6.1283 -9.9951 -19.0877 32.2435 -6.0827 13.7878
# 5 -4.5506 11.6263 -15.4163 -6.0827 9.4700 -3.9060
# 6 -12.0734 -15.0117 -17.4790 13.7878 -3.9060 45.8413
#
#
#
# Elastic Compliance Matrix: (Units=1/GPa)
#
#
# Indices 1 2 3 4 5 6 
#
# 1 0.011697 -0.002855 0.002808 0.005060 0.018289 0.003253
# 2 -0.002855 0.017269 -0.006093 -0.006152 -0.035876 0.001373
# 3 0.002808 -0.006093 0.043701 0.039950 0.110929 0.012843
# 4 0.005060 -0.006152 0.039950 0.076338 0.124976 0.002239
# 5 0.018289 -0.035876 0.110929 0.124976 0.433611 0.034723
# 6 0.003253 0.001373 0.012843 0.002239 0.034723 0.030303
#
#
# Mechanical properties :
#
#
# Convention : Reuss Voigt Hill
#
# Bulk Modulus (GPa) = 16.55972 33.64363 25.10168
# Shear Modulus (GPa) = 7.74802 33.40149 20.57476
#
# Velocity S-wave (km/s) = 1.88444 3.91265 3.07082
# Velocity P-wave (km/s) = 3.51064 5.98594 4.90694
#
# Compressibility (1/GPa) = 0.06038748
#
# Stress axis : x y z
#
# Youngs Moduli (GPa) = 85.49131 57.90856 22.88283
#
# Poissons Ratio (x) = 0.16533 -0.06426
# Poissons Ratio (y) = 0.24408 0.13942
# Poissons Ratio (z) = -0.24008 0.35282
#
# Static dielectric constant tensor:
#      x y z
#    x 2.028830 -0.116530 -0.017360 
#    y -0.116530 1.956900 0.023390 
#    z -0.017360 0.023390 1.800780 
# 
# From -- ./inp_files/320287.got.cif
#   From: 2010.05.17/outbox.ucp.g08.bks.cvg/sg2_161_cif.got.tgz:320287.got - 2010.06.11 11:32:03.
