data_PCOD9074690
_publ_section_title
;
Structure prediction by ZEFSAII (Michael W. Deem and Ramdas Pophale) SiO2 
 PCOD9074690
Probable space group: P -1
;
_chemical_formula_sum "Si O2"
_cell_formula_units_Z 13
_cell_length_a 10.733477
_cell_length_b 8.946819
_cell_length_c 7.769443
_cell_angle_alpha 85.628820
_cell_angle_beta 101.191882
_cell_angle_gamma 134.349567
_cell_volume 521.499729
_symmetry_space_group_name_H-M "P -1"
_symmetry_group_IT_number 2
_symmetry_cell_setting 'triclinic'
loop_
_space_group_symop_operation_xyz
x,y,z
-x,-y,-z
loop_
_atom_site_type_symbol
_atom_site_label
_atom_site_fract_x
_atom_site_fract_y
_atom_site_fract_z
Si Si1 0.852177 0.006429 0.945565
Si Si2 0.655609 0.820628 0.268477
Si Si3 0.000000 0.000000 0.500000
Si Si4 0.516568 0.369525 0.249741
Si Si5 0.987139 0.558248 0.207126
Si Si6 0.818537 0.528495 0.528065
Si Si7 0.380638 0.757697 0.026676
O O1 0.926335 0.218826 0.863768
O O2 0.693379 0.814250 0.801942
O O3 0.770408 0.960844 0.117002
O O4 0.000000 0.000000 0.000000
O O5 0.586218 0.595068 0.240869
O O6 0.807394 0.934610 0.441704
O O7 0.478482 0.774519 0.220679
O O8 0.893685 0.758031 0.549176
O O9 0.610315 0.371199 0.438063
O O10 0.583083 0.338740 0.099635
O O11 0.900607 0.535159 0.369196
O O12 0.826282 0.379405 0.051074
O O13 0.117011 0.530097 0.300506
O O14 0.500000 0.000000 0.000000
#
# Coordination Sequence:
#
# PCOD9074690 Si02
#       7
#     2   2   1   2   2   2   2
#     4  11  19  32  56  82 106 138 181 224 261 309
#     4  10  20  35  56  78 105 141 181 214 263 321
#     4  10  18  34  56  74  98 140 180 216 256 314
#     4   9  19  35  54  76 105 143 179 213 261 320
#     4  10  20  34  56  80 106 139 178 220 262 314
#     4   9  19  36  55  77 105 141 179 213 265 321
#     4  10  18  32  52  77 105 137 172 214 264 315
#
# _framework density 24.928104000000001
#
# number of rings (size 3 to 8) (size 9 to 14) (size 15 to 20)
#    0.000    2.154    0.000    6.462    0.000    0.615 
#    0.000    6.923    0.000   26.769    0.000    0.000 
#    0.000    0.000    0.000    0.000    0.000    0.000 
#
# Total GULP energy -72430.336997 kJ/mol
# GULP energy per Si atom -5571.564384 kJ/mol
# Density = 2.487137 g / cm^3
# Si number density = 24.928104 Si / 1000 Ang^3
#
#
#
# Elastic Constant Matrix: (Units=GPa)
#
#
# Indices 1 2 3 4 5 6 
#
# 1 126.8063 40.3433 63.1108 -1.6655 71.7516 15.9828
# 2 40.3433 125.4887 44.4708 3.7136 47.5822 13.4630
# 3 63.1108 44.4708 142.7803 -24.4333 51.8548 21.7530
# 4 -1.6655 3.7136 -24.4333 43.3396 9.0575 21.4932
# 5 71.7516 47.5822 51.8548 9.0575 70.7223 9.0095
# 6 15.9828 13.4630 21.7530 21.4932 9.0095 41.4609
#
#
#
# Elastic Compliance Matrix: (Units=1/GPa)
#
#
# Indices 1 2 3 4 5 6 
#
# 1 0.023181 0.003069 0.004229 0.016109 -0.028937 -0.014214
# 2 0.003069 0.011403 0.000690 0.004397 -0.011206 -0.005092
# 3 0.004229 0.000690 0.019965 0.026246 -0.020005 -0.021588
# 4 0.016109 0.004397 0.026246 0.071230 -0.041382 -0.049341
# 5 -0.028937 -0.011206 -0.020005 -0.041382 0.066902 0.032204
# 6 -0.014214 -0.005092 -0.021588 -0.049341 0.032204 0.061158
#
#
# Mechanical properties :
#
#
# Convention : Reuss Voigt Hill
#
# Bulk Modulus (GPa) = 14.17935 76.76946 45.47441
# Shear Modulus (GPa) = 19.12977 47.58125 33.35551
#
# Velocity S-wave (km/s) = 2.77320 4.37365 3.66193
# Velocity P-wave (km/s) = 3.99432 7.50788 6.01344
#
# Compressibility (1/GPa) = 0.07052509
#
# Stress axis : x y z
#
# Youngs Moduli (GPa) = 43.13785 87.69724 50.08716
#
# Poissons Ratio (x) = -0.26915 -0.21182
# Poissons Ratio (y) = -0.13239 -0.03455
# Poissons Ratio (z) = -0.18243 -0.06049
#
# Static dielectric constant tensor:
#      x y z
#    x 2.052500 0.080200 0.011600 
#    y 0.080200 1.894900 -0.020370 
#    z 0.011600 -0.020370 1.997770 
# 
# From -- ./inp_files/177480.got.cif
#   From: 2010.05.17/outbox.cif.g08.bks.cpg/sg2_89_cif.got.tgz:177480.got - 2010.06.03 11:33:40.
