data_PCOD9074119
_publ_section_title
;
Structure prediction by ZEFSAII (Michael W. Deem and Ramdas Pophale) SiO2 
 PCOD9074119
Probable space group: P -1
;
_chemical_formula_sum "Si O2"
_cell_formula_units_Z 16
_cell_length_a 27.000000
_cell_length_b 27.000000
_cell_length_c 9.000000
_cell_angle_alpha 140.000000
_cell_angle_beta 140.000000
_cell_angle_gamma 10.000000
_cell_volume 728.340053
_symmetry_space_group_name_H-M "P -1"
_symmetry_group_IT_number 2
_symmetry_cell_setting 'triclinic'
loop_
_space_group_symop_operation_xyz
x,y,z
-x,-y,-z
loop_
_atom_site_type_symbol
_atom_site_label
_atom_site_fract_x
_atom_site_fract_y
_atom_site_fract_z
Si Si1 0.666784 0.636438 0.631946
Si Si2 0.741691 0.099701 0.166643
Si Si3 0.837619 0.868164 0.621404
Si Si4 0.301474 0.290294 0.841862
Si Si5 0.373795 0.780758 0.462914
Si Si6 0.161072 0.766714 0.883730
Si Si7 0.189158 0.216905 0.370969
Si Si8 0.708019 0.359894 0.745553
O O1 0.550815 0.682428 0.582258
O O2 0.925538 0.357163 0.481843
O O3 0.442159 0.869504 0.520629
O O4 0.710560 0.664644 0.915070
O O5 0.692719 0.146811 0.344325
O O6 0.454196 0.404843 0.126296
O O7 0.990543 0.922050 0.294281
O O8 0.827614 0.944225 0.901585
O O9 0.860965 0.772219 0.560508
O O10 0.247782 0.250115 0.618462
O O11 0.069728 0.549303 0.796420
O O12 0.571588 0.044576 0.792598
O O13 0.569165 0.518672 0.256505
O O14 0.088445 0.051790 0.327705
O O15 0.240097 0.694819 0.079137
O O16 0.000000 0.000000 0.000000
O O17 0.500000 0.500000 0.500000
#
# Coordination Sequence:
#
# PCOD9074119 Si02
#       8
#     2   2   2   2   2   2   2   2
#     4  12  25  42  66  97 133 172 216 269 326 382
#     4  12  26  45  68  96 130 172 219 267 324 386
#     4  12  25  42  66  97 133 172 216 269 326 382
#     4  10  22  42  67  96 132 174 218 265 320 384
#     4  12  26  45  68  96 130 172 219 267 324 386
#     4  12  26  47  70  97 132 169 214 268 327 388
#     4  10  22  42  67  96 132 174 218 265 320 384
#     4  12  26  47  70  97 132 169 214 268 327 388
#
# _framework density 21.967760999999999
#
# number of rings (size 3 to 8) (size 9 to 14) (size 15 to 20)
#    0.000    0.500    0.000    9.000    0.000    5.000 
#    0.000    1.250    0.000    0.000    0.000    0.000 
#    0.000    0.000    0.000    0.000    0.000    0.000 
#
# Total GULP energy -89150.652690 kJ/mol
# GULP energy per Si atom -5571.915793 kJ/mol
# Density = 2.191776 g / cm^3
# Si number density = 21.967761 Si / 1000 Ang^3
#
#
#
# Elastic Constant Matrix: (Units=GPa)
#
#
# Indices 1 2 3 4 5 6 
#
# 1 155.9599 51.0764 65.5932 5.2546 -45.3859 0.6426
# 2 51.0764 162.5889 50.6436 -2.1569 -19.8830 -2.9065
# 3 65.5932 50.6436 172.1875 0.3389 -51.5907 -2.3755
# 4 5.2546 -2.1569 0.3389 36.6327 -0.2504 -14.3044
# 5 -45.3859 -19.8830 -51.5907 -0.2504 49.6509 -0.1949
# 6 0.6426 -2.9065 -2.3755 -14.3044 -0.1949 36.2015
#
#
#
# Elastic Compliance Matrix: (Units=1/GPa)
#
#
# Indices 1 2 3 4 5 6 
#
# 1 0.009526 -0.001875 -0.001029 -0.001841 0.006874 -0.001078
# 2 -0.001875 0.007192 -0.001508 0.001067 -0.000391 0.000931
# 3 -0.001029 -0.001508 0.008988 0.000279 0.007799 0.000639
# 4 -0.001841 0.001067 0.000279 0.032717 -0.000750 0.013060
# 5 0.006874 -0.000391 0.007799 -0.000750 0.034368 0.000247
# 6 -0.001078 0.000931 0.000639 0.013060 0.000247 0.032921
#
#
# Mechanical properties :
#
#
# Convention : Reuss Voigt Hill
#
# Bulk Modulus (GPa) = 59.23253 91.70696 75.46974
# Shear Modulus (GPa) = 35.67313 46.05856 40.86585
#
# Velocity S-wave (km/s) = 4.03412 4.58388 4.31776
# Velocity P-wave (km/s) = 6.98002 8.35779 7.69979
#
# Compressibility (1/GPa) = 0.01688261
#
# Stress axis : x y z
#
# Youngs Moduli (GPa) = 104.98132 139.04266 111.26096
#
# Poissons Ratio (x) = 0.26070 0.11448
# Poissons Ratio (y) = 0.19684 0.16773
# Poissons Ratio (z) = 0.10801 0.20961
#
# Static dielectric constant tensor:
#      x y z
#    x 1.795980 0.000890 0.124380 
#    y 0.000890 1.932890 0.050840 
#    z 0.124380 0.050840 1.850400 
# 
# From -- ./inp_files/358026.got.cif
#   From: 2010.05.17/outbox.ucp.g08.bks.cvg/sg2_180_cif.got.tgz:358026.got - 2010.06.11 11:32:03.
