data_PCOD9074887
_publ_section_title
;
Structure prediction by ZEFSAII (Michael W. Deem and Ramdas Pophale) SiO2 
 PCOD9074887
Probable space group: P -1
;
_chemical_formula_sum "Si O2"
_cell_formula_units_Z 16
_cell_length_a 12.000000
_cell_length_b 9.000000
_cell_length_c 9.000000
_cell_angle_alpha 50.000000
_cell_angle_beta 80.000000
_cell_angle_gamma 90.000000
_cell_volume 725.212580
_symmetry_space_group_name_H-M "P -1"
_symmetry_group_IT_number 2
_symmetry_cell_setting 'triclinic'
loop_
_space_group_symop_operation_xyz
x,y,z
-x,-y,-z
loop_
_atom_site_type_symbol
_atom_site_label
_atom_site_fract_x
_atom_site_fract_y
_atom_site_fract_z
Si Si1 0.380424 0.539257 0.867764
Si Si2 0.202676 0.887377 0.376387
Si Si3 0.382759 0.398596 0.287310
Si Si4 0.323999 0.938645 0.609954
Si Si5 0.908341 0.138930 0.118367
Si Si6 0.050488 0.234550 0.464979
Si Si7 0.151252 0.288992 0.077617
Si Si8 0.174977 0.627551 0.275794
O O1 0.487134 0.513511 0.754802
O O2 0.401415 0.775006 0.741808
O O3 0.385854 0.414251 0.096914
O O4 0.249869 0.464253 0.895936
O O5 0.302681 0.919728 0.451107
O O6 0.202759 0.712180 0.376426
O O7 0.077658 0.837521 0.514547
O O8 0.199007 0.088057 0.158682
O O9 0.288149 0.534391 0.263254
O O10 0.352496 0.170260 0.490636
O O11 0.204411 0.848126 0.769676
O O12 0.026022 0.281246 0.039274
O O13 0.930456 0.923743 0.309645
O O14 0.866986 0.201533 0.926081
O O15 0.128183 0.265499 0.277348
O O16 0.075319 0.444368 0.400039
#
# Coordination Sequence:
#
# PCOD9074887 Si02
#       8
#     2   2   2   2   2   2   2   2
#     4  11  23  39  68  93 115 167 218 258 299 359
#     4  11  23  38  62  95 134 161 197 258 320 368
#     4  11  23  42  65  90 127 158 216 264 298 362
#     4  12  20  42  67  94 117 165 216 253 306 374
#     4  11  21  36  69  91 124 166 205 247 315 369
#     4  11  20  40  59  90 130 168 201 253 300 376
#     4  11  20  41  65  93 130 158 214 256 299 372
#     4  12  24  40  59  97 131 163 201 255 322 368
#
# _framework density 22.062495999999999
#
# number of rings (size 3 to 8) (size 9 to 14) (size 15 to 20)
#    0.000    0.750    7.500    1.500    1.750    3.000 
#    2.250    1.250    0.000    0.000    0.000    0.000 
#    0.000    0.000    0.000    0.000    0.000    0.000 
#
# Total GULP energy -89172.403795 kJ/mol
# GULP energy per Si atom -5573.275237 kJ/mol
# Density = 2.201228 g / cm^3
# Si number density = 22.062496 Si / 1000 Ang^3
#
#
#
# Elastic Constant Matrix: (Units=GPa)
#
#
# Indices 1 2 3 4 5 6 
#
# 1 91.0079 9.1906 34.5379 4.8509 -18.2384 -4.1320
# 2 9.1906 68.6938 9.5219 -0.5007 -0.0455 8.2810
# 3 34.5379 9.5219 46.6712 -14.6579 12.9450 0.3550
# 4 4.8509 -0.5007 -14.6579 14.0349 -2.1820 0.2354
# 5 -18.2384 -0.0455 12.9450 -2.1820 28.8394 -11.2649
# 6 -4.1320 8.2810 0.3550 0.2354 -11.2649 15.6264
#
#
#
# Elastic Compliance Matrix: (Units=1/GPa)
#
#
# Indices 1 2 3 4 5 6 
#
# 1 -0.028203 0.002927 0.056088 0.060070 -0.059621 -0.054168
# 2 0.002927 0.015980 -0.009366 -0.009604 0.003463 -0.004840
# 3 0.056088 -0.009366 -0.071265 -0.080520 0.097702 0.093060
# 4 0.060070 -0.009604 -0.080520 -0.018016 0.113814 0.105122
# 5 -0.059621 0.003463 0.097702 0.113814 -0.064977 -0.068376
# 6 -0.054168 -0.004840 0.093060 0.105122 -0.068376 -0.000754
#
#
# Mechanical properties :
#
#
# Convention : Reuss Voigt Hill
#
# Bulk Modulus (GPa) = 63.25149 34.76377 49.00763
# Shear Modulus (GPa) = -19.13780 21.90830 1.38525
#
# Velocity S-wave (km/s) = -2.94842 3.15463 0.79325
# Velocity P-wave (km/s) = 4.14012 5.39074 4.80628
#
# Compressibility (1/GPa) = 0.01580990
#
# Stress axis : x y z
#
# Youngs Moduli (GPa) = -35.45737 62.57898 -14.03213
#
# Poissons Ratio (x) = -0.18317 0.78704
# Poissons Ratio (y) = 0.10379 -0.13143
# Poissons Ratio (z) = 1.98875 0.58614
#
# Static dielectric constant tensor:
#      x y z
#    x 1.924080 -0.031790 -0.005190 
#    y -0.031790 1.847150 -0.003860 
#    z -0.005190 -0.003860 1.798650 
# 
# From -- ./inp_files/242032.got.cif
#   From: 2010.05.17/outbox.ucp.g08.bks.cvg/sg2_122_cif.got.tgz:242032.got - 2010.06.11 11:32:03.
