data_PCOD9074535
_publ_section_title
;
Structure prediction by ZEFSAII (Michael W. Deem and Ramdas Pophale) SiO2 
 PCOD9074535
Probable space group: P -1
;
_chemical_formula_sum "Si O2"
_cell_formula_units_Z 14
_cell_length_a 18.000000
_cell_length_b 9.000000
_cell_length_c 9.000000
_cell_angle_alpha 120.000000
_cell_angle_beta 150.000000
_cell_angle_gamma 70.000000
_cell_volume 617.235917
_symmetry_space_group_name_H-M "P -1"
_symmetry_group_IT_number 2
_symmetry_cell_setting 'triclinic'
loop_
_space_group_symop_operation_xyz
x,y,z
-x,-y,-z
loop_
_atom_site_type_symbol
_atom_site_label
_atom_site_fract_x
_atom_site_fract_y
_atom_site_fract_z
Si Si1 0.337418 0.014041 0.165711
Si Si2 0.970708 0.989690 0.268106
Si Si3 0.764712 0.191197 0.670029
Si Si4 0.940171 0.554760 0.584982
Si Si5 0.162625 0.736086 0.489726
Si Si6 0.243800 0.186403 0.649501
Si Si7 0.481800 0.295319 0.354819
O O1 0.500000 0.000000 0.500000
O O2 0.371035 0.206554 0.249001
O O3 0.277763 0.878221 0.860932
O O4 0.201087 0.993384 0.036626
O O5 0.016363 0.808985 0.214161
O O6 0.000000 0.000000 0.500000
O O7 0.100291 0.130080 0.484439
O O8 0.750495 0.273980 0.520572
O O9 0.641613 0.238262 0.592935
O O10 0.758062 0.983641 0.538590
O O11 0.927637 0.287753 0.055755
O O12 0.909962 0.408461 0.588051
O O13 0.785158 0.627854 0.358873
O O14 0.000000 0.500000 0.500000
O O15 0.398347 0.219615 0.022829
O O16 0.500000 0.500000 0.500000
#
# Coordination Sequence:
#
# PCOD9074535 Si02
#       7
#     2   2   2   2   2   2   2
#     4  11  24  40  67 102 139 178 228 281 345 404
#     4   9  17  39  65  89 132 181 220 270 339 404
#     4  11  25  47  69  94 144 185 222 280 355 409
#     4  12  25  41  73 108 135 167 243 286 326 407
#     4  10  23  45  69  96 137 186 223 279 342 407
#     4  11  23  44  67 100 134 186 225 280 343 403
#     4  12  26  43  69 100 139 183 229 282 347 405
#
# _framework density 22.681764999999999
#
# number of rings (size 3 to 8) (size 9 to 14) (size 15 to 20)
#    0.000    1.143    4.286    3.857    8.000    0.000 
#    0.000    0.714    0.000    0.000    0.000    0.000 
#    0.000    0.000    0.000    0.000    0.000    0.000 
#
# Total GULP energy -78056.406783 kJ/mol
# GULP energy per Si atom -5575.457627 kJ/mol
# Density = 2.263014 g / cm^3
# Si number density = 22.681765 Si / 1000 Ang^3
#
#
#
# Elastic Constant Matrix: (Units=GPa)
#
#
# Indices 1 2 3 4 5 6 
#
# 1 72.1184 -1.3176 -10.5004 -1.3628 -3.9579 -8.1343
# 2 -1.3176 70.3311 7.6059 0.1780 -9.7713 -5.2744
# 3 -10.5004 7.6059 53.7192 -13.5174 -1.1259 -4.8855
# 4 -1.3628 0.1780 -13.5174 35.7111 -12.3393 2.1969
# 5 -3.9579 -9.7713 -1.1259 -12.3393 35.9644 -4.4943
# 6 -8.1343 -5.2744 -4.8855 2.1969 -4.4943 29.1232
#
#
#
# Elastic Compliance Matrix: (Units=1/GPa)
#
#
# Indices 1 2 3 4 5 6 
#
# 1 0.015394 0.000760 0.004283 0.003185 0.003815 0.005504
# 2 0.000760 0.015326 -0.001368 0.000935 0.004957 0.003453
# 3 0.004283 -0.001368 0.022742 0.010179 0.004898 0.004752
# 4 0.003185 0.000935 0.010179 0.036590 0.013743 0.002127
# 5 0.003815 0.004957 0.004898 0.013743 0.035341 0.007202
# 6 0.005504 0.003453 0.004752 0.002127 0.007202 0.038248
#
#
# Mechanical properties :
#
#
# Convention : Reuss Voigt Hill
#
# Bulk Modulus (GPa) = 16.44392 20.86048 18.65220
# Shear Modulus (GPa) = 28.31880 33.51846 30.91863
#
# Velocity S-wave (km/s) = 3.53728 3.84835 3.69609
# Velocity P-wave (km/s) = 4.89375 5.38176 5.14355
#
# Compressibility (1/GPa) = 0.06081277
#
# Stress axis : x y z
#
# Youngs Moduli (GPa) = 64.96026 65.24883 43.97075
#
# Poissons Ratio (x) = -0.04959 -0.18834
# Poissons Ratio (y) = -0.04937 0.06016
# Poissons Ratio (z) = -0.27825 0.08927
#
# Static dielectric constant tensor:
#      x y z
#    x 1.769360 0.224180 -0.030240 
#    y 0.224180 1.673570 -0.064190 
#    z -0.030240 -0.064190 1.828160 
# 
# From -- ./inp_files/329506.got.cif
#   From: 2010.05.17/outbox.ucp.g08.bks.cvg/sg2_165_cif.got.tgz:329506.got - 2010.06.11 11:32:03.
