data_PCOD9074289
_publ_section_title
;
Structure prediction by ZEFSAII (Michael W. Deem and Ramdas Pophale) SiO2 
 PCOD9074289
Probable space group: P -1
;
_chemical_formula_sum "Si O2"
_cell_formula_units_Z 10
_cell_length_a 9.000000
_cell_length_b 12.000000
_cell_length_c 12.000000
_cell_angle_alpha 140.000000
_cell_angle_beta 70.000000
_cell_angle_gamma 140.000000
_cell_volume 431.366279
_symmetry_space_group_name_H-M "P -1"
_symmetry_group_IT_number 2
_symmetry_cell_setting 'triclinic'
loop_
_space_group_symop_operation_xyz
x,y,z
-x,-y,-z
loop_
_atom_site_type_symbol
_atom_site_label
_atom_site_fract_x
_atom_site_fract_y
_atom_site_fract_z
Si Si1 0.015378 0.328407 0.923071
Si Si2 0.533195 0.673579 0.920922
Si Si3 0.524839 0.322247 0.322499
Si Si4 0.821776 0.176545 0.425106
Si Si5 0.373286 0.643185 0.301219
O O1 0.210752 0.388759 0.837697
O O2 0.702756 0.978616 0.769176
O O3 0.000000 0.500000 0.000000
O O4 0.173026 0.477669 0.116521
O O5 0.540866 0.747164 0.847464
O O6 0.634164 0.563610 0.814617
O O7 0.709814 0.960508 0.181880
O O8 0.500000 0.500000 0.500000
O O9 0.839230 0.534289 0.427766
O O10 0.719303 0.284959 0.537269
O O11 0.681000 0.967849 0.414753
#
# Coordination Sequence:
#
# PCOD9074289 Si02
#       5
#     2   2   2   2   2
#     4  11  25  47  73 106 149 191 238 299 362 429
#     4  11  25  49  74 103 149 189 236 302 360 426
#     4  12  27  46  76 111 141 189 247 297 359 430
#     4  10  23  45  72 106 146 191 241 292 359 432
#     4  10  22  45  74 105 145 194 238 293 366 428
#
# _framework density 23.182155000000002
#
# number of rings (size 3 to 8) (size 9 to 14) (size 15 to 20)
#    0.000    1.200    0.000    6.000    0.000   14.400 
#    0.000   16.000    0.000    0.000    0.000    0.000 
#    0.000    0.000    0.000    0.000    0.000    0.000 
#
# Total GULP energy -56061.915145 kJ/mol
# GULP energy per Si atom -5606.191515 kJ/mol
# Density = 2.312939 g / cm^3
# Si number density = 23.182155 Si / 1000 Ang^3
#
#
#
# Elastic Constant Matrix: (Units=GPa)
#
#
# Indices 1 2 3 4 5 6 
#
# 1 171.6471 88.6005 79.8547 4.6259 -19.4947 5.2236
# 2 88.6005 145.6744 70.1241 16.4478 -4.2829 -2.2327
# 3 79.8547 70.1241 107.0948 -6.2080 -19.1769 4.4724
# 4 4.6259 16.4478 -6.2080 60.0425 8.3773 1.8417
# 5 -19.4947 -4.2829 -19.1769 8.3773 46.4306 -5.6650
# 6 5.2236 -2.2327 4.4724 1.8417 -5.6650 40.2859
#
#
#
# Elastic Compliance Matrix: (Units=1/GPa)
#
#
# Indices 1 2 3 4 5 6 
#
# 1 0.010314 -0.003855 -0.004808 -0.000491 0.001990 -0.000715
# 2 -0.003855 0.012402 -0.005890 -0.003473 -0.002072 0.001708
# 3 -0.004808 -0.005890 0.017742 0.003296 0.004018 -0.001258
# 4 -0.000491 -0.003473 0.003296 0.018414 -0.002697 -0.001716
# 5 0.001990 -0.002072 0.004018 -0.002697 0.024666 0.002773
# 6 -0.000715 0.001708 -0.001258 -0.001716 0.002773 0.025618
#
#
# Mechanical properties :
#
#
# Convention : Reuss Voigt Hill
#
# Bulk Modulus (GPa) = 88.09342 100.17500 94.13421
# Shear Modulus (GPa) = 35.19968 41.74092 38.47030
#
# Velocity S-wave (km/s) = 3.90089 4.24791 4.07809
# Velocity P-wave (km/s) = 7.64017 8.20765 7.92899
#
# Compressibility (1/GPa) = 0.01135158
#
# Stress axis : x y z
#
# Youngs Moduli (GPa) = 96.95551 80.63260 56.36259
#
# Poissons Ratio (x) = 0.31087 0.27101
# Poissons Ratio (y) = 0.37380 0.33195
# Poissons Ratio (z) = 0.46620 0.47489
#
# Static dielectric constant tensor:
#      x y z
#    x 1.838000 0.013980 0.010500 
#    y 0.013980 1.869820 0.077440 
#    z 0.010500 0.077440 2.025850 
# 
# From -- ./inp_files/175676.got.cif
#   From: 2010.05.17/outbox.ucp.g08.bks.cvg/sg2_88_cif.got.tgz:175676.got - 2010.06.11 11:32:03.
