data_PCOD9074640
_publ_section_title
;
Structure prediction by ZEFSAII (Michael W. Deem and Ramdas Pophale) SiO2 
 PCOD9074640
Probable space group: P -1
;
_chemical_formula_sum "Si O2"
_cell_formula_units_Z 14
_cell_length_a 27.000000
_cell_length_b 15.000000
_cell_length_c 27.000000
_cell_angle_alpha 20.000000
_cell_angle_beta 170.000000
_cell_angle_gamma 160.000000
_cell_volume 630.401208
_symmetry_space_group_name_H-M "P -1"
_symmetry_group_IT_number 2
_symmetry_cell_setting 'triclinic'
loop_
_space_group_symop_operation_xyz
x,y,z
-x,-y,-z
loop_
_atom_site_type_symbol
_atom_site_label
_atom_site_fract_x
_atom_site_fract_y
_atom_site_fract_z
Si Si1 0.428093 0.271634 0.470283
Si Si2 0.466791 0.685415 0.212365
Si Si3 0.378521 0.134257 0.963997
Si Si4 0.235027 0.170088 0.439821
Si Si5 0.535919 0.783174 0.762643
Si Si6 0.997684 0.306147 0.325754
Si Si7 0.080028 0.795846 0.226115
O O1 0.316688 0.443774 0.227594
O O2 0.211513 0.179999 0.351804
O O3 0.664423 0.525124 0.597694
O O4 0.510535 0.010599 0.660822
O O5 0.776972 0.626630 0.533622
O O6 0.309137 0.678970 0.007985
O O7 0.477217 0.975185 0.096902
O O8 0.418289 0.458915 0.829541
O O9 0.043993 0.988051 0.721840
O O10 0.538785 0.016014 0.228494
O O11 0.384185 0.859074 0.522968
O O12 0.860562 0.788680 0.060087
O O13 0.060105 0.514858 0.323777
O O14 0.000000 0.000000 0.500000
O O15 0.000000 0.000000 0.000000
#
# Coordination Sequence:
#
# PCOD9074640 Si02
#       7
#     2   2   2   2   2   2   2
#     4  10  24  43  67  95 126 167 212 258 315 378
#     4  11  22  39  63  89 122 165 209 253 305 369
#     4  11  23  42  65  96 130 164 208 262 317 373
#     4  10  24  43  67  94 127 165 211 259 310 381
#     4  12  25  42  66  94 130 167 209 262 320 374
#     4  12  23  39  62  88 122 164 210 254 304 366
#     4  12  25  42  62  93 130 167 210 262 315 371
#
# _framework density 22.208079000000001
#
# number of rings (size 3 to 8) (size 9 to 14) (size 15 to 20)
#    0.000    0.857    0.000    7.714    0.000   10.857 
#    0.000    0.000    0.000    0.000    0.000    0.000 
#    0.000    0.000    0.000    0.000    0.000    0.000 
#
# Total GULP energy -78149.515860 kJ/mol
# GULP energy per Si atom -5582.108276 kJ/mol
# Density = 2.215753 g / cm^3
# Si number density = 22.208079 Si / 1000 Ang^3
#
#
#
# Elastic Constant Matrix: (Units=GPa)
#
#
# Indices 1 2 3 4 5 6 
#
# 1 111.9917 41.2944 2.3717 -14.9139 10.7424 -27.0602
# 2 41.2944 135.5669 21.0413 -38.5813 18.2870 -19.0598
# 3 2.3717 21.0413 61.3818 -13.9163 6.2737 -8.0084
# 4 -14.9139 -38.5813 -13.9163 41.9047 0.0263 11.5793
# 5 10.7424 18.2870 6.2737 0.0263 42.6868 -11.8949
# 6 -27.0602 -19.0598 -8.0084 11.5793 -11.8949 45.5824
#
#
#
# Elastic Compliance Matrix: (Units=1/GPa)
#
#
# Indices 1 2 3 4 5 6 
#
# 1 0.011353 -0.002706 0.001359 0.000439 -0.000323 0.005651
# 2 -0.002706 0.011586 -0.001371 0.009386 -0.004223 -0.000489
# 3 0.001359 -0.001371 0.018220 0.004803 -0.001961 0.001703
# 4 0.000439 0.009386 0.004803 0.035854 -0.006466 -0.005766
# 5 -0.000323 -0.004223 -0.001961 -0.006466 0.027419 0.006496
# 6 0.005651 -0.000489 0.001703 -0.005766 0.006496 0.028548
#
#
# Mechanical properties :
#
#
# Convention : Reuss Voigt Hill
#
# Bulk Modulus (GPa) = 27.99361 48.70613 38.34987
# Shear Modulus (GPa) = 33.26140 42.31699 37.78919
#
# Velocity S-wave (km/s) = 3.87423 4.36991 4.12952
# Velocity P-wave (km/s) = 5.71362 6.88773 6.32796
#
# Compressibility (1/GPa) = 0.03572244
#
# Stress axis : x y z
#
# Youngs Moduli (GPa) = 88.08067 86.31391 54.88338
#
# Poissons Ratio (x) = 0.23358 -0.07458
# Poissons Ratio (y) = 0.23836 0.07525
# Poissons Ratio (z) = -0.11969 0.11835
#
# Static dielectric constant tensor:
#      x y z
#    x 1.813870 0.033320 -0.005240 
#    y 0.033320 1.830510 0.064880 
#    z -0.005240 0.064880 1.875520 
# 
# From -- ./inp_files/218136.got.cif
#   From: 2010.05.17/outbox.ucp.g08.bks.cvg/sg2_110_cif.got.tgz:218136.got - 2010.06.11 11:32:03.
