data_PCOD9074873
_publ_section_title
;
Structure prediction by ZEFSAII (Michael W. Deem and Ramdas Pophale) SiO2 
 PCOD9074873
Probable space group: P -1
;
_chemical_formula_sum "Si O2"
_cell_formula_units_Z 16
_cell_length_a 18.000000
_cell_length_b 12.000000
_cell_length_c 6.000000
_cell_angle_alpha 110.000000
_cell_angle_beta 50.000000
_cell_angle_gamma 130.000000
_cell_volume 754.912344
_symmetry_space_group_name_H-M "P -1"
_symmetry_group_IT_number 2
_symmetry_cell_setting 'triclinic'
loop_
_space_group_symop_operation_xyz
x,y,z
-x,-y,-z
loop_
_atom_site_type_symbol
_atom_site_label
_atom_site_fract_x
_atom_site_fract_y
_atom_site_fract_z
Si Si1 0.531517 0.810968 0.835490
Si Si2 0.729981 0.416684 0.710124
Si Si3 0.091219 0.491526 0.171680
Si Si4 0.791268 0.250305 0.178003
Si Si5 0.870680 0.038434 0.879968
Si Si6 0.119848 0.297652 0.700799
Si Si7 0.211651 0.120150 0.573169
Si Si8 0.569334 0.084319 0.206312
O O1 0.649773 0.818064 0.622841
O O2 0.485303 0.829250 0.702492
O O3 0.412556 0.663883 0.061695
O O4 0.560347 0.960103 0.990412
O O5 0.798079 0.463680 0.847515
O O6 0.739170 0.287550 0.510110
O O7 0.795558 0.558040 0.517250
O O8 0.000000 0.500000 0.500000
O O9 0.105897 0.591385 0.003880
O O10 0.055830 0.340780 0.028591
O O11 0.704262 0.196043 0.096697
O O12 0.815589 0.130588 0.085709
O O13 0.013971 0.159431 0.671223
O O14 0.828118 0.963332 0.658216
O O15 0.845128 0.955612 0.119183
O O16 0.189292 0.243573 0.659115
O O17 0.500000 0.000000 0.500000
#
# Coordination Sequence:
#
# PCOD9074873 Si02
#       8
#     2   2   2   2   2   2   2   2
#     4  11  24  39  68 103 141 188 238 293 359 431
#     4  11  24  42  69 103 144 187 238 294 363 429
#     4  11  24  43  71 100 140 183 236 294 357 431
#     4  11  22  39  68 108 136 180 232 297 369 415
#     4  12  27  47  77 107 142 187 246 303 362 427
#     4  11  28  48  71 100 145 192 241 299 353 431
#     4  12  29  48  74 108 140 199 241 298 359 428
#     4  11  20  37  63  97 143 175 228 297 353 417
#
# _framework density 21.194514000000002
#
# number of rings (size 3 to 8) (size 9 to 14) (size 15 to 20)
#    0.000    0.750    3.750    3.000    8.750    2.500 
#    0.000    0.625    0.000    0.000    0.000    0.000 
#    0.000    0.000    0.000    0.000    0.000    0.000 
#
# Total GULP energy -89110.403015 kJ/mol
# GULP energy per Si atom -5569.400188 kJ/mol
# Density = 2.114627 g / cm^3
# Si number density = 21.194514 Si / 1000 Ang^3
#
#
#
# Elastic Constant Matrix: (Units=GPa)
#
#
# Indices 1 2 3 4 5 6 
#
# 1 123.4358 53.4190 22.3280 -14.7852 1.0306 -6.7180
# 2 53.4190 85.5634 33.5103 -6.7504 0.4395 -8.2207
# 3 22.3280 33.5103 64.5484 -9.0416 -1.1645 -5.4637
# 4 -14.7852 -6.7504 -9.0416 30.7311 0.8553 -0.2158
# 5 1.0306 0.4395 -1.1645 0.8553 37.1366 -2.1306
# 6 -6.7180 -8.2207 -5.4637 -0.2158 -2.1306 52.0867
#
#
#
# Elastic Compliance Matrix: (Units=1/GPa)
#
#
# Indices 1 2 3 4 5 6 
#
# 1 0.011591 -0.006950 0.000206 0.004122 -0.000304 0.000424
# 2 -0.006950 0.018998 -0.007545 -0.001377 -0.000162 0.001298
# 3 0.000206 -0.007545 0.020039 0.004326 0.000669 0.000983
# 4 0.004122 -0.001377 0.004326 0.035520 -0.000730 0.000885
# 5 -0.000304 -0.000162 0.000669 -0.000730 0.027039 0.001108
# 6 0.000424 0.001298 0.000983 0.000885 0.001108 0.019611
#
#
# Mechanical properties :
#
#
# Convention : Reuss Voigt Hill
#
# Bulk Modulus (GPa) = 45.34784 54.67360 50.01072
# Shear Modulus (GPa) = 29.63402 34.94358 32.28880
#
# Velocity S-wave (km/s) = 3.74330 4.06483 3.90738
# Velocity P-wave (km/s) = 6.33447 6.91973 6.63356
#
# Compressibility (1/GPa) = 0.02205177
#
# Stress axis : x y z
#
# Youngs Moduli (GPa) = 86.27308 52.63731 49.90293
#
# Poissons Ratio (x) = 0.36582 -0.01030
# Poissons Ratio (y) = 0.59958 0.37650
# Poissons Ratio (z) = -0.01781 0.39713
#
# Static dielectric constant tensor:
#      x y z
#    x 1.831890 0.042350 0.042890 
#    y 0.042350 1.801710 0.018240 
#    z 0.042890 0.018240 1.823070 
# 
# From -- ./inp_files/69124.got.cif
#   From: 2010.05.17/outbox.ucp.g08.bks.cvg/sg2_35_cif.got.tgz:69124.got - 2010.06.11 11:32:03.
