data_PCOD9074955
_publ_section_title
;
Structure prediction by ZEFSAII (Michael W. Deem and Ramdas Pophale) SiO2 
 PCOD9074955
Probable space group: P -1
;
_chemical_formula_sum "Si O2"
_cell_formula_units_Z 16
_cell_length_a 21.000000
_cell_length_b 18.000000
_cell_length_c 6.000000
_cell_angle_alpha 100.000000
_cell_angle_beta 80.000000
_cell_angle_gamma 160.000000
_cell_volume 763.547719
_symmetry_space_group_name_H-M "P -1"
_symmetry_group_IT_number 2
_symmetry_cell_setting 'triclinic'
loop_
_space_group_symop_operation_xyz
x,y,z
-x,-y,-z
loop_
_atom_site_type_symbol
_atom_site_label
_atom_site_fract_x
_atom_site_fract_y
_atom_site_fract_z
Si Si1 0.173966 0.649301 0.083931
Si Si2 0.432060 0.480822 0.227873
Si Si3 0.087834 0.733379 0.661811
Si Si4 0.233265 0.135931 0.460447
Si Si5 0.933290 0.848334 0.847331
Si Si6 0.191169 0.531660 0.685508
Si Si7 0.044755 0.826996 0.064374
Si Si8 0.567750 0.992255 0.553311
O O1 0.080543 0.502665 0.268375
O O2 0.333093 0.877324 0.203094
O O3 0.232395 0.650625 0.871814
O O4 0.000000 0.500000 0.000000
O O5 0.314399 0.296954 0.364926
O O6 0.609133 0.708402 0.368374
O O7 0.286464 0.382917 0.178137
O O8 0.500000 0.500000 0.000000
O O9 0.995534 0.661126 0.449736
O O10 0.268419 0.876888 0.600907
O O11 0.112558 0.831463 0.867567
O O12 0.190053 0.020519 0.256793
O O13 0.046163 0.956898 0.607493
O O14 0.984623 0.833153 0.959408
O O15 0.000000 0.000000 0.000000
O O16 0.384517 0.738763 0.542761
O O17 0.133871 0.401038 0.813375
O O18 0.500000 0.000000 0.500000
#
# Coordination Sequence:
#
# PCOD9074955 Si02
#       8
#     2   2   2   2   2   2   2   2
#     4  11  21  41  75 101 132 179 231 289 346 411
#     4  11  23  41  74 112 133 170 243 295 347 414
#     4  11  24  46  66 101 148 181 227 292 356 420
#     4  11  23  44  72 101 139 184 228 293 358 419
#     4  12  23  45  77 101 135 184 240 297 346 417
#     4  11  24  44  67 102 141 184 231 287 362 419
#     4  11  26  46  69  95 148 192 228 289 364 421
#     4  12  23  43  79 103 134 183 239 293 341 417
#
# _framework density 20.954813000000001
#
# number of rings (size 3 to 8) (size 9 to 14) (size 15 to 20)
#    0.000    0.750    5.000    2.625    0.000    0.000 
#    0.000   12.500    0.000    0.000    0.000    0.000 
#    0.000    0.000    0.000    0.000    0.000    0.000 
#
# Total GULP energy -89411.882083 kJ/mol
# GULP energy per Si atom -5588.242630 kJ/mol
# Density = 2.090712 g / cm^3
# Si number density = 20.954813 Si / 1000 Ang^3
#
#
#
# Elastic Constant Matrix: (Units=GPa)
#
#
# Indices 1 2 3 4 5 6 
#
# 1 101.6092 48.0147 42.7702 2.9461 -7.1112 8.3866
# 2 48.0147 105.5547 41.4991 12.3424 -12.1657 19.6490
# 3 42.7702 41.4991 95.7315 11.9770 -13.8207 10.4963
# 4 2.9461 12.3424 11.9770 50.7771 -5.8438 0.6017
# 5 -7.1112 -12.1657 -13.8207 -5.8438 38.1437 -0.4555
# 6 8.3866 19.6490 10.4963 0.6017 -0.4555 42.7152
#
#
#
# Elastic Compliance Matrix: (Units=1/GPa)
#
#
# Indices 1 2 3 4 5 6 
#
# 1 0.013885 -0.004910 -0.004359 0.001370 -0.000340 0.000581
# 2 -0.004910 0.014239 -0.002858 -0.002192 0.002197 -0.004829
# 3 -0.004359 -0.002858 0.014501 -0.002089 0.003194 -0.001329
# 4 0.001370 -0.002192 -0.002089 0.020859 0.002007 0.000980
# 5 -0.000340 0.002197 0.003194 0.002007 0.028301 -0.001455
# 6 0.000581 -0.004829 -0.001329 0.000980 -0.001455 0.025816
#
#
# Mechanical properties :
#
#
# Convention : Reuss Voigt Hill
#
# Bulk Modulus (GPa) = 54.43410 63.05148 58.74279
# Shear Modulus (GPa) = 33.78842 37.70130 35.74486
#
# Velocity S-wave (km/s) = 4.01988 4.24627 4.13462
# Velocity P-wave (km/s) = 6.89777 7.36177 7.13354
#
# Compressibility (1/GPa) = 0.01837084
#
# Stress axis : x y z
#
# Youngs Moduli (GPa) = 72.01921 70.22798 68.96197
#
# Poissons Ratio (x) = 0.34480 0.30063
# Poissons Ratio (y) = 0.35359 0.19711
# Poissons Ratio (z) = 0.31396 0.20073
#
# Static dielectric constant tensor:
#      x y z
#    x 1.754830 -0.006330 0.068160 
#    y -0.006330 1.750580 -0.049520 
#    z 0.068160 -0.049520 1.877810 
# 
# From -- ./inp_files/117514.got.cif
#   From: 2010.05.17/outbox.ucp.g08.bks.cvg/sg2_59_cif.got.tgz:117514.got - 2010.06.11 11:32:03.
