data_PCOD9074452
_publ_section_title
;
Structure prediction by ZEFSAII (Michael W. Deem and Ramdas Pophale) SiO2 
 PCOD9074452
Probable space group: P -1
;
_chemical_formula_sum "Si O2"
_cell_formula_units_Z 10
_cell_length_a 18.000000
_cell_length_b 6.000000
_cell_length_c 9.000000
_cell_angle_alpha 50.000000
_cell_angle_beta 30.000000
_cell_angle_gamma 50.000000
_cell_volume 362.765517
_symmetry_space_group_name_H-M "P -1"
_symmetry_group_IT_number 2
_symmetry_cell_setting 'triclinic'
loop_
_space_group_symop_operation_xyz
x,y,z
-x,-y,-z
loop_
_atom_site_type_symbol
_atom_site_label
_atom_site_fract_x
_atom_site_fract_y
_atom_site_fract_z
Si Si1 0.375423 0.866345 0.681323
Si Si2 0.014823 0.313301 0.891264
Si Si3 0.149620 0.122837 0.177852
Si Si4 0.466913 0.716596 0.252171
Si Si5 0.767159 0.363891 0.544276
O O1 0.402579 0.808835 0.486911
O O2 0.384592 0.540084 0.870730
O O3 0.500000 0.000000 0.500000
O O4 0.219005 0.065268 0.919228
O O5 0.905886 0.528673 0.868846
O O6 0.185172 0.376733 0.552232
O O7 0.925367 0.308982 0.204773
O O8 0.000000 0.000000 0.000000
O O9 0.255589 0.920716 0.200858
O O10 0.000000 0.000000 0.500000
O O11 0.362687 0.579380 0.377460
O O12 0.500000 0.000000 0.000000
#
# Coordination Sequence:
#
# PCOD9074452 Si02
#       5
#     2   2   2   2   2
#     4  11  25  47  72 103 146 188 238 296 354 428
#     4  10  23  43  70 101 141 189 236 290 354 423
#     4  10  23  44  70 105 145 186 234 292 358 427
#     4  11  26  45  73 106 140 190 241 293 356 420
#     4  10  23  43  67 103 140 181 238 294 351 418
#
# _framework density 27.566016000000001
#
# number of rings (size 3 to 8) (size 9 to 14) (size 15 to 20)
#    0.000    1.600    0.000    2.400    0.000   16.800 
#    0.000    0.000    0.000    3.600    0.000    0.000 
#    0.000    0.000    0.000    0.000    0.000    0.000 
#
# Total GULP energy -55714.322994 kJ/mol
# GULP energy per Si atom -5571.432299 kJ/mol
# Density = 2.750327 g / cm^3
# Si number density = 27.566016 Si / 1000 Ang^3
#
#
#
# Elastic Constant Matrix: (Units=GPa)
#
#
# Indices 1 2 3 4 5 6 
#
# 1 112.4418 53.9964 32.5497 -15.4945 4.0112 -28.9999
# 2 53.9964 192.5467 64.8105 -45.8992 10.2955 -38.8234
# 3 32.5497 64.8105 101.8101 -27.3416 10.6580 -11.3687
# 4 -15.4945 -45.8992 -27.3416 44.4815 -9.9766 4.1145
# 5 4.0112 10.2955 10.6580 -9.9766 35.1974 -12.5577
# 6 -28.9999 -38.8234 -11.3687 4.1145 -12.5577 28.5291
#
#
#
# Elastic Compliance Matrix: (Units=1/GPa)
#
#
# Indices 1 2 3 4 5 6 
#
# 1 0.013735 0.000954 -0.002761 0.003891 0.005868 0.016181
# 2 0.000954 0.011545 -0.003848 0.009775 0.006348 0.016532
# 3 -0.002761 -0.003848 0.013885 0.003245 -0.003448 -0.004496
# 4 0.003891 0.009775 0.003245 0.037078 0.012972 0.018913
# 5 0.005868 0.006348 -0.003448 0.012972 0.041116 0.029457
# 6 0.016181 0.016532 -0.004496 0.018913 0.029457 0.082444
#
#
# Mechanical properties :
#
#
# Convention : Reuss Voigt Hill
#
# Bulk Modulus (GPa) = 35.89992 78.83462 57.36727
# Shear Modulus (GPa) = 22.68630 38.67108 30.67869
#
# Velocity S-wave (km/s) = 2.87188 3.74953 3.33966
# Velocity P-wave (km/s) = 4.90392 6.88519 5.97722
#
# Compressibility (1/GPa) = 0.02785522
#
# Stress axis : x y z
#
# Youngs Moduli (GPa) = 72.80852 86.61500 72.02126
#
# Poissons Ratio (x) = -0.08263 0.19884
# Poissons Ratio (y) = -0.06946 0.27713
# Poissons Ratio (z) = 0.20101 0.33329
#
# Static dielectric constant tensor:
#      x y z
#    x 1.922960 -0.455730 0.017530 
#    y -0.455730 1.984920 0.078140 
#    z 0.017530 0.078140 2.005930 
# 
# From -- ./inp_files/28683.got.cif
#   From: 2010.05.17/outbox.ucp.g08.bks.cvg/sg2_15_cif.got.tgz:28683.got - 2010.06.11 11:32:03.
