data_PCOD9074936
_publ_section_title
;
Structure prediction by ZEFSAII (Michael W. Deem and Ramdas Pophale) SiO2 
 PCOD9074936
Probable space group: P -1
;
_chemical_formula_sum "Si O2"
_cell_formula_units_Z 14
_cell_length_a 12.000000
_cell_length_b 9.000000
_cell_length_c 27.000000
_cell_angle_alpha 140.000000
_cell_angle_beta 20.000000
_cell_angle_gamma 140.000000
_cell_volume 626.757776
_symmetry_space_group_name_H-M "P -1"
_symmetry_group_IT_number 2
_symmetry_cell_setting 'triclinic'
loop_
_space_group_symop_operation_xyz
x,y,z
-x,-y,-z
loop_
_atom_site_type_symbol
_atom_site_label
_atom_site_fract_x
_atom_site_fract_y
_atom_site_fract_z
Si Si1 0.394729 0.572613 0.848792
Si Si2 0.430203 0.723894 0.556123
Si Si3 0.848283 0.743819 0.975467
Si Si4 0.309133 0.730752 0.418181
Si Si5 0.431028 0.931080 0.116502
Si Si6 0.278382 0.360332 0.683897
Si Si7 0.665090 0.681564 0.869603
O O1 0.534516 0.350992 0.717241
O O2 0.589777 0.674489 0.841853
O O3 0.481711 0.798207 0.833716
O O4 0.000000 0.500000 0.000000
O O5 0.500000 0.500000 0.500000
O O6 0.437651 0.639629 0.474739
O O7 0.055962 0.732317 0.728878
O O8 0.674927 0.986928 0.524530
O O9 0.141057 0.599975 0.808088
O O10 0.649413 0.788052 0.020913
O O11 0.563413 0.568949 0.081147
O O12 0.000000 0.000000 0.000000
O O13 0.581779 0.721434 0.344750
O O14 0.000000 0.500000 0.500000
O O15 0.041253 0.822241 0.250882
O O16 0.536187 0.880886 0.004443
#
# Coordination Sequence:
#
# PCOD9074936 Si02
#       7
#     2   2   2   2   2   2   2
#     4  12  23  39  64  95 126 162 212 275 322 368
#     4  12  25  43  66  95 128 171 220 271 323 383
#     4  11  23  41  66  98 130 167 213 265 322 384
#     4  12  26  45  65  94 132 175 220 269 324 387
#     4  11  21  41  65  92 127 170 214 257 318 398
#     4  11  23  43  67  90 127 180 218 255 322 402
#     4  11  23  40  63  94 128 167 214 266 320 382
#
# _framework density 22.337178000000002
#
# number of rings (size 3 to 8) (size 9 to 14) (size 15 to 20)
#    0.000    0.571    0.000   11.143    0.000    2.286 
#    0.000    2.143    0.000    0.000    0.000    0.000 
#    0.000    0.000    0.000    0.000    0.000    0.000 
#
# Total GULP energy -78102.132776 kJ/mol
# GULP energy per Si atom -5578.723770 kJ/mol
# Density = 2.228634 g / cm^3
# Si number density = 22.337178 Si / 1000 Ang^3
#
#
#
# Elastic Constant Matrix: (Units=GPa)
#
#
# Indices 1 2 3 4 5 6 
#
# 1 77.6115 19.7553 10.4700 16.0441 -8.8003 -3.7484
# 2 19.7553 180.8346 49.2687 18.4009 -5.9456 7.3704
# 3 10.4700 49.2687 97.1623 11.3155 21.9971 12.6278
# 4 16.0441 18.4009 11.3155 18.5007 2.1088 -12.0056
# 5 -8.8003 -5.9456 21.9971 2.1088 21.2428 -2.3255
# 6 -3.7484 7.3704 12.6278 -12.0056 -2.3255 30.2133
#
#
#
# Elastic Compliance Matrix: (Units=1/GPa)
#
#
# Indices 1 2 3 4 5 6 
#
# 1 0.018027 0.001203 -0.002598 -0.018922 0.011983 -0.003568
# 2 0.001203 0.007920 -0.004577 -0.008828 0.008029 -0.002760
# 3 -0.002598 -0.004577 0.022736 -0.014918 -0.026243 -0.016657
# 4 -0.018922 -0.008828 -0.014918 0.124451 -0.001151 0.055404
# 5 0.011983 0.008029 -0.026243 -0.001151 0.083377 0.016457
# 6 -0.003568 -0.002760 -0.016657 0.055404 0.016457 0.063572
#
#
# Mechanical properties :
#
#
# Convention : Reuss Voigt Hill
#
# Bulk Modulus (GPa) = 27.21824 57.17736 42.19780
# Shear Modulus (GPa) = 14.52333 32.39901 23.46117
#
# Velocity S-wave (km/s) = 2.55264 3.81261 3.24438
# Velocity P-wave (km/s) = 4.57161 6.71076 5.74169
#
# Compressibility (1/GPa) = 0.03674007
#
# Stress axis : x y z
#
# Youngs Moduli (GPa) = 55.47226 126.26108 43.98250
#
# Poissons Ratio (x) = -0.15194 0.11429
# Poissons Ratio (y) = -0.06676 0.20129
# Poissons Ratio (z) = 0.14414 0.57785
#
# Static dielectric constant tensor:
#      x y z
#    x 1.976200 0.025050 0.046700 
#    y 0.025050 1.667740 -0.123380 
#    z 0.046700 -0.123380 1.741020 
# 
# From -- ./inp_files/183734.got.cif
#   From: 2010.05.17/outbox.ucp.g08.bks.cvg/sg2_92_cif.got.tgz:183734.got - 2010.06.11 11:32:03.
