data_PCOD9074217
_publ_section_title
;
Structure prediction by ZEFSAII (Michael W. Deem and Ramdas Pophale) SiO2 
 PCOD9074217
Probable space group: P -1
;
_chemical_formula_sum "Si O2"
_cell_formula_units_Z 16
_cell_length_a 15.000000
_cell_length_b 9.000000
_cell_length_c 12.000000
_cell_angle_alpha 70.000000
_cell_angle_beta 130.000000
_cell_angle_gamma 70.000000
_cell_volume 728.972637
_symmetry_space_group_name_H-M "P -1"
_symmetry_group_IT_number 2
_symmetry_cell_setting 'triclinic'
loop_
_space_group_symop_operation_xyz
x,y,z
-x,-y,-z
loop_
_atom_site_type_symbol
_atom_site_label
_atom_site_fract_x
_atom_site_fract_y
_atom_site_fract_z
Si Si1 0.829191 0.055952 0.085797
Si Si2 0.986322 0.818709 0.893142
Si Si3 0.952449 0.593333 0.312817
Si Si4 0.643733 0.209977 0.676872
Si Si5 0.349124 0.314826 0.025901
Si Si6 0.792165 0.909025 0.491526
Si Si7 0.288925 0.720024 0.819206
Si Si8 0.637078 0.709291 0.696693
O O1 0.739034 0.189445 0.099484
O O2 0.918840 0.121058 0.092548
O O3 0.973635 0.759304 0.283787
O O4 0.688406 0.131516 0.862174
O O5 0.864147 0.868081 0.684246
O O6 0.844042 0.008164 0.829695
O O7 0.163316 0.520475 0.144986
O O8 0.000000 0.500000 0.500000
O O9 0.085990 0.358036 0.396515
O O10 0.746479 0.739836 0.085289
O O11 0.500000 0.500000 0.500000
O O12 0.512425 0.252916 0.478412
O O13 0.308713 0.364926 0.112064
O O14 0.573702 0.093151 0.257531
O O15 0.251028 0.572682 0.826439
O O16 0.817321 0.046480 0.407085
O O17 0.500000 0.500000 0.000000
O O18 0.500000 0.000000 0.500000
#
# Coordination Sequence:
#
# PCOD9074217 Si02
#       8
#     2   2   2   2   2   2   2   2
#     4  12  25  46  69 106 145 179 235 297 354 413
#     4  12  26  47  76 104 140 190 245 287 354 435
#     4  12  26  44  66 104 147 180 228 297 358 413
#     4  12  26  47  72 105 144 185 237 299 356 413
#     4  11  23  47  68 103 139 185 239 286 346 429
#     4  11  24  45  73 101 137 188 237 285 351 428
#     4  10  22  43  75 101 135 188 237 280 345 428
#     4  12  25  45  74 103 141 188 235 293 353 428
#
# _framework density 21.948698
#
# number of rings (size 3 to 8) (size 9 to 14) (size 15 to 20)
#    0.000    0.500    6.250    1.125    3.500    3.000 
#    2.250    0.000    0.000    0.000    0.000    0.000 
#    0.000    0.000    0.000    0.000    0.000    0.000 
#
# Total GULP energy -89201.810420 kJ/mol
# GULP energy per Si atom -5575.113151 kJ/mol
# Density = 2.189874 g / cm^3
# Si number density = 21.948698 Si / 1000 Ang^3
#
#
#
# Elastic Constant Matrix: (Units=GPa)
#
#
# Indices 1 2 3 4 5 6 
#
# 1 -27.3777 124.6283 20.0687 -10.0771 46.7680 16.0874
# 2 124.6283 66.3831 46.7066 -24.2164 -33.0614 -23.9737
# 3 20.0687 46.7066 96.2131 -15.7036 31.2111 2.2770
# 4 -10.0771 -24.2164 -15.7036 57.6153 -0.6211 -0.3355
# 5 46.7680 -33.0614 31.2111 -0.6211 18.6447 -14.9330
# 6 16.0874 -23.9737 2.2770 -0.3355 -14.9330 27.7655
#
#
#
# Elastic Compliance Matrix: (Units=1/GPa)
#
#
# Indices 1 2 3 4 5 6 
#
# 1 0.005808 0.004569 -0.007770 0.001010 0.013279 0.008371
# 2 0.004569 0.003784 -0.000465 0.002185 -0.005885 -0.002481
# 3 -0.007770 -0.000465 0.015555 0.002579 -0.008785 -0.001869
# 4 0.001010 0.002185 0.002579 0.019131 -0.002253 0.000109
# 5 0.013279 -0.005885 -0.008785 -0.002253 0.026074 0.001941
# 6 0.008371 -0.002481 -0.001869 0.000109 0.001941 0.030222
#
#
# Mechanical properties :
#
#
# Convention : Reuss Voigt Hill
#
# Bulk Modulus (GPa) = 56.13835 57.55841 56.84838
# Shear Modulus (GPa) = 43.91929 17.05941 30.48935
#
# Velocity S-wave (km/s) = 4.47810 2.79093 3.73113
# Velocity P-wave (km/s) = 7.23675 6.05530 6.67223
#
# Compressibility (1/GPa) = 0.01781314
#
# Stress axis : x y z
#
# Youngs Moduli (GPa) = 172.18225 264.27033 64.28696
#
# Poissons Ratio (x) = -1.20741 0.49953
# Poissons Ratio (y) = -0.78667 0.02992
# Poissons Ratio (z) = 1.33791 0.12301
#
# Static dielectric constant tensor:
#      x y z
#    x 1.868420 0.020660 -0.019090 
#    y 0.020660 1.733360 -0.021030 
#    z -0.019090 -0.021030 1.792190 
# 
# From -- ./inp_files/272591.got.cif
#   From: 2010.05.17/outbox.ucp.g08.bks.cvg/sg2_137_cif.got.tgz:272591.got - 2010.06.11 11:32:03.
