data_PCOD9074987
_publ_section_title
;
Structure prediction by ZEFSAII (Michael W. Deem and Ramdas Pophale) SiO2 
 PCOD9074987
Probable space group: P -1
;
_chemical_formula_sum "Si O2"
_cell_formula_units_Z 16
_cell_length_a 18.000000
_cell_length_b 9.000000
_cell_length_c 12.000000
_cell_angle_alpha 130.000000
_cell_angle_beta 50.000000
_cell_angle_gamma 150.000000
_cell_volume 725.531033
_symmetry_space_group_name_H-M "P -1"
_symmetry_group_IT_number 2
_symmetry_cell_setting 'triclinic'
loop_
_space_group_symop_operation_xyz
x,y,z
-x,-y,-z
loop_
_atom_site_type_symbol
_atom_site_label
_atom_site_fract_x
_atom_site_fract_y
_atom_site_fract_z
Si Si1 0.297153 0.571525 0.106686
Si Si2 0.212181 0.242689 0.692075
Si Si3 0.849569 0.037319 0.137585
Si Si4 0.199282 0.626498 0.013605
Si Si5 0.410489 0.569119 0.445681
Si Si6 0.722613 0.223246 0.396671
Si Si7 0.923906 0.586877 0.579888
Si Si8 0.425802 0.288407 0.081101
O O1 0.291090 0.708558 0.075711
O O2 0.222064 0.568326 0.281466
O O3 0.460975 0.722386 0.023475
O O4 0.190908 0.219638 0.014415
O O5 0.341598 0.391702 0.545852
O O6 0.197876 0.097559 0.753379
O O7 0.222619 0.483648 0.836019
O O8 0.053171 0.948037 0.643694
O O9 0.759485 0.095264 0.220744
O O10 0.025719 0.352687 0.094333
O O11 0.261064 0.928593 0.056628
O O12 0.316692 0.622713 0.534116
O O13 0.415483 0.419798 0.263789
O O14 0.580290 0.919667 0.458500
O O15 0.868834 0.473200 0.453420
O O16 0.000000 0.500000 0.500000
O O17 0.500000 0.500000 0.000000
#
# Coordination Sequence:
#
# PCOD9074987 Si02
#       8
#     2   2   2   2   2   2   2   2
#     4  11  22  45  71  99 140 179 232 284 342 414
#     4  11  24  43  71 107 141 176 230 291 348 414
#     4  11  21  48  71 102 138 183 230 287 348 414
#     4  11  24  45  73 102 138 182 231 288 351 408
#     4  11  28  47  66 102 144 184 238 283 347 418
#     4  11  25  46  70  94 147 191 225 287 353 409
#     4  12  23  42  73 106 141 179 228 292 347 410
#     4  12  28  48  70  99 137 187 238 285 341 416
#
# _framework density 22.052813
#
# number of rings (size 3 to 8) (size 9 to 14) (size 15 to 20)
#    0.000    0.750    5.000    1.875    8.750    1.000 
#    2.250    1.250    0.000    0.000    0.000    0.000 
#    0.000    0.000    0.000    0.000    0.000    0.000 
#
# Total GULP energy -89317.199201 kJ/mol
# GULP energy per Si atom -5582.324950 kJ/mol
# Density = 2.200262 g / cm^3
# Si number density = 22.052813 Si / 1000 Ang^3
#
#
#
# Elastic Constant Matrix: (Units=GPa)
#
#
# Indices 1 2 3 4 5 6 
#
# 1 35.8093 2.4432 7.2182 -6.4437 -22.8214 4.4738
# 2 2.4432 104.8819 17.5037 -5.7486 5.0858 -17.6940
# 3 7.2182 17.5037 142.7977 -11.6988 -12.3300 -18.9644
# 4 -6.4437 -5.7486 -11.6988 50.0030 3.5079 -2.7312
# 5 -22.8214 5.0858 -12.3300 3.5079 37.0412 -1.3542
# 6 4.4738 -17.6940 -18.9644 -2.7312 -1.3542 24.7910
#
#
#
# Elastic Compliance Matrix: (Units=1/GPa)
#
#
# Indices 1 2 3 4 5 6 
#
# 1 0.049335 -0.004079 -0.000494 0.003102 0.030125 -0.010205
# 2 -0.004079 0.011402 -0.000272 0.001472 -0.003994 0.008610
# 3 -0.000494 -0.000272 0.008329 0.002037 0.002555 0.006630
# 4 0.003102 0.001472 0.002037 0.021248 0.000537 0.004419
# 5 0.030125 -0.003994 0.002555 0.000537 0.046769 -0.003718
# 6 -0.010205 0.008610 0.006630 0.004419 -0.003718 0.053679
#
#
# Mechanical properties :
#
#
# Convention : Reuss Voigt Hill
#
# Bulk Modulus (GPa) = 16.84181 37.53547 27.18864
# Shear Modulus (GPa) = 22.70191 39.45529 31.07860
#
# Velocity S-wave (km/s) = 3.21196 4.23440 3.75811
# Velocity P-wave (km/s) = 4.62701 6.40035 5.58452
#
# Compressibility (1/GPa) = 0.05937604
#
# Stress axis : x y z
#
# Youngs Moduli (GPa) = 20.26943 87.70531 120.05804
#
# Poissons Ratio (x) = 0.35777 0.05928
# Poissons Ratio (y) = 0.08268 0.03269
# Poissons Ratio (z) = 0.01001 0.02388
#
# Static dielectric constant tensor:
#      x y z
#    x 1.883980 0.038680 -0.000060 
#    y 0.038680 1.851730 -0.010430 
#    z -0.000060 -0.010430 1.819730 
# 
# From -- ./inp_files/462449.got.cif
#   From: 2010.05.17/outbox.ucp.g08.bks.cvg/sg2_232_cif.got.tgz:462449.got - 2010.06.11 11:32:03.
