data_PCOD9074728
_publ_section_title
;
Structure prediction by ZEFSAII (Michael W. Deem and Ramdas Pophale) SiO2 
 PCOD9074728
Probable space group: P -1
;
_chemical_formula_sum "Si O2"
_cell_formula_units_Z 14
_cell_length_a 9.000000
_cell_length_b 6.000000
_cell_length_c 21.000000
_cell_angle_alpha 70.000000
_cell_angle_beta 140.000000
_cell_angle_gamma 120.000000
_cell_volume 629.549538
_symmetry_space_group_name_H-M "P -1"
_symmetry_group_IT_number 2
_symmetry_cell_setting 'triclinic'
loop_
_space_group_symop_operation_xyz
x,y,z
-x,-y,-z
loop_
_atom_site_type_symbol
_atom_site_label
_atom_site_fract_x
_atom_site_fract_y
_atom_site_fract_z
Si Si1 0.865077 0.242224 0.715799
Si Si2 0.553069 0.179550 0.807723
Si Si3 0.518717 0.674218 0.681133
Si Si4 0.064610 0.256337 0.912067
Si Si5 0.697276 0.174335 0.996153
Si Si6 0.608375 0.623305 0.455965
Si Si7 0.872726 0.299021 0.343962
O O1 0.594720 0.258428 0.639564
O O2 0.049690 0.345499 0.825955
O O3 0.997187 0.426195 0.679960
O O4 0.768997 0.929231 0.720669
O O5 0.574972 0.442793 0.754585
O O6 0.783582 0.119722 0.861080
O O7 0.299244 0.933929 0.734348
O O8 0.579149 0.219612 0.887429
O O9 0.401890 0.575739 0.583229
O O10 0.310571 0.698840 0.658483
O O11 0.177067 0.530243 0.962042
O O12 0.167183 0.023894 0.962250
O O13 0.500000 0.000000 0.000000
O O14 0.500000 0.500000 0.500000
O O15 0.902001 0.777930 0.549430
#
# Coordination Sequence:
#
# PCOD9074728 Si02
#       7
#     2   2   2   2   2   2   2
#     4  11  25  46  74 107 153 198 259 315 388 451
#     4  12  27  47  73 112 152 200 257 316 391 461
#     4  12  24  45  72 107 152 194 256 314 390 448
#     4  12  25  49  77 111 155 205 253 323 385 464
#     4  12  29  48  80 114 155 202 264 320 393 464
#     4  10  24  46  72 107 151 197 256 316 387 455
#     4  11  26  44  74 107 150 200 259 314 384 465
#
# _framework density 22.238123000000002
#
# number of rings (size 3 to 8) (size 9 to 14) (size 15 to 20)
#    0.000    0.571    2.857    3.429    4.000    8.000 
#    0.000    0.000    0.000    0.000    0.000    0.000 
#    0.000    0.000    0.000    0.000    0.000    0.000 
#
# Total GULP energy -78095.996465 kJ/mol
# GULP energy per Si atom -5578.285462 kJ/mol
# Density = 2.218751 g / cm^3
# Si number density = 22.238123 Si / 1000 Ang^3
#
#
#
# Elastic Constant Matrix: (Units=GPa)
#
#
# Indices 1 2 3 4 5 6 
#
# 1 53.4761 53.7430 14.2565 20.6260 -21.4430 -20.4835
# 2 53.7430 151.3552 65.4806 8.7988 5.0477 17.2447
# 3 14.2565 65.4806 97.0348 27.3170 -28.2426 -25.9268
# 4 20.6260 8.7988 27.3170 38.6763 5.3966 4.6836
# 5 -21.4430 5.0477 -28.2426 5.3966 41.1388 -13.0658
# 6 -20.4835 17.2447 -25.9268 4.6836 -13.0658 31.4008
#
#
#
# Elastic Compliance Matrix: (Units=1/GPa)
#
#
# Indices 1 2 3 4 5 6 
#
# 1 0.006769 0.003935 -0.011552 0.006482 -0.009629 -0.012257
# 2 0.003935 0.003289 0.002966 -0.006745 0.006807 0.007048
# 3 -0.011552 0.002966 0.004792 0.004000 -0.006296 -0.008424
# 4 0.006482 -0.006745 0.004000 0.018502 0.008316 0.011935
# 5 -0.009629 0.006807 -0.006296 0.008316 0.009004 -0.012711
# 6 -0.012257 0.007048 -0.008424 0.011935 -0.012711 0.005955
#
#
# Mechanical properties :
#
#
# Convention : Reuss Voigt Hill
#
# Bulk Modulus (GPa) = 180.26396 63.20291 121.73344
# Shear Modulus (GPa) = 84.08602 33.46893 58.77748
#
# Velocity S-wave (km/s) = 6.15579 3.88367 5.14668
# Velocity P-wave (km/s) = 11.47875 6.97089 9.49618
#
# Compressibility (1/GPa) = 0.00554742
#
# Stress axis : x y z
#
# Youngs Moduli (GPa) = 147.73279 304.07957 208.67227
#
# Poissons Ratio (x) = -1.19658 2.41062
# Poissons Ratio (y) = -0.58134 -0.61890
# Poissons Ratio (z) = 1.70664 -0.90187
#
# Static dielectric constant tensor:
#      x y z
#    x 1.814890 -0.045640 0.017620 
#    y -0.045640 1.856840 -0.015990 
#    z 0.017620 -0.015990 1.907710 
# 
# From -- ./inp_files/323387.got.cif
#   From: 2010.05.17/outbox.ucp.g08.bks.cvg/sg2_162_cif.got.tgz:323387.got - 2010.06.11 11:32:03.
