data_PCOD9074023
_publ_section_title
;
Structure prediction by ZEFSAII (Michael W. Deem and Ramdas Pophale) SiO2 
 PCOD9074023
Probable space group: P -1
;
_chemical_formula_sum "Si O2"
_cell_formula_units_Z 16
_cell_length_a 14.249952
_cell_length_b 6.333345
_cell_length_c 12.767864
_cell_angle_alpha 71.500940
_cell_angle_beta 72.476380
_cell_angle_gamma 59.650754
_cell_volume 928.949449
_symmetry_space_group_name_H-M "P -1"
_symmetry_group_IT_number 2
_symmetry_cell_setting 'triclinic'
loop_
_space_group_symop_operation_xyz
x,y,z
-x,-y,-z
loop_
_atom_site_type_symbol
_atom_site_label
_atom_site_fract_x
_atom_site_fract_y
_atom_site_fract_z
Si Si1 0.903684 0.277557 0.485233
Si Si2 0.710166 0.128132 0.555211
Si Si3 0.930866 0.233516 0.867571
Si Si4 0.585948 0.619482 0.612487
Si Si5 0.869558 0.629591 0.253428
Si Si6 0.355431 0.039703 0.611638
Si Si7 0.208172 0.421735 0.323326
Si Si8 0.943506 0.327166 0.078642
O O1 0.795976 0.241548 0.501257
O O2 0.919055 0.441180 0.363826
O O3 0.879012 0.427948 0.578834
O O4 0.000000 0.000000 0.500000
O O5 0.604772 0.347150 0.612373
O O6 0.681202 0.063535 0.461633
O O7 0.766355 0.867218 0.640012
O O8 0.841256 0.429901 0.789488
O O9 0.044555 0.259081 0.814624
O O10 0.894389 0.282459 0.993783
O O11 0.965242 0.946622 0.873573
O O12 0.610916 0.756287 0.482617
O O13 0.677476 0.583727 0.674824
O O14 0.463607 0.812330 0.657567
O O15 0.748497 0.830867 0.297662
O O16 0.866490 0.470455 0.178947
O O17 0.000000 0.500000 0.000000
#
# Coordination Sequence:
#
# PCOD9074023 Si02
#       8
#     2   2   2   2   2   2   2   2
#     4  11  21  29  45  77 112 137 162 206 253 309
#     4  10  18  32  46  74 104 143 175 197 252 299
#     4  10  21  36  55  74 104 135 170 213 255 314
#     4   9  19  34  47  72 107 141 176 209 246 297
#     4  11  20  32  51  79 104 135 171 212 254 297
#     4  10  19  32  50  72 105 141 178 211 245 301
#     4  10  20  33  50  76 105 139 170 204 257 312
#     4   9  21  38  53  76  99 134 174 211 260 302
#
# _framework density 17.223759000000001
#
# number of rings (size 3 to 8) (size 9 to 14) (size 15 to 20)
#    0.000    2.000    3.750    1.875    3.500    4.000 
#    0.000    0.000    0.000    0.750    0.000    8.750 
#    0.000    0.000    0.000    0.000    0.000    0.000 
#
# Total GULP energy -89214.557237 kJ/mol
# GULP energy per Si atom -5575.909827 kJ/mol
# Density = 1.718456 g / cm^3
# Si number density = 17.223759 Si / 1000 Ang^3
#
#
#
# Elastic Constant Matrix: (Units=GPa)
#
#
# Indices 1 2 3 4 5 6 
#
# 1 37.6683 33.0303 19.5217 3.3714 6.0835 -21.4251
# 2 33.0303 141.8390 31.0544 2.1076 6.6369 -18.4788
# 3 19.5217 31.0544 57.1894 1.7443 17.2364 -13.8328
# 4 3.3714 2.1076 1.7443 27.9419 1.3733 -4.9856
# 5 6.0835 6.6369 17.2364 1.3733 12.4850 -2.9202
# 6 -21.4251 -18.4788 -13.8328 -4.9856 -2.9202 34.5443
#
#
#
# Elastic Compliance Matrix: (Units=1/GPa)
#
#
# Indices 1 2 3 4 5 6 
#
# 1 0.051013 -0.007132 -0.004959 -0.000425 -0.008308 0.025075
# 2 -0.007132 0.009303 -0.003924 0.000096 0.003776 -0.000685
# 3 -0.004959 -0.003924 0.035864 0.001836 -0.043869 0.005744
# 4 -0.000425 0.000096 0.001836 0.036939 -0.005175 0.005417
# 5 -0.008308 0.003776 -0.043869 -0.005175 0.141042 -0.009524
# 6 0.025075 -0.000685 0.005744 0.005417 -0.009524 0.046410
#
#
# Mechanical properties :
#
#
# Convention : Reuss Voigt Hill
#
# Bulk Modulus (GPa) = 15.58815 44.87883 30.23349
# Shear Modulus (GPa) = 13.36956 25.20028 19.28492
#
# Velocity S-wave (km/s) = 2.78911 3.82921 3.34978
# Velocity P-wave (km/s) = 4.40933 6.75747 5.70551
#
# Compressibility (1/GPa) = 0.06415130
#
# Stress axis : x y z
#
# Youngs Moduli (GPa) = 19.60275 107.49486 27.88319
#
# Poissons Ratio (x) = 0.76666 0.13826
# Poissons Ratio (y) = 0.13981 0.10940
# Poissons Ratio (z) = 0.09720 0.42177
#
# Static dielectric constant tensor:
#      x y z
#    x 1.611050 -0.001730 -0.001900 
#    y -0.001730 1.627800 0.009480 
#    z -0.001900 0.009480 1.578830 
# 
# From -- ./inp_files/70470.got.cif
#   From: 2010.05.17/outbox.cif.g08.bks.cpg/sg2_36_cif.got.tgz:70470.got - 2010.06.03 11:33:40.
