data_PCOD9074302
_publ_section_title
;
Structure prediction by ZEFSAII (Michael W. Deem and Ramdas Pophale) SiO2 
 PCOD9074302
Probable space group: P -1
;
_chemical_formula_sum "Si O2"
_cell_formula_units_Z 16
_cell_length_a 16.402004
_cell_length_b 7.743259
_cell_length_c 8.910863
_cell_angle_alpha 58.831747
_cell_angle_beta 139.035803
_cell_angle_gamma 108.390370
_cell_volume 629.095562
_symmetry_space_group_name_H-M "P -1"
_symmetry_group_IT_number 2
_symmetry_cell_setting 'triclinic'
loop_
_space_group_symop_operation_xyz
x,y,z
-x,-y,-z
loop_
_atom_site_type_symbol
_atom_site_label
_atom_site_fract_x
_atom_site_fract_y
_atom_site_fract_z
Si Si1 0.866759 0.705960 0.114340
Si Si2 0.874099 0.115005 0.135531
Si Si3 0.863399 0.326965 0.513716
Si Si4 0.372350 0.769906 0.163060
Si Si5 0.134668 0.085592 0.458914
Si Si6 0.396707 0.574864 0.955975
Si Si7 0.395877 0.157310 0.873219
Si Si8 0.415573 0.203152 0.349121
O O1 0.863719 0.499177 0.302365
O O2 0.998994 0.668167 0.225272
O O3 0.879281 0.901114 0.150488
O O4 0.731343 0.777046 0.819629
O O5 0.996784 0.212905 0.214605
O O6 0.873985 0.049634 0.339643
O O7 0.742527 0.261490 0.873996
O O8 0.860512 0.088701 0.580609
O O9 0.719387 0.385070 0.338601
O O10 0.355566 0.689883 0.008175
O O11 0.508667 0.710494 0.448398
O O12 0.364008 0.015769 0.029023
O O13 0.259861 0.193650 0.587560
O O14 0.525564 0.661574 0.062883
O O15 0.417287 0.350233 0.145614
O O16 0.500000 0.000000 0.000000
O O17 0.500000 0.000000 0.500000
#
# Coordination Sequence:
#
# PCOD9074302 Si02
#       8
#     2   2   2   2   2   2   2   2
#     4   9  18  27  44  68 102 126 157 201 245 283
#     4   9  15  26  44  73  96 125 154 207 243 281
#     4   9  15  28  46  72  91 125 163 207 238 278
#     4  10  18  32  50  76 101 127 163 202 248 292
#     4   9  15  25  48  71  98 119 159 208 247 276
#     4  10  19  33  54  75  98 127 167 207 245 288
#     4   9  16  30  50  76  98 125 163 210 245 285
#     4  11  21  33  48  73 105 136 160 196 247 300
#
# _framework density 25.433337000000002
#
# number of rings (size 3 to 8) (size 9 to 14) (size 15 to 20)
#    0.000    2.500    5.000    0.375    0.000    0.000 
#    0.000    0.625    0.000    1.500    0.000    0.000 
#    0.000    0.000    0.000    0.000    0.000    0.000 
#
# Total GULP energy -89070.827953 kJ/mol
# GULP energy per Si atom -5566.926747 kJ/mol
# Density = 2.537545 g / cm^3
# Si number density = 25.433337 Si / 1000 Ang^3
#
#
#
# Elastic Constant Matrix: (Units=GPa)
#
#
# Indices 1 2 3 4 5 6 
#
# 1 71.7523 17.8579 53.8147 11.5879 48.8273 10.6270
# 2 17.8579 94.2073 30.5136 7.5780 24.9227 12.7303
# 3 53.8147 30.5136 161.8238 29.9862 74.5197 17.9313
# 4 11.5879 7.5780 29.9862 33.7653 15.0202 13.2880
# 5 48.8273 24.9227 74.5197 15.0202 58.3752 18.0524
# 6 10.6270 12.7303 17.9313 13.2880 18.0524 18.9122
#
#
#
# Elastic Compliance Matrix: (Units=1/GPa)
#
#
# Indices 1 2 3 4 5 6 
#
# 1 0.037077 0.000349 0.007435 -0.007231 -0.044932 0.019851
# 2 0.000349 0.012283 -0.000330 0.001222 -0.003750 -0.005430
# 3 0.007435 -0.000330 0.019198 -0.011780 -0.033004 0.017623
# 4 -0.007231 0.001222 -0.011780 0.048687 0.020090 -0.038975
# 5 -0.044932 -0.003750 -0.033004 0.020090 0.112622 -0.062553
# 6 0.019851 -0.005430 0.017623 -0.038975 -0.062553 0.115761
#
#
# Mechanical properties :
#
#
# Convention : Reuss Voigt Hill
#
# Bulk Modulus (GPa) = 11.98069 59.12840 35.55455
# Shear Modulus (GPa) = 13.94544 37.25038 25.59791
#
# Velocity S-wave (km/s) = 2.34415 3.83120 3.17593
# Velocity P-wave (km/s) = 3.47096 6.54749 5.24010
#
# Compressibility (1/GPa) = 0.08346764
#
# Stress axis : x y z
#
# Youngs Moduli (GPa) = 26.97083 81.41201 52.08960
#
# Poissons Ratio (x) = -0.02844 -0.38731
# Poissons Ratio (y) = -0.00942 0.01719
# Poissons Ratio (z) = -0.20054 0.02687
#
# Static dielectric constant tensor:
#      x y z
#    x 2.142960 -0.037960 0.071000 
#    y -0.037960 2.068800 0.068040 
#    z 0.071000 0.068040 2.255710 
# 
# From -- ./inp_files/255101.got.cif
#   From: 2010.05.17/outbox.cif.g08.bks.cpg/sg2_128_cif.got.tgz:255101.got - 2010.06.03 11:33:40.
