data_PCOD9074046
_publ_section_title
;
Structure prediction by ZEFSAII (Michael W. Deem and Ramdas Pophale) SiO2 
 PCOD9074046
Probable space group: P -1
;
_chemical_formula_sum "Si O2"
_cell_formula_units_Z 16
_cell_length_a 12.341837
_cell_length_b 11.780877
_cell_length_c 18.747686
_cell_angle_alpha 139.775347
_cell_angle_beta 141.160020
_cell_angle_gamma 68.927701
_cell_volume 898.825650
_symmetry_space_group_name_H-M "P -1"
_symmetry_group_IT_number 2
_symmetry_cell_setting 'triclinic'
loop_
_space_group_symop_operation_xyz
x,y,z
-x,-y,-z
loop_
_atom_site_type_symbol
_atom_site_label
_atom_site_fract_x
_atom_site_fract_y
_atom_site_fract_z
Si Si1 0.349259 0.081514 0.827393
Si Si2 0.738885 0.122294 0.592082
Si Si3 0.834493 0.649501 0.510609
Si Si4 0.757598 0.590670 0.019708
Si Si5 0.435423 0.235583 0.788795
Si Si6 0.745805 0.264193 0.196194
Si Si7 0.481190 0.263195 0.593799
Si Si8 0.883031 0.680269 0.390341
O O1 0.452481 0.183994 0.853280
O O2 0.129703 0.855751 0.589407
O O3 0.296522 0.236320 0.912526
O O4 0.511095 0.078138 0.961532
O O5 0.619370 0.237002 0.595631
O O6 0.661733 0.974399 0.411363
O O7 0.662228 0.962364 0.544368
O O8 0.991949 0.287872 0.799154
O O9 0.756379 0.403170 0.336611
O O10 0.675724 0.677084 0.485853
O O11 0.076751 0.777647 0.721520
O O12 0.834520 0.728107 0.467915
O O13 0.649893 0.426015 0.951987
O O14 0.638705 0.447379 0.820103
O O15 0.267382 0.298777 0.728582
O O16 0.828718 0.445183 0.262761
#
# Coordination Sequence:
#
# PCOD9074046 Si02
#       8
#     2   2   2   2   2   2   2   2
#     4  12  20  29  52  72 103 130 157 196 244 295
#     4  10  20  31  49  71 101 132 156 197 239 290
#     4   9  16  35  49  68 102 125 159 202 241 279
#     4  11  18  30  48  73  98 129 155 195 248 286
#     4  11  21  31  46  76 104 129 157 192 247 294
#     4   9  19  32  47  71 100 129 158 199 239 286
#     4  10  18  34  49  71  99 126 166 198 237 284
#     4  10  18  32  47  72 101 131 154 196 246 287
#
# _framework density 17.801006000000001
#
# number of rings (size 3 to 8) (size 9 to 14) (size 15 to 20)
#    0.750    1.000    6.250    1.125    0.000    0.500 
#    0.000    0.000    0.000    0.750    0.000    1.750 
#    0.000    0.000    0.000    0.000    0.000    0.000 
#
# Total GULP energy -89178.956913 kJ/mol
# GULP energy per Si atom -5573.684807 kJ/mol
# Density = 1.776049 g / cm^3
# Si number density = 17.801006 Si / 1000 Ang^3
#
#
#
# Elastic Constant Matrix: (Units=GPa)
#
#
# Indices 1 2 3 4 5 6 
#
# 1 49.3266 22.0833 38.4605 -11.2335 7.8971 -23.4133
# 2 22.0833 42.3461 21.6401 -13.3858 4.4391 -17.2698
# 3 38.4605 21.6401 99.7722 -6.6217 31.0357 -9.6524
# 4 -11.2335 -13.3858 -6.6217 29.0998 -2.9642 6.7408
# 5 7.8971 4.4391 31.0357 -2.9642 21.0657 -6.3832
# 6 -23.4133 -17.2698 -9.6524 6.7408 -6.3832 27.5278
#
#
#
# Elastic Compliance Matrix: (Units=1/GPa)
#
#
# Indices 1 2 3 4 5 6 
#
# 1 0.065552 0.003574 -0.032818 0.011315 0.040724 0.053162
# 2 0.003574 0.040669 -0.012468 0.013264 0.017928 0.025092
# 3 -0.032818 -0.012468 0.037811 -0.007510 -0.051721 -0.032631
# 4 0.011315 0.013264 -0.007510 0.042590 0.012369 0.007751
# 5 0.040724 0.017928 -0.051721 0.012369 0.122461 0.053117
# 6 0.053162 0.025092 -0.032631 0.007751 0.053117 0.096261
#
#
# Mechanical properties :
#
#
# Convention : Reuss Voigt Hill
#
# Bulk Modulus (GPa) = 16.49927 39.53474 28.01701
# Shear Modulus (GPa) = 9.82375 22.82271 16.32323
#
# Velocity S-wave (km/s) = 2.35173 3.58453 3.03146
# Velocity P-wave (km/s) = 4.08204 6.27609 5.29397
#
# Compressibility (1/GPa) = 0.06060876
#
# Stress axis : x y z
#
# Youngs Moduli (GPa) = 15.25495 24.58887 26.44715
#
# Poissons Ratio (x) = -0.08789 0.86796
# Poissons Ratio (y) = -0.05453 0.32974
# Poissons Ratio (z) = 0.50064 0.30657
#
# Static dielectric constant tensor:
#      x y z
#    x 1.602460 -0.001910 0.017430 
#    y -0.001910 1.634180 0.019430 
#    z 0.017430 0.019430 1.660640 
# 
# From -- ./inp_files/595253.got.cif
#   From: 2010.05.17/outbox.cif.g08.bks.cpg/sg2_298_cif.got.tgz:595253.got - 2010.06.03 11:33:40.
