data_PCOD9074324
_publ_section_title
;
Structure prediction by ZEFSAII (Michael W. Deem and Ramdas Pophale) SiO2 
 PCOD9074324
Probable space group: P -1
;
_chemical_formula_sum "Si O2"
_cell_formula_units_Z 16
_cell_length_a 15.000000
_cell_length_b 12.000000
_cell_length_c 9.000000
_cell_angle_alpha 40.000000
_cell_angle_beta 50.000000
_cell_angle_gamma 50.000000
_cell_volume 759.581896
_symmetry_space_group_name_H-M "P -1"
_symmetry_group_IT_number 2
_symmetry_cell_setting 'triclinic'
loop_
_space_group_symop_operation_xyz
x,y,z
-x,-y,-z
loop_
_atom_site_type_symbol
_atom_site_label
_atom_site_fract_x
_atom_site_fract_y
_atom_site_fract_z
Si Si1 0.766824 0.863156 0.543466
Si Si2 0.377474 0.641655 0.928907
Si Si3 0.925708 0.068434 0.299410
Si Si4 0.628237 0.532796 0.369792
Si Si5 0.671367 0.999709 0.195200
Si Si6 0.804536 0.470337 0.957712
Si Si7 0.807754 0.143883 0.671274
Si Si8 0.524513 0.127537 0.630203
O O1 0.851920 0.991729 0.337128
O O2 0.728184 0.870813 0.404431
O O3 0.647934 0.951077 0.689406
O O4 0.838253 0.655549 0.717407
O O5 0.343892 0.802218 0.920552
O O6 0.272451 0.558942 0.073804
O O7 0.415344 0.730657 0.651359
O O8 0.500000 0.500000 0.000000
O O9 0.911735 0.279994 0.062333
O O10 0.848758 0.087653 0.515690
O O11 0.059087 0.921400 0.324106
O O12 0.500000 0.500000 0.500000
O O13 0.710262 0.515284 0.152200
O O14 0.716653 0.355769 0.550082
O O15 0.575715 0.739007 0.286254
O O16 0.552491 0.949629 0.325011
O O17 0.740713 0.012859 0.954897
#
# Coordination Sequence:
#
# PCOD9074324 Si02
#       8
#     2   2   2   2   2   2   2   2
#     4  11  23  41  65  97 131 172 209 259 323 382
#     4  11  19  36  58  88 135 170 203 258 324 381
#     4  10  22  49  64  89 130 172 220 263 313 376
#     4  11  22  40  63  97 125 167 216 259 327 381
#     4  11  23  38  62  98 129 168 210 262 322 379
#     4  11  22  40  66  92 127 174 215 261 318 376
#     4  10  24  43  68  89 126 176 213 266 319 371
#     4  11  21  36  58  97 134 158 211 258 318 386
#
# _framework density 21.064219999999999
#
# number of rings (size 3 to 8) (size 9 to 14) (size 15 to 20)
#    0.000    1.250    3.750    4.500    3.500    1.000 
#    2.250    2.500    0.000    0.000    0.000    0.000 
#    0.000    0.000    0.000    0.000    0.000    0.000 
#
# Total GULP energy -89083.164933 kJ/mol
# GULP energy per Si atom -5567.697808 kJ/mol
# Density = 2.101628 g / cm^3
# Si number density = 21.064220 Si / 1000 Ang^3
#
#
#
# Elastic Constant Matrix: (Units=GPa)
#
#
# Indices 1 2 3 4 5 6 
#
# 1 72.6063 22.5559 -3.8246 -17.3087 4.9326 -9.3501
# 2 22.5559 84.9043 17.4239 -35.1871 4.4149 -10.0913
# 3 -3.8246 17.4239 59.2814 -24.1849 5.2685 -6.4491
# 4 -17.3087 -35.1871 -24.1849 21.1834 -5.3989 1.2021
# 5 4.9326 4.4149 5.2685 -5.3989 18.1066 -9.3765
# 6 -9.3501 -10.0913 -6.4491 1.2021 -9.3765 34.8599
#
#
#
# Elastic Compliance Matrix: (Units=1/GPa)
#
#
# Indices 1 2 3 4 5 6 
#
# 1 -0.001355 -0.035704 -0.030246 -0.099340 -0.021388 -0.018622
# 2 -0.035704 -0.043433 -0.064699 -0.181815 -0.034265 -0.037066
# 3 -0.030246 -0.064699 -0.044887 -0.191500 -0.040438 -0.039419
# 4 -0.099340 -0.181815 -0.191500 -0.575259 -0.108678 -0.124099
# 5 -0.021388 -0.034265 -0.040438 -0.108678 0.044998 -0.007286
# 6 -0.018622 -0.037066 -0.039419 -0.124099 -0.007286 0.007989
#
#
# Mechanical properties :
#
#
# Convention : Reuss Voigt Hill
#
# Bulk Modulus (GPa) = -2.84922 32.12249 14.63664
# Shear Modulus (GPa) = -10.69198 26.87244 8.09023
#
# Velocity S-wave (km/s) = -2.25542 3.57562 1.96191
# Velocity P-wave (km/s) = 2.85274 5.68592 3.47790
#
# Compressibility (1/GPa) = -0.35097334
#
# Stress axis : x y z
#
# Youngs Moduli (GPa) = -737.75769 -23.02394 -22.27837
#
# Poissons Ratio (x) = -0.82204 -0.67383
# Poissons Ratio (y) = -26.34071 -1.44140
# Poissons Ratio (z) = -22.31420 -1.48964
#
# Static dielectric constant tensor:
#      x y z
#    x 1.816060 -0.036790 0.017170 
#    y -0.036790 1.817700 0.036140 
#    z 0.017170 0.036140 1.809110 
# 
# From -- ./inp_files/271718.got.cif
#   From: 2010.05.17/outbox.ucp.g08.bks.cvg/sg2_136_cif.got.tgz:271718.got - 2010.06.11 11:32:03.
