data_PCOD9074554
_publ_section_title
;
Structure prediction by ZEFSAII (Michael W. Deem and Ramdas Pophale) SiO2 
 PCOD9074554
Probable space group: P -1
;
_chemical_formula_sum "Si O2"
_cell_formula_units_Z 16
_cell_length_a 18.200119
_cell_length_b 7.978545
_cell_length_c 14.483275
_cell_angle_alpha 143.291822
_cell_angle_beta 135.272697
_cell_angle_gamma 42.789155
_cell_volume 814.416248
_symmetry_space_group_name_H-M "P -1"
_symmetry_group_IT_number 2
_symmetry_cell_setting 'triclinic'
loop_
_space_group_symop_operation_xyz
x,y,z
-x,-y,-z
loop_
_atom_site_type_symbol
_atom_site_label
_atom_site_fract_x
_atom_site_fract_y
_atom_site_fract_z
Si Si1 0.257677 0.682495 0.271109
Si Si2 0.873105 0.664656 0.492717
Si Si3 0.335622 0.191395 0.758978
Si Si4 0.290152 0.312154 0.315060
Si Si5 0.734012 0.461026 0.416019
Si Si6 0.556482 0.237840 0.182393
Si Si7 0.558891 0.040340 0.428265
Si Si8 0.679358 0.337374 0.885499
O O1 0.251351 0.447342 0.238223
O O2 0.266593 0.603939 0.135683
O O3 0.156222 0.011484 0.340294
O O4 0.372745 0.738821 0.422910
O O5 0.785654 0.750036 0.366745
O O6 0.831794 0.460399 0.434675
O O7 0.000000 0.500000 0.500000
O O8 0.415694 0.171958 0.734746
O O9 0.399184 0.867726 0.722273
O O10 0.319498 0.447526 0.933773
O O11 0.234503 0.552527 0.454147
O O12 0.426410 0.208959 0.395615
O O13 0.269418 0.008731 0.187680
O O14 0.669259 0.240552 0.236071
O O15 0.635046 0.801194 0.466550
O O16 0.453739 0.557643 0.214433
O O17 0.500000 0.000000 0.000000
#
# Coordination Sequence:
#
# PCOD9074554 Si02
#       8
#     2   2   2   2   2   2   2   2
#     4  10  21  35  56  85 113 151 203 240 289 351
#     4  10  22  44  64  80 109 151 207 269 297 324
#     4   9  21  37  54  85 120 157 197 236 286 346
#     4  12  19  32  59  84 122 159 191 230 290 358
#     4  10  18  34  57  85 114 152 204 237 281 353
#     4  10  19  33  53  86 129 159 181 222 285 359
#     4  10  18  32  51  81 121 158 191 228 273 351
#     4  11  20  36  55  89 130 159 180 228 298 361
#
# _framework density 19.645975
#
# number of rings (size 3 to 8) (size 9 to 14) (size 15 to 20)
#    0.000    2.000    3.750    3.750    0.000    0.500 
#   11.250    3.125    0.000    0.750    0.000    0.000 
#    0.000    0.000    0.000    0.000    0.000    0.000 
#
# Total GULP energy -89141.714124 kJ/mol
# GULP energy per Si atom -5571.357133 kJ/mol
# Density = 1.960126 g / cm^3
# Si number density = 19.645975 Si / 1000 Ang^3
#
#
#
# Elastic Constant Matrix: (Units=GPa)
#
#
# Indices 1 2 3 4 5 6 
#
# 1 124.1218 42.4774 40.4304 -2.8527 -15.5878 1.3712
# 2 42.4774 41.4986 16.1741 -1.6876 -3.6351 10.4694
# 3 40.4304 16.1741 78.3427 5.4452 -23.4749 7.7738
# 4 -2.8527 -1.6876 5.4452 21.2614 7.5240 1.5081
# 5 -15.5878 -3.6351 -23.4749 7.5240 30.2999 -1.6343
# 6 1.3712 10.4694 7.7738 1.5081 -1.6343 47.0128
#
#
#
# Elastic Compliance Matrix: (Units=1/GPa)
#
#
# Indices 1 2 3 4 5 6 
#
# 1 0.014432 -0.013713 -0.004283 0.000842 0.002436 0.003399
# 2 -0.013713 0.041016 -0.002597 0.004744 -0.005791 -0.008658
# 3 -0.004283 -0.002597 0.021735 -0.012329 0.017283 -0.001894
# 4 0.000842 0.004744 -0.012329 0.059053 -0.023308 -0.001747
# 5 0.002436 -0.005791 0.017283 -0.023308 0.052791 0.000944
# 6 0.003399 -0.008658 -0.001894 -0.001747 0.000944 0.023502
#
#
# Mechanical properties :
#
#
# Convention : Reuss Voigt Hill
#
# Bulk Modulus (GPa) = 27.78003 49.12522 38.45262
# Shear Modulus (GPa) = 18.81726 29.37358 24.09542
#
# Velocity S-wave (km/s) = 3.09822 3.87091 3.50591
# Velocity P-wave (km/s) = 5.19323 6.71104 6.00032
#
# Compressibility (1/GPa) = 0.03599708
#
# Stress axis : x y z
#
# Youngs Moduli (GPa) = 69.28845 24.38065 46.00966
#
# Poissons Ratio (x) = 0.33434 0.19705
# Poissons Ratio (y) = 0.95018 0.11947
# Poissons Ratio (z) = 0.29676 0.06331
#
# Static dielectric constant tensor:
#      x y z
#    x 1.732760 0.059200 -0.014670 
#    y 0.059200 1.722450 0.045150 
#    z -0.014670 0.045150 1.761070 
# 
# From -- ./inp_files/537223.got.cif
#   From: 2010.05.17/outbox.cif.g08.bks.cpg/sg2_269_cif.got.tgz:537223.got - 2010.06.03 11:33:40.
