data_PCOD9074192
_publ_section_title
;
Structure prediction by ZEFSAII (Michael W. Deem and Ramdas Pophale) SiO2 
 PCOD9074192
Probable space group: P -1
;
_chemical_formula_sum "Si O2"
_cell_formula_units_Z 16
_cell_length_a 16.282800
_cell_length_b 5.223015
_cell_length_c 10.261863
_cell_angle_alpha 102.335893
_cell_angle_beta 76.647367
_cell_angle_gamma 72.611656
_cell_volume 771.865836
_symmetry_space_group_name_H-M "P -1"
_symmetry_group_IT_number 2
_symmetry_cell_setting 'triclinic'
loop_
_space_group_symop_operation_xyz
x,y,z
-x,-y,-z
loop_
_atom_site_type_symbol
_atom_site_label
_atom_site_fract_x
_atom_site_fract_y
_atom_site_fract_z
Si Si1 0.280268 0.342428 0.701551
Si Si2 0.578707 0.427136 0.652966
Si Si3 0.093026 0.265240 0.791613
Si Si4 0.377366 0.746082 0.688386
Si Si5 0.084479 0.158590 0.073090
Si Si6 0.319259 0.178347 0.368919
Si Si7 0.031291 0.950205 0.307549
Si Si8 0.869195 0.643518 0.684845
O O1 0.178638 0.350525 0.745072
O O2 0.303110 0.618620 0.747797
O O3 0.310101 0.258047 0.533065
O O4 0.339830 0.082657 0.741873
O O5 0.471269 0.593906 0.712049
O O6 0.601739 0.333756 0.481925
O O7 0.632834 0.627035 0.691315
O O8 0.616671 0.147044 0.694092
O O9 0.006560 0.558812 0.854441
O O10 0.067983 0.064726 0.675163
O O11 0.106387 0.115021 0.910524
O O12 0.155392 0.234353 0.145406
O O13 0.066239 0.918318 0.138822
O O14 0.218785 0.246892 0.358759
O O15 0.088033 0.691282 0.349425
O O16 0.055271 0.221344 0.366427
#
# Coordination Sequence:
#
# PCOD9074192 Si02
#       8
#     2   2   2   2   2   2   2   2
#     4  10  21  30  49  73 106 122 156 198 241 289
#     4   9  17  30  54  67  99 129 157 192 237 288
#     4  10  18  34  51  73  94 132 160 200 246 276
#     4   9  18  33  45  76  98 126 156 195 242 287
#     4   8  19  33  52  69  96 126 167 204 231 279
#     4  10  18  32  49  76  97 129 157 193 235 292
#     4   9  18  32  48  69  94 123 163 208 230 269
#     4   9  18  31  49  70  97 121 165 204 225 274
#
# _framework density 20.728988999999999
#
# number of rings (size 3 to 8) (size 9 to 14) (size 15 to 20)
#    0.750    2.000    0.000    1.875    1.750    3.000 
#    0.000    3.125    0.000    0.000    0.000    5.250 
#    0.000    0.000    0.000    0.000    0.000    0.000 
#
# Total GULP energy -89143.886642 kJ/mol
# GULP energy per Si atom -5571.492915 kJ/mol
# Density = 2.068181 g / cm^3
# Si number density = 20.728989 Si / 1000 Ang^3
#
#
#
# Elastic Constant Matrix: (Units=GPa)
#
#
# Indices 1 2 3 4 5 6 
#
# 1 34.2014 -10.2382 21.4863 3.2671 -15.2968 15.9600
# 2 -10.2382 73.9225 22.9824 -7.2547 2.6514 2.9171
# 3 21.4863 22.9824 3.8347 -3.9742 18.1865 -6.2610
# 4 3.2671 -7.2547 -3.9742 10.2512 -5.3268 4.6940
# 5 -15.2968 2.6514 18.1865 -5.3268 5.8389 3.1806
# 6 15.9600 2.9171 -6.2610 4.6940 3.1806 24.9354
#
#
#
# Elastic Compliance Matrix: (Units=1/GPa)
#
#
# Indices 1 2 3 4 5 6 
#
# 1 0.013019 -0.002888 0.014192 -0.009243 -0.016927 -0.000532
# 2 -0.002888 0.013731 0.000493 0.003566 -0.012808 0.001328
# 3 0.014192 0.000493 0.010752 0.025677 0.035499 -0.015803
# 4 -0.009243 0.003566 0.025677 0.133143 0.024503 -0.016243
# 5 -0.016927 -0.012808 0.035499 0.024503 0.038106 0.011773
# 6 -0.000532 0.001328 -0.015803 -0.016243 0.011773 0.037877
#
#
# Mechanical properties :
#
#
# Convention : Reuss Voigt Hill
#
# Bulk Modulus (GPa) = 16.36771 20.04663 18.20717
# Shear Modulus (GPa) = 20.54231 13.38699 16.96465
#
# Velocity S-wave (km/s) = 3.15142 2.54404 2.86388
# Velocity P-wave (km/s) = 4.59947 4.28034 4.44277
#
# Compressibility (1/GPa) = 0.06109589
#
# Stress axis : x y z
#
# Youngs Moduli (GPa) = 76.81072 72.82637 93.00503
#
# Poissons Ratio (x) = 0.21033 -1.31991
# Poissons Ratio (y) = 0.22183 -0.04585
# Poissons Ratio (z) = -1.09008 -0.03590
#
# Static dielectric constant tensor:
#      x y z
#    x 1.747930 0.032980 0.006610 
#    y 0.032980 1.774560 0.017450 
#    z 0.006610 0.017450 1.794850 
# 
# From -- ./inp_files/441178.got.cif
#   From: 2010.05.17/outbox.cif.g08.bks.cpg/sg2_221_cif.got.tgz:441178.got - 2010.06.03 11:33:40.
