data_PCOD9074480
_publ_section_title
;
Structure prediction by ZEFSAII (Michael W. Deem and Ramdas Pophale) SiO2 
 PCOD9074480
Probable space group: P -1
;
_chemical_formula_sum "Si O2"
_cell_formula_units_Z 16
_cell_length_a 21.000000
_cell_length_b 9.000000
_cell_length_c 24.000000
_cell_angle_alpha 30.000000
_cell_angle_beta 160.000000
_cell_angle_gamma 150.000000
_cell_volume 738.640068
_symmetry_space_group_name_H-M "P -1"
_symmetry_group_IT_number 2
_symmetry_cell_setting 'triclinic'
loop_
_space_group_symop_operation_xyz
x,y,z
-x,-y,-z
loop_
_atom_site_type_symbol
_atom_site_label
_atom_site_fract_x
_atom_site_fract_y
_atom_site_fract_z
Si Si1 0.036576 0.760728 0.229062
Si Si2 0.840165 0.177557 0.487446
Si Si3 0.202802 0.894678 0.149990
Si Si4 0.494558 0.164145 0.883485
Si Si5 0.638281 0.242412 0.418443
Si Si6 0.045770 0.659051 0.798744
Si Si7 0.828243 0.171607 0.973676
Si Si8 0.523444 0.156538 0.138373
O O1 0.244394 0.822364 0.410135
O O2 0.989981 0.429864 0.267498
O O3 0.965115 0.948843 0.058559
O O4 0.910856 0.872896 0.136249
O O5 0.742012 0.166903 0.471818
O O6 0.672606 0.142233 0.314546
O O7 0.000000 0.500000 0.500000
O O8 0.966223 0.941602 0.658188
O O9 0.089159 0.605287 0.186630
O O10 0.281658 0.836006 0.172851
O O11 0.405909 0.069351 0.289851
O O12 0.369575 0.403417 0.707857
O O13 0.413638 0.936330 0.839533
O O14 0.727302 0.310976 0.015014
O O15 0.500000 0.000000 0.000000
O O16 0.680368 0.099892 0.926324
O O17 0.000000 0.500000 0.000000
O O18 0.500000 0.500000 0.000000
#
# Coordination Sequence:
#
# PCOD9074480 Si02
#       8
#     2   2   2   2   2   2   2   2
#     4  10  25  42  73 107 145 188 240 296 367 435
#     4  12  28  47  70 109 143 193 253 298 362 444
#     4  10  24  45  73 104 152 184 239 304 367 435
#     4  12  27  46  74 103 145 193 243 300 368 433
#     4  12  25  47  72 106 148 189 241 306 363 432
#     4  12  25  47  74 104 149 191 239 306 366 434
#     4  10  23  43  73 105 147 188 239 299 372 429
#     4  12  26  46  73 106 145 195 243 305 371 436
#
# _framework density 21.661429999999999
#
# number of rings (size 3 to 8) (size 9 to 14) (size 15 to 20)
#    0.750    0.000    2.500    4.125    7.000    2.000 
#    0.000    2.500    0.000    0.000    0.000    0.000 
#    0.000    0.000    0.000    0.000    0.000    0.000 
#
# Total GULP energy -89101.418340 kJ/mol
# GULP energy per Si atom -5568.838646 kJ/mol
# Density = 2.161213 g / cm^3
# Si number density = 21.661430 Si / 1000 Ang^3
#
#
#
# Elastic Constant Matrix: (Units=GPa)
#
#
# Indices 1 2 3 4 5 6 
#
# 1 104.0472 44.4779 36.1265 -6.4806 7.8693 -10.1871
# 2 44.4779 78.4124 36.0692 4.9320 6.1974 1.1344
# 3 36.1265 36.0692 120.1658 17.8283 0.5560 -17.1347
# 4 -6.4806 4.9320 17.8283 29.7844 -14.7496 4.4307
# 5 7.8693 6.1974 0.5560 -14.7496 37.9700 0.8288
# 6 -10.1871 1.1344 -17.1347 4.4307 0.8288 40.7838
#
#
#
# Elastic Compliance Matrix: (Units=1/GPa)
#
#
# Indices 1 2 3 4 5 6 
#
# 1 0.014147 -0.007233 -0.002669 0.005833 0.000511 0.001969
# 2 -0.007233 0.018938 -0.003443 -0.003566 -0.002854 -0.003335
# 3 -0.002669 -0.003443 0.012453 -0.009815 -0.003006 0.005788
# 4 0.005833 -0.003566 -0.009815 0.052568 0.020127 -0.008687
# 5 0.000511 -0.002854 -0.003006 0.020127 0.034645 -0.003947
# 6 0.001969 -0.003335 0.005788 -0.008687 -0.003947 0.028560
#
#
# Mechanical properties :
#
#
# Convention : Reuss Voigt Hill
#
# Bulk Modulus (GPa) = 53.05637 59.55251 56.30444
# Shear Modulus (GPa) = 25.73550 34.10443 29.91996
#
# Velocity S-wave (km/s) = 3.45059 3.97221 3.72056
# Velocity P-wave (km/s) = 6.35784 6.97066 6.67129
#
# Compressibility (1/GPa) = 0.01884788
#
# Stress axis : x y z
#
# Youngs Moduli (GPa) = 70.68567 52.80514 80.30034
#
# Poissons Ratio (x) = 0.38192 0.21434
# Poissons Ratio (y) = 0.51124 0.27649
# Poissons Ratio (z) = 0.18868 0.18182
#
# Static dielectric constant tensor:
#      x y z
#    x 1.814600 -0.087360 0.006370 
#    y -0.087360 1.921590 0.012320 
#    z 0.006370 0.012320 1.737900 
# 
# From -- ./inp_files/613582.got.cif
#   From: 2010.05.17/outbox.ucp.g08.bks.cvg/sg2_307_cif.got.tgz:613582.got - 2010.06.11 11:32:03.
