data_PCOD9074969
_publ_section_title
;
Structure prediction by ZEFSAII (Michael W. Deem and Ramdas Pophale) SiO2 
 PCOD9074969
Probable space group: P -1
;
_chemical_formula_sum "Si O2"
_cell_formula_units_Z 16
_cell_length_a 12.000000
_cell_length_b 9.000000
_cell_length_c 18.000000
_cell_angle_alpha 120.000000
_cell_angle_beta 30.000000
_cell_angle_gamma 130.000000
_cell_volume 736.400153
_symmetry_space_group_name_H-M "P -1"
_symmetry_group_IT_number 2
_symmetry_cell_setting 'triclinic'
loop_
_space_group_symop_operation_xyz
x,y,z
-x,-y,-z
loop_
_atom_site_type_symbol
_atom_site_label
_atom_site_fract_x
_atom_site_fract_y
_atom_site_fract_z
Si Si1 0.110658 0.191098 0.240954
Si Si2 0.424887 0.999711 0.421475
Si Si3 0.704067 0.942844 0.644782
Si Si4 0.601803 0.569019 0.087004
Si Si5 0.427734 0.473890 0.448384
Si Si6 0.730563 0.770009 0.220582
Si Si7 0.669766 0.936048 0.038218
Si Si8 0.935784 0.387087 0.263346
O O1 0.324046 0.379598 0.207218
O O2 0.840337 0.042417 0.396945
O O3 0.019803 0.282442 0.250388
O O4 0.279060 0.102563 0.085642
O O5 0.549907 0.871375 0.346919
O O6 0.335140 0.947746 0.375924
O O7 0.668752 0.216560 0.341173
O O8 0.590851 0.719276 0.626512
O O9 0.530082 0.981778 0.814920
O O10 0.000000 0.000000 0.500000
O O11 0.674126 0.644865 0.147356
O O12 0.589820 0.736413 0.082956
O O13 0.826676 0.533808 0.911568
O O14 0.500000 0.500000 0.500000
O O15 0.637471 0.646955 0.319533
O O16 0.153396 0.470975 0.609037
O O17 0.034201 0.914924 0.074361
#
# Coordination Sequence:
#
# PCOD9074969 Si02
#       8
#     2   2   2   2   2   2   2   2
#     4  11  24  39  74 111 140 174 242 303 352 403
#     4  12  22  45  75 106 136 190 248 287 351 425
#     4  12  30  46  67  99 155 189 226 292 371 423
#     4  11  24  40  72 112 141 176 237 313 350 398
#     4  12  28  46  68 103 142 187 229 293 359 431
#     4  12  24  44  79 105 138 182 250 299 342 423
#     4  11  23  46  72 104 141 190 237 291 355 424
#     4  11  21  43  71 101 138 185 238 291 347 420
#
# _framework density 21.727318
#
# number of rings (size 3 to 8) (size 9 to 14) (size 15 to 20)
#    0.000    0.500    6.250    3.750    5.250    1.000 
#    0.000    0.625    0.000    0.000    0.000    0.000 
#    0.000    0.000    0.000    0.000    0.000    0.000 
#
# Total GULP energy -89248.679719 kJ/mol
# GULP energy per Si atom -5578.042482 kJ/mol
# Density = 2.167787 g / cm^3
# Si number density = 21.727318 Si / 1000 Ang^3
#
#
#
# Elastic Constant Matrix: (Units=GPa)
#
#
# Indices 1 2 3 4 5 6 
#
# 1 18.3955 4.5708 -8.2122 -12.9497 -18.2679 7.7306
# 2 4.5708 58.3048 35.4666 5.7018 -28.3350 14.6526
# 3 -8.2122 35.4666 155.9592 19.4922 -22.5445 -3.2767
# 4 -12.9497 5.7018 19.4922 47.5301 3.4116 -11.4341
# 5 -18.2679 -28.3350 -22.5445 3.4116 31.2676 -2.8690
# 6 7.7306 14.6526 -3.2767 -11.4341 -2.8690 30.4587
#
#
#
# Elastic Compliance Matrix: (Units=1/GPa)
#
#
# Indices 1 2 3 4 5 6 
#
# 1 -0.504148 -0.228388 -0.043863 -0.011632 -0.515335 0.180198
# 2 -0.228388 -0.059624 -0.023605 -0.017008 -0.197203 0.059150
# 3 -0.043863 -0.023605 0.004225 -0.003596 -0.041961 0.017640
# 4 -0.011632 -0.017008 -0.003596 0.027760 -0.026113 0.018708
# 5 -0.515335 -0.197203 -0.041961 -0.026113 -0.459794 0.168036
# 6 0.180198 0.059150 0.017640 0.018708 0.168036 -0.016610
#
#
# Mechanical properties :
#
#
# Convention : Reuss Voigt Hill
#
# Bulk Modulus (GPa) = -0.86861 32.92331 16.02735
# Shear Modulus (GPa) = -6.24818 35.24023 14.49603
#
# Velocity S-wave (km/s) = -1.69764 4.03169 2.58578
# Velocity P-wave (km/s) = 2.05992 6.07113 4.03827
#
# Compressibility (1/GPa) = -1.15125920
#
# Stress axis : x y z
#
# Youngs Moduli (GPa) = -1.98354 -16.77166 236.70196
#
# Poissons Ratio (x) = -3.83044 10.38250
# Poissons Ratio (y) = -0.45302 5.58733
# Poissons Ratio (z) = -0.08700 -0.39589
#
# Static dielectric constant tensor:
#      x y z
#    x 1.823300 0.022560 0.011550 
#    y 0.022560 1.905350 0.020980 
#    z 0.011550 0.020980 1.807330 
# 
# From -- ./inp_files/566840.got.cif
#   From: 2010.05.17/outbox.ucp.g08.bks.cvg/sg2_284_cif.got.tgz:566840.got - 2010.06.11 11:32:03.
