data_PCOD9074030
_publ_section_title
;
Structure prediction by ZEFSAII (Michael W. Deem and Ramdas Pophale) SiO2 
 PCOD9074030
Probable space group: P -1
;
_chemical_formula_sum "Si O2"
_cell_formula_units_Z 12
_cell_length_a 12.000000
_cell_length_b 18.000000
_cell_length_c 15.000000
_cell_angle_alpha 150.000000
_cell_angle_beta 160.000000
_cell_angle_gamma 30.000000
_cell_volume 527.600048
_symmetry_space_group_name_H-M "P -1"
_symmetry_group_IT_number 2
_symmetry_cell_setting 'triclinic'
loop_
_space_group_symop_operation_xyz
x,y,z
-x,-y,-z
loop_
_atom_site_type_symbol
_atom_site_label
_atom_site_fract_x
_atom_site_fract_y
_atom_site_fract_z
Si Si1 0.201621 0.594981 0.308519
Si Si2 0.852840 0.853287 0.454857
Si Si3 0.198259 0.021275 0.018249
Si Si4 0.532336 0.246933 0.794071
Si Si5 0.254768 0.353517 0.351913
Si Si6 0.491280 0.453816 0.816118
O O1 0.500000 0.500000 0.500000
O O2 0.403567 0.669115 0.469363
O O3 0.973022 0.726660 0.336577
O O4 0.000000 0.500000 0.000000
O O5 0.493771 0.953612 0.243298
O O6 0.779390 0.769511 0.401185
O O7 0.134263 0.931159 0.786223
O O8 0.247141 0.183509 0.194706
O O9 0.819299 0.080846 0.837379
O O10 0.443663 0.317117 0.701937
O O11 0.662245 0.378526 0.078312
O O12 0.321624 0.446346 0.585964
O O13 0.904080 0.425771 0.106187
#
# Coordination Sequence:
#
# PCOD9074030 Si02
#       6
#     2   2   2   2   2   2
#     4  12  26  45  70  94 122 162 209 267 315 363
#     4  12  25  41  64  95 128 166 209 253 314 375
#     4  11  25  40  62  93 130 172 202 251 312 374
#     4  10  22  41  64  94 131 163 211 258 309 370
#     4  11  23  44  64  93 129 162 215 255 306 374
#     4  10  23  39  68  95 122 169 208 262 313 355
#
# _framework density 22.744501
#
# number of rings (size 3 to 8) (size 9 to 14) (size 15 to 20)
#    0.000    1.000    0.000    7.000    0.000   12.667 
#    0.000    0.000    0.000    0.000    0.000    0.000 
#    0.000    0.000    0.000    0.000    0.000    0.000 
#
# Total GULP energy -66955.962943 kJ/mol
# GULP energy per Si atom -5579.663579 kJ/mol
# Density = 2.269273 g / cm^3
# Si number density = 22.744501 Si / 1000 Ang^3
#
#
#
# Elastic Constant Matrix: (Units=GPa)
#
#
# Indices 1 2 3 4 5 6 
#
# 1 55.0436 4.6079 17.1413 13.1317 11.9120 -13.9883
# 2 4.6079 69.4504 13.8718 4.5006 5.3968 -2.8896
# 3 17.1413 13.8718 123.4760 5.3992 -12.1698 4.1572
# 4 13.1317 4.5006 5.3992 27.5872 -6.3576 -12.2387
# 5 11.9120 5.3968 -12.1698 -6.3576 41.2879 -6.1146
# 6 -13.9883 -2.8896 4.1572 -12.2387 -6.1146 15.5821
#
#
#
# Elastic Compliance Matrix: (Units=1/GPa)
#
#
# Indices 1 2 3 4 5 6 
#
# 1 0.027410 0.000926 -0.005040 -0.005692 -0.007628 0.018659
# 2 0.000926 0.015217 -0.002044 -0.003028 -0.003244 0.000547
# 3 -0.005040 -0.002044 0.009679 -0.001857 0.003147 -0.007710
# 4 -0.005692 -0.003028 -0.001857 0.070651 0.021044 0.058573
# 5 -0.007628 -0.003244 0.003147 0.021044 0.034222 0.021669
# 6 0.018659 0.000547 -0.007710 0.058573 0.021669 0.137593
#
#
# Mechanical properties :
#
#
# Convention : Reuss Voigt Hill
#
# Bulk Modulus (GPa) = 25.00657 35.46801 30.23729
# Shear Modulus (GPa) = 15.60467 31.04803 23.32635
#
# Velocity S-wave (km/s) = 2.62217 3.69871 3.20595
# Velocity P-wave (km/s) = 4.49289 5.81967 5.19878
#
# Compressibility (1/GPa) = 0.03998949
#
# Stress axis : x y z
#
# Youngs Moduli (GPa) = 36.48308 65.71768 103.31704
#
# Poissons Ratio (x) = -0.06086 0.52075
# Poissons Ratio (y) = -0.03379 0.21116
# Poissons Ratio (z) = 0.18389 0.13431
#
# Static dielectric constant tensor:
#      x y z
#    x 3.738220 0.975310 1.000450 
#    y 0.975310 2.438780 0.556020 
#    z 1.000450 0.556020 2.303480 
# 
# From -- ./inp_files/25241.got.cif
#   From: 2010.05.17/outbox.ucp.g08.bks.cvg/sg2_13_cif.got.tgz:25241.got - 2010.06.11 11:32:03.
