data_PCOD9074399
_publ_section_title
;
Structure prediction by ZEFSAII (Michael W. Deem and Ramdas Pophale) SiO2 
 PCOD9074399
Probable space group: P -1
;
_chemical_formula_sum "Si O2"
_cell_formula_units_Z 16
_cell_length_a 15.000000
_cell_length_b 12.000000
_cell_length_c 6.000000
_cell_angle_alpha 90.000000
_cell_angle_beta 130.000000
_cell_angle_gamma 110.000000
_cell_volume 740.289630
_symmetry_space_group_name_H-M "P -1"
_symmetry_group_IT_number 2
_symmetry_cell_setting 'triclinic'
loop_
_space_group_symop_operation_xyz
x,y,z
-x,-y,-z
loop_
_atom_site_type_symbol
_atom_site_label
_atom_site_fract_x
_atom_site_fract_y
_atom_site_fract_z
Si Si1 0.047368 0.687441 0.659037
Si Si2 0.475166 0.610197 0.067210
Si Si3 0.280491 0.978244 0.599633
Si Si4 0.276405 0.754794 0.344011
Si Si5 0.288786 0.190576 0.293851
Si Si6 0.185044 0.559099 0.568944
Si Si7 0.451427 0.178963 0.183452
Si Si8 0.992795 0.889940 0.323639
O O1 0.115911 0.630049 0.596468
O O2 0.928153 0.581024 0.601607
O O3 0.991076 0.773788 0.456978
O O4 0.168430 0.762277 0.013968
O O5 0.597991 0.680080 0.430562
O O6 0.500000 0.500000 0.000000
O O7 0.322550 0.568349 0.888145
O O8 0.497539 0.716435 0.922699
O O9 0.300451 0.860025 0.564412
O O10 0.130944 0.939544 0.421302
O O11 0.307439 0.080633 0.450225
O O12 0.381216 0.044685 0.959805
O O13 0.217102 0.621746 0.374995
O O14 0.418219 0.791236 0.466855
O O15 0.334689 0.190819 0.117454
O O16 0.136603 0.158166 0.039362
O O17 0.000000 0.000000 0.500000
#
# Coordination Sequence:
#
# PCOD9074399 Si02
#       8
#     2   2   2   2   2   2   2   2
#     4  11  24  42  67  94 128 173 218 268 320 381
#     4  10  24  43  66  95 129 167 216 271 322 382
#     4  11  23  41  64  94 131 168 213 271 321 381
#     4  11  22  41  67  95 127 170 214 264 329 379
#     4  11  24  42  65  95 129 172 214 263 330 381
#     4  10  23  45  64  93 131 166 218 272 317 388
#     4  10  23  42  63  97 129 165 216 264 322 393
#     4  12  24  43  66  95 135 169 219 267 317 389
#
# _framework density 21.613161999999999
#
# number of rings (size 3 to 8) (size 9 to 14) (size 15 to 20)
#    0.000    1.250    2.500    2.625    1.750    2.000 
#    9.000    0.000    0.000    0.000    0.000    0.000 
#    0.000    0.000    0.000    0.000    0.000    0.000 
#
# Total GULP energy -89273.429990 kJ/mol
# GULP energy per Si atom -5579.589374 kJ/mol
# Density = 2.156397 g / cm^3
# Si number density = 21.613162 Si / 1000 Ang^3
#
#
#
# Elastic Constant Matrix: (Units=GPa)
#
#
# Indices 1 2 3 4 5 6 
#
# 1 63.0023 3.7036 -13.5558 6.7872 33.3150 5.6849
# 2 3.7036 69.1100 19.2302 8.1737 12.5675 -12.7422
# 3 -13.5558 19.2302 68.5094 3.6245 26.8556 3.2487
# 4 6.7872 8.1737 3.6245 26.0081 -2.5413 5.6682
# 5 33.3150 12.5675 26.8556 -2.5413 37.7313 5.7821
# 6 5.6849 -12.7422 3.2487 5.6682 5.7821 33.7143
#
#
#
# Elastic Compliance Matrix: (Units=1/GPa)
#
#
# Indices 1 2 3 4 5 6 
#
# 1 -0.438528 -0.046244 -0.351032 0.259684 0.680686 -0.070107
# 2 -0.046244 0.014460 -0.039929 0.018870 0.065285 0.002741
# 3 -0.351032 -0.039929 -0.259768 0.204450 0.530523 -0.056228
# 4 0.259684 0.018870 0.204450 -0.108510 -0.392886 0.029267
# 5 0.680686 0.065285 0.530523 -0.392886 -1.015491 0.098990
# 6 -0.070107 0.002741 -0.056228 0.029267 0.098990 0.026039
#
#
# Mechanical properties :
#
#
# Convention : Reuss Voigt Hill
#
# Bulk Modulus (GPa) = -0.64175 24.37530 11.86678
# Shear Modulus (GPa) = -3.50434 32.24031 14.36799
#
# Velocity S-wave (km/s) = -1.27472 3.86644 2.58113
# Velocity P-wave (km/s) = 1.56975 5.58882 3.79281
#
# Compressibility (1/GPa) = -1.55824474
#
# Stress axis : x y z
#
# Youngs Moduli (GPa) = -2.28036 69.15661 -3.84959
#
# Poissons Ratio (x) = 3.19805 -1.35133
# Poissons Ratio (y) = -0.10545 -0.15371
# Poissons Ratio (z) = -0.80048 2.76135
#
# Static dielectric constant tensor:
#      x y z
#    x 1.790360 0.017820 -0.046730 
#    y 0.017820 1.781150 0.018800 
#    z -0.046730 0.018800 1.854000 
# 
# From -- ./inp_files/69758.got.cif
#   From: 2010.05.17/outbox.ucp.g08.bks.cvg/sg2_35_cif.got.tgz:69758.got - 2010.06.11 11:32:03.
