data_PCOD9074738
_publ_section_title
;
Structure prediction by ZEFSAII (Michael W. Deem and Ramdas Pophale) SiO2 
 PCOD9074738
Probable space group: P -1
;
_chemical_formula_sum "Si O2"
_cell_formula_units_Z 16
_cell_length_a 15.000000
_cell_length_b 15.000000
_cell_length_c 15.000000
_cell_angle_alpha 130.000000
_cell_angle_beta 150.000000
_cell_angle_gamma 30.000000
_cell_volume 762.223433
_symmetry_space_group_name_H-M "P -1"
_symmetry_group_IT_number 2
_symmetry_cell_setting 'triclinic'
loop_
_space_group_symop_operation_xyz
x,y,z
-x,-y,-z
loop_
_atom_site_type_symbol
_atom_site_label
_atom_site_fract_x
_atom_site_fract_y
_atom_site_fract_z
Si Si1 0.660821 0.146833 0.616783
Si Si2 0.224658 0.507098 0.968067
Si Si3 0.407293 0.547598 0.318796
Si Si4 0.591215 0.840479 0.090102
Si Si5 0.568232 0.958185 0.724353
Si Si6 0.356772 0.700239 0.976364
Si Si7 0.975391 0.796469 0.260079
Si Si8 0.337795 0.286360 0.618821
O O1 0.629510 0.296200 0.646181
O O2 0.565138 0.101765 0.431298
O O3 0.437051 0.248105 0.575734
O O4 0.003869 0.921415 0.794525
O O5 0.186921 0.388146 0.867974
O O6 0.917555 0.747487 0.861399
O O7 0.407312 0.467262 0.181069
O O8 0.440360 0.390373 0.993955
O O9 0.119977 0.667766 0.210745
O O10 0.711088 0.353163 0.510806
O O11 0.770582 0.836691 0.180689
O O12 0.505978 0.936878 0.177623
O O13 0.269655 0.984448 0.854241
O O14 0.413216 0.118648 0.615819
O O15 0.500000 0.500000 0.000000
O O16 0.446206 0.740186 0.158130
O O17 0.000000 0.500000 0.500000
#
# Coordination Sequence:
#
# PCOD9074738 Si02
#       8
#     2   2   2   2   2   2   2   2
#     4  12  26  44  71 105 141 184 229 283 344 413
#     4  12  24  44  74  99 142 184 226 288 345 408
#     4  11  24  45  69 102 140 177 231 288 351 402
#     4  11  24  47  71 101 136 183 235 282 347 404
#     4  12  25  46  70 104 142 181 233 280 338 415
#     4  12  24  42  67 105 142 183 229 280 346 407
#     4  10  24  47  67 100 137 178 236 288 342 412
#     4  12  25  45  72 103 142 183 231 278 339 417
#
# _framework density 20.991219999999998
#
# number of rings (size 3 to 8) (size 9 to 14) (size 15 to 20)
#    0.000    0.500    2.500    6.000    3.500    1.000 
#    9.000    0.000    0.000    0.000    0.000    0.000 
#    0.000    0.000    0.000    0.000    0.000    0.000 
#
# Total GULP energy -89101.669721 kJ/mol
# GULP energy per Si atom -5568.854358 kJ/mol
# Density = 2.094344 g / cm^3
# Si number density = 20.991220 Si / 1000 Ang^3
#
#
#
# Elastic Constant Matrix: (Units=GPa)
#
#
# Indices 1 2 3 4 5 6 
#
# 1 94.2010 23.4514 -11.8870 5.7044 -8.4172 -8.0304
# 2 23.4514 124.3232 23.3671 -7.3294 -11.6288 -31.8262
# 3 -11.8870 23.3671 67.0869 -11.7777 -8.7173 2.8392
# 4 5.7044 -7.3294 -11.7777 59.4940 -12.1766 -0.6233
# 5 -8.4172 -11.6288 -8.7173 -12.1766 25.4866 -17.1156
# 6 -8.0304 -31.8262 2.8392 -0.6233 -17.1156 -20.2113
#
#
#
# Elastic Compliance Matrix: (Units=1/GPa)
#
#
# Indices 1 2 3 4 5 6 
#
# 1 0.011948 -0.003092 0.003536 -0.000319 0.002559 -0.001539
# 2 -0.003092 0.007050 -0.003262 -0.000339 -0.003833 -0.007075
# 3 0.003536 -0.003262 0.018504 0.004526 0.007859 -0.000464
# 4 -0.000319 -0.000339 0.004526 0.019057 0.006929 -0.005158
# 5 0.002559 -0.003833 0.007859 0.006929 0.030790 -0.020164
# 6 -0.001539 -0.007075 -0.000464 -0.005158 -0.020164 -0.020556
#
#
# Mechanical properties :
#
#
# Convention : Reuss Voigt Hill
#
# Bulk Modulus (GPa) = 31.38093 39.49713 35.43903
# Shear Modulus (GPa) = 60.20369 29.66582 44.93476
#
# Velocity S-wave (km/s) = 5.36122 3.76340 4.63173
# Velocity P-wave (km/s) = 7.30107 6.14338 6.74710
#
# Compressibility (1/GPa) = 0.03186649
#
# Stress axis : x y z
#
# Youngs Moduli (GPa) = 83.69458 141.84127 54.04226
#
# Poissons Ratio (x) = 0.43854 -0.19107
# Poissons Ratio (y) = 0.25877 0.17627
# Poissons Ratio (z) = -0.29591 0.46265
#
# Static dielectric constant tensor:
#      x y z
#    x 1.864950 0.091230 0.021470 
#    y 0.091230 1.778570 -0.015800 
#    z 0.021470 -0.015800 1.843250 
# 
# From -- ./inp_files/135397.got.cif
#   From: 2010.05.17/outbox.ucp.g08.bks.cvg/sg2_68_cif.got.tgz:135397.got - 2010.06.11 11:32:03.
