data_PCOD9074890
_publ_section_title
;
Structure prediction by ZEFSAII (Michael W. Deem and Ramdas Pophale) SiO2 
 PCOD9074890
Probable space group: P -1
;
_chemical_formula_sum "Si O2"
_cell_formula_units_Z 16
_cell_length_a 12.000000
_cell_length_b 12.000000
_cell_length_c 15.000000
_cell_angle_alpha 150.000000
_cell_angle_beta 80.000000
_cell_angle_gamma 120.000000
_cell_volume 748.962810
_symmetry_space_group_name_H-M "P -1"
_symmetry_group_IT_number 2
_symmetry_cell_setting 'triclinic'
loop_
_space_group_symop_operation_xyz
x,y,z
-x,-y,-z
loop_
_atom_site_type_symbol
_atom_site_label
_atom_site_fract_x
_atom_site_fract_y
_atom_site_fract_z
Si Si1 0.076471 0.630274 0.676635
Si Si2 0.653832 0.620267 0.817189
Si Si3 0.155385 0.752752 0.216489
Si Si4 0.673941 0.603888 0.295653
Si Si5 0.328556 0.602018 0.660284
Si Si6 0.876078 0.555602 0.808891
Si Si7 0.218592 0.105876 0.196317
Si Si8 0.665529 0.153914 0.906950
O O1 0.181893 0.567191 0.648999
O O2 0.000000 0.500000 0.500000
O O3 0.940675 0.496890 0.676766
O O4 0.209920 0.011517 0.918413
O O5 0.476611 0.454035 0.753196
O O6 0.723670 0.486673 0.751796
O O7 0.664354 0.650226 0.729082
O O8 0.153592 0.610090 0.208796
O O9 0.301905 0.888745 0.225905
O O10 0.182021 0.040752 0.445190
O O11 0.000000 0.500000 0.000000
O O12 0.621278 0.384596 0.237246
O O13 0.722158 0.487505 0.136706
O O14 0.267640 0.291233 0.408279
O O15 0.480604 0.889808 0.780004
O O16 0.040249 0.922399 0.062646
O O17 0.239812 0.874224 0.055504
#
# Coordination Sequence:
#
# PCOD9074890 Si02
#       8
#     2   2   2   2   2   2   2   2
#     4  11  23  41  68 104 133 171 227 285 341 390
#     4  11  22  41  66  97 135 171 226 281 342 391
#     4  12  27  47  66  98 137 187 225 268 337 414
#     4  12  24  42  69 102 135 178 224 286 333 395
#     4  12  21  39  70 105 135 165 226 292 338 390
#     4  11  24  45  64  95 140 181 224 268 337 410
#     4  11  20  40  68 101 132 174 218 286 341 391
#     4  12  23  42  68 103 133 170 225 279 339 395
#
# _framework density 21.362876
#
# number of rings (size 3 to 8) (size 9 to 14) (size 15 to 20)
#    0.000    0.500    5.000    6.000    0.000    1.000 
#    4.500    0.625    0.000    0.000    0.000    0.000 
#    0.000    0.000    0.000    0.000    0.000    0.000 
#
# Total GULP energy -89411.916864 kJ/mol
# GULP energy per Si atom -5588.244804 kJ/mol
# Density = 2.131425 g / cm^3
# Si number density = 21.362876 Si / 1000 Ang^3
#
#
#
# Elastic Constant Matrix: (Units=GPa)
#
#
# Indices 1 2 3 4 5 6 
#
# 1 156.4264 31.3995 34.0625 -8.0226 0.9270 -10.3448
# 2 31.3995 81.8121 14.7967 -15.9352 -3.1060 -19.6176
# 3 34.0625 14.7967 87.4442 -13.1941 -10.6469 3.7056
# 4 -8.0226 -15.9352 -13.1941 29.8520 -2.4438 1.7129
# 5 0.9270 -3.1060 -10.6469 -2.4438 26.8208 -2.8103
# 6 -10.3448 -19.6176 3.7056 1.7129 -2.8103 18.8864
#
#
#
# Elastic Compliance Matrix: (Units=1/GPa)
#
#
# Indices 1 2 3 4 5 6 
#
# 1 0.007581 -0.001914 -0.003004 -0.000580 -0.001458 0.002590
# 2 -0.001914 0.019838 -0.001591 0.008613 0.004588 0.019772
# 3 -0.003004 -0.001591 0.014657 0.005618 0.005637 -0.005845
# 4 -0.000580 0.008613 0.005618 0.040753 0.007479 0.004944
# 5 -0.001458 0.004588 0.005637 0.007479 0.041664 0.008383
# 6 0.002590 0.019772 -0.005845 0.004944 0.008383 0.076850
#
#
# Mechanical properties :
#
#
# Convention : Reuss Voigt Hill
#
# Bulk Modulus (GPa) = 34.41241 54.02223 44.21732
# Shear Modulus (GPa) = 22.31679 31.47344 26.89511
#
# Velocity S-wave (km/s) = 3.23562 3.84249 3.55204
# Velocity P-wave (km/s) = 5.48657 6.71038 6.12909
#
# Compressibility (1/GPa) = 0.02905929
#
# Stress axis : x y z
#
# Youngs Moduli (GPa) = 131.90486 50.40759 68.22638
#
# Poissons Ratio (x) = 0.09646 0.20496
# Poissons Ratio (y) = 0.25241 0.10855
# Poissons Ratio (z) = 0.39625 0.08020
#
# Static dielectric constant tensor:
#      x y z
#    x 1.778340 0.021040 -0.041580 
#    y 0.021040 1.780380 0.023560 
#    z -0.041580 0.023560 1.826990 
# 
# From -- ./inp_files/457716.got.cif
#   From: 2010.05.17/outbox.ucp.g08.bks.cvg/sg2_229_cif.got.tgz:457716.got - 2010.06.11 11:32:03.
