data_PCOD9074466
_publ_section_title
;
Structure prediction by ZEFSAII (Michael W. Deem and Ramdas Pophale) SiO2 
 PCOD9074466
Probable space group: P -1
;
_chemical_formula_sum "Si O2"
_cell_formula_units_Z 16
_cell_length_a 15.000000
_cell_length_b 18.000000
_cell_length_c 24.000000
_cell_angle_alpha 20.000000
_cell_angle_beta 160.000000
_cell_angle_gamma 150.000000
_cell_volume 749.971719
_symmetry_space_group_name_H-M "P -1"
_symmetry_group_IT_number 2
_symmetry_cell_setting 'triclinic'
loop_
_space_group_symop_operation_xyz
x,y,z
-x,-y,-z
loop_
_atom_site_type_symbol
_atom_site_label
_atom_site_fract_x
_atom_site_fract_y
_atom_site_fract_z
Si Si1 0.631860 0.355423 0.419196
Si Si2 0.032234 0.504983 0.791666
Si Si3 0.855722 0.743221 0.732036
Si Si4 0.819442 0.994185 0.187720
Si Si5 0.761791 0.856386 0.467531
Si Si6 0.186714 0.040588 0.267935
Si Si7 0.518857 0.684847 0.012999
Si Si8 0.040603 0.513874 0.372970
O O1 0.391642 0.236000 0.385521
O O2 0.541873 0.541906 0.186081
O O3 0.746344 0.432648 0.491513
O O4 0.830381 0.174257 0.629165
O O5 0.803416 0.659024 0.585291
O O6 0.959242 0.468373 0.708560
O O7 0.122455 0.260610 0.039435
O O8 0.284097 0.622911 0.877637
O O9 0.776117 0.771618 0.600083
O O10 0.062929 0.901290 0.762191
O O11 0.000000 0.500000 0.000000
O O12 0.964290 0.083375 0.156104
O O13 0.943995 0.744160 0.432571
O O14 0.500000 0.000000 0.000000
O O15 0.000000 0.000000 0.500000
O O16 0.521103 0.054844 0.179519
O O17 0.500000 0.000000 0.500000
O O18 0.773305 0.630484 0.161680
#
# Coordination Sequence:
#
# PCOD9074466 Si02
#       8
#     2   2   2   2   2   2   2   2
#     4  12  26  46  74 107 144 193 242 301 369 437
#     4  11  24  45  72 104 145 193 244 298 366 436
#     4  12  24  45  73 104 148 193 245 297 371 438
#     4  12  25  44  74 110 145 192 250 305 355 436
#     4  10  23  43  69 104 139 191 241 298 360 431
#     4  12  23  47  77 105 146 196 244 298 367 444
#     4  11  22  45  75 101 145 194 244 299 365 433
#     4  12  27  45  69 112 145 187 246 304 365 431
#
# _framework density 21.334137999999999
#
# number of rings (size 3 to 8) (size 9 to 14) (size 15 to 20)
#    0.000    0.500    3.750    5.250    1.750    1.500 
#    0.000    1.250    0.000    0.000    0.000    0.000 
#    0.000    0.000    0.000    0.000    0.000    0.000 
#
# Total GULP energy -89172.366679 kJ/mol
# GULP energy per Si atom -5573.272917 kJ/mol
# Density = 2.128558 g / cm^3
# Si number density = 21.334138 Si / 1000 Ang^3
#
#
#
# Elastic Constant Matrix: (Units=GPa)
#
#
# Indices 1 2 3 4 5 6 
#
# 1 174.5125 25.7888 44.4237 7.7057 -10.9441 -23.4058
# 2 25.7888 83.5454 22.2786 2.9314 -5.8294 -33.3814
# 3 44.4237 22.2786 108.2631 -20.8915 3.7736 -15.1145
# 4 7.7057 2.9314 -20.8915 38.9874 -3.1882 3.6668
# 5 -10.9441 -5.8294 3.7736 -3.1882 50.5622 2.3853
# 6 -23.4058 -33.3814 -15.1145 3.6668 2.3853 44.7680
#
#
#
# Elastic Compliance Matrix: (Units=1/GPa)
#
#
# Indices 1 2 3 4 5 6 
#
# 1 0.007172 0.000006 -0.003233 -0.003300 0.001452 0.002856
# 2 0.000006 0.018038 -0.002735 -0.003907 0.001436 0.012774
# 3 -0.003233 -0.002735 0.012622 0.007487 -0.001485 -0.000002
# 4 -0.003300 -0.003907 0.007487 0.031085 0.000457 -0.004682
# 5 0.001452 0.001436 -0.001485 0.000457 0.020387 0.000205
# 6 0.002856 0.012774 -0.000002 -0.004682 0.000205 0.033727
#
#
# Mechanical properties :
#
#
# Convention : Reuss Voigt Hill
#
# Bulk Modulus (GPa) = 38.59666 61.25590 49.92628
# Shear Modulus (GPa) = 34.82087 45.11884 39.96985
#
# Velocity S-wave (km/s) = 4.04439 4.60376 4.33311
# Velocity P-wave (km/s) = 6.31983 7.55211 6.96328
#
# Compressibility (1/GPa) = 0.02590898
#
# Stress axis : x y z
#
# Youngs Moduli (GPa) = 139.42928 55.43838 79.22384
#
# Poissons Ratio (x) = -0.00036 0.25613
# Poissons Ratio (y) = -0.00091 0.21670
# Poissons Ratio (z) = 0.45078 0.15164
#
# Static dielectric constant tensor:
#      x y z
#    x 1.736350 -0.024230 -0.046210 
#    y -0.024230 1.835200 0.027720 
#    z -0.046210 0.027720 1.797300 
# 
# From -- ./inp_files/612191.got.cif
#   From: 2010.05.17/outbox.ucp.g08.bks.cvg/sg2_307_cif.got.tgz:612191.got - 2010.06.11 11:32:03.
