data_PCOD9074491
_publ_section_title
;
Structure prediction by ZEFSAII (Michael W. Deem and Ramdas Pophale) SiO2 
 PCOD9074491
Probable space group: P -1
;
_chemical_formula_sum "Si O2"
_cell_formula_units_Z 12
_cell_length_a 11.153702
_cell_length_b 9.080272
_cell_length_c 12.598678
_cell_angle_alpha 50.020243
_cell_angle_beta 34.176069
_cell_angle_gamma 57.691937
_cell_volume 549.223797
_symmetry_space_group_name_H-M "P -1"
_symmetry_group_IT_number 2
_symmetry_cell_setting 'triclinic'
loop_
_space_group_symop_operation_xyz
x,y,z
-x,-y,-z
loop_
_atom_site_type_symbol
_atom_site_label
_atom_site_fract_x
_atom_site_fract_y
_atom_site_fract_z
Si Si1 0.363132 0.958677 0.723389
Si Si2 0.715395 0.061079 0.560739
Si Si3 0.057316 0.199041 0.965825
Si Si4 0.681163 0.458718 0.299215
Si Si5 0.479675 0.740865 0.175621
Si Si6 0.846263 0.038099 0.789622
O O1 0.500000 0.000000 0.500000
O O2 0.530792 0.927978 0.709691
O O3 0.225623 0.145253 0.775301
O O4 0.179284 0.806128 0.904712
O O5 0.742754 0.239172 0.374803
O O6 0.632119 0.160245 0.683633
O O7 0.941948 0.955766 0.439513
O O8 0.129357 0.395950 0.875798
O O9 0.089438 0.028182 0.108392
O O10 0.500000 0.500000 0.500000
O O11 0.568739 0.533117 0.239655
O O12 0.302096 0.773235 0.201108
O O13 0.689183 0.868636 0.942538
#
# Coordination Sequence:
#
# PCOD9074491 Si02
#       6
#     2   2   2   2   2   2
#     4  11  20  33  50  79 104 137 174 213 252 306
#     4  11  19  33  55  82 103 130 177 215 254 302
#     4  10  20  33  52  77 106 136 170 214 259 305
#     4   9  17  34  53  80 107 129 170 220 260 296
#     4   9  19  32  49  77 109 134 164 214 262 303
#     4  10  18  32  51  78 105 136 168 210 260 305
#
# _framework density 21.849017
#
# number of rings (size 3 to 8) (size 9 to 14) (size 15 to 20)
#    0.000    2.000    6.667    0.500    0.000    2.667 
#    0.000    0.000    0.000    1.000    0.000   11.667 
#    0.000    0.000    0.000    0.000    0.000    0.000 
#
# Total GULP energy -66937.247588 kJ/mol
# GULP energy per Si atom -5578.103966 kJ/mol
# Density = 2.179929 g / cm^3
# Si number density = 21.849017 Si / 1000 Ang^3
#
#
#
# Elastic Constant Matrix: (Units=GPa)
#
#
# Indices 1 2 3 4 5 6 
#
# 1 82.9604 30.4419 32.3356 -2.6617 -17.0787 -9.7799
# 2 30.4419 58.6974 22.2054 12.0219 -5.4712 -7.5686
# 3 32.3356 22.2054 109.2840 24.7927 -24.7566 2.2555
# 4 -2.6617 12.0219 24.7927 38.4104 -3.9262 10.8167
# 5 -17.0787 -5.4712 -24.7566 -3.9262 43.5746 8.3584
# 6 -9.7799 -7.5686 2.2555 10.8167 8.3584 29.9848
#
#
#
# Elastic Compliance Matrix: (Units=1/GPa)
#
#
# Indices 1 2 3 4 5 6 
#
# 1 0.018036 -0.008783 -0.004221 0.007070 0.004152 0.000275
# 2 -0.008783 0.024844 -0.001041 -0.010364 -0.003416 0.008176
# 3 -0.004221 -0.001041 0.013673 -0.007835 0.005543 -0.001387
# 4 0.007070 -0.010364 -0.007835 0.039363 0.003418 -0.014873
# 5 0.004152 -0.003416 0.005543 0.003418 0.029399 -0.009353
# 6 0.000275 0.008176 -0.001387 -0.014873 -0.009353 0.043581
#
#
# Mechanical properties :
#
#
# Convention : Reuss Voigt Hill
#
# Bulk Modulus (GPa) = 35.13268 46.76753 40.95011
# Shear Modulus (GPa) = 24.21639 33.45788 28.83713
#
# Velocity S-wave (km/s) = 3.33280 3.91746 3.63690
# Velocity P-wave (km/s) = 5.56100 6.47405 6.03482
#
# Compressibility (1/GPa) = 0.02846352
#
# Stress axis : x y z
#
# Youngs Moduli (GPa) = 55.44452 40.25196 73.13870
#
# Poissons Ratio (x) = 0.35352 0.30872
# Poissons Ratio (y) = 0.48695 0.07612
# Poissons Ratio (z) = 0.23403 0.04189
#
# Static dielectric constant tensor:
#      x y z
#    x 1.894880 -0.018720 0.026150 
#    y -0.018720 1.800410 0.014040 
#    z 0.026150 0.014040 1.849010 
# 
# From -- ./inp_files/358674.got.cif
#   From: 2010.05.17/outbox.cif.g08.bks.cpg/sg2_180_cif.got.tgz:358674.got - 2010.06.03 11:33:40.
