data_PCOD9074529
_publ_section_title
;
Structure prediction by ZEFSAII (Michael W. Deem and Ramdas Pophale) SiO2 
 PCOD9074529
Probable space group: P -1
;
_chemical_formula_sum "Si O2"
_cell_formula_units_Z 12
_cell_length_a 12.000000
_cell_length_b 9.000000
_cell_length_c 6.000000
_cell_angle_alpha 60.000000
_cell_angle_beta 90.000000
_cell_angle_gamma 70.000000
_cell_volume 515.566255
_symmetry_space_group_name_H-M "P -1"
_symmetry_group_IT_number 2
_symmetry_cell_setting 'triclinic'
loop_
_space_group_symop_operation_xyz
x,y,z
-x,-y,-z
loop_
_atom_site_type_symbol
_atom_site_label
_atom_site_fract_x
_atom_site_fract_y
_atom_site_fract_z
Si Si1 0.734534 0.726424 0.246912
Si Si2 0.305491 0.929142 0.296955
Si Si3 0.455132 0.392879 0.396737
Si Si4 0.901938 0.420114 0.132220
Si Si5 0.125450 0.122425 0.534532
Si Si6 0.760762 0.277787 0.933184
O O1 0.639812 0.676338 0.430423
O O2 0.801023 0.564799 0.185785
O O3 0.833171 0.752581 0.391550
O O4 0.667821 0.930253 0.977994
O O5 0.426437 0.790839 0.528779
O O6 0.256623 0.793431 0.259383
O O7 0.202006 0.073917 0.342584
O O8 0.500000 0.500000 0.500000
O O9 0.371158 0.565160 0.111027
O O10 0.983247 0.228435 0.405226
O O11 0.847652 0.378204 0.934663
O O12 0.000000 0.500000 0.000000
O O13 0.176386 0.918104 0.795094
#
# Coordination Sequence:
#
# PCOD9074529 Si02
#       6
#     2   2   2   2   2   2
#     4  11  24  45  68 100 134 173 224 270 332 390
#     4  10  23  46  69  97 135 172 225 270 332 390
#     4  10  23  45  68  98 135 174 220 273 327 396
#     4  12  24  45  69  98 135 175 222 274 329 392
#     4  11  24  45  68 102 131 179 217 274 332 392
#     4  10  25  43  66 100 133 178 218 269 330 393
#
# _framework density 23.275379000000001
#
# number of rings (size 3 to 8) (size 9 to 14) (size 15 to 20)
#    0.000    1.333    1.667    2.500    4.667    2.000 
#    6.000    0.000    0.000    0.000    0.000    0.000 
#    0.000    0.000    0.000    0.000    0.000    0.000 
#
# Total GULP energy -67010.432386 kJ/mol
# GULP energy per Si atom -5584.202699 kJ/mol
# Density = 2.322240 g / cm^3
# Si number density = 23.275379 Si / 1000 Ang^3
#
#
#
# Elastic Constant Matrix: (Units=GPa)
#
#
# Indices 1 2 3 4 5 6 
#
# 1 85.1653 29.1843 23.9271 -13.1631 12.3783 6.8727
# 2 29.1843 113.4718 26.9410 -18.9725 0.2175 -11.8420
# 3 23.9271 26.9410 76.5985 -31.8611 15.3370 2.0761
# 4 -13.1631 -18.9725 -31.8611 40.9424 -17.4831 7.2133
# 5 12.3783 0.2175 15.3370 -17.4831 29.7630 -11.8801
# 6 6.8727 -11.8420 2.0761 7.2133 -11.8801 41.3039
#
#
#
# Elastic Compliance Matrix: (Units=1/GPa)
#
#
# Indices 1 2 3 4 5 6 
#
# 1 0.015241 -0.004242 -0.001882 -0.001036 -0.008285 -0.005860
# 2 -0.004242 0.011886 -0.002800 0.004357 0.007992 0.005792
# 3 -0.001882 -0.002800 0.021364 0.013874 -0.004120 -0.005172
# 4 -0.001036 0.004357 0.013874 0.045430 0.019270 -0.001667
# 5 -0.008285 0.007992 -0.004120 0.019270 0.057200 0.016964
# 6 -0.005860 0.005792 -0.005172 -0.001667 0.016964 0.032277
#
#
# Mechanical properties :
#
#
# Convention : Reuss Voigt Hill
#
# Bulk Modulus (GPa) = 32.63380 48.37116 40.50248
# Shear Modulus (GPa) = 23.64494 35.41406 29.52950
#
# Velocity S-wave (km/s) = 3.19074 3.90490 3.56575
# Velocity P-wave (km/s) = 5.25601 6.41547 5.86446
#
# Compressibility (1/GPa) = 0.03064307
#
# Stress axis : x y z
#
# Youngs Moduli (GPa) = 65.61124 84.13015 46.80754
#
# Poissons Ratio (x) = 0.35688 0.08809
# Poissons Ratio (y) = 0.27832 0.13108
# Poissons Ratio (z) = 0.12348 0.23559
#
# Static dielectric constant tensor:
#      x y z
#    x 1.865330 0.013190 -0.016790 
#    y 0.013190 1.839570 -0.041410 
#    z -0.016790 -0.041410 2.023540 
# 
# From -- ./inp_files/24283.got.cif
#   From: 2010.05.17/outbox.ucp.g08.bks.cvg/sg2_13_cif.got.tgz:24283.got - 2010.06.11 11:32:03.
