data_PCOD9074193
_publ_section_title
;
Structure prediction by ZEFSAII (Michael W. Deem and Ramdas Pophale) SiO2 
 PCOD9074193
Probable space group: P -1
;
_chemical_formula_sum "Si O2"
_cell_formula_units_Z 16
_cell_length_a 21.000000
_cell_length_b 6.000000
_cell_length_c 12.000000
_cell_angle_alpha 60.000000
_cell_angle_beta 40.000000
_cell_angle_gamma 50.000000
_cell_volume 744.426066
_symmetry_space_group_name_H-M "P -1"
_symmetry_group_IT_number 2
_symmetry_cell_setting 'triclinic'
loop_
_space_group_symop_operation_xyz
x,y,z
-x,-y,-z
loop_
_atom_site_type_symbol
_atom_site_label
_atom_site_fract_x
_atom_site_fract_y
_atom_site_fract_z
Si Si1 0.998233 0.300137 0.401951
Si Si2 0.438728 0.779689 0.106681
Si Si3 0.433941 0.309455 0.640149
Si Si4 0.807210 0.667889 0.722272
Si Si5 0.964591 0.394508 0.914983
Si Si6 0.178804 0.267848 0.773592
Si Si7 0.389920 0.336132 0.430557
Si Si8 0.788150 0.305913 0.026815
O O1 0.098111 0.302110 0.340030
O O2 0.030473 0.338614 0.223473
O O3 0.874735 0.550763 0.544186
O O4 0.000000 0.000000 0.500000
O O5 0.417296 0.588362 0.281760
O O6 0.311159 0.035706 0.189368
O O7 0.500000 0.500000 0.000000
O O8 0.500000 0.000000 0.000000
O O9 0.500000 0.500000 0.500000
O O10 0.398162 0.319673 0.557495
O O11 0.322197 0.443230 0.829836
O O12 0.515436 0.983213 0.654064
O O13 0.790740 0.412634 0.871049
O O14 0.095818 0.214347 0.814597
O O15 0.897422 0.480249 0.099780
O O16 0.899898 0.280507 0.946357
O O17 0.268595 0.343624 0.573463
O O18 0.227549 0.979051 0.858030
#
# Coordination Sequence:
#
# PCOD9074193 Si02
#       8
#     2   2   2   2   2   2   2   2
#     4  10  22  43  68  98 139 190 243 294 363 435
#     4  12  31  52  76 110 150 198 250 308 372 441
#     4  11  23  42  70  99 136 182 237 301 361 434
#     4  10  25  43  69 103 137 193 243 302 358 441
#     4  10  23  39  61 100 136 179 225 290 354 431
#     4  11  22  40  65 100 134 174 228 292 361 426
#     4  11  26  43  70 103 136 185 241 297 369 434
#     4  11  21  41  67  96 135 176 236 286 362 421
#
# _framework density 21.493068000000001
#
# number of rings (size 3 to 8) (size 9 to 14) (size 15 to 20)
#    0.000    1.250    2.500    1.875    7.000    1.000 
#    4.500    0.000    0.000    0.000    0.000    0.000 
#    0.000    0.000    0.000    0.000    0.000    0.000 
#
# Total GULP energy -89142.074192 kJ/mol
# GULP energy per Si atom -5571.379637 kJ/mol
# Density = 2.144415 g / cm^3
# Si number density = 21.493068 Si / 1000 Ang^3
#
#
#
# Elastic Constant Matrix: (Units=GPa)
#
#
# Indices 1 2 3 4 5 6 
#
# 1 47.6283 13.1016 24.0357 8.4763 -18.5199 -7.5425
# 2 13.1016 105.0339 33.0762 -15.6497 -13.7722 -9.5971
# 3 24.0357 33.0762 130.2637 -8.9988 -16.4554 -7.9005
# 4 8.4763 -15.6497 -8.9988 59.7282 -1.6713 -4.3314
# 5 -18.5199 -13.7722 -16.4554 -1.6713 36.0141 -2.1390
# 6 -7.5425 -9.5971 -7.9005 -4.3314 -2.1390 27.9842
#
#
#
# Elastic Compliance Matrix: (Units=1/GPa)
#
#
# Indices 1 2 3 4 5 6 
#
# 1 0.030269 -0.000802 -0.003462 -0.004106 0.013923 0.007335
# 2 -0.000802 0.011516 -0.001866 0.003237 0.003526 0.003977
# 3 -0.003462 -0.001866 0.009218 0.001546 0.001874 0.001412
# 4 -0.004106 0.003237 0.001546 0.018678 0.000902 0.003400
# 5 0.013923 0.003526 0.001874 0.000902 0.037678 0.008510
# 6 0.007335 0.003977 0.001412 0.003400 0.008510 0.040651
#
#
# Mechanical properties :
#
#
# Convention : Reuss Voigt Hill
#
# Bulk Modulus (GPa) = 25.80946 47.03920 36.42433
# Shear Modulus (GPa) = 28.87089 38.92613 33.89851
#
# Velocity S-wave (km/s) = 3.66903 4.26032 3.97569
# Velocity P-wave (km/s) = 5.47571 6.79218 6.16916
#
# Compressibility (1/GPa) = 0.03874549
#
# Stress axis : x y z
#
# Youngs Moduli (GPa) = 33.03684 86.83291 108.47796
#
# Poissons Ratio (x) = 0.06960 0.37551
# Poissons Ratio (y) = 0.02648 0.20243
# Poissons Ratio (z) = 0.11436 0.16204
#
# Static dielectric constant tensor:
#      x y z
#    x 1.849790 0.011630 0.008140 
#    y 0.011630 1.840150 0.008050 
#    z 0.008140 0.008050 1.782610 
# 
# From -- ./inp_files/367506.got.cif
#   From: 2010.05.17/outbox.ucp.g08.bks.cvg/sg2_184_cif.got.tgz:367506.got - 2010.06.11 11:32:03.
