data_PCOD9074771
_publ_section_title
;
Structure prediction by ZEFSAII (Michael W. Deem and Ramdas Pophale) SiO2 
 PCOD9074771
Probable space group: P -1
;
_chemical_formula_sum "Si O2"
_cell_formula_units_Z 14
_cell_length_a 9.000000
_cell_length_b 9.000000
_cell_length_c 12.000000
_cell_angle_alpha 100.000000
_cell_angle_beta 120.000000
_cell_angle_gamma 50.000000
_cell_volume 628.643806
_symmetry_space_group_name_H-M "P -1"
_symmetry_group_IT_number 2
_symmetry_cell_setting 'triclinic'
loop_
_space_group_symop_operation_xyz
x,y,z
-x,-y,-z
loop_
_atom_site_type_symbol
_atom_site_label
_atom_site_fract_x
_atom_site_fract_y
_atom_site_fract_z
Si Si1 0.234374 0.477976 0.456124
Si Si2 0.297926 0.454787 0.121364
Si Si3 0.296047 0.691885 0.325504
Si Si4 0.023630 0.884018 0.840089
Si Si5 0.125578 0.562033 0.681248
Si Si6 0.475462 0.758273 0.056336
Si Si7 0.783684 0.822535 0.916304
O O1 0.205909 0.630446 0.378390
O O2 0.506045 0.314755 0.553006
O O3 0.136955 0.566691 0.553871
O O4 0.091200 0.413713 0.359587
O O5 0.400630 0.525351 0.246138
O O6 0.322222 0.277681 0.164439
O O7 0.399507 0.371355 0.025391
O O8 0.029436 0.645505 0.038601
O O9 0.096018 0.901109 0.224169
O O10 0.107451 0.735114 0.751181
O O11 0.844533 0.891053 0.843481
O O12 0.243276 0.796265 0.985366
O O13 0.348938 0.358786 0.792473
O O14 0.381699 0.981861 0.045664
#
# Coordination Sequence:
#
# PCOD9074771 Si02
#       7
#     2   2   2   2   2   2   2
#     4  10  25  46  66  91 132 195 221 277 323 393
#     4  11  24  43  68 101 140 173 217 286 340 402
#     4  11  24  45  69  95 138 176 231 274 333 402
#     4  12  24  41  71 104 135 175 220 290 343 399
#     4  11  24  44  68  96 139 176 230 273 331 405
#     4  12  24  41  72 107 136 173 218 285 350 398
#     4  11  24  40  65 106 137 173 213 267 363 397
#
# _framework density 22.270163
#
# number of rings (size 3 to 8) (size 9 to 14) (size 15 to 20)
#    0.000    0.857    2.857    3.857    4.000    2.286 
#    0.000    5.714    0.000    0.000    0.000    0.000 
#    0.000    0.000    0.000    0.000    0.000    0.000 
#
# Total GULP energy -78288.953839 kJ/mol
# GULP energy per Si atom -5592.068131 kJ/mol
# Density = 2.221948 g / cm^3
# Si number density = 22.270163 Si / 1000 Ang^3
#
#
#
# Elastic Constant Matrix: (Units=GPa)
#
#
# Indices 1 2 3 4 5 6 
#
# 1 64.4947 35.5113 23.3606 2.7500 -12.8569 4.9759
# 2 35.5113 143.3544 38.6774 -2.2546 2.1559 2.9320
# 3 23.3606 38.6774 80.1895 -0.1541 -0.7191 7.0528
# 4 2.7500 -2.2546 -0.1541 8.5484 2.6040 -0.3788
# 5 -12.8569 2.1559 -0.7191 2.6040 45.5713 5.3961
# 6 4.9759 2.9320 7.0528 -0.3788 5.3961 15.9514
#
#
#
# Elastic Compliance Matrix: (Units=1/GPa)
#
#
# Indices 1 2 3 4 5 6 
#
# 1 0.021915 -0.004639 -0.003448 -0.011055 0.007853 -0.007378
# 2 -0.004639 0.009056 -0.003212 0.004616 -0.002299 0.002090
# 3 -0.003448 -0.003212 0.015480 0.000306 0.000019 -0.005178
# 4 -0.011055 0.004616 0.000306 0.125718 -0.011627 0.009384
# 5 0.007853 -0.002299 0.000019 -0.011627 0.026258 -0.011194
# 6 -0.007378 0.002090 -0.005178 0.009384 -0.011194 0.070907
#
#
# Mechanical properties :
#
#
# Convention : Reuss Voigt Hill
#
# Bulk Modulus (GPa) = 41.92584 53.68191 47.80388
# Shear Modulus (GPa) = 16.67310 26.71351 21.69330
#
# Velocity S-wave (km/s) = 2.73916 3.46717 3.12444
# Velocity P-wave (km/s) = 5.37316 6.33920 5.87607
#
# Compressibility (1/GPa) = 0.02385164
#
# Stress axis : x y z
#
# Youngs Moduli (GPa) = 45.63146 110.42422 64.59778
#
# Poissons Ratio (x) = 0.51229 0.22276
# Poissons Ratio (y) = 0.21170 0.20749
# Poissons Ratio (z) = 0.15736 0.35468
#
# Static dielectric constant tensor:
#      x y z
#    x 1.856040 0.012200 0.006470 
#    y 0.012200 1.808190 0.034720 
#    z 0.006470 0.034720 1.808960 
# 
# From -- ./inp_files/215572.got.cif
#   From: 2010.05.17/outbox.ucp.g08.bks.cvg/sg2_108_cif.got.tgz:215572.got - 2010.06.11 11:32:03.
