data_PCOD9074704
_publ_section_title
;
Structure prediction by ZEFSAII (Michael W. Deem and Ramdas Pophale) SiO2 
 PCOD9074704
Probable space group: P -1
;
_chemical_formula_sum "Si O2"
_cell_formula_units_Z 16
_cell_length_a 27.000000
_cell_length_b 12.000000
_cell_length_c 27.000000
_cell_angle_alpha 30.000000
_cell_angle_beta 10.000000
_cell_angle_gamma 30.000000
_cell_volume 750.765935
_symmetry_space_group_name_H-M "P -1"
_symmetry_group_IT_number 2
_symmetry_cell_setting 'triclinic'
loop_
_space_group_symop_operation_xyz
x,y,z
-x,-y,-z
loop_
_atom_site_type_symbol
_atom_site_label
_atom_site_fract_x
_atom_site_fract_y
_atom_site_fract_z
Si Si1 0.630962 0.742814 0.772177
Si Si2 0.023994 0.328116 0.113399
Si Si3 0.473112 0.668324 0.521825
Si Si4 0.541944 0.945549 0.537619
Si Si5 0.111251 0.673765 0.122060
Si Si6 0.206495 0.129670 0.214758
Si Si7 0.136075 0.071392 0.632666
Si Si8 0.096152 0.011094 0.252220
O O1 0.722126 0.803095 0.601802
O O2 0.905685 0.805392 0.510083
O O3 0.500000 0.500000 0.000000
O O4 0.385903 0.921592 0.970669
O O5 0.755744 0.504487 0.288964
O O6 0.965859 0.233339 0.262418
O O7 0.269512 0.485589 0.808176
O O8 0.063984 0.096456 0.131154
O O9 0.533016 0.811876 0.455627
O O10 0.353442 0.877194 0.522625
O O11 0.865746 0.822368 0.274040
O O12 0.500000 0.000000 0.500000
O O13 0.383192 0.772361 0.793377
O O14 0.151569 0.401870 0.176668
O O15 0.026405 0.757169 0.231053
O O16 0.159399 0.076297 0.222284
O O17 0.000000 0.000000 0.500000
O O18 0.500000 0.000000 0.000000
#
# Coordination Sequence:
#
# PCOD9074704 Si02
#       8
#     2   2   2   2   2   2   2   2
#     4  11  25  47  76 102 146 190 235 312 364 436
#     4  11  23  41  70 101 145 182 224 295 347 436
#     4  11  23  39  67 104 141 188 227 285 350 429
#     4  11  25  43  70 106 144 192 239 285 359 433
#     4  11  26  47  73 104 144 188 237 306 354 433
#     4  12  28  51  77 104 140 193 252 311 368 428
#     4  10  24  45  70 109 145 185 245 279 374 428
#     4  11  26  47  70 111 136 186 251 292 373 440
#
# _framework density 21.311568999999999
#
# number of rings (size 3 to 8) (size 9 to 14) (size 15 to 20)
#    0.000    1.000    0.000    6.000    5.250    8.000 
#    9.000    0.000    0.000    0.000    0.000    0.000 
#    0.000    0.000    0.000    0.000    0.000    0.000 
#
# Total GULP energy -89153.193485 kJ/mol
# GULP energy per Si atom -5572.074593 kJ/mol
# Density = 2.126306 g / cm^3
# Si number density = 21.311569 Si / 1000 Ang^3
#
#
#
# Elastic Constant Matrix: (Units=GPa)
#
#
# Indices 1 2 3 4 5 6 
#
# 1 187.0255 43.2561 2.6682 -16.1430 17.9251 20.6856
# 2 43.2561 128.6325 -2.4539 -30.0833 9.5924 25.2144
# 3 2.6682 -2.4539 64.4443 -26.9045 8.3219 10.5056
# 4 -16.1430 -30.0833 -26.9045 54.8782 -7.8477 0.3069
# 5 17.9251 9.5924 8.3219 -7.8477 35.5525 -1.5299
# 6 20.6856 25.2144 10.5056 0.3069 -1.5299 44.4379
#
#
#
# Elastic Compliance Matrix: (Units=1/GPa)
#
#
# Indices 1 2 3 4 5 6 
#
# 1 0.006271 -0.000990 0.001137 0.001452 -0.002958 -0.002738
# 2 -0.000990 0.012005 0.005780 0.008812 -0.002486 -0.007863
# 3 0.001137 0.005780 0.024028 0.014630 -0.004948 -0.009761
# 4 0.001452 0.008812 0.014630 0.030681 -0.000164 -0.009352
# 5 -0.002958 -0.002486 -0.004948 -0.000164 0.031629 0.005047
# 6 -0.002738 -0.007863 -0.009761 -0.009352 0.005047 0.030785
#
#
# Mechanical properties :
#
#
# Convention : Reuss Voigt Hill
#
# Bulk Modulus (GPa) = 18.46491 51.89368 35.17930
# Shear Modulus (GPa) = 35.31095 49.41587 42.36341
#
# Velocity S-wave (km/s) = 4.07491 4.82055 4.46333
# Velocity P-wave (km/s) = 5.55184 7.44221 6.56542
#
# Compressibility (1/GPa) = 0.05415678
#
# Stress axis : x y z
#
# Youngs Moduli (GPa) = 159.45500 83.29898 41.61805
#
# Poissons Ratio (x) = 0.08250 -0.04732
# Poissons Ratio (y) = 0.15793 -0.24054
# Poissons Ratio (z) = -0.18129 -0.48145
#
# Static dielectric constant tensor:
#      x y z
#    x 1.830780 0.006530 -0.066220 
#    y 0.006530 1.741550 0.019760 
#    z -0.066220 0.019760 1.849420 
# 
# From -- ./inp_files/621242.got.cif
#   From: 2010.05.17/outbox.ucp.g08.bks.cvg/sg2_311_cif.got.tgz:621242.got - 2010.06.11 11:32:03.
