data_PCOD9074730
_publ_section_title
;
Structure prediction by ZEFSAII (Michael W. Deem and Ramdas Pophale) SiO2 
 PCOD9074730
Probable space group: P -1
;
_chemical_formula_sum "Si O2"
_cell_formula_units_Z 14
_cell_length_a 27.000000
_cell_length_b 15.000000
_cell_length_c 15.000000
_cell_angle_alpha 20.000000
_cell_angle_beta 20.000000
_cell_angle_gamma 20.000000
_cell_volume 621.679612
_symmetry_space_group_name_H-M "P -1"
_symmetry_group_IT_number 2
_symmetry_cell_setting 'triclinic'
loop_
_space_group_symop_operation_xyz
x,y,z
-x,-y,-z
loop_
_atom_site_type_symbol
_atom_site_label
_atom_site_fract_x
_atom_site_fract_y
_atom_site_fract_z
Si Si1 0.027705 0.265584 0.499984
Si Si2 0.754216 0.441283 0.165915
Si Si3 0.746282 0.360622 0.747656
Si Si4 0.458800 0.772781 0.983735
Si Si5 0.482304 0.723688 0.512774
Si Si6 0.180208 0.263984 0.875341
Si Si7 0.157068 0.697671 0.051012
O O1 0.890025 0.311913 0.618358
O O2 0.924776 0.406259 0.634412
O O3 0.154739 0.914332 0.633973
O O4 0.125206 0.422723 0.144646
O O5 0.587210 0.606822 0.352348
O O6 0.749849 0.486650 0.022537
O O7 0.575560 0.568407 0.896415
O O8 0.757151 0.542801 0.471362
O O9 0.793850 0.019361 0.963563
O O10 0.536361 0.953586 0.735153
O O11 0.296617 0.062075 0.948810
O O12 0.429321 0.548910 0.308359
O O13 0.297703 0.765443 0.787644
O O14 0.000000 0.500000 0.000000
O O15 0.000000 0.000000 0.000000
#
# Coordination Sequence:
#
# PCOD9074730 Si02
#       7
#     2   2   2   2   2   2   2
#     4  11  24  43  73 105 140 190 242 295 355 434
#     4  11  25  43  70 105 148 187 237 300 363 413
#     4  12  25  47  76 102 148 188 245 289 369 427
#     4  12  27  47  75 106 150 191 247 292 363 436
#     4  12  26  45  73 108 149 193 241 300 361 427
#     4  12  28  47  75 110 145 186 238 306 363 432
#     4  10  24  46  73 105 145 190 248 296 358 431
#
# _framework density 22.519638
#
# number of rings (size 3 to 8) (size 9 to 14) (size 15 to 20)
#    0.000    0.571    1.429    5.571   10.000    2.286 
#    0.000    5.000    0.000    0.000    0.000    0.000 
#    0.000    0.000    0.000    0.000    0.000    0.000 
#
# Total GULP energy -78245.048503 kJ/mol
# GULP energy per Si atom -5588.932036 kJ/mol
# Density = 2.246838 g / cm^3
# Si number density = 22.519638 Si / 1000 Ang^3
#
#
#
# Elastic Constant Matrix: (Units=GPa)
#
#
# Indices 1 2 3 4 5 6 
#
# 1 49.0723 8.3490 -2.5410 1.4136 5.5263 7.9088
# 2 8.3490 141.1250 32.7670 6.3158 1.9252 29.6125
# 3 -2.5410 32.7670 106.8528 -0.1378 21.2999 25.5091
# 4 1.4136 6.3158 -0.1378 52.1906 8.0415 3.2614
# 5 5.5263 1.9252 21.2999 8.0415 43.1678 7.1502
# 6 7.9088 29.6125 25.5091 3.2614 7.1502 43.6610
#
#
#
# Elastic Compliance Matrix: (Units=1/GPa)
#
#
# Indices 1 2 3 4 5 6 
#
# 1 0.021711 -0.000942 0.002474 0.000307 -0.003316 -0.004219
# 2 -0.000942 0.008592 -0.001841 -0.000970 0.001617 -0.004773
# 3 0.002474 -0.001841 0.012474 0.001423 -0.005718 -0.005657
# 4 0.000307 -0.000970 0.001423 0.019993 -0.004253 -0.001026
# 5 -0.003316 0.001617 -0.005718 -0.004253 0.027349 -0.001317
# 6 -0.004219 -0.004773 -0.005657 -0.001026 -0.001317 0.030503
#
#
# Mechanical properties :
#
#
# Convention : Reuss Voigt Hill
#
# Bulk Modulus (GPa) = 23.71994 41.57780 32.64887
# Shear Modulus (GPa) = 36.95635 45.03554 40.99594
#
# Velocity S-wave (km/s) = 4.05541 4.47680 4.27131
# Velocity P-wave (km/s) = 5.69950 6.72498 6.23336
#
# Compressibility (1/GPa) = 0.04215862
#
# Stress axis : x y z
#
# Youngs Moduli (GPa) = 46.05946 116.38534 80.16453
#
# Poissons Ratio (x) = 0.10964 -0.19832
# Poissons Ratio (y) = 0.04339 0.14761
# Poissons Ratio (z) = -0.11395 0.21430
#
# Static dielectric constant tensor:
#      x y z
#    x 1.977480 -0.002020 -0.085870 
#    y -0.002020 1.791120 0.008240 
#    z -0.085870 0.008240 1.830860 
# 
# From -- ./inp_files/492983.got.cif
#   From: 2010.05.17/outbox.ucp.g08.bks.cvg/sg2_247_cif.got.tgz:492983.got - 2010.06.11 11:32:03.
