data_PCOD9074833
_publ_section_title
;
Structure prediction by ZEFSAII (Michael W. Deem and Ramdas Pophale) SiO2 
 PCOD9074833
Probable space group: P -1
;
_chemical_formula_sum "Si O2"
_cell_formula_units_Z 16
_cell_length_a 21.000000
_cell_length_b 9.000000
_cell_length_c 18.000000
_cell_angle_alpha 40.000000
_cell_angle_beta 20.000000
_cell_angle_gamma 40.000000
_cell_volume 731.217405
_symmetry_space_group_name_H-M "P -1"
_symmetry_group_IT_number 2
_symmetry_cell_setting 'triclinic'
loop_
_space_group_symop_operation_xyz
x,y,z
-x,-y,-z
loop_
_atom_site_type_symbol
_atom_site_label
_atom_site_fract_x
_atom_site_fract_y
_atom_site_fract_z
Si Si1 0.769865 0.214622 0.984988
Si Si2 0.726636 0.428791 0.796992
Si Si3 0.636230 0.583029 0.606765
Si Si4 0.216970 0.896733 0.272241
Si Si5 0.217576 0.524349 0.657304
Si Si6 0.223635 0.285384 0.898242
Si Si7 0.487959 0.172132 0.784113
Si Si8 0.204153 0.171818 0.525857
O O1 0.750715 0.403402 0.867189
O O2 0.992994 0.137020 0.792954
O O3 0.592774 0.325571 0.189528
O O4 0.728150 0.983200 0.079210
O O5 0.805208 0.196375 0.751634
O O6 0.832346 0.616117 0.574343
O O7 0.500000 0.500000 0.000000
O O8 0.695759 0.323770 0.683647
O O9 0.759213 0.637845 0.379220
O O10 0.693804 0.748875 0.545197
O O11 0.000000 0.000000 0.500000
O O12 0.374029 0.058224 0.017063
O O13 0.270544 0.426044 0.719764
O O14 0.368241 0.672336 0.403785
O O15 0.999695 0.652170 0.859526
O O16 0.334602 0.315767 0.839949
O O17 0.638627 0.009655 0.624317
#
# Coordination Sequence:
#
# PCOD9074833 Si02
#       8
#     2   2   2   2   2   2   2   2
#     4  12  21  39  69  91 124 173 219 258 318 382
#     4  11  18  38  60  93 126 169 205 256 310 382
#     4  11  24  44  59  98 138 158 206 276 318 377
#     4  11  22  36  67  96 134 166 198 263 330 377
#     4  11  27  42  67  94 129 171 220 266 324 374
#     4  11  23  45  67  93 126 172 223 269 310 380
#     4  12  21  44  69  94 126 174 217 258 323 389
#     4  11  22  38  67  95 126 170 215 253 322 391
#
# _framework density 21.881316999999999
#
# number of rings (size 3 to 8) (size 9 to 14) (size 15 to 20)
#    0.000    0.750    7.500    1.500    0.000    4.000 
#    0.000    0.625    0.000    0.000    0.000    0.000 
#    0.000    0.000    0.000    0.000    0.000    0.000 
#
# Total GULP energy -89080.874007 kJ/mol
# GULP energy per Si atom -5567.554625 kJ/mol
# Density = 2.183151 g / cm^3
# Si number density = 21.881317 Si / 1000 Ang^3
#
#
#
# Elastic Constant Matrix: (Units=GPa)
#
#
# Indices 1 2 3 4 5 6 
#
# 1 39.2561 -12.1998 30.9212 4.1829 7.4447 -5.9688
# 2 -12.1998 20.4605 39.5008 25.9771 -2.6241 13.6747
# 3 30.9212 39.5008 121.9504 57.1411 15.5331 -17.3937
# 4 4.1829 25.9771 57.1411 30.3448 1.2880 11.0973
# 5 7.4447 -2.6241 15.5331 1.2880 38.9927 21.2499
# 6 -5.9688 13.6747 -17.3937 11.0973 21.2499 4.6363
#
#
#
# Elastic Compliance Matrix: (Units=1/GPa)
#
#
# Indices 1 2 3 4 5 6 
#
# 1 0.020574 -0.046642 -0.014881 0.060281 -0.011031 0.014498
# 2 -0.046642 -0.121646 -0.004761 0.119703 -0.001155 -0.000337
# 3 -0.014881 -0.004761 0.009123 -0.002104 0.013120 -0.025991
# 4 0.060281 0.119703 -0.002104 -0.089863 -0.025070 0.046651
# 5 -0.011031 -0.001155 0.013120 -0.025070 0.020276 0.005504
# 6 0.014498 -0.000337 -0.025991 0.046651 0.005504 0.000952
#
#
# Mechanical properties :
#
#
# Convention : Reuss Voigt Hill
#
# Bulk Modulus (GPa) = -4.45402 33.12349 14.33473
# Shear Modulus (GPa) = -48.61153 23.02441 -12.79356
#
# Velocity S-wave (km/s) = -4.71850 3.24735 -2.42064
# Velocity P-wave (km/s) = 5.63255 5.40657 1.11683
#
# Compressibility (1/GPa) = -0.22451635
#
# Stress axis : x y z
#
# Youngs Moduli (GPa) = 48.60619 -8.22058 109.61386
#
# Poissons Ratio (x) = -0.38342 1.63119
# Poissons Ratio (y) = 2.26707 0.52182
# Poissons Ratio (z) = 0.72332 -0.03913
#
# Static dielectric constant tensor:
#      x y z
#    x 1.881440 0.072650 -0.022540 
#    y 0.072650 1.993150 -0.009610 
#    z -0.022540 -0.009610 1.852610 
# 
# From -- ./inp_files/577546.got.cif
#   From: 2010.05.17/outbox.ucp.g08.bks.cvg/sg2_289_cif.got.tgz:577546.got - 2010.06.11 11:32:03.
