data_PCOD9074700
_publ_section_title
;
Structure prediction by ZEFSAII (Michael W. Deem and Ramdas Pophale) SiO2 
 PCOD9074700
Probable space group: P -1
;
_chemical_formula_sum "Si O2"
_cell_formula_units_Z 16
_cell_length_a 9.000000
_cell_length_b 18.000000
_cell_length_c 6.000000
_cell_angle_alpha 130.000000
_cell_angle_beta 80.000000
_cell_angle_gamma 90.000000
_cell_volume 725.212580
_symmetry_space_group_name_H-M "P -1"
_symmetry_group_IT_number 2
_symmetry_cell_setting 'triclinic'
loop_
_space_group_symop_operation_xyz
x,y,z
-x,-y,-z
loop_
_atom_site_type_symbol
_atom_site_label
_atom_site_fract_x
_atom_site_fract_y
_atom_site_fract_z
Si Si1 0.425439 0.944380 0.107219
Si Si2 0.272442 0.047936 0.728852
Si Si3 0.716825 0.158576 0.413487
Si Si4 0.117469 0.637970 0.807459
Si Si5 0.597784 0.365803 0.948314
Si Si6 0.996162 0.780334 0.753610
Si Si7 0.899272 0.604376 0.173312
Si Si8 0.685016 0.502117 0.809935
O O1 0.569876 0.912971 0.168237
O O2 0.297073 0.018948 0.409467
O O3 0.346509 0.861929 0.853462
O O4 0.500000 0.000000 0.000000
O O5 0.268999 0.942968 0.649743
O O6 0.128247 0.126737 0.977359
O O7 0.599740 0.249379 0.713157
O O8 0.882016 0.191821 0.403775
O O9 0.166544 0.546012 0.455235
O O10 0.091780 0.736027 0.857175
O O11 0.260027 0.626602 0.915424
O O12 0.966400 0.637620 0.988513
O O13 0.632063 0.412085 0.786998
O O14 0.442677 0.435068 0.186277
O O15 0.917900 0.689511 0.506306
O O16 0.731990 0.578599 0.126190
O O17 0.000000 0.500000 0.000000
#
# Coordination Sequence:
#
# PCOD9074700 Si02
#       8
#     2   2   2   2   2   2   2   2
#     4   9  22  45  67  91 131 165 219 274 324 387
#     4  10  24  45  69  96 129 177 217 269 335 393
#     4  11  22  44  67  96 134 172 219 278 323 387
#     4  12  22  43  64  95 140 169 223 271 327 390
#     4  11  24  43  67  97 133 171 222 272 328 395
#     4  12  26  41  66 103 132 176 222 270 330 394
#     4  12  23  44  64  94 137 173 220 273 324 390
#     4  11  24  43  67  96 131 178 220 269 333 390
#
# _framework density 22.062495999999999
#
# number of rings (size 3 to 8) (size 9 to 14) (size 15 to 20)
#    0.000    1.000    5.000    1.125    3.500    2.500 
#    4.500    0.000    0.000    0.000    0.000    0.000 
#    0.000    0.000    0.000    0.000    0.000    0.000 
#
# Total GULP energy -89314.503518 kJ/mol
# GULP energy per Si atom -5582.156470 kJ/mol
# Density = 2.201228 g / cm^3
# Si number density = 22.062496 Si / 1000 Ang^3
#
#
#
# Elastic Constant Matrix: (Units=GPa)
#
#
# Indices 1 2 3 4 5 6 
#
# 1 69.0315 29.6448 22.2327 19.0554 -1.6440 -11.7396
# 2 29.6448 104.3703 45.6214 23.8741 -16.4317 -7.9658
# 3 22.2327 45.6214 80.1886 17.2624 -3.6042 -12.0182
# 4 19.0554 23.8741 17.2624 31.7037 0.9131 -7.9921
# 5 -1.6440 -16.4317 -3.6042 0.9131 40.1356 9.2532
# 6 -11.7396 -7.9658 -12.0182 -7.9921 9.2532 28.7885
#
#
#
# Elastic Compliance Matrix: (Units=1/GPa)
#
#
# Indices 1 2 3 4 5 6 
#
# 1 0.018981 -0.003054 -0.001335 -0.007111 -0.001552 0.004862
# 2 -0.003054 0.016000 -0.006900 -0.007677 0.006915 -0.004052
# 3 -0.001335 -0.006900 0.017948 -0.002409 -0.002398 0.005141
# 4 -0.007111 -0.007677 -0.002409 0.045292 -0.006685 0.008693
# 5 -0.001552 0.006915 -0.002398 -0.006685 0.030223 -0.011291
# 6 0.004862 -0.004052 0.005141 0.008693 -0.011291 0.043786
#
#
# Mechanical properties :
#
#
# Convention : Reuss Voigt Hill
#
# Bulk Modulus (GPa) = 32.94940 49.84314 41.39627
# Shear Modulus (GPa) = 24.39912 30.53165 27.46539
#
# Velocity S-wave (km/s) = 3.32913 3.72408 3.53213
# Velocity P-wave (km/s) = 5.45385 6.41346 5.95302
#
# Compressibility (1/GPa) = 0.03034956
#
# Stress axis : x y z
#
# Youngs Moduli (GPa) = 52.68557 62.49887 55.71748
#
# Poissons Ratio (x) = 0.19089 0.07439
# Poissons Ratio (y) = 0.16091 0.38446
# Poissons Ratio (z) = 0.07034 0.43125
#
# Static dielectric constant tensor:
#      x y z
#    x 1.863040 0.015210 0.049300 
#    y 0.015210 1.796900 -0.042030 
#    z 0.049300 -0.042030 1.866720 
# 
# From -- ./inp_files/49262.got.cif
#   From: 2010.05.17/outbox.ucp.g08.bks.cvg/sg2_25_cif.got.tgz:49262.got - 2010.06.11 11:32:03.
