data_PCOD9074593
_publ_section_title
;
Structure prediction by ZEFSAII (Michael W. Deem and Ramdas Pophale) SiO2 
 PCOD9074593
Probable space group: P -1
;
_chemical_formula_sum "Si O2"
_cell_formula_units_Z 11
_cell_length_a 9.000000
_cell_length_b 12.000000
_cell_length_c 9.000000
_cell_angle_alpha 110.000000
_cell_angle_beta 30.000000
_cell_angle_gamma 110.000000
_cell_volume 454.513580
_symmetry_space_group_name_H-M "P -1"
_symmetry_group_IT_number 2
_symmetry_cell_setting 'triclinic'
loop_
_space_group_symop_operation_xyz
x,y,z
-x,-y,-z
loop_
_atom_site_type_symbol
_atom_site_label
_atom_site_fract_x
_atom_site_fract_y
_atom_site_fract_z
Si Si1 0.000000 0.000000 0.000000
Si Si2 0.019878 0.524393 0.816420
Si Si3 0.566953 0.862277 0.857675
Si Si4 0.073959 0.713138 0.395505
Si Si5 0.513255 0.323305 0.692474
Si Si6 0.401031 0.107062 0.491787
O O1 0.830723 0.002836 0.312433
O O2 0.729860 0.067397 0.192175
O O3 0.057944 0.409201 0.627618
O O4 0.288880 0.624175 0.593342
O O5 0.730194 0.583686 0.034642
O O6 0.000000 0.500000 0.000000
O O7 0.644975 0.844783 0.609289
O O8 0.827192 0.801596 0.691813
O O9 0.277755 0.781965 0.125958
O O10 0.500000 0.000000 0.000000
O O11 0.277139 0.687494 0.350889
O O12 0.359274 0.195944 0.708932
#
# Coordination Sequence:
#
# PCOD9074593 Si02
#       6
#     1   2   2   2   2   2
#     4  10  24  40  70  92 134 178 228 284 328 394
#     4  12  24  45  73 101 137 179 226 281 348 412
#     4  12  27  45  68  99 140 187 233 280 343 401
#     4  12  26  45  68 102 142 179 230 287 341 404
#     4  12  25  43  72 104 136 178 228 281 349 407
#     4  11  24  43  68  96 137 173 238 270 345 399
#
# _framework density 24.201696999999999
#
# number of rings (size 3 to 8) (size 9 to 14) (size 15 to 20)
#    0.000    0.364    0.000    8.727    7.636    0.000 
#    0.000    0.000    0.000    0.000    0.000    0.000 
#    0.000    0.000    0.000    0.000    0.000    0.000 
#
# Total GULP energy -61362.323490 kJ/mol
# GULP energy per Si atom -5578.393045 kJ/mol
# Density = 2.414661 g / cm^3
# Si number density = 24.201697 Si / 1000 Ang^3
#
#
#
# Elastic Constant Matrix: (Units=GPa)
#
#
# Indices 1 2 3 4 5 6 
#
# 1 64.1533 29.8472 51.3969 45.8262 -7.5210 -6.6216
# 2 29.8472 42.8541 8.6785 50.6933 -14.9075 -9.5091
# 3 51.3969 8.6785 32.2275 -12.2588 -26.7787 -5.5599
# 4 45.8262 50.6933 -12.2588 34.6304 -15.6250 7.5111
# 5 -7.5210 -14.9075 -26.7787 -15.6250 49.2424 10.5338
# 6 -6.6216 -9.5091 -5.5599 7.5111 10.5338 39.2940
#
#
#
# Elastic Compliance Matrix: (Units=1/GPa)
#
#
# Indices 1 2 3 4 5 6 
#
# 1 -0.166073 0.352051 0.215963 -0.184281 0.120800 0.090609
# 2 0.352051 -0.747169 -0.432719 0.411927 -0.234557 -0.198577
# 3 0.215963 -0.432719 -0.248589 0.219682 -0.140424 -0.107847
# 4 -0.184281 0.411927 0.219682 -0.220817 0.122631 0.109051
# 5 0.120800 -0.234557 -0.140424 0.122631 -0.055854 -0.064743
# 6 0.090609 -0.198577 -0.107847 0.109051 -0.064743 -0.026086
#
#
# Mechanical properties :
#
#
# Convention : Reuss Voigt Hill
#
# Bulk Modulus (GPa) = -1.12203 35.45335 17.16566
# Shear Modulus (GPa) = -2.46032 27.92085 12.73026
#
# Velocity S-wave (km/s) = -1.00935 3.40026 2.29597
# Velocity P-wave (km/s) = 1.35019 5.48604 3.75989
#
# Compressibility (1/GPa) = -0.89124165
#
# Stress axis : x y z
#
# Youngs Moduli (GPa) = -6.02146 -1.33839 -4.02270
#
# Poissons Ratio (x) = 0.47118 0.86875
# Poissons Ratio (y) = 2.11986 -1.74070
# Poissons Ratio (z) = 1.30041 -0.57914
#
# Static dielectric constant tensor:
#      x y z
#    x 1.867400 -0.228560 0.079930 
#    y -0.228560 1.236330 0.368000 
#    z 0.079930 0.368000 1.765830 
# 
# From -- ./inp_files/175642.got.cif
#   From: 2010.05.17/outbox.ucp.g08.bks.cvg/sg2_88_cif.got.tgz:175642.got - 2010.06.11 11:32:03.
