data_PCOD9074960
_publ_section_title
;
Structure prediction by ZEFSAII (Michael W. Deem and Ramdas Pophale) SiO2 
 PCOD9074960
Probable space group: P -1
;
_chemical_formula_sum "Si O2"
_cell_formula_units_Z 16
_cell_length_a 9.000000
_cell_length_b 15.000000
_cell_length_c 9.000000
_cell_angle_alpha 70.000000
_cell_angle_beta 110.000000
_cell_angle_gamma 140.000000
_cell_volume 727.419504
_symmetry_space_group_name_H-M "P -1"
_symmetry_group_IT_number 2
_symmetry_cell_setting 'triclinic'
loop_
_space_group_symop_operation_xyz
x,y,z
-x,-y,-z
loop_
_atom_site_type_symbol
_atom_site_label
_atom_site_fract_x
_atom_site_fract_y
_atom_site_fract_z
Si Si1 0.295902 0.161268 0.408500
Si Si2 0.090959 0.626872 0.866233
Si Si3 0.624044 0.874202 0.999299
Si Si4 0.003393 0.215105 0.186497
Si Si5 0.175521 0.559122 0.658179
Si Si6 0.016479 0.730518 0.191123
Si Si7 0.441975 0.076532 0.739845
Si Si8 0.000751 0.098710 0.758322
O O1 0.161738 0.201155 0.313298
O O2 0.552371 0.296115 0.352512
O O3 0.362618 0.138928 0.598026
O O4 0.117663 0.005460 0.362660
O O5 0.072946 0.591545 0.713396
O O6 0.941799 0.653309 0.832419
O O7 0.366049 0.748225 0.924711
O O8 0.000000 0.500000 0.000000
O O9 0.587247 0.926967 0.093222
O O10 0.766870 0.849570 0.131867
O O11 0.793466 0.988842 0.867886
O O12 0.753362 0.089456 0.257336
O O13 0.008033 0.223083 0.001634
O O14 0.000000 0.500000 0.500000
O O15 0.131909 0.431823 0.770955
O O16 0.289246 0.825114 0.254095
O O17 0.952054 0.769139 0.286329
#
# Coordination Sequence:
#
# PCOD9074960 Si02
#       8
#     2   2   2   2   2   2   2   2
#     4  12  27  45  70 104 149 182 224 292 356 408
#     4  12  25  44  73 101 136 188 237 283 344 417
#     4  11  21  42  69 100 138 174 227 291 335 408
#     4  12  24  42  72 109 129 183 241 284 339 417
#     4  12  27  50  66  99 145 184 225 289 352 414
#     4  12  24  43  74  99 138 185 237 284 343 412
#     4  12  23  43  69 102 148 176 225 291 352 405
#     4  11  23  41  69 109 132 177 234 289 344 400
#
# _framework density 21.995560999999999
#
# number of rings (size 3 to 8) (size 9 to 14) (size 15 to 20)
#    0.000    0.250    7.500    2.250    0.000    3.000 
#    0.000    0.625    0.000    0.000    0.000    0.000 
#    0.000    0.000    0.000    0.000    0.000    0.000 
#
# Total GULP energy -89128.681226 kJ/mol
# GULP energy per Si atom -5570.542577 kJ/mol
# Density = 2.194550 g / cm^3
# Si number density = 21.995561 Si / 1000 Ang^3
#
#
#
# Elastic Constant Matrix: (Units=GPa)
#
#
# Indices 1 2 3 4 5 6 
#
# 1 83.1931 36.0589 26.5815 17.4732 5.7704 -7.0238
# 2 36.0589 21.9638 26.3720 -6.5785 7.5108 -21.5630
# 3 26.5815 26.3720 78.5600 6.6936 19.6400 5.6347
# 4 17.4732 -6.5785 6.6936 30.6122 3.8536 1.4016
# 5 5.7704 7.5108 19.6400 3.8536 18.8599 0.0797
# 6 -7.0238 -21.5630 5.6347 1.4016 0.0797 17.5464
#
#
#
# Elastic Compliance Matrix: (Units=1/GPa)
#
#
# Indices 1 2 3 4 5 6 
#
# 1 0.012867 0.011581 -0.010263 -0.004025 0.002864 0.022987
# 2 0.011581 -0.037432 0.012796 -0.015605 0.001414 -0.044234
# 3 -0.010263 0.012796 0.015841 0.007384 -0.019986 0.006031
# 4 -0.004025 -0.015605 0.007384 0.032012 -0.006676 -0.025687
# 5 0.002864 0.001414 -0.019986 -0.006676 0.073720 0.009501
# 6 0.022987 -0.044234 0.006031 -0.025687 0.009501 0.011905
#
#
# Mechanical properties :
#
#
# Convention : Reuss Voigt Hill
#
# Bulk Modulus (GPa) = 51.27243 40.19353 45.73298
# Shear Modulus (GPa) = 57.34772 19.71734 38.53253
#
# Velocity S-wave (km/s) = 5.11165 2.99728 4.19003
# Velocity P-wave (km/s) = 7.62887 5.50376 6.65173
#
# Compressibility (1/GPa) = 0.01950366
#
# Stress axis : x y z
#
# Youngs Moduli (GPa) = 77.71623 -26.71489 63.12692
#
# Poissons Ratio (x) = 0.30938 0.64789
# Poissons Ratio (y) = -0.90002 -0.80778
# Poissons Ratio (z) = 0.79762 0.34185
#
# Static dielectric constant tensor:
#      x y z
#    x 1.845010 -0.011520 -0.024440 
#    y -0.011520 0.182510 -1.067470 
#    z -0.024440 -1.067470 1.094400 
# 
# From -- ./inp_files/206508.got.cif
#   From: 2010.05.17/outbox.ucp.g08.bks.cvg/sg2_104_cif.got.tgz:206508.got - 2010.06.11 11:32:03.
