data_PCOD9074705
_publ_section_title
;
Structure prediction by ZEFSAII (Michael W. Deem and Ramdas Pophale) SiO2 
 PCOD9074705
Probable space group: P -1
;
_chemical_formula_sum "Si O2"
_cell_formula_units_Z 14
_cell_length_a 9.000000
_cell_length_b 24.000000
_cell_length_c 9.000000
_cell_angle_alpha 40.000000
_cell_angle_beta 130.000000
_cell_angle_gamma 150.000000
_cell_volume 623.501542
_symmetry_space_group_name_H-M "P -1"
_symmetry_group_IT_number 2
_symmetry_cell_setting 'triclinic'
loop_
_space_group_symop_operation_xyz
x,y,z
-x,-y,-z
loop_
_atom_site_type_symbol
_atom_site_label
_atom_site_fract_x
_atom_site_fract_y
_atom_site_fract_z
Si Si1 0.671672 0.479133 0.229192
Si Si2 0.318823 0.977153 0.570358
Si Si3 0.168642 0.774990 0.033341
Si Si4 0.290522 0.106934 0.065442
Si Si5 0.210852 0.798278 0.358132
Si Si6 0.951677 0.442179 0.247284
Si Si7 0.419338 0.346287 0.643472
O O1 0.808101 0.460268 0.234929
O O2 0.473098 0.368976 0.454766
O O3 0.944806 0.619407 0.200697
O O4 0.500000 0.500000 0.000000
O O5 0.224731 0.035797 0.321909
O O6 0.549474 0.068346 0.665775
O O7 0.500000 0.000000 0.500000
O O8 0.065968 0.826601 0.773566
O O9 0.226893 0.818252 0.152072
O O10 0.449219 0.842002 0.977449
O O11 0.377042 0.233621 0.895040
O O12 0.000000 0.000000 0.000000
O O13 0.255718 0.711451 0.587803
O O14 0.883160 0.709158 0.392255
O O15 0.275357 0.521100 0.353506
O O16 0.000000 0.500000 0.000000
#
# Coordination Sequence:
#
# PCOD9074705 Si02
#       7
#     2   2   2   2   2   2   2
#     4  12  27  44  74 104 143 191 227 287 355 425
#     4  10  24  45  70  96 136 185 232 291 345 412
#     4  11  24  47  69 100 145 182 238 286 351 415
#     4  11  24  44  72 100 136 189 236 288 352 417
#     4  12  25  44  72 105 139 185 236 296 348 414
#     4  12  25  43  67 104 145 177 234 291 344 419
#     4  12  24  44  68 104 143 183 235 281 361 412
#
# _framework density 22.453834000000001
#
# number of rings (size 3 to 8) (size 9 to 14) (size 15 to 20)
#    0.000    0.571    2.857    5.571   10.000    0.000 
#    0.000    1.429    0.000    0.000    0.000    0.000 
#    0.000    0.000    0.000    0.000    0.000    0.000 
#
# Total GULP energy -78249.677170 kJ/mol
# GULP energy per Si atom -5589.262655 kJ/mol
# Density = 2.240273 g / cm^3
# Si number density = 22.453834 Si / 1000 Ang^3
#
#
#
# Elastic Constant Matrix: (Units=GPa)
#
#
# Indices 1 2 3 4 5 6 
#
# 1 95.3723 32.4690 48.0481 2.0605 -4.5764 -21.2493
# 2 32.4690 37.8541 -6.2746 -1.5459 8.9333 -10.5198
# 3 48.0481 -6.2746 157.0596 -14.4773 -12.8426 -13.4233
# 4 2.0605 -1.5459 -14.4773 35.5880 -8.5494 4.6086
# 5 -4.5764 8.9333 -12.8426 -8.5494 20.9539 4.3938
# 6 -21.2493 -10.5198 -13.4233 4.6086 4.3938 36.6908
#
#
#
# Elastic Compliance Matrix: (Units=1/GPa)
#
#
# Indices 1 2 3 4 5 6 
#
# 1 0.022798 -0.021512 -0.007268 -0.003996 0.007224 0.004013
# 2 -0.021512 0.054640 0.007373 -0.000723 -0.025671 0.009070
# 3 -0.007268 0.007373 0.009692 0.005442 0.003353 0.000365
# 4 -0.003996 -0.000723 0.005442 0.036029 0.019009 -0.007332
# 5 0.007224 -0.025671 0.003353 0.019009 0.072794 -0.013055
# 6 0.004013 0.009070 0.000365 -0.007332 -0.013055 0.034797
#
#
# Mechanical properties :
#
#
# Convention : Reuss Voigt Hill
#
# Bulk Modulus (GPa) = 22.56507 48.75234 35.65870
# Shear Modulus (GPa) = 17.34081 33.04945 25.19513
#
# Velocity S-wave (km/s) = 2.78202 3.84068 3.35339
# Velocity P-wave (km/s) = 4.51563 6.43639 5.55959
#
# Compressibility (1/GPa) = 0.04431629
#
# Stress axis : x y z
#
# Youngs Moduli (GPa) = 43.86402 18.30149 103.17561
#
# Poissons Ratio (x) = 0.39370 0.74992
# Poissons Ratio (y) = 0.94360 -0.76076
# Poissons Ratio (z) = 0.31882 -0.13494
#
# Static dielectric constant tensor:
#      x y z
#    x 1.849000 -0.017230 0.089150 
#    y -0.017230 1.814310 0.004200 
#    z 0.089150 0.004200 1.938850 
# 
# From -- ./inp_files/158921.got.cif
#   From: 2010.05.17/outbox.ucp.g08.bks.cvg/sg2_80_cif.got.tgz:158921.got - 2010.06.11 11:32:03.
