data_PCOD9074211
_publ_section_title
;
Structure prediction by ZEFSAII (Michael W. Deem and Ramdas Pophale) SiO2 
 PCOD9074211
Probable space group: P -1
;
_chemical_formula_sum "Si O2"
_cell_formula_units_Z 12
_cell_length_a 15.000000
_cell_length_b 9.000000
_cell_length_c 6.000000
_cell_angle_alpha 60.000000
_cell_angle_beta 100.000000
_cell_angle_gamma 130.000000
_cell_volume 523.869838
_symmetry_space_group_name_H-M "P -1"
_symmetry_group_IT_number 2
_symmetry_cell_setting 'triclinic'
loop_
_space_group_symop_operation_xyz
x,y,z
-x,-y,-z
loop_
_atom_site_type_symbol
_atom_site_label
_atom_site_fract_x
_atom_site_fract_y
_atom_site_fract_z
Si Si1 0.270931 0.096676 0.652794
Si Si2 0.530631 0.719949 0.744782
Si Si3 0.965955 0.166086 0.546475
Si Si4 0.275941 0.467386 0.645253
Si Si5 0.368673 0.903702 0.117861
Si Si6 0.048572 0.246555 0.021272
O O1 0.394001 0.241338 0.465341
O O2 0.261235 0.259189 0.678925
O O3 0.167319 0.974087 0.508348
O O4 0.286363 0.936373 0.915175
O O5 0.404711 0.640596 0.682112
O O6 0.596606 0.936132 0.772334
O O7 0.500000 0.500000 0.000000
O O8 0.036005 0.306443 0.231234
O O9 0.992893 0.999125 0.744915
O O10 0.982826 0.248886 0.761246
O O11 0.287542 0.637411 0.344417
O O12 0.179082 0.383432 0.861548
O O13 0.500000 0.000000 0.000000
#
# Coordination Sequence:
#
# PCOD9074211 Si02
#       6
#     2   2   2   2   2   2
#     4  12  25  45  72 103 140 191 238 299 363 434
#     4  12  24  43  71 102 138 189 237 296 366 431
#     4  10  22  43  74 105 146 187 247 297 359 428
#     4  12  24  45  72 105 143 188 243 297 364 432
#     4  12  27  46  66 106 148 187 239 300 364 436
#     4  10  22  43  72 110 139 193 244 298 357 432
#
# _framework density 22.906452999999999
#
# number of rings (size 3 to 8) (size 9 to 14) (size 15 to 20)
#    0.000    0.667    3.333    6.000    2.333    1.333 
#    0.000    1.667    0.000    0.000    0.000    0.000 
#    0.000    0.000    0.000    0.000    0.000    0.000 
#
# Total GULP energy -66802.998633 kJ/mol
# GULP energy per Si atom -5566.916553 kJ/mol
# Density = 2.285432 g / cm^3
# Si number density = 22.906453 Si / 1000 Ang^3
#
#
#
# Elastic Constant Matrix: (Units=GPa)
#
#
# Indices 1 2 3 4 5 6 
#
# 1 68.8952 31.5232 45.4373 -8.1230 6.0626 14.1085
# 2 31.5232 58.6725 30.3925 23.1313 11.2522 12.7569
# 3 45.4373 30.3925 183.6405 7.2674 2.9169 -2.9286
# 4 -8.1230 23.1313 7.2674 46.2866 8.0846 15.4158
# 5 6.0626 11.2522 2.9169 8.0846 67.7456 2.9170
# 6 14.1085 12.7569 -2.9286 15.4158 2.9170 50.1258
#
#
#
# Elastic Compliance Matrix: (Units=1/GPa)
#
#
# Indices 1 2 3 4 5 6 
#
# 1 0.031597 -0.019426 -0.005529 0.019767 -0.001280 -0.010277
# 2 -0.019426 0.035921 -0.000185 -0.022100 -0.001721 0.003212
# 3 -0.005529 -0.000185 0.007003 -0.003029 0.000460 0.002917
# 4 0.019767 -0.022100 -0.003029 0.041218 -0.002342 -0.012656
# 5 -0.001280 -0.001721 0.000460 -0.002342 0.015393 0.000649
# 6 -0.010277 0.003212 0.002917 -0.012656 0.000649 0.026050
#
#
# Mechanical properties :
#
#
# Convention : Reuss Voigt Hill
#
# Bulk Modulus (GPa) = 41.25077 58.43492 49.84284
# Shear Modulus (GPa) = 23.19717 46.42194 34.80956
#
# Velocity S-wave (km/s) = 3.18573 4.50665 3.90248
# Velocity P-wave (km/s) = 5.61955 7.25572 6.48941
#
# Compressibility (1/GPa) = 0.02424197
#
# Stress axis : x y z
#
# Youngs Moduli (GPa) = 31.64829 27.83856 142.79207
#
# Poissons Ratio (x) = 0.54078 0.78948
# Poissons Ratio (y) = 0.61479 0.02648
# Poissons Ratio (z) = 0.17498 0.00516
#
# Static dielectric constant tensor:
#      x y z
#    x 1.869420 -0.002960 0.025830 
#    y -0.002960 1.894340 0.025880 
#    z 0.025830 0.025880 2.055720 
# 
# From -- ./inp_files/89696.got.cif
#   From: 2010.05.17/outbox.ucp.g08.bks.cvg/sg2_45_cif.got.tgz:89696.got - 2010.06.11 11:32:03.
