data_PCOD9074733
_publ_section_title
;
Structure prediction by ZEFSAII (Michael W. Deem and Ramdas Pophale) SiO2 
 PCOD9074733
Probable space group: P -1
;
_chemical_formula_sum "Si O2"
_cell_formula_units_Z 16
_cell_length_a 30.000000
_cell_length_b 6.000000
_cell_length_c 24.000000
_cell_angle_alpha 100.000000
_cell_angle_beta 10.000000
_cell_angle_gamma 100.000000
_cell_volume 738.675599
_symmetry_space_group_name_H-M "P -1"
_symmetry_group_IT_number 2
_symmetry_cell_setting 'triclinic'
loop_
_space_group_symop_operation_xyz
x,y,z
-x,-y,-z
loop_
_atom_site_type_symbol
_atom_site_label
_atom_site_fract_x
_atom_site_fract_y
_atom_site_fract_z
Si Si1 0.527924 0.520042 0.053519
Si Si2 0.998691 0.671040 0.355007
Si Si3 0.528843 0.506572 0.745869
Si Si4 0.293099 0.998271 0.205990
Si Si5 0.742183 0.369443 0.292982
Si Si6 0.974172 0.188434 0.890811
Si Si7 0.316008 0.728291 0.858265
Si Si8 0.294336 0.906023 0.563835
O O1 0.455551 0.542222 0.209168
O O2 0.276895 0.464660 0.320146
O O3 0.643480 0.773928 0.902506
O O4 0.691369 0.273911 0.842454
O O5 0.952687 0.911248 0.453415
O O6 0.236491 0.571867 0.092846
O O7 0.094362 0.683370 0.174125
O O8 0.580266 0.294202 0.633603
O O9 0.761395 0.682940 0.449556
O O10 0.500000 0.000000 0.000000
O O11 0.481768 0.510151 0.627485
O O12 0.745682 0.169882 0.326071
O O13 0.795829 0.320583 0.160091
O O14 0.000000 0.500000 0.000000
O O15 0.806736 0.153630 0.039710
O O16 0.060842 0.981832 0.814844
O O17 0.516055 0.882570 0.652766
#
# Coordination Sequence:
#
# PCOD9074733 Si02
#       8
#     2   2   2   2   2   2   2   2
#     4  11  26  47  73 109 148 192 245 303 371 446
#     4  11  22  46  71 102 146 185 238 297 367 438
#     4  12  26  44  72 104 142 190 236 299 366 431
#     4  10  24  46  75 107 146 197 237 304 375 441
#     4  12  23  48  70  97 149 182 236 300 365 435
#     4  12  26  46  69 103 143 186 241 298 359 441
#     4  12  26  44  71 105 137 192 238 296 364 435
#     4  12  25  43  71 102 135 193 239 296 368 421
#
# _framework density 21.660388000000001
#
# number of rings (size 3 to 8) (size 9 to 14) (size 15 to 20)
#    0.000    0.500    6.250    2.250    1.750    6.500 
#    0.000    0.000    0.000    0.000    0.000    0.000 
#    0.000    0.000    0.000    0.000    0.000    0.000 
#
# Total GULP energy -89155.365782 kJ/mol
# GULP energy per Si atom -5572.210361 kJ/mol
# Density = 2.161109 g / cm^3
# Si number density = 21.660388 Si / 1000 Ang^3
#
#
#
# Elastic Constant Matrix: (Units=GPa)
#
#
# Indices 1 2 3 4 5 6 
#
# 1 129.3720 4.5665 17.5168 -0.4029 0.3865 -17.8257
# 2 4.5665 70.2671 22.6669 16.4855 2.8190 -15.1896
# 3 17.5168 22.6669 83.8640 19.1381 11.5142 -11.2910
# 4 -0.4029 16.4855 19.1381 12.5419 1.9008 -0.7489
# 5 0.3865 2.8190 11.5142 1.9008 36.8999 6.7815
# 6 -17.8257 -15.1896 -11.2910 -0.7489 6.7815 34.0524
#
#
#
# Elastic Compliance Matrix: (Units=1/GPa)
#
#
# Indices 1 2 3 4 5 6 
#
# 1 0.008566 0.000185 -0.002019 0.003414 -0.000394 0.004051
# 2 0.000185 0.024306 0.003822 -0.036539 -0.003389 0.012077
# 3 -0.002019 0.003822 0.021752 -0.036763 -0.006706 0.008387
# 4 0.003414 -0.036539 -0.036763 0.181072 0.009420 -0.024595
# 5 -0.000394 -0.003389 -0.006706 0.009420 0.030784 -0.009865
# 6 0.004051 0.012077 0.008387 -0.024595 -0.009865 0.041079
#
#
# Mechanical properties :
#
#
# Convention : Reuss Voigt Hill
#
# Bulk Modulus (GPa) = 17.06480 41.44482 29.25481
# Shear Modulus (GPa) = 15.47423 32.61572 24.04498
#
# Velocity S-wave (km/s) = 2.67573 3.88464 3.33542
# Velocity P-wave (km/s) = 4.17630 6.26866 5.32624
#
# Compressibility (1/GPa) = 0.05860016
#
# Stress axis : x y z
#
# Youngs Moduli (GPa) = 116.73427 41.14234 45.97199
#
# Poissons Ratio (x) = -0.00761 0.09281
# Poissons Ratio (y) = -0.02160 -0.17569
# Poissons Ratio (z) = 0.23567 -0.15723
#
# Static dielectric constant tensor:
#      x y z
#    x 1.828220 -0.044100 0.076400 
#    y -0.044100 1.906460 -0.000820 
#    z 0.076400 -0.000820 1.948460 
# 
# From -- ./inp_files/582257.got.cif
#   From: 2010.05.17/outbox.ucp.g08.bks.cvg/sg2_292_cif.got.tgz:582257.got - 2010.06.11 11:32:03.
