data_PCOD9074118
_publ_section_title
;
Structure prediction by ZEFSAII (Michael W. Deem and Ramdas Pophale) SiO2 
 PCOD9074118
Probable space group: P -1
;
_chemical_formula_sum "Si O2"
_cell_formula_units_Z 14
_cell_length_a 6.000000
_cell_length_b 15.000000
_cell_length_c 24.000000
_cell_angle_alpha 20.000000
_cell_angle_beta 100.000000
_cell_angle_gamma 110.000000
_cell_volume 616.509588
_symmetry_space_group_name_H-M "P -1"
_symmetry_group_IT_number 2
_symmetry_cell_setting 'triclinic'
loop_
_space_group_symop_operation_xyz
x,y,z
-x,-y,-z
loop_
_atom_site_type_symbol
_atom_site_label
_atom_site_fract_x
_atom_site_fract_y
_atom_site_fract_z
Si Si1 0.793964 0.853485 0.129223
Si Si2 0.898438 0.321212 0.661067
Si Si3 0.543216 0.205160 0.229071
Si Si4 0.997204 0.276964 0.259443
Si Si5 0.588543 0.270164 0.068863
Si Si6 0.250110 0.576855 0.205833
Si Si7 0.979522 0.718816 0.523812
O O1 0.914957 0.750337 0.246558
O O2 0.511360 0.616108 0.224935
O O3 0.727227 0.108894 0.997133
O O4 0.000000 0.000000 0.000000
O O5 0.000000 0.500000 0.500000
O O6 0.803297 0.493172 0.598732
O O7 0.647503 0.004640 0.814482
O O8 0.648843 0.201283 0.173959
O O9 0.706473 0.221933 0.280793
O O10 0.498218 0.484663 0.068318
O O11 0.263153 0.891414 0.405014
O O12 0.147621 0.351539 0.280700
O O13 0.157836 0.569311 0.054238
O O14 0.955443 0.990049 0.390200
O O15 0.040699 0.461171 0.315562
#
# Coordination Sequence:
#
# PCOD9074118 Si02
#       7
#     2   2   2   2   2   2   2
#     4  11  24  45  72  98 142 179 228 284 335 410
#     4  12  24  46  72 101 137 183 226 284 348 397
#     4  10  22  44  66  95 137 181 221 280 338 403
#     4  11  24  42  67  98 135 179 225 277 340 403
#     4  10  22  42  67  95 135 178 231 272 337 411
#     4  11  25  44  69 102 135 183 230 273 344 405
#     4  11  25  43  65 103 138 168 230 282 329 412
#
# _framework density 22.708487000000002
#
# number of rings (size 3 to 8) (size 9 to 14) (size 15 to 20)
#    0.000    1.143    2.857    2.571    4.000    1.714 
#    2.571    1.429    0.000    0.000    0.000    0.000 
#    0.000    0.000    0.000    0.000    0.000    0.000 
#
# Total GULP energy -77993.648523 kJ/mol
# GULP energy per Si atom -5570.974895 kJ/mol
# Density = 2.265680 g / cm^3
# Si number density = 22.708487 Si / 1000 Ang^3
#
#
#
# Elastic Constant Matrix: (Units=GPa)
#
#
# Indices 1 2 3 4 5 6 
#
# 1 14.4853 30.4492 20.9035 -5.5487 16.2686 8.8108
# 2 30.4492 181.0116 47.3115 5.7210 -4.7121 11.5666
# 3 20.9035 47.3115 104.8820 -2.0534 -8.4494 7.7696
# 4 -5.5487 5.7210 -2.0534 38.2556 5.3037 -4.8194
# 5 16.2686 -4.7121 -8.4494 5.3037 11.5692 15.5326
# 6 8.8108 11.5666 7.7696 -4.8194 15.5326 41.6266
#
#
#
# Elastic Compliance Matrix: (Units=1/GPa)
#
#
# Indices 1 2 3 4 5 6 
#
# 1 -0.011807 0.003794 0.007450 -0.014030 0.064384 -0.025594
# 2 0.003794 0.005569 -0.004137 0.001021 -0.009208 0.001976
# 3 0.007450 -0.004137 0.008999 0.003888 -0.010314 0.002192
# 4 -0.014030 0.001021 0.003888 0.022239 0.013428 -0.000476
# 5 0.064384 -0.009208 -0.010314 0.013428 -0.022745 0.000898
# 6 -0.025594 0.001976 0.002192 -0.000476 0.000898 0.028092
#
#
# Mechanical properties :
#
#
# Convention : Reuss Voigt Hill
#
# Bulk Modulus (GPa) = 58.90986 55.30082 57.10534
# Shear Modulus (GPa) = 229.45211 31.73792 130.59501
#
# Velocity S-wave (km/s) = 10.06289 3.74254 7.59172
# Velocity P-wave (km/s) = 12.68912 6.56360 10.10185
#
# Compressibility (1/GPa) = 0.01697509
#
# Stress axis : x y z
#
# Youngs Moduli (GPa) = -84.69359 179.55665 111.12904
#
# Poissons Ratio (x) = -0.68122 -0.82791
# Poissons Ratio (y) = 0.32132 0.45970
# Poissons Ratio (z) = 0.63097 0.74276
#
# Static dielectric constant tensor:
#      x y z
#    x 1.924160 -0.034780 -0.015570 
#    y -0.034780 1.769750 -0.014670 
#    z -0.015570 -0.014670 1.968580 
# 
# From -- ./inp_files/76682.got.cif
#   From: 2010.05.17/outbox.ucp.g08.bks.cvg/sg2_39_cif.got.tgz:76682.got - 2010.06.11 11:32:03.
