data_PCOD9074582
_publ_section_title
;
Structure prediction by ZEFSAII (Michael W. Deem and Ramdas Pophale) SiO2 
 PCOD9074582
Probable space group: P -1
;
_chemical_formula_sum "Si O2"
_cell_formula_units_Z 16
_cell_length_a 15.000000
_cell_length_b 9.000000
_cell_length_c 12.000000
_cell_angle_alpha 100.000000
_cell_angle_beta 90.000000
_cell_angle_gamma 30.000000
_cell_volume 759.581896
_symmetry_space_group_name_H-M "P -1"
_symmetry_group_IT_number 2
_symmetry_cell_setting 'triclinic'
loop_
_space_group_symop_operation_xyz
x,y,z
-x,-y,-z
loop_
_atom_site_type_symbol
_atom_site_label
_atom_site_fract_x
_atom_site_fract_y
_atom_site_fract_z
Si Si1 0.000672 0.453951 0.628389
Si Si2 0.445981 0.329964 0.250194
Si Si3 0.297654 0.455139 0.647810
Si Si4 0.632309 0.769415 0.076683
Si Si5 0.689605 0.699777 0.602672
Si Si6 0.336974 0.748693 0.623246
Si Si7 0.040195 0.667746 0.842202
Si Si8 0.649268 0.408076 0.959822
O O1 0.015847 0.563783 0.739088
O O2 0.000000 0.500000 0.500000
O O3 0.814117 0.630920 0.663759
O O4 0.166438 0.089902 0.608814
O O5 0.310798 0.469433 0.364921
O O6 0.586157 0.249896 0.282576
O O7 0.366629 0.507692 0.156988
O O8 0.538142 0.026912 0.195684
O O9 0.229373 0.464494 0.540301
O O10 0.303436 0.627246 0.650283
O O11 0.162121 0.608948 0.767054
O O12 0.501479 0.077228 0.623266
O O13 0.844484 0.515633 0.063822
O O14 0.630958 0.588784 0.056885
O O15 0.500000 0.000000 0.000000
O O16 0.500000 0.500000 0.500000
O O17 0.844714 0.032311 0.920155
O O18 0.500000 0.500000 0.000000
#
# Coordination Sequence:
#
# PCOD9074582 Si02
#       8
#     2   2   2   2   2   2   2   2
#     4  12  26  42  68 110 153 189 235 281 356 449
#     4  11  24  46  73 100 147 190 233 295 369 425
#     4  11  24  41  72 103 150 193 232 282 358 440
#     4  10  23  51  72  95 137 188 247 306 357 410
#     4  11  23  43  69 105 150 195 227 281 360 442
#     4  12  25  42  68 107 149 189 238 281 345 445
#     4  12  25  47  75 105 146 190 237 301 369 424
#     4  11  29  48  74 106 135 187 255 314 365 418
#
# _framework density 21.064219999999999
#
# number of rings (size 3 to 8) (size 9 to 14) (size 15 to 20)
#    0.000    0.750    5.000    1.125    8.750    0.500 
#    0.000    2.500    0.000    0.000    0.000    0.000 
#    0.000    0.000    0.000    0.000    0.000    0.000 
#
# Total GULP energy -89076.307496 kJ/mol
# GULP energy per Si atom -5567.269218 kJ/mol
# Density = 2.101628 g / cm^3
# Si number density = 21.064220 Si / 1000 Ang^3
#
#
#
# Elastic Constant Matrix: (Units=GPa)
#
#
# Indices 1 2 3 4 5 6 
#
# 1 157.5156 43.0870 30.4506 -5.9253 29.8872 4.1536
# 2 43.0870 123.1330 30.6895 -10.9164 5.9330 -4.0087
# 3 30.4506 30.6895 49.8629 -3.5776 21.5556 -2.3432
# 4 -5.9253 -10.9164 -3.5776 37.7138 -4.0600 3.3941
# 5 29.8872 5.9330 21.5556 -4.0600 44.9234 -2.0681
# 6 4.1536 -4.0087 -2.3432 3.3941 -2.0681 40.2370
#
#
#
# Elastic Compliance Matrix: (Units=1/GPa)
#
#
# Indices 1 2 3 4 5 6 
#
# 1 0.008172 -0.002237 -0.001798 0.000126 -0.004332 -0.001404
# 2 -0.002237 0.010578 -0.006412 0.002391 0.003425 0.000886
# 3 -0.001798 -0.006412 0.030551 -0.000667 -0.012643 0.000732
# 4 0.000126 0.002391 -0.000667 0.027596 0.002322 -0.002022
# 5 -0.004332 0.003425 -0.012643 0.002322 0.031033 0.001451
# 6 -0.001404 0.000886 0.000732 -0.002022 0.001451 0.025374
#
#
# Mechanical properties :
#
#
# Convention : Reuss Voigt Hill
#
# Bulk Modulus (GPa) = 35.20160 59.88509 47.54335
# Shear Modulus (GPa) = 30.54998 39.66046 35.10522
#
# Velocity S-wave (km/s) = 3.81245 4.34387 4.08681
# Velocity P-wave (km/s) = 6.01062 7.32465 6.69992
#
# Compressibility (1/GPa) = 0.02840780
#
# Stress axis : x y z
#
# Youngs Moduli (GPa) = 122.37220 94.53592 32.73190
#
# Poissons Ratio (x) = 0.21150 0.05884
# Poissons Ratio (y) = 0.27378 0.20986
# Poissons Ratio (z) = 0.21999 0.60613
#
# Static dielectric constant tensor:
#      x y z
#    x 1.794120 -0.080050 -0.086370 
#    y -0.080050 1.856370 0.037060 
#    z -0.086370 0.037060 1.956130 
# 
# From -- ./inp_files/447657.got.cif
#   From: 2010.05.17/outbox.ucp.g08.bks.cvg/sg2_224_cif.got.tgz:447657.got - 2010.06.11 11:32:03.
