data_PCOD9074471
_publ_section_title
;
Structure prediction by ZEFSAII (Michael W. Deem and Ramdas Pophale) SiO2 
 PCOD9074471
Probable space group: P -1
;
_chemical_formula_sum "Si O2"
_cell_formula_units_Z 16
_cell_length_a 18.000000
_cell_length_b 9.000000
_cell_length_c 12.000000
_cell_angle_alpha 40.000000
_cell_angle_beta 140.000000
_cell_angle_gamma 140.000000
_cell_volume 723.717541
_symmetry_space_group_name_H-M "P -1"
_symmetry_group_IT_number 2
_symmetry_cell_setting 'triclinic'
loop_
_space_group_symop_operation_xyz
x,y,z
-x,-y,-z
loop_
_atom_site_type_symbol
_atom_site_label
_atom_site_fract_x
_atom_site_fract_y
_atom_site_fract_z
Si Si1 0.000929 0.658693 0.235712
Si Si2 0.085617 0.950240 0.528079
Si Si3 0.690538 0.090958 0.582211
Si Si4 0.533533 0.222427 0.664603
Si Si5 0.722734 0.998982 0.922928
Si Si6 0.989879 0.091361 0.118725
Si Si7 0.611720 0.735593 0.326848
Si Si8 0.394941 0.453881 0.808714
O O1 0.158146 0.805795 0.332124
O O2 0.961974 0.355782 0.372079
O O3 0.952498 0.805362 0.186965
O O4 0.949855 0.719501 0.024795
O O5 0.066871 0.092389 0.315681
O O6 0.241212 0.071240 0.645621
O O7 0.000000 0.000000 0.500000
O O8 0.669801 0.960669 0.756094
O O9 0.649912 0.326609 0.400015
O O10 0.593706 0.905094 0.486166
O O11 0.633457 0.103770 0.823963
O O12 0.606462 0.511689 0.534670
O O13 0.479773 0.176028 0.756034
O O14 0.873204 0.157301 0.983520
O O15 0.721382 0.773572 0.130566
O O16 0.559427 0.620693 0.211220
O O17 0.500000 0.500000 0.000000
#
# Coordination Sequence:
#
# PCOD9074471 Si02
#       8
#     2   2   2   2   2   2   2   2
#     4  10  23  44  72 102 137 180 237 293 334 405
#     4  12  25  45  69 101 144 186 225 284 352 416
#     4  11  21  43  72  98 135 179 233 288 340 400
#     4  11  23  44  68  97 138 185 220 287 353 398
#     4  11  22  39  70  97 134 176 228 287 335 409
#     4  10  23  43  70 102 132 183 241 282 340 404
#     4  11  26  44  67 100 142 180 227 281 351 419
#     4  12  23  42  67 100 128 175 234 274 345 419
#
# _framework density 22.108073000000001
#
# number of rings (size 3 to 8) (size 9 to 14) (size 15 to 20)
#    0.000    1.000    2.500    4.500    1.750    2.000 
#    2.250    0.000    0.000    0.000    0.000    0.000 
#    0.000    0.000    0.000    0.000    0.000    0.000 
#
# Total GULP energy -89306.463000 kJ/mol
# GULP energy per Si atom -5581.653938 kJ/mol
# Density = 2.205775 g / cm^3
# Si number density = 22.108073 Si / 1000 Ang^3
#
#
#
# Elastic Constant Matrix: (Units=GPa)
#
#
# Indices 1 2 3 4 5 6 
#
# 1 156.4480 35.7245 24.8938 14.7081 -2.6535 -5.9497
# 2 35.7245 61.1479 12.1290 -4.1236 9.3259 8.6104
# 3 24.8938 12.1290 98.0861 6.2510 -8.6869 -12.5046
# 4 14.7081 -4.1236 6.2510 31.1835 -0.4337 -5.1278
# 5 -2.6535 9.3259 -8.6869 -0.4337 46.9923 3.5519
# 6 -5.9497 8.6104 -12.5046 -5.1278 3.5519 28.8095
#
#
#
# Elastic Compliance Matrix: (Units=1/GPa)
#
#
# Indices 1 2 3 4 5 6 
#
# 1 0.008236 -0.005409 -0.000787 -0.004080 0.001196 0.002102
# 2 -0.005409 0.022237 -0.003073 0.004782 -0.004663 -0.007671
# 3 -0.000787 -0.003073 0.011752 -0.001486 0.002323 0.005306
# 4 -0.004080 0.004782 -0.001486 0.035491 -0.001396 0.003573
# 5 0.001196 -0.004663 0.002323 -0.001396 0.022720 -0.000401
# 6 0.002102 -0.007671 0.005306 0.003573 -0.000401 0.040426
#
#
# Mechanical properties :
#
#
# Convention : Reuss Voigt Hill
#
# Bulk Modulus (GPa) = 42.21787 51.24183 46.72985
# Shear Modulus (GPa) = 29.88724 37.59269 33.73996
#
# Velocity S-wave (km/s) = 3.68077 4.12807 3.91082
# Velocity P-wave (km/s) = 6.09932 6.77861 6.44791
#
# Compressibility (1/GPa) = 0.02368665
#
# Stress axis : x y z
#
# Youngs Moduli (GPa) = 121.41543 44.96962 85.09379
#
# Poissons Ratio (x) = 0.24325 0.06701
# Poissons Ratio (y) = 0.65677 0.26145
# Poissons Ratio (z) = 0.09561 0.13817
#
# Static dielectric constant tensor:
#      x y z
#    x 1.832470 -0.002930 0.007290 
#    y -0.002930 1.953360 -0.018610 
#    z 0.007290 -0.018610 1.796790 
# 
# From -- ./inp_files/461826.got.cif
#   From: 2010.05.17/outbox.ucp.g08.bks.cvg/sg2_231_cif.got.tgz:461826.got - 2010.06.11 11:32:03.
