data_PCOD9074637
_publ_section_title
;
Structure prediction by ZEFSAII (Michael W. Deem and Ramdas Pophale) SiO2 
 PCOD9074637
Probable space group: P -1
;
_chemical_formula_sum "Si O2"
_cell_formula_units_Z 14
_cell_length_a 21.000000
_cell_length_b 12.000000
_cell_length_c 15.000000
_cell_angle_alpha 40.000000
_cell_angle_beta 150.000000
_cell_angle_gamma 160.000000
_cell_volume 620.704002
_symmetry_space_group_name_H-M "P -1"
_symmetry_group_IT_number 2
_symmetry_cell_setting 'triclinic'
loop_
_space_group_symop_operation_xyz
x,y,z
-x,-y,-z
loop_
_atom_site_type_symbol
_atom_site_label
_atom_site_fract_x
_atom_site_fract_y
_atom_site_fract_z
Si Si1 0.553821 0.819142 0.769248
Si Si2 0.793476 0.190392 0.008598
Si Si3 0.250322 0.179161 0.698433
Si Si4 0.773220 0.012598 0.534223
Si Si5 0.926283 0.553476 0.099257
Si Si6 0.860366 0.434764 0.503947
Si Si7 0.382993 0.476213 0.237155
O O1 0.432722 0.500894 0.785559
O O2 0.337361 0.713621 0.575282
O O3 0.801017 0.126717 0.817103
O O4 0.608665 0.890292 0.897603
O O5 0.743381 0.283131 0.961894
O O6 0.851867 0.108639 0.199008
O O7 0.000000 0.500000 0.000000
O O8 0.420546 0.338039 0.719041
O O9 0.000000 0.000000 0.500000
O O10 0.748529 0.160296 0.469976
O O11 0.004208 0.282685 0.577864
O O12 0.547075 0.721814 0.370851
O O13 0.768022 0.863536 0.697364
O O14 0.945404 0.441096 0.273203
O O15 0.814102 0.600824 0.971983
#
# Coordination Sequence:
#
# PCOD9074637 Si02
#       7
#     2   2   2   2   2   2   2
#     4  11  24  42  68  98 133 172 217 267 323 386
#     4  10  24  43  67  97 131 169 215 267 323 384
#     4  12  26  45  69  96 131 173 218 269 324 387
#     4  10  24  43  66  93 130 172 215 268 323 384
#     4  11  24  43  68  98 132 171 217 270 323 383
#     4  11  23  42  68  97 129 170 220 267 321 381
#     4  11  25  44  65  94 132 172 216 265 325 386
#
# _framework density 22.555033999999999
#
# number of rings (size 3 to 8) (size 9 to 14) (size 15 to 20)
#    0.000    1.143    0.000    5.143    0.000   18.286 
#    0.000    0.000    0.000    0.000    0.000    0.000 
#    0.000    0.000    0.000    0.000    0.000    0.000 
#
# Total GULP energy -77984.829092 kJ/mol
# GULP energy per Si atom -5570.344935 kJ/mol
# Density = 2.250370 g / cm^3
# Si number density = 22.555034 Si / 1000 Ang^3
#
#
#
# Elastic Constant Matrix: (Units=GPa)
#
#
# Indices 1 2 3 4 5 6 
#
# 1 120.9715 72.9019 57.9463 -8.5511 16.4422 10.6263
# 2 72.9019 87.4785 50.3119 -14.5663 -8.5528 6.2439
# 3 57.9463 50.3119 115.3860 -19.5750 9.0661 16.0098
# 4 -8.5511 -14.5663 -19.5750 26.7785 -3.5123 -17.0853
# 5 16.4422 -8.5528 9.0661 -3.5123 45.5553 12.5844
# 6 10.6263 6.2439 16.0098 -17.0853 12.5844 53.3227
#
#
#
# Elastic Compliance Matrix: (Units=1/GPa)
#
#
# Indices 1 2 3 4 5 6 
#
# 1 0.022472 -0.019236 -0.003175 -0.007792 -0.011393 -0.001081
# 2 -0.019236 0.033092 -0.004131 0.011718 0.014455 0.001542
# 3 -0.003175 -0.004131 0.013266 0.005832 -0.001652 -0.000608
# 4 -0.007792 0.011718 0.005832 0.055828 0.003903 0.015396
# 5 -0.011393 0.014455 -0.001652 0.003903 0.030771 -0.004938
# 6 -0.001081 0.001542 -0.000608 0.015396 -0.004938 0.025070
#
#
# Mechanical properties :
#
#
# Convention : Reuss Voigt Hill
#
# Bulk Modulus (GPa) = 63.50400 76.23960 69.87180
# Shear Modulus (GPa) = 20.93549 34.64302 27.78925
#
# Velocity S-wave (km/s) = 3.04994 3.92335 3.51389
# Velocity P-wave (km/s) = 6.37331 7.37554 6.89266
#
# Compressibility (1/GPa) = 0.01574704
#
# Stress axis : x y z
#
# Youngs Moduli (GPa) = 44.50019 30.21878 75.38301
#
# Poissons Ratio (x) = 0.58128 0.23932
# Poissons Ratio (y) = 0.85599 0.31140
# Poissons Ratio (z) = 0.14128 0.12483
#
# Static dielectric constant tensor:
#      x y z
#    x 1.784620 -0.079860 0.018520 
#    y -0.079860 1.971550 0.022130 
#    z 0.018520 0.022130 1.930750 
# 
# From -- ./inp_files/185161.got.cif
#   From: 2010.05.17/outbox.ucp.g08.bks.cvg/sg2_93_cif.got.tgz:185161.got - 2010.06.11 11:32:03.
