data_PCOD9074117
_publ_section_title
;
Structure prediction by ZEFSAII (Michael W. Deem and Ramdas Pophale) SiO2 
 PCOD9074117
Probable space group: P -1
;
_chemical_formula_sum "Si O2"
_cell_formula_units_Z 16
_cell_length_a 9.000000
_cell_length_b 9.000000
_cell_length_c 15.000000
_cell_angle_alpha 70.000000
_cell_angle_beta 130.000000
_cell_angle_gamma 90.000000
_cell_volume 832.825834
_symmetry_space_group_name_H-M "P -1"
_symmetry_group_IT_number 2
_symmetry_cell_setting 'triclinic'
loop_
_space_group_symop_operation_xyz
x,y,z
-x,-y,-z
loop_
_atom_site_type_symbol
_atom_site_label
_atom_site_fract_x
_atom_site_fract_y
_atom_site_fract_z
Si Si1 0.367860 0.572880 0.303706
Si Si2 0.894891 0.114472 0.211429
Si Si3 0.680070 0.002698 0.498924
Si Si4 0.027281 0.091461 0.900952
Si Si5 0.729054 0.638167 0.532952
Si Si6 0.178003 0.554964 0.778662
Si Si7 0.512814 0.334214 0.247622
Si Si8 0.588259 0.774931 0.957001
O O1 0.169860 0.737132 0.211062
O O2 0.580204 0.609494 0.403750
O O3 0.353341 0.429196 0.396211
O O4 0.388404 0.487794 0.231178
O O5 0.884400 0.305369 0.194523
O O6 0.654785 0.126346 0.138253
O O7 0.096513 0.013683 0.368309
O O8 0.951983 0.030474 0.152625
O O9 0.600311 0.169641 0.375692
O O10 0.500000 0.000000 0.500000
O O11 0.709570 0.832779 0.489755
O O12 0.243788 0.130328 0.982201
O O13 0.000000 0.000000 0.000000
O O14 0.971914 0.542751 0.654225
O O15 0.302730 0.619495 0.738991
O O16 0.328049 0.387002 0.913671
O O17 0.396727 0.287554 0.127283
#
# Coordination Sequence:
#
# PCOD9074117 Si02
#       8
#     2   2   2   2   2   2   2   2
#     4  11  24  43  65  98 133 170 220 269 327 395
#     4  10  24  44  68  94 133 174 216 271 333 383
#     4  11  22  41  70  99 132 170 219 277 328 386
#     4  12  28  42  66 101 133 176 223 270 327 395
#     4  10  22  42  67  93 135 176 210 270 335 380
#     4  10  23  46  69  94 129 177 222 271 328 392
#     4  11  25  41  69 101 126 173 224 269 327 395
#     4  11  25  46  68  92 136 176 221 274 328 391
#
# _framework density 19.2117
#
# number of rings (size 3 to 8) (size 9 to 14) (size 15 to 20)
#    0.000    1.250    2.500    2.625    8.750    5.500 
#    0.000    0.000    0.000    0.000    0.000    0.000 
#    0.000    0.000    0.000    0.000    0.000    0.000 
#
# Total GULP energy -89215.205025 kJ/mol
# GULP energy per Si atom -5575.950314 kJ/mol
# Density = 1.916797 g / cm^3
# Si number density = 19.211700 Si / 1000 Ang^3
#
#
#
# Elastic Constant Matrix: (Units=GPa)
#
#
# Indices 1 2 3 4 5 6 
#
# 1 91.7154 44.9779 49.2808 -2.0624 0.7144 -1.7440
# 2 44.9779 90.3456 38.0701 3.0230 -5.6397 -9.7522
# 3 49.2808 38.0701 118.5531 -4.8003 13.9180 7.3017
# 4 -2.0624 3.0230 -4.8003 44.6731 5.2163 0.5679
# 5 0.7144 -5.6397 13.9180 5.2163 44.6114 2.3430
# 6 -1.7440 -9.7522 7.3017 0.5679 2.3430 49.1388
#
#
#
# Elastic Compliance Matrix: (Units=1/GPa)
#
#
# Indices 1 2 3 4 5 6 
#
# 1 0.016597 -0.006162 -0.004951 0.000601 0.000426 0.000074
# 2 -0.006162 0.016166 -0.003305 -0.002156 0.003249 0.003351
# 3 -0.004951 -0.003305 0.012281 0.001843 -0.004255 -0.002475
# 4 0.000601 -0.002156 0.001843 0.023178 -0.003526 -0.000780
# 5 0.000426 0.003249 -0.004255 -0.003526 0.024551 0.000162
# 6 0.000074 0.003351 -0.002475 -0.000780 0.000162 0.021387
#
#
# Mechanical properties :
#
#
# Convention : Reuss Voigt Hill
#
# Bulk Modulus (GPa) = 61.69609 62.80797 62.25203
# Shear Modulus (GPa) = 33.69338 38.90368 36.29853
#
# Velocity S-wave (km/s) = 4.19238 4.50488 4.35144
# Velocity P-wave (km/s) = 7.45776 7.73448 7.59738
#
# Compressibility (1/GPa) = 0.01620848
#
# Stress axis : x y z
#
# Youngs Moduli (GPa) = 60.25248 61.85992 81.42813
#
# Poissons Ratio (x) = 0.38118 0.40311
# Poissons Ratio (y) = 0.37128 0.26910
# Poissons Ratio (z) = 0.29828 0.20443
#
# Static dielectric constant tensor:
#      x y z
#    x 1.678840 0.005850 0.014710 
#    y 0.005850 1.698760 0.010220 
#    z 0.014710 0.010220 1.671090 
# 
# From -- ./inp_files/203163.got.cif
#   From: 2010.05.17/outbox.ucp.g08.bks.cvg/sg2_102_cif.got.tgz:203163.got - 2010.06.11 11:32:03.
