data_PCOD9074553
_publ_section_title
;
Structure prediction by ZEFSAII (Michael W. Deem and Ramdas Pophale) SiO2 
 PCOD9074553
Probable space group: P -1
;
_chemical_formula_sum "Si O2"
_cell_formula_units_Z 14
_cell_length_a 9.000000
_cell_length_b 9.000000
_cell_length_c 15.000000
_cell_angle_alpha 40.000000
_cell_angle_beta 120.000000
_cell_angle_gamma 100.000000
_cell_volume 626.690879
_symmetry_space_group_name_H-M "P -1"
_symmetry_group_IT_number 2
_symmetry_cell_setting 'triclinic'
loop_
_space_group_symop_operation_xyz
x,y,z
-x,-y,-z
loop_
_atom_site_type_symbol
_atom_site_label
_atom_site_fract_x
_atom_site_fract_y
_atom_site_fract_z
Si Si1 0.387879 0.533154 0.634790
Si Si2 0.707440 0.825941 0.361304
Si Si3 0.084968 0.111906 0.073410
Si Si4 0.600847 0.346921 0.209752
Si Si5 0.796379 0.467911 0.058461
Si Si6 0.236078 0.598537 0.282183
Si Si7 0.011814 0.958111 0.290973
O O1 0.378381 0.279271 0.701685
O O2 0.359165 0.617991 0.691128
O O3 0.588772 0.523840 0.671977
O O4 0.219058 0.762606 0.436349
O O5 0.754239 0.601120 0.548575
O O6 0.887523 0.844880 0.360563
O O7 0.626833 0.084583 0.281845
O O8 0.239243 0.858252 0.202154
O O9 0.173059 0.283422 0.070257
O O10 0.954787 0.032325 0.137403
O O11 0.958205 0.292465 0.877600
O O12 0.732065 0.456153 0.145183
O O13 0.385410 0.523258 0.052829
O O14 0.973792 0.221798 0.205726
#
# Coordination Sequence:
#
# PCOD9074553 Si02
#       7
#     2   2   2   2   2   2   2
#     4  12  25  43  73 105 136 180 231 288 340 406
#     4  11  25  47  72 102 142 178 232 293 330 415
#     4  11  24  44  69  96 144 186 223 289 343 410
#     4  10  25  44  74 102 139 181 237 275 352 400
#     4  10  23  46  66 103 144 181 225 292 334 423
#     4  11  26  43  70 102 139 183 236 274 355 405
#     4  11  25  42  72 101 138 183 231 279 352 400
#
# _framework density 22.339562000000001
#
# number of rings (size 3 to 8) (size 9 to 14) (size 15 to 20)
#    0.000    1.143    1.429    3.000    6.000    2.857 
#    0.000    7.857    0.000    0.000    0.000    0.000 
#    0.000    0.000    0.000    0.000    0.000    0.000 
#
# Total GULP energy -77937.897965 kJ/mol
# GULP energy per Si atom -5566.992712 kJ/mol
# Density = 2.228872 g / cm^3
# Si number density = 22.339562 Si / 1000 Ang^3
#
#
#
# Elastic Constant Matrix: (Units=GPa)
#
#
# Indices 1 2 3 4 5 6 
#
# 1 83.6699 37.0381 47.9343 -11.8496 5.7647 -15.3147
# 2 37.0381 87.2626 32.4146 10.9718 -7.3602 -14.1779
# 3 47.9343 32.4146 69.9482 -3.9786 -8.9468 -6.4759
# 4 -11.8496 10.9718 -3.9786 30.4895 -13.4818 -11.9651
# 5 5.7647 -7.3602 -8.9468 -13.4818 22.0550 -6.2432
# 6 -15.3147 -14.1779 -6.4759 -11.9651 -6.2432 23.2108
#
#
#
# Elastic Compliance Matrix: (Units=1/GPa)
#
#
# Indices 1 2 3 4 5 6 
#
# 1 0.031504 -0.006288 -0.011423 0.033980 0.015866 0.035543
# 2 -0.006288 0.016809 -0.003534 -0.007535 0.001696 0.001704
# 3 -0.011423 -0.003534 0.032474 0.027512 0.038569 0.023922
# 4 0.033980 -0.007535 0.027512 0.190521 0.163709 0.167741
# 5 0.015866 0.001696 0.038569 0.163709 0.203137 0.161296
# 6 0.035543 0.001704 0.023922 0.167741 0.161296 0.204105
#
#
# Mechanical properties :
#
#
# Convention : Reuss Voigt Hill
#
# Bulk Modulus (GPa) = 26.11121 52.85050 39.48085
# Shear Modulus (GPa) = 6.81380 23.38397 15.09889
#
# Velocity S-wave (km/s) = 1.74835 3.23886 2.60259
# Velocity P-wave (km/s) = 3.97358 6.13972 5.17134
#
# Compressibility (1/GPa) = 0.03829773
#
# Stress axis : x y z
#
# Youngs Moduli (GPa) = 31.74202 59.49299 30.79342
#
# Poissons Ratio (x) = 0.37409 0.35174
# Poissons Ratio (y) = 0.19959 0.10883
# Poissons Ratio (z) = 0.36258 0.21026
#
# Static dielectric constant tensor:
#      x y z
#    x 1.816570 -0.035590 -0.037660 
#    y -0.035590 1.915750 0.029650 
#    z -0.037660 0.029650 1.846590 
# 
# From -- ./inp_files/158996.got.cif
#   From: 2010.05.17/outbox.ucp.g08.bks.cvg/sg2_80_cif.got.tgz:158996.got - 2010.06.11 11:32:03.
