data_PCOD9074778
_publ_section_title
;
Structure prediction by ZEFSAII (Michael W. Deem and Ramdas Pophale) SiO2 
 PCOD9074778
Probable space group: P -1
;
_chemical_formula_sum "Si O2"
_cell_formula_units_Z 16
_cell_length_a 9.000000
_cell_length_b 18.000000
_cell_length_c 12.000000
_cell_angle_alpha 140.000000
_cell_angle_beta 100.000000
_cell_angle_gamma 50.000000
_cell_volume 729.599496
_symmetry_space_group_name_H-M "P -1"
_symmetry_group_IT_number 2
_symmetry_cell_setting 'triclinic'
loop_
_space_group_symop_operation_xyz
x,y,z
-x,-y,-z
loop_
_atom_site_type_symbol
_atom_site_label
_atom_site_fract_x
_atom_site_fract_y
_atom_site_fract_z
Si Si1 0.565572 0.680915 0.001888
Si Si2 0.650290 0.376894 0.714535
Si Si3 0.021849 0.002165 0.182120
Si Si4 0.527199 0.101499 0.552280
Si Si5 0.084596 0.464588 0.772114
Si Si6 0.237939 0.301944 0.366253
Si Si7 0.801521 0.950799 0.946876
Si Si8 0.101400 0.710911 0.124567
O O1 0.699752 0.474227 0.787630
O O2 0.785537 0.619892 0.901076
O O3 0.500884 0.776556 0.223264
O O4 0.292715 0.837708 0.089451
O O5 0.782783 0.296076 0.760601
O O6 0.792224 0.194854 0.448720
O O7 0.341907 0.567884 0.905632
O O8 0.074670 0.057215 0.149541
O O9 0.950250 0.917944 0.032658
O O10 0.274138 0.262748 0.630259
O O11 0.500000 0.000000 0.500000
O O12 0.804287 0.935259 0.335068
O O13 0.218369 0.378118 0.570024
O O14 0.081372 0.584573 0.980583
O O15 0.000000 0.500000 0.500000
O O16 0.194388 0.189376 0.235324
O O17 0.504517 0.160147 0.175376
#
# Coordination Sequence:
#
# PCOD9074778 Si02
#       8
#     2   2   2   2   2   2   2   2
#     4  12  24  40  68  99 135 181 223 266 336 408
#     4  11  24  41  63  98 137 177 220 271 334 409
#     4  11  24  45  70  98 137 180 221 285 337 393
#     4  12  24  41  67  99 139 177 222 271 331 401
#     4  12  25  42  70 101 134 177 223 278 331 400
#     4  11  25  46  72  99 133 176 230 283 337 393
#     4  10  25  46  70 100 131 173 235 282 334 396
#     4  11  24  41  63  97 139 175 219 268 334 405
#
# _framework density 21.929839999999999
#
# number of rings (size 3 to 8) (size 9 to 14) (size 15 to 20)
#    0.000    0.750    3.750    3.375    1.750    6.500 
#    0.000    3.125    0.000    0.000    0.000    0.000 
#    0.000    0.000    0.000    0.000    0.000    0.000 
#
# Total GULP energy -89293.352915 kJ/mol
# GULP energy per Si atom -5580.834557 kJ/mol
# Density = 2.187993 g / cm^3
# Si number density = 21.929840 Si / 1000 Ang^3
#
#
#
# Elastic Constant Matrix: (Units=GPa)
#
#
# Indices 1 2 3 4 5 6 
#
# 1 76.2604 2.2157 14.0585 1.0396 -19.0968 -20.9175
# 2 2.2157 80.3377 32.4457 2.5072 -2.3375 -16.9623
# 3 14.0585 32.4457 137.4621 -0.8192 -26.5678 -10.5449
# 4 1.0396 2.5072 -0.8192 28.2497 -4.3169 -4.4970
# 5 -19.0968 -2.3375 -26.5678 -4.3169 43.2847 4.9636
# 6 -20.9175 -16.9623 -10.5449 -4.4970 4.9636 27.6408
#
#
#
# Elastic Compliance Matrix: (Units=1/GPa)
#
#
# Indices 1 2 3 4 5 6 
#
# 1 0.018922 0.002842 -0.000080 0.002532 0.006963 0.015195
# 2 0.002842 0.016041 -0.003490 -0.000093 -0.001279 0.010878
# 3 -0.000080 -0.003490 0.009228 0.001516 0.005526 0.000573
# 4 0.002532 -0.000093 0.001516 0.037320 0.004889 0.007631
# 5 0.006963 -0.001279 0.005526 0.004889 0.029750 0.002046
# 6 0.015195 0.010878 0.000573 0.007631 0.002046 0.055445
#
#
# Mechanical properties :
#
#
# Convention : Reuss Voigt Hill
#
# Bulk Modulus (GPa) = 23.39996 43.50000 33.44998
# Shear Modulus (GPa) = 27.41138 36.19106 31.80122
#
# Velocity S-wave (km/s) = 3.53931 4.06681 3.81219
# Velocity P-wave (km/s) = 5.23410 6.47541 5.88756
#
# Compressibility (1/GPa) = 0.04273512
#
# Stress axis : x y z
#
# Youngs Moduli (GPa) = 52.84878 62.34026 108.37042
#
# Poissons Ratio (x) = -0.17717 0.00862
# Poissons Ratio (y) = -0.15020 0.37823
# Poissons Ratio (z) = 0.00420 0.21758
#
# Static dielectric constant tensor:
#      x y z
#    x 1.749870 0.266560 -0.022610 
#    y 0.266560 1.413790 0.008490 
#    z -0.022610 0.008490 1.749790 
# 
# From -- ./inp_files/288692.got.cif
#   From: 2010.05.17/outbox.ucp.g08.bks.cvg/sg2_145_cif.got.tgz:288692.got - 2010.06.11 11:32:03.
