data_PCOD9074948
_publ_section_title
;
Structure prediction by ZEFSAII (Michael W. Deem and Ramdas Pophale) SiO2 
 PCOD9074948
Probable space group: P -1
;
_chemical_formula_sum "Si O2"
_cell_formula_units_Z 16
_cell_length_a 12.000000
_cell_length_b 12.000000
_cell_length_c 21.000000
_cell_angle_alpha 30.000000
_cell_angle_beta 30.000000
_cell_angle_gamma 40.000000
_cell_volume 754.441492
_symmetry_space_group_name_H-M "P -1"
_symmetry_group_IT_number 2
_symmetry_cell_setting 'triclinic'
loop_
_space_group_symop_operation_xyz
x,y,z
-x,-y,-z
loop_
_atom_site_type_symbol
_atom_site_label
_atom_site_fract_x
_atom_site_fract_y
_atom_site_fract_z
Si Si1 0.812116 0.876177 0.693938
Si Si2 0.022411 0.903436 0.709937
Si Si3 0.832609 0.497809 0.782264
Si Si4 0.303332 0.155437 0.988487
Si Si5 0.729410 0.566642 0.324455
Si Si6 0.937342 0.434191 0.492118
Si Si7 0.670885 0.015845 0.082725
Si Si8 0.431670 0.597421 0.649196
O O1 0.709604 0.699515 0.782859
O O2 0.591968 0.015798 0.759268
O O3 0.924090 0.802710 0.742823
O O4 0.000000 0.000000 0.500000
O O5 0.288349 0.831180 0.617427
O O6 0.907921 0.825887 0.869533
O O7 0.942097 0.165486 0.618214
O O8 0.069887 0.526322 0.685454
O O9 0.875601 0.520753 0.674832
O O10 0.734832 0.257907 0.952805
O O11 0.382752 0.404900 0.818862
O O12 0.500000 0.000000 0.000000
O O13 0.268939 0.044540 0.990751
O O14 0.500000 0.500000 0.500000
O O15 0.689626 0.487026 0.312073
O O16 0.780823 0.824326 0.167233
O O17 0.701378 0.570220 0.523545
O O18 0.000000 0.500000 0.500000
#
# Coordination Sequence:
#
# PCOD9074948 Si02
#       8
#     2   2   2   2   2   2   2   2
#     4  12  23  41  69 101 132 179 238 283 344 424
#     4  12  23  43  70 101 133 183 244 287 337 425
#     4  12  24  42  65 101 142 176 229 295 357 411
#     4  11  21  42  69  95 137 185 231 286 344 417
#     4  11  21  41  69  97 133 180 235 279 340 424
#     4  12  26  43  69  98 142 186 230 286 359 417
#     4  11  25  41  66 101 139 182 227 291 359 404
#     4  11  24  41  69 103 130 183 242 290 338 418
#
# _framework density 21.207740999999999
#
# number of rings (size 3 to 8) (size 9 to 14) (size 15 to 20)
#    0.000    0.500    6.250    3.375    0.000    0.500 
#    0.000    0.000    0.000    0.000    0.000    0.000 
#    0.000    0.000    0.000    0.000    0.000    0.000 
#
# Total GULP energy -89115.161021 kJ/mol
# GULP energy per Si atom -5569.697564 kJ/mol
# Density = 2.115947 g / cm^3
# Si number density = 21.207741 Si / 1000 Ang^3
#
#
#
# Elastic Constant Matrix: (Units=GPa)
#
#
# Indices 1 2 3 4 5 6 
#
# 1 77.4808 35.2158 13.3208 2.7260 5.3997 13.5123
# 2 35.2158 100.0835 21.2833 9.0761 9.3469 11.9023
# 3 13.3208 21.2833 75.0860 5.1152 11.3675 26.4171
# 4 2.7260 9.0761 5.1152 29.7080 6.3065 -5.5572
# 5 5.3997 9.3469 11.3675 6.3065 28.7765 2.2840
# 6 13.5123 11.9023 26.4171 -5.5572 2.2840 38.0796
#
#
#
# Elastic Compliance Matrix: (Units=1/GPa)
#
#
# Indices 1 2 3 4 5 6 
#
# 1 0.015986 -0.005027 0.000309 -0.000580 -0.001017 -0.004339
# 2 -0.005027 0.012728 -0.001802 -0.002990 -0.001722 -0.001277
# 3 0.000309 -0.001802 0.019581 -0.004258 -0.005208 -0.013439
# 4 -0.000580 -0.002990 -0.004258 0.038636 -0.006509 0.010123
# 5 -0.001017 -0.001722 -0.005208 -0.006509 0.038887 0.001230
# 6 -0.004339 -0.001277 -0.013439 0.010123 0.001230 0.038927
#
#
# Mechanical properties :
#
#
# Convention : Reuss Voigt Hill
#
# Bulk Modulus (GPa) = 28.36497 43.58778 35.97638
# Shear Modulus (GPa) = 26.38026 31.50151 28.94089
#
# Velocity S-wave (km/s) = 3.53072 3.85824 3.69811
# Velocity P-wave (km/s) = 5.47952 6.35967 5.93593
#
# Compressibility (1/GPa) = 0.03525475
#
# Stress axis : x y z
#
# Youngs Moduli (GPa) = 62.55394 78.56938 51.07050
#
# Poissons Ratio (x) = 0.39497 -0.01579
# Poissons Ratio (y) = 0.31446 0.09203
# Poissons Ratio (z) = -0.01934 0.14158
#
# Static dielectric constant tensor:
#      x y z
#    x 1.720570 -0.072300 -0.005880 
#    y -0.072300 1.897900 -0.046900 
#    z -0.005880 -0.046900 1.777660 
# 
# From -- ./inp_files/176370.got.cif
#   From: 2010.05.17/outbox.ucp.g08.bks.cvg/sg2_89_cif.got.tgz:176370.got - 2010.06.11 11:32:03.
