data_PCOD9074881
_publ_section_title
;
Structure prediction by ZEFSAII (Michael W. Deem and Ramdas Pophale) SiO2 
 PCOD9074881
Probable space group: P -1
;
_chemical_formula_sum "Si O2"
_cell_formula_units_Z 14
_cell_length_a 15.000000
_cell_length_b 15.000000
_cell_length_c 24.000000
_cell_angle_alpha 20.000000
_cell_angle_beta 20.000000
_cell_angle_gamma 30.000000
_cell_volume 624.976433
_symmetry_space_group_name_H-M "P -1"
_symmetry_group_IT_number 2
_symmetry_cell_setting 'triclinic'
loop_
_space_group_symop_operation_xyz
x,y,z
-x,-y,-z
loop_
_atom_site_type_symbol
_atom_site_label
_atom_site_fract_x
_atom_site_fract_y
_atom_site_fract_z
Si Si1 0.863195 0.157334 0.351165
Si Si2 0.065387 0.258576 0.771667
Si Si3 0.957708 0.683629 0.653804
Si Si4 0.349884 0.546034 0.867507
Si Si5 0.626180 0.276082 0.527666
Si Si6 0.591522 0.942550 0.405465
Si Si7 0.549222 0.314714 0.991936
O O1 0.670383 0.291924 0.426538
O O2 0.696887 0.050070 0.457633
O O3 0.940637 0.919973 0.482598
O O4 0.122060 0.373791 0.067022
O O5 0.143535 0.490534 0.632746
O O6 0.239405 0.166703 0.676144
O O7 0.842113 0.400586 0.788701
O O8 0.000000 0.000000 0.000000
O O9 0.089015 0.745238 0.600485
O O10 0.661551 0.567135 0.914716
O O11 0.552272 0.725858 0.603856
O O12 0.266445 0.777483 0.819983
O O13 0.484952 0.365096 0.936615
O O14 0.500000 0.500000 0.500000
O O15 0.473459 0.993003 0.799680
#
# Coordination Sequence:
#
# PCOD9074881 Si02
#       7
#     2   2   2   2   2   2   2
#     4  11  21  43  67  90 128 168 211 262 319 374
#     4  12  24  39  62  97 132 160 211 275 315 368
#     4  11  20  39  62  94 125 159 212 255 318 390
#     4  11  23  45  67  88 129 173 217 252 320 385
#     4  11  21  35  62  98 125 155 210 265 310 378
#     4  11  26  42  64  97 124 169 221 261 307 384
#     4  11  21  38  63  91 126 170 204 255 325 375
#
# _framework density 22.400845
#
# number of rings (size 3 to 8) (size 9 to 14) (size 15 to 20)
#    0.000    0.857    2.857    6.857    2.000    0.571 
#    0.000    0.714    0.000    0.000    0.000    0.000 
#    0.000    0.000    0.000    0.000    0.000    0.000 
#
# Total GULP energy -77982.125999 kJ/mol
# GULP energy per Si atom -5570.151857 kJ/mol
# Density = 2.234986 g / cm^3
# Si number density = 22.400845 Si / 1000 Ang^3
#
#
#
# Elastic Constant Matrix: (Units=GPa)
#
#
# Indices 1 2 3 4 5 6 
#
# 1 47.6424 -5.8333 3.0260 17.8092 -20.1819 0.6649
# 2 -5.8333 74.5890 5.2064 13.7290 1.7626 18.5487
# 3 3.0260 5.2064 38.2122 -7.4916 -0.1307 -2.2632
# 4 17.8092 13.7290 -7.4916 3.6542 -4.2371 -9.1513
# 5 -20.1819 1.7626 -0.1307 -4.2371 33.8087 2.0860
# 6 0.6649 18.5487 -2.2632 -9.1513 2.0860 23.8774
#
#
#
# Elastic Compliance Matrix: (Units=1/GPa)
#
#
# Indices 1 2 3 4 5 6 
#
# 1 0.014359 -0.008309 0.006111 0.026253 0.011350 0.015704
# 2 -0.008309 0.008093 0.003782 0.020841 -0.002913 0.002545
# 3 0.006111 0.003782 0.021544 -0.016274 0.001956 -0.007474
# 4 0.026253 0.020841 -0.016274 -0.046824 0.010959 -0.037367
# 5 0.011350 -0.002913 0.001956 0.010959 0.037699 0.003039
# 6 0.015704 0.002545 -0.007474 -0.037367 0.003039 0.024171
#
#
# Mechanical properties :
#
#
# Convention : Reuss Voigt Hill
#
# Bulk Modulus (GPa) = 21.20282 18.36017 19.78149
# Shear Modulus (GPa) = 69.83657 22.80436 46.32047
#
# Velocity S-wave (km/s) = 5.58959 3.19409 4.55224
# Velocity P-wave (km/s) = 7.15149 4.67086 6.03990
#
# Compressibility (1/GPa) = 0.04716355
#
# Stress axis : x y z
#
# Youngs Moduli (GPa) = 69.64068 123.56562 46.41690
#
# Poissons Ratio (x) = 1.02673 -0.28365
# Poissons Ratio (y) = 0.57866 -0.17555
# Poissons Ratio (z) = -0.42556 -0.46733
#
# Static dielectric constant tensor:
#      x y z
#    x 1.985480 0.047840 -0.167410 
#    y 0.047840 1.855430 0.025260 
#    z -0.167410 0.025260 1.988590 
# 
# From -- ./inp_files/227047.got.cif
#   From: 2010.05.17/outbox.ucp.g08.bks.cvg/sg2_114_cif.got.tgz:227047.got - 2010.06.11 11:32:03.
