data_PCOD9074310
_publ_section_title
;
Structure prediction by ZEFSAII (Michael W. Deem and Ramdas Pophale) SiO2 
 PCOD9074310
Probable space group: P -1
;
_chemical_formula_sum "Si O2"
_cell_formula_units_Z 16
_cell_length_a 9.000000
_cell_length_b 15.000000
_cell_length_c 9.000000
_cell_angle_alpha 40.000000
_cell_angle_beta 70.000000
_cell_angle_gamma 70.000000
_cell_volume 727.419504
_symmetry_space_group_name_H-M "P -1"
_symmetry_group_IT_number 2
_symmetry_cell_setting 'triclinic'
loop_
_space_group_symop_operation_xyz
x,y,z
-x,-y,-z
loop_
_atom_site_type_symbol
_atom_site_label
_atom_site_fract_x
_atom_site_fract_y
_atom_site_fract_z
Si Si1 0.879841 0.762785 0.105338
Si Si2 0.786708 0.230275 0.189349
Si Si3 0.703972 0.949602 0.729240
Si Si4 0.662827 0.094075 0.126718
Si Si5 0.181964 0.198404 0.417035
Si Si6 0.090787 0.759991 0.325304
Si Si7 0.335327 0.478976 0.999210
Si Si8 0.675861 0.524658 0.349357
O O1 0.765441 0.647315 0.239605
O O2 0.950801 0.749861 0.263423
O O3 0.773024 0.908924 0.919143
O O4 0.039332 0.772110 0.940815
O O5 0.674482 0.207258 0.112414
O O6 0.764931 0.374812 0.102736
O O7 0.745510 0.101243 0.470502
O O8 0.520483 0.919296 0.830292
O O9 0.793136 0.841504 0.713972
O O10 0.727130 0.940214 0.360985
O O11 0.788250 0.135150 0.908736
O O12 0.002514 0.209720 0.526622
O O13 0.257998 0.339694 0.249419
O O14 0.201622 0.613215 0.484784
O O15 0.344482 0.463623 0.837246
O O16 0.500000 0.500000 0.000000
O O17 0.500000 0.500000 0.500000
#
# Coordination Sequence:
#
# PCOD9074310 Si02
#       8
#     2   2   2   2   2   2   2   2
#     4  11  24  43  69  98 141 186 230 281 352 416
#     4  10  23  40  71 104 136 181 235 292 342 414
#     4  11  21  44  74 100 140 186 237 285 348 411
#     4  10  22  46  72 101 143 190 227 285 356 412
#     4  11  23  43  74 102 140 180 238 289 343 405
#     4  11  26  44  70 104 143 185 233 285 348 419
#     4  12  26  43  73 106 136 175 243 293 345 410
#     4  12  28  47  70 101 146 189 225 290 360 418
#
# _framework density 21.995560999999999
#
# number of rings (size 3 to 8) (size 9 to 14) (size 15 to 20)
#    0.000    1.000    1.250    5.625    7.000    1.000 
#    2.250    0.625    0.000    0.000    0.000    0.000 
#    0.000    0.000    0.000    0.000    0.000    0.000 
#
# Total GULP energy -89405.580521 kJ/mol
# GULP energy per Si atom -5587.848783 kJ/mol
# Density = 2.194550 g / cm^3
# Si number density = 21.995561 Si / 1000 Ang^3
#
#
#
# Elastic Constant Matrix: (Units=GPa)
#
#
# Indices 1 2 3 4 5 6 
#
# 1 99.7364 23.8604 41.9654 16.7048 -11.5409 -0.9981
# 2 23.8604 83.1249 32.2879 -10.8047 -13.9241 2.2917
# 3 41.9654 32.2879 121.6922 -2.8830 -19.5719 5.6423
# 4 16.7048 -10.8047 -2.8830 30.5091 -2.4281 -13.0945
# 5 -11.5409 -13.9241 -19.5719 -2.4281 46.1987 -8.3704
# 6 -0.9981 2.2917 5.6423 -13.0945 -8.3704 32.0226
#
#
#
# Elastic Compliance Matrix: (Units=1/GPa)
#
#
# Indices 1 2 3 4 5 6 
#
# 1 0.014507 -0.004008 -0.004136 -0.011184 -0.000511 -0.003239
# 2 -0.004008 0.015847 -0.002119 0.009729 0.004145 0.004176
# 3 -0.004136 -0.002119 0.010759 0.002803 0.003046 0.000069
# 4 -0.011184 0.009729 0.002803 0.052768 0.008114 0.022160
# 5 -0.000511 0.004145 0.003046 0.008114 0.026171 0.009310
# 6 -0.003239 0.004176 0.000069 0.022160 0.009310 0.042311
#
#
# Mechanical properties :
#
#
# Convention : Reuss Voigt Hill
#
# Bulk Modulus (GPa) = 48.57285 55.64232 52.10759
# Shear Modulus (GPa) = 26.35010 35.50875 30.92942
#
# Velocity S-wave (km/s) = 3.46493 4.02227 3.75396
# Velocity P-wave (km/s) = 6.17565 6.85007 6.52158
#
# Compressibility (1/GPa) = 0.02058763
#
# Stress axis : x y z
#
# Youngs Moduli (GPa) = 68.93044 63.10200 92.94321
#
# Poissons Ratio (x) = 0.25288 0.38446
# Poissons Ratio (y) = 0.27624 0.19696
# Poissons Ratio (z) = 0.28513 0.13372
#
# Static dielectric constant tensor:
#      x y z
#    x 1.826280 -0.032460 0.049810 
#    y -0.032460 1.831060 0.012970 
#    z 0.049810 0.012970 1.847830 
# 
# From -- ./inp_files/205022.got.cif
#   From: 2010.05.17/outbox.ucp.g08.bks.cvg/sg2_103_cif.got.tgz:205022.got - 2010.06.11 11:32:03.
