data_PCOD9074209
_publ_section_title
;
Structure prediction by ZEFSAII (Michael W. Deem and Ramdas Pophale) SiO2 
 PCOD9074209
Probable space group: P -1
;
_chemical_formula_sum "Si O2"
_cell_formula_units_Z 16
_cell_length_a 6.000000
_cell_length_b 15.000000
_cell_length_c 12.000000
_cell_angle_alpha 130.000000
_cell_angle_beta 90.000000
_cell_angle_gamma 70.000000
_cell_volume 740.289630
_symmetry_space_group_name_H-M "P -1"
_symmetry_group_IT_number 2
_symmetry_cell_setting 'triclinic'
loop_
_space_group_symop_operation_xyz
x,y,z
-x,-y,-z
loop_
_atom_site_type_symbol
_atom_site_label
_atom_site_fract_x
_atom_site_fract_y
_atom_site_fract_z
Si Si1 0.133219 0.548927 0.444765
Si Si2 0.039914 0.223015 0.981503
Si Si3 0.284735 0.769626 0.654536
Si Si4 0.494618 0.732367 0.860706
Si Si5 0.689518 0.665696 0.372639
Si Si6 0.608798 0.102966 0.593706
Si Si7 0.221677 0.532711 0.968647
Si Si8 0.011403 0.996883 0.686622
O O1 0.219120 0.649985 0.580174
O O2 0.354184 0.420986 0.289644
O O3 0.000000 0.500000 0.500000
O O4 0.948933 0.624245 0.403156
O O5 0.775167 0.241568 0.059434
O O6 0.937189 0.319371 0.952688
O O7 0.278196 0.237170 0.055922
O O8 0.131874 0.081160 0.813424
O O9 0.400294 0.797919 0.790336
O O10 0.489468 0.721266 0.516708
O O11 0.046092 0.890214 0.695886
O O12 0.612557 0.764506 0.347100
O O13 0.703813 0.539875 0.209046
O O14 0.739846 0.085141 0.701188
O O15 0.500000 0.000000 0.500000
O O16 0.822851 0.074861 0.478420
O O17 0.500000 0.500000 0.000000
O O18 0.000000 0.500000 0.000000
#
# Coordination Sequence:
#
# PCOD9074209 Si02
#       8
#     2   2   2   2   2   2   2   2
#     4  12  23  43  72 106 140 183 236 305 354 422
#     4  12  27  48  71 103 151 193 232 292 362 436
#     4  11  25  44  72 104 138 184 242 297 355 424
#     4  12  26  45  73 106 147 186 238 291 364 429
#     4  11  24  41  70 101 135 183 235 293 358 411
#     4  10  22  43  71  98 134 182 245 299 344 414
#     4  12  27  44  67 101 141 185 236 286 355 425
#     4  10  25  45  69 102 138 190 239 294 357 422
#
# _framework density 21.613161999999999
#
# number of rings (size 3 to 8) (size 9 to 14) (size 15 to 20)
#    0.000    0.750    2.500    4.125    5.250    1.000 
#    0.000    0.000    0.000    0.000    0.000    0.000 
#    0.000    0.000    0.000    0.000    0.000    0.000 
#
# Total GULP energy -89119.982180 kJ/mol
# GULP energy per Si atom -5569.998886 kJ/mol
# Density = 2.156397 g / cm^3
# Si number density = 21.613162 Si / 1000 Ang^3
#
#
#
# Elastic Constant Matrix: (Units=GPa)
#
#
# Indices 1 2 3 4 5 6 
#
# 1 118.6324 39.0235 15.7534 -26.1719 26.6038 -21.2276
# 2 39.0235 126.6325 12.7538 -4.8451 12.4043 -21.4627
# 3 15.7534 12.7538 54.4339 -13.5077 17.6026 -5.8672
# 4 -26.1719 -4.8451 -13.5077 32.7214 1.7566 9.3252
# 5 26.6038 12.4043 17.6026 1.7566 52.2103 -9.0573
# 6 -21.2276 -21.4627 -5.8672 9.3252 -9.0573 51.4253
#
#
#
# Elastic Compliance Matrix: (Units=1/GPa)
#
#
# Indices 1 2 3 4 5 6 
#
# 1 0.013378 -0.003004 0.001952 0.011071 -0.006914 0.001266
# 2 -0.003004 0.009367 -0.001835 -0.002668 0.000541 0.003039
# 3 0.001952 -0.001835 0.024108 0.012031 -0.009269 -0.001024
# 4 0.011071 -0.002668 0.012031 0.046203 -0.011588 -0.005590
# 5 -0.006914 0.000541 -0.009269 -0.011588 0.026601 0.003101
# 6 0.001266 0.003039 -0.001024 -0.005590 0.003101 0.022680
#
#
# Mechanical properties :
#
#
# Convention : Reuss Voigt Hill
#
# Bulk Modulus (GPa) = 24.34265 48.30669 36.32467
# Shear Modulus (GPa) = 30.90165 42.74928 36.82546
#
# Velocity S-wave (km/s) = 3.78532 4.45222 4.13224
# Velocity P-wave (km/s) = 5.51291 6.98776 6.29368
#
# Compressibility (1/GPa) = 0.04108017
#
# Stress axis : x y z
#
# Youngs Moduli (GPa) = 74.75093 106.75341 41.47927
#
# Poissons Ratio (x) = 0.32066 -0.08096
# Poissons Ratio (y) = 0.22453 0.07611
# Poissons Ratio (z) = -0.14590 0.19587
#
# Static dielectric constant tensor:
#      x y z
#    x 1.833380 0.017180 -0.003190 
#    y 0.017180 2.571700 0.444200 
#    z -0.003190 0.444200 2.068730 
# 
# From -- ./inp_files/368063.got.cif
#   From: 2010.05.17/outbox.ucp.g08.bks.cvg/sg2_185_cif.got.tgz:368063.got - 2010.06.11 11:32:03.
