data_PCOD9074564
_publ_section_title
;
Structure prediction by ZEFSAII (Michael W. Deem and Ramdas Pophale) SiO2 
 PCOD9074564
Probable space group: P -1
;
_chemical_formula_sum "Si O2"
_cell_formula_units_Z 16
_cell_length_a 9.000000
_cell_length_b 12.000000
_cell_length_c 18.000000
_cell_angle_alpha 140.000000
_cell_angle_beta 50.000000
_cell_angle_gamma 100.000000
_cell_volume 729.599496
_symmetry_space_group_name_H-M "P -1"
_symmetry_group_IT_number 2
_symmetry_cell_setting 'triclinic'
loop_
_space_group_symop_operation_xyz
x,y,z
-x,-y,-z
loop_
_atom_site_type_symbol
_atom_site_label
_atom_site_fract_x
_atom_site_fract_y
_atom_site_fract_z
Si Si1 0.468019 0.532179 0.415597
Si Si2 0.702449 0.668097 0.046250
Si Si3 0.677048 0.612734 0.858557
Si Si4 0.188378 0.051273 0.782045
Si Si5 0.673889 0.160853 0.046165
Si Si6 0.243355 0.831404 0.387274
Si Si7 0.808220 0.831352 0.316492
Si Si8 0.942257 0.319994 0.253920
O O1 0.486256 0.398385 0.270942
O O2 0.752635 0.363563 0.272830
O O3 0.251070 0.578752 0.562754
O O4 0.385153 0.782036 0.562557
O O5 0.603201 0.668281 0.997460
O O6 0.985346 0.419041 0.840650
O O7 0.718827 0.867622 0.144775
O O8 0.498964 0.735580 0.210150
O O9 0.471266 0.808520 0.966814
O O10 0.716658 0.388511 0.714571
O O11 0.944563 0.557863 0.736542
O O12 0.126948 0.201644 0.807212
O O13 0.924424 0.120856 0.923921
O O14 0.804316 0.939046 0.942620
O O15 0.170306 0.995621 0.563110
O O16 0.000000 0.000000 0.500000
O O17 0.500000 0.000000 0.500000
#
# Coordination Sequence:
#
# PCOD9074564 Si02
#       8
#     2   2   2   2   2   2   2   2
#     4  10  23  46  73 101 134 171 236 285 342 408
#     4  12  27  46  66 103 142 188 232 283 341 414
#     4  12  26  44  70  96 147 180 224 278 353 411
#     4  11  25  41  73  99 135 179 231 286 342 401
#     4  11  24  45  69 104 133 179 226 287 344 411
#     4  12  27  46  68 103 144 188 230 279 344 417
#     4  12  26  45  71 101 140 183 240 286 336 406
#     4  10  24  45  69 102 134 176 229 286 343 412
#
# _framework density 21.929839999999999
#
# number of rings (size 3 to 8) (size 9 to 14) (size 15 to 20)
#    0.000    0.750    2.500    3.750    8.750    2.500 
#    0.000    0.000    0.000    0.000    0.000    0.000 
#    0.000    0.000    0.000    0.000    0.000    0.000 
#
# Total GULP energy -89327.296581 kJ/mol
# GULP energy per Si atom -5582.956036 kJ/mol
# Density = 2.187993 g / cm^3
# Si number density = 21.929840 Si / 1000 Ang^3
#
#
#
# Elastic Constant Matrix: (Units=GPa)
#
#
# Indices 1 2 3 4 5 6 
#
# 1 46.3796 26.0636 26.3817 -3.5370 13.6380 -1.0365
# 2 26.0636 57.4825 14.5476 1.6957 -7.7951 5.0232
# 3 26.3817 14.5476 89.8690 10.2313 0.2292 0.5456
# 4 -3.5370 1.6957 10.2313 12.7691 0.8861 -6.5183
# 5 13.6380 -7.7951 0.2292 0.8861 33.1345 -4.4055
# 6 -1.0365 5.0232 0.5456 -6.5183 -4.4055 43.0232
#
#
#
# Elastic Compliance Matrix: (Units=1/GPa)
#
#
# Indices 1 2 3 4 5 6 
#
# 1 0.060904 -0.029363 -0.017807 0.041399 -0.031878 0.008129
# 2 -0.029363 0.033077 0.005693 -0.021452 0.019619 -0.005883
# 3 -0.017807 0.005693 0.018019 -0.022705 0.008635 -0.003878
# 4 0.041399 -0.021452 -0.022705 0.122627 -0.022541 0.020061
# 5 -0.031878 0.019619 0.008635 -0.022541 0.048241 -0.001644
# 6 0.008129 -0.005883 -0.003878 0.020061 -0.001644 0.027046
#
#
# Mechanical properties :
#
#
# Convention : Reuss Voigt Hill
#
# Bulk Modulus (GPa) = 34.42676 36.41299 35.41988
# Shear Modulus (GPa) = 12.42082 26.23459 19.32770
#
# Velocity S-wave (km/s) = 2.38247 3.46250 2.97196
# Velocity P-wave (km/s) = 4.82710 5.71188 5.28803
#
# Compressibility (1/GPa) = 0.02904717
#
# Stress axis : x y z
#
# Youngs Moduli (GPa) = 16.41935 30.23257 55.49551
#
# Poissons Ratio (x) = 0.88772 0.98820
# Poissons Ratio (y) = 0.48212 -0.31595
# Poissons Ratio (z) = 0.29238 -0.17212
#
# Static dielectric constant tensor:
#      x y z
#    x 1.987820 -0.057570 0.065750 
#    y -0.057570 1.662200 0.076410 
#    z 0.065750 0.076410 1.729180 
# 
# From -- ./inp_files/138552.got.cif
#   From: 2010.05.17/outbox.ucp.g08.bks.cvg/sg2_70_cif.got.tgz:138552.got - 2010.06.11 11:32:03.
