data_PCOD9074509
_publ_section_title
;
Structure prediction by ZEFSAII (Michael W. Deem and Ramdas Pophale) SiO2 
 PCOD9074509
Probable space group: P -1
;
_chemical_formula_sum "Si O2"
_cell_formula_units_Z 16
_cell_length_a 15.000000
_cell_length_b 15.000000
_cell_length_c 15.000000
_cell_angle_alpha 40.000000
_cell_angle_beta 160.000000
_cell_angle_gamma 140.000000
_cell_volume 725.414092
_symmetry_space_group_name_H-M "P -1"
_symmetry_group_IT_number 2
_symmetry_cell_setting 'triclinic'
loop_
_space_group_symop_operation_xyz
x,y,z
-x,-y,-z
loop_
_atom_site_type_symbol
_atom_site_label
_atom_site_fract_x
_atom_site_fract_y
_atom_site_fract_z
Si Si1 0.447948 0.395829 0.354236
Si Si2 0.799770 0.794220 0.573640
Si Si3 0.367077 0.583262 0.882947
Si Si4 0.193279 0.911991 0.293456
Si Si5 0.718235 0.724770 0.338214
Si Si6 0.052251 0.247216 0.649748
Si Si7 0.001289 0.662353 0.161682
Si Si8 0.393591 0.979444 0.015772
O O1 0.330206 0.341962 0.382845
O O2 0.517844 0.569287 0.273562
O O3 0.737221 0.362592 0.626915
O O4 0.216302 0.308593 0.137922
O O5 0.800404 0.758708 0.494088
O O6 0.098615 0.876997 0.817670
O O7 0.601915 0.903286 0.319075
O O8 0.192552 0.473378 0.871323
O O9 0.142156 0.653413 0.575002
O O10 0.500000 0.500000 0.000000
O O11 0.632263 0.695280 0.079203
O O12 0.081800 0.886635 0.311156
O O13 0.122300 0.769522 0.273612
O O14 0.500000 0.000000 0.500000
O O15 0.000000 0.000000 0.000000
O O16 0.957012 0.735816 0.480743
O O17 0.607406 0.857091 0.091359
O O18 0.500000 0.000000 0.000000
#
# Coordination Sequence:
#
# PCOD9074509 Si02
#       8
#     2   2   2   2   2   2   2   2
#     4  12  26  44  72 110 145 189 240 303 370 414
#     4  11  25  46  70 103 147 197 238 299 364 425
#     4  12  23  43  72 101 134 178 233 287 357 412
#     4  12  28  48  69 102 142 185 231 286 353 437
#     4  11  24  45  72 107 143 184 251 298 348 427
#     4  12  26  42  73 104 135 185 232 291 356 419
#     4  12  25  45  72 102 142 183 233 293 358 432
#     4  10  23  44  70  96 137 194 244 293 356 427
#
# _framework density 22.056367999999999
#
# number of rings (size 3 to 8) (size 9 to 14) (size 15 to 20)
#    0.000    0.500    3.750    4.500    1.750    9.000 
#    0.000    5.625    0.000    0.000    0.000    0.000 
#    0.000    0.000    0.000    0.000    0.000    0.000 
#
# Total GULP energy -89145.596735 kJ/mol
# GULP energy per Si atom -5571.599796 kJ/mol
# Density = 2.200617 g / cm^3
# Si number density = 22.056368 Si / 1000 Ang^3
#
#
#
# Elastic Constant Matrix: (Units=GPa)
#
#
# Indices 1 2 3 4 5 6 
#
# 1 153.6683 52.8356 36.1504 5.2700 6.9845 33.9948
# 2 52.8356 110.5132 47.6953 12.0896 15.4665 29.1690
# 3 36.1504 47.6953 111.7868 31.6502 21.1811 13.1694
# 4 5.2700 12.0896 31.6502 42.5284 11.1104 9.6568
# 5 6.9845 15.4665 21.1811 11.1104 39.9722 1.9182
# 6 33.9948 29.1690 13.1694 9.6568 1.9182 55.7850
#
#
#
# Elastic Compliance Matrix: (Units=1/GPa)
#
#
# Indices 1 2 3 4 5 6 
#
# 1 0.008572 -0.002545 -0.001773 0.001814 0.000104 -0.003792
# 2 -0.002545 0.013587 -0.004316 0.001435 -0.002699 -0.004690
# 3 -0.001773 -0.004316 0.014240 -0.008667 -0.003233 0.001587
# 4 0.001814 0.001435 -0.008667 0.031769 -0.004864 -0.005143
# 5 0.000104 -0.002699 -0.003233 -0.004864 0.029015 0.001955
# 6 -0.003792 -0.004690 0.001587 -0.005143 0.001955 0.023137
#
#
# Mechanical properties :
#
#
# Convention : Reuss Voigt Hill
#
# Bulk Modulus (GPa) = 52.27456 72.14788 62.21122
# Shear Modulus (GPa) = 34.73069 43.60958 39.17013
#
# Velocity S-wave (km/s) = 3.97247 4.45138 4.21873
# Velocity P-wave (km/s) = 6.69273 7.69425 7.21089
#
# Compressibility (1/GPa) = 0.01912977
#
# Stress axis : x y z
#
# Youngs Moduli (GPa) = 116.66542 73.59942 70.22493
#
# Poissons Ratio (x) = 0.18732 0.12449
# Poissons Ratio (y) = 0.29693 0.30313
# Poissons Ratio (z) = 0.20682 0.31769
#
# Static dielectric constant tensor:
#      x y z
#    x 2.151890 -0.025620 0.076520 
#    y -0.025620 1.855790 -0.078430 
#    z 0.076520 -0.078430 1.928830 
# 
# From -- ./inp_files/534310.got.cif
#   From: 2010.05.17/outbox.ucp.g08.bks.cvg/sg2_268_cif.got.tgz:534310.got - 2010.06.11 11:32:03.
