data_PCOD9074816
_publ_section_title
;
Structure prediction by ZEFSAII (Michael W. Deem and Ramdas Pophale) SiO2 
 PCOD9074816
Probable space group: P -1
;
_chemical_formula_sum "Si O2"
_cell_formula_units_Z 16
_cell_length_a 9.000000
_cell_length_b 9.000000
_cell_length_c 12.000000
_cell_angle_alpha 60.000000
_cell_angle_beta 120.000000
_cell_angle_gamma 100.000000
_cell_volume 725.212580
_symmetry_space_group_name_H-M "P -1"
_symmetry_group_IT_number 2
_symmetry_cell_setting 'triclinic'
loop_
_space_group_symop_operation_xyz
x,y,z
-x,-y,-z
loop_
_atom_site_type_symbol
_atom_site_label
_atom_site_fract_x
_atom_site_fract_y
_atom_site_fract_z
Si Si1 0.160237 0.150471 0.513793
Si Si2 0.802027 0.587843 0.403094
Si Si3 0.677032 0.893204 0.643736
Si Si4 0.118835 0.128187 0.057818
Si Si5 0.213344 0.773385 0.724356
Si Si6 0.693911 0.912152 0.078919
Si Si7 0.820194 0.279962 0.021934
Si Si8 0.498870 0.564896 0.764061
O O1 0.231031 0.319703 0.525359
O O2 0.201010 0.118792 0.412449
O O3 0.953205 0.195684 0.431522
O O4 0.244423 0.975982 0.671619
O O5 0.762220 0.747865 0.241473
O O6 0.653384 0.465717 0.368046
O O7 0.000000 0.500000 0.500000
O O8 0.776307 0.954902 0.765400
O O9 0.621146 0.707700 0.722885
O O10 0.500000 0.000000 0.500000
O O11 0.987443 0.287271 0.000521
O O12 0.261879 0.155381 0.005904
O O13 0.000000 0.000000 0.000000
O O14 0.150414 0.695565 0.844854
O O15 0.378539 0.650952 0.788200
O O16 0.796124 0.077718 0.076795
O O17 0.500000 0.000000 0.000000
O O18 0.636399 0.394095 0.889069
#
# Coordination Sequence:
#
# PCOD9074816 Si02
#       8
#     2   2   2   2   2   2   2   2
#     4  11  24  44  76  99 147 197 241 294 383 449
#     4  12  26  46  72 112 149 195 251 309 377 444
#     4  12  27  47  73 106 149 196 244 309 383 444
#     4  10  26  46  74 108 147 199 246 299 379 455
#     4  11  22  43  72 106 136 194 247 302 360 449
#     4  11  24  44  76 106 148 194 244 308 369 447
#     4  11  23  45  70 103 147 188 248 296 379 436
#     4  12  27  42  72 111 144 191 253 313 358 449
#
# _framework density 22.062495999999999
#
# number of rings (size 3 to 8) (size 9 to 14) (size 15 to 20)
#    0.000    0.750    6.250    0.375    3.500    5.000 
#    0.000    0.000    0.000    0.000    0.000    0.000 
#    0.000    0.000    0.000    0.000    0.000    0.000 
#
# Total GULP energy -89209.824806 kJ/mol
# GULP energy per Si atom -5575.614050 kJ/mol
# Density = 2.201228 g / cm^3
# Si number density = 22.062496 Si / 1000 Ang^3
#
#
#
# Elastic Constant Matrix: (Units=GPa)
#
#
# Indices 1 2 3 4 5 6 
#
# 1 140.0380 20.2502 50.1642 -0.1471 11.1297 -37.3872
# 2 20.2502 74.9477 23.5519 11.2786 0.2071 -7.6555
# 3 50.1642 23.5519 110.3519 10.7265 18.8242 -18.7726
# 4 -0.1471 11.2786 10.7265 31.0556 -7.6098 6.2737
# 5 11.1297 0.2071 18.8242 -7.6098 49.5576 0.9658
# 6 -37.3872 -7.6555 -18.7726 6.2737 0.9658 44.6390
#
#
#
# Elastic Compliance Matrix: (Units=1/GPa)
#
#
# Indices 1 2 3 4 5 6 
#
# 1 0.010453 -0.001070 -0.002989 -0.000369 -0.001408 0.007396
# 2 -0.001070 0.015195 -0.002011 -0.005118 0.000124 0.001580
# 3 -0.002989 -0.002011 0.012874 -0.005696 -0.005153 0.003478
# 4 -0.000369 -0.005118 -0.005696 0.040029 0.008597 -0.009394
# 5 -0.001408 0.000124 -0.005153 0.008597 0.023870 -0.005050
# 6 0.007396 0.001580 0.003478 -0.009394 -0.005050 0.031760
#
#
# Mechanical properties :
#
#
# Convention : Reuss Voigt Hill
#
# Bulk Modulus (GPa) = 37.90608 57.03002 47.46805
# Shear Modulus (GPa) = 32.23418 40.47519 36.35469
#
# Velocity S-wave (km/s) = 3.82650 4.28783 4.06372
# Velocity P-wave (km/s) = 6.06146 7.10067 6.60155
#
# Compressibility (1/GPa) = 0.02638099
#
# Stress axis : x y z
#
# Youngs Moduli (GPa) = 95.67069 65.81080 77.67500
#
# Poissons Ratio (x) = 0.07042 0.23216
# Poissons Ratio (y) = 0.10237 0.15624
# Poissons Ratio (z) = 0.28594 0.13238
#
# Static dielectric constant tensor:
#      x y z
#    x 1.880870 0.037890 -0.010430 
#    y 0.037890 1.879530 0.032170 
#    z -0.010430 0.032170 1.851400 
# 
# From -- ./inp_files/381467.got.cif
#   From: 2010.05.17/outbox.ucp.g08.bks.cvg/sg2_191_cif.got.tgz:381467.got - 2010.06.11 11:32:03.
