data_PCOD9074183
_publ_section_title
;
Structure prediction by ZEFSAII (Michael W. Deem and Ramdas Pophale) SiO2 
 PCOD9074183
Probable space group: P -1
;
_chemical_formula_sum "Si O2"
_cell_formula_units_Z 10
_cell_length_a 12.000000
_cell_length_b 9.000000
_cell_length_c 15.000000
_cell_angle_alpha 150.000000
_cell_angle_beta 40.000000
_cell_angle_gamma 120.000000
_cell_volume 448.332942
_symmetry_space_group_name_H-M "P -1"
_symmetry_group_IT_number 2
_symmetry_cell_setting 'triclinic'
loop_
_space_group_symop_operation_xyz
x,y,z
-x,-y,-z
loop_
_atom_site_type_symbol
_atom_site_label
_atom_site_fract_x
_atom_site_fract_y
_atom_site_fract_z
Si Si1 0.150563 0.204951 0.322483
Si Si2 0.455998 0.260304 0.278527
Si Si3 0.885602 0.891041 0.303002
Si Si4 0.350902 0.964684 0.641798
Si Si5 0.507763 0.831417 0.196803
O O1 0.242691 0.306838 0.401321
O O2 0.000000 0.500000 0.500000
O O3 0.030509 0.009666 0.317851
O O4 0.355783 0.955455 0.014426
O O5 0.435137 0.631880 0.480003
O O6 0.514527 0.042205 0.218849
O O7 0.797810 0.069443 0.353187
O O8 0.703797 0.955009 0.510829
O O9 0.000000 0.500000 0.000000
O O10 0.500000 0.000000 0.500000
O O11 0.310897 0.255243 0.890046
O O12 0.500000 0.500000 0.000000
#
# Coordination Sequence:
#
# PCOD9074183 Si02
#       5
#     2   2   2   2   2
#     4  11  22  41  68 101 133 176 229 274 343 400
#     4  11  24  42  70  97 139 178 223 285 334 401
#     4  11  24  44  68  98 138 180 225 276 337 413
#     4  10  22  43  67  93 135 182 219 268 347 401
#     4  11  25  43  69 101 135 175 229 282 337 395
#
# _framework density 22.304852
#
# number of rings (size 3 to 8) (size 9 to 14) (size 15 to 20)
#    0.000    1.200    2.000    4.200   11.200    0.800 
#    3.600    2.000    0.000    0.000    0.000    0.000 
#    0.000    0.000    0.000    0.000    0.000    0.000 
#
# Total GULP energy -55697.242407 kJ/mol
# GULP energy per Si atom -5569.724241 kJ/mol
# Density = 2.225409 g / cm^3
# Si number density = 22.304852 Si / 1000 Ang^3
#
#
#
# Elastic Constant Matrix: (Units=GPa)
#
#
# Indices 1 2 3 4 5 6 
#
# 1 69.7450 8.5536 -49.7705 2.7489 11.3797 32.9560
# 2 8.5536 107.3329 -21.8062 9.2584 13.0711 11.7791
# 3 -49.7705 -21.8062 8.7545 4.4956 12.2706 19.9552
# 4 2.7489 9.2584 4.4956 27.7610 4.3837 -5.8480
# 5 11.3797 13.0711 12.2706 4.3837 25.6330 -4.5227
# 6 32.9560 11.7791 19.9552 -5.8480 -4.5227 39.7485
#
#
#
# Elastic Compliance Matrix: (Units=1/GPa)
#
#
# Indices 1 2 3 4 5 6 
#
# 1 0.003563 -0.004046 -0.011004 0.002840 0.006125 0.004884
# 2 -0.004046 0.009023 -0.003098 -0.001590 -0.000711 0.001922
# 3 -0.011004 -0.003098 -0.004180 0.004116 0.010216 0.013908
# 4 0.002840 -0.001590 0.004116 0.037083 -0.008671 0.000519
# 5 0.006125 -0.000711 0.010216 -0.008671 0.031900 -0.007643
# 6 0.004884 0.001922 0.013908 0.000519 -0.007643 0.012763
#
#
# Mechanical properties :
#
#
# Convention : Reuss Voigt Hill
#
# Bulk Modulus (GPa) = -35.85481 6.64291 -14.60595
# Shear Modulus (GPa) = 42.68037 35.21886 38.94961
#
# Velocity S-wave (km/s) = 4.37910 3.97795 4.18334
# Velocity P-wave (km/s) = 3.07554 4.90749 4.09527
#
# Compressibility (1/GPa) = -0.02789026
#
# Stress axis : x y z
#
# Youngs Moduli (GPa) = 280.69871 110.83099 -239.23756
#
# Poissons Ratio (x) = 0.44847 -2.63248
# Poissons Ratio (y) = 1.13583 -0.74109
# Poissons Ratio (z) = 3.08871 0.34332
#
# Static dielectric constant tensor:
#      x y z
#    x -0.704780 1.408140 1.515360 
#    y 1.408140 1.030540 -0.721720 
#    z 1.515360 -0.721720 1.007560 
# 
# From -- ./inp_files/57582.got.cif
#   From: 2010.05.17/outbox.ucp.g08.bks.cvg/sg2_29_cif.got.tgz:57582.got - 2010.06.11 11:32:03.
