data_PCOD9074442
_publ_section_title
;
Structure prediction by ZEFSAII (Michael W. Deem and Ramdas Pophale) SiO2 
 PCOD9074442
Probable space group: P -1
;
_chemical_formula_sum "Si O2"
_cell_formula_units_Z 16
_cell_length_a 12.000000
_cell_length_b 12.000000
_cell_length_c 15.000000
_cell_angle_alpha 150.000000
_cell_angle_beta 60.000000
_cell_angle_gamma 100.000000
_cell_volume 748.962810
_symmetry_space_group_name_H-M "P -1"
_symmetry_group_IT_number 2
_symmetry_cell_setting 'triclinic'
loop_
_space_group_symop_operation_xyz
x,y,z
-x,-y,-z
loop_
_atom_site_type_symbol
_atom_site_label
_atom_site_fract_x
_atom_site_fract_y
_atom_site_fract_z
Si Si1 0.151331 0.187218 0.355458
Si Si2 0.043892 0.881235 0.299527
Si Si3 0.529370 0.759035 0.098204
Si Si4 0.212496 0.907055 0.944283
Si Si5 0.317289 0.870103 0.414301
Si Si6 0.024884 0.258224 0.091084
Si Si7 0.235898 0.273763 0.872339
Si Si8 0.515383 0.905500 0.826051
O O1 0.009762 0.482723 0.657532
O O2 0.141085 0.968627 0.265738
O O3 0.295770 0.213411 0.337506
O O4 0.149285 0.115519 0.201495
O O5 0.144475 0.550953 0.041228
O O6 0.000000 0.000000 0.500000
O O7 0.867804 0.013227 0.422292
O O8 0.362677 0.926140 0.337671
O O9 0.657853 0.710169 0.085503
O O10 0.544572 0.892192 0.095799
O O11 0.571542 0.462030 0.850487
O O12 0.126555 0.748893 0.879799
O O13 0.403078 0.793208 0.789423
O O14 0.147297 0.015592 0.944580
O O15 0.342327 0.014297 0.584400
O O16 0.112050 0.248312 0.959610
O O17 0.500000 0.000000 0.000000
#
# Coordination Sequence:
#
# PCOD9074442 Si02
#       8
#     2   2   2   2   2   2   2   2
#     4  11  23  42  67  93 131 176 216 271 335 390
#     4  12  22  42  68  98 135 174 214 273 336 393
#     4  11  23  45  67  94 136 174 221 274 332 396
#     4  10  23  43  63  95 126 170 228 272 326 391
#     4  11  25  41  69  98 134 177 217 270 337 399
#     4  11  22  41  69  94 131 167 220 279 329 387
#     4  12  24  43  68 101 135 173 220 273 334 403
#     4  10  23  45  67  93 131 175 224 273 330 389
#
# _framework density 21.362876
#
# number of rings (size 3 to 8) (size 9 to 14) (size 15 to 20)
#    0.000    1.000    3.750    2.625    1.750    0.500 
#    9.000    1.250    0.000    0.000    0.000    0.000 
#    0.000    0.000    0.000    0.000    0.000    0.000 
#
# Total GULP energy -89070.920336 kJ/mol
# GULP energy per Si atom -5566.932521 kJ/mol
# Density = 2.131425 g / cm^3
# Si number density = 21.362876 Si / 1000 Ang^3
#
#
#
# Elastic Constant Matrix: (Units=GPa)
#
#
# Indices 1 2 3 4 5 6 
#
# 1 109.9582 9.3521 20.5687 -5.1358 5.3097 27.1882
# 2 9.3521 60.0023 27.5463 -26.8861 11.1343 15.3211
# 3 20.5687 27.5463 83.1744 -13.4723 22.8969 11.4128
# 4 -5.1358 -26.8861 -13.4723 19.1217 7.2687 -5.0633
# 5 5.3097 11.1343 22.8969 7.2687 22.8779 7.0422
# 6 27.1882 15.3211 11.4128 -5.0633 7.0422 28.6150
#
#
#
# Elastic Compliance Matrix: (Units=1/GPa)
#
#
# Indices 1 2 3 4 5 6 
#
# 1 0.012374 0.002538 -0.002551 0.001094 0.001907 -0.012375
# 2 0.002538 -0.070253 -0.045436 -0.188905 0.143868 -0.015508
# 3 -0.002551 -0.045436 0.001672 -0.081092 0.046723 0.000237
# 4 0.001094 -0.188905 -0.081092 -0.386022 0.298345 -0.009282
# 5 0.001907 0.143868 0.046723 0.298345 -0.167215 -0.003534
# 6 -0.012375 -0.015508 0.000237 -0.009282 -0.003534 0.054141
#
#
# Mechanical properties :
#
#
# Convention : Reuss Voigt Hill
#
# Bulk Modulus (GPa) = -6.79793 40.89656 17.04932
# Shear Modulus (GPa) = -9.73823 27.16744 8.71460
#
# Velocity S-wave (km/s) = -2.13738 3.56998 2.02192
# Velocity P-wave (km/s) = 3.04634 6.01484 3.66729
#
# Compressibility (1/GPa) = -0.14710361
#
# Stress axis : x y z
#
# Youngs Moduli (GPa) = 80.81176 -14.23429 598.15962
#
# Poissons Ratio (x) = 0.03613 1.52563
# Poissons Ratio (y) = -0.20514 27.17825
# Poissons Ratio (z) = 0.20611 -0.64676
#
# Static dielectric constant tensor:
#      x y z
#    x 1.846250 0.013540 -0.063620 
#    y 0.013540 1.793380 0.007620 
#    z -0.063620 0.007620 1.845140 
# 
# From -- ./inp_files/519947.got.cif
#   From: 2010.05.17/outbox.ucp.g08.bks.cvg/sg2_260_cif.got.tgz:519947.got - 2010.06.11 11:32:03.
