data_PCOD9074371
_publ_section_title
;
Structure prediction by ZEFSAII (Michael W. Deem and Ramdas Pophale) SiO2 
 PCOD9074371
Probable space group: P -1
;
_chemical_formula_sum "Si O2"
_cell_formula_units_Z 14
_cell_length_a 14.418085
_cell_length_b 8.878467
_cell_length_c 7.867630
_cell_angle_alpha 94.095313
_cell_angle_beta 39.975596
_cell_angle_gamma 104.309889
_cell_volume 615.607240
_symmetry_space_group_name_H-M "P -1"
_symmetry_group_IT_number 2
_symmetry_cell_setting 'triclinic'
loop_
_space_group_symop_operation_xyz
x,y,z
-x,-y,-z
loop_
_atom_site_type_symbol
_atom_site_label
_atom_site_fract_x
_atom_site_fract_y
_atom_site_fract_z
Si Si1 0.204173 0.205098 0.729674
Si Si2 0.969376 0.171971 0.567921
Si Si3 0.566830 0.490708 0.596045
Si Si4 0.146856 0.668175 0.577820
Si Si5 0.726165 0.540412 0.820941
Si Si6 0.872270 0.121596 0.059537
Si Si7 0.176116 0.505622 0.964146
O O1 0.345374 0.329344 0.450714
O O2 0.169423 0.320799 0.929268
O O3 0.228477 0.056408 0.776754
O O4 0.052279 0.139122 0.828096
O O5 0.894934 0.230819 0.512447
O O6 0.131681 0.303213 0.381233
O O7 0.862708 0.168078 0.882213
O O8 0.000000 0.000000 0.500000
O O9 0.500000 0.500000 0.500000
O O10 0.235659 0.546175 0.071177
O O11 0.700537 0.418040 0.346436
O O12 0.427721 0.422076 0.911079
O O13 0.272998 0.586211 0.336661
O O14 0.161090 0.777070 0.731004
O O15 0.000214 0.487301 0.195471
#
# Coordination Sequence:
#
# PCOD9074371 Si02
#       7
#     2   2   2   2   2   2   2
#     4   8  15  30  52  77 104 142 182 216 265 307
#     4  11  21  32  56  85 106 137 188 228 259 311
#     4   8  15  28  54  78 102 144 184 212 262 325
#     4  10  20  34  54  81 109 142 178 217 272 318
#     4  10  18  32  50  83 109 138 178 222 270 322
#     4  10  18  32  53  80 111 138 176 229 263 309
#     4   7  13  27  50  73  95 133 183 211 241 306
#
# _framework density 22.741775000000001
#
# number of rings (size 3 to 8) (size 9 to 14) (size 15 to 20)
#    0.857    2.000    0.000    5.143    0.000    0.571 
#    0.000    1.429    0.000    0.857    3.714    0.000 
#    0.000    0.000    0.000    0.000    0.000    0.000 
#
# Total GULP energy -77968.531317 kJ/mol
# GULP energy per Si atom -5569.180808 kJ/mol
# Density = 2.269001 g / cm^3
# Si number density = 22.741775 Si / 1000 Ang^3
#
#
#
# Elastic Constant Matrix: (Units=GPa)
#
#
# Indices 1 2 3 4 5 6 
#
# 1 50.2860 26.2323 27.3022 -1.4728 17.7372 -11.5205
# 2 26.2323 100.1863 38.0311 -3.0940 0.8319 -11.9504
# 3 27.3022 38.0311 149.0148 7.3091 18.6145 -5.6972
# 4 -1.4728 -3.0940 7.3091 28.0032 4.7049 6.0823
# 5 17.7372 0.8319 18.6145 4.7049 47.2801 -3.5436
# 6 -11.5205 -11.9504 -5.6972 6.0823 -3.5436 26.0067
#
#
#
# Elastic Compliance Matrix: (Units=1/GPa)
#
#
# Indices 1 2 3 4 5 6 
#
# 1 0.029494 -0.005652 -0.002527 0.001377 -0.009486 0.008300
# 2 -0.005652 0.012780 -0.002519 0.000585 0.003061 0.003097
# 3 -0.002527 -0.002519 0.008165 -0.002144 -0.002029 -0.000263
# 4 0.001377 0.000585 -0.002144 0.039152 -0.004278 -0.009331
# 5 -0.009486 0.003061 -0.002029 -0.004278 0.025977 0.001300
# 6 0.008300 0.003097 -0.000263 -0.009331 0.001300 0.045853
#
#
# Mechanical properties :
#
#
# Convention : Reuss Voigt Hill
#
# Bulk Modulus (GPa) = 34.43071 53.62425 44.02748
# Shear Modulus (GPa) = 25.97433 34.11944 30.04688
#
# Velocity S-wave (km/s) = 3.38323 3.87757 3.63880
# Velocity P-wave (km/s) = 5.51673 6.60895 6.08739
#
# Compressibility (1/GPa) = 0.02904384
#
# Stress axis : x y z
#
# Youngs Moduli (GPa) = 33.90495 78.25031 122.47358
#
# Poissons Ratio (x) = 0.44228 0.30945
# Poissons Ratio (y) = 0.19164 0.30847
# Poissons Ratio (z) = 0.08567 0.19708
#
# Static dielectric constant tensor:
#      x y z
#    x 1.975950 -0.055490 0.011270 
#    y -0.055490 1.873620 -0.001080 
#    z 0.011270 -0.001080 1.902220 
# 
# From -- ./inp_files/342794.got.cif
#   From: 2010.05.17/outbox.cif.g08.bks.cpg/sg2_172_cif.got.tgz:342794.got - 2010.06.03 11:33:40.
