data_PCOD9074817
_publ_section_title
;
Structure prediction by ZEFSAII (Michael W. Deem and Ramdas Pophale) SiO2 
 PCOD9074817
Probable space group: P -1
;
_chemical_formula_sum "Si O2"
_cell_formula_units_Z 13
_cell_length_a 9.000000
_cell_length_b 12.000000
_cell_length_c 15.000000
_cell_angle_alpha 30.000000
_cell_angle_beta 110.000000
_cell_angle_gamma 130.000000
_cell_volume 513.903451
_symmetry_space_group_name_H-M "P -1"
_symmetry_group_IT_number 2
_symmetry_cell_setting 'triclinic'
loop_
_space_group_symop_operation_xyz
x,y,z
-x,-y,-z
loop_
_atom_site_type_symbol
_atom_site_label
_atom_site_fract_x
_atom_site_fract_y
_atom_site_fract_z
Si Si1 0.549542 0.605916 0.157466
Si Si2 0.356045 0.142589 0.680660
Si Si3 0.866710 0.742914 0.571062
Si Si4 0.985071 0.369567 0.888122
Si Si5 0.000000 0.000000 0.000000
Si Si6 0.502768 0.202426 0.290042
Si Si7 0.269252 0.839259 0.315931
O O1 0.392343 0.555174 0.233218
O O2 0.435645 0.353362 0.227618
O O3 0.718418 0.954674 0.899989
O O4 0.732205 0.621904 0.224785
O O5 0.500000 0.500000 0.500000
O O6 0.167396 0.088532 0.621577
O O7 0.544055 0.162023 0.665912
O O8 0.215916 0.856900 0.922926
O O9 0.968375 0.598396 0.680020
O O10 0.000000 0.000000 0.500000
O O11 0.957176 0.141025 0.971660
O O12 0.230232 0.555447 0.856317
O O13 0.500000 0.000000 0.500000
O O14 0.340212 0.017806 0.300266
O O15 0.000000 0.500000 0.500000
#
# Coordination Sequence:
#
# PCOD9074817 Si02
#       7
#     2   2   2   2   1   2   2
#     4  11  25  47  76 108 155 200 259 314 392 451
#     4  12  29  48  75 118 154 199 265 320 385 465
#     4  12  27  48  80 111 153 210 257 316 393 463
#     4  11  26  51  80 110 163 201 259 328 390 458
#     4  10  26  46  76 108 148 208 248 316 390 454
#     4  11  26  49  75 110 151 203 263 316 383 470
#     4  12  29  47  77 113 156 204 260 320 387 462
#
# _framework density 25.296579999999999
#
# number of rings (size 3 to 8) (size 9 to 14) (size 15 to 20)
#    0.000    0.615    1.538    4.154   15.077    3.692 
#    0.000    0.769    0.000    0.000    0.000    0.000 
#    0.000    0.000    0.000    0.000    0.000    0.000 
#
# Total GULP energy -72419.499786 kJ/mol
# GULP energy per Si atom -5570.730753 kJ/mol
# Density = 2.523900 g / cm^3
# Si number density = 25.296580 Si / 1000 Ang^3
#
#
#
# Elastic Constant Matrix: (Units=GPa)
#
#
# Indices 1 2 3 4 5 6 
#
# 1 118.8173 11.3678 9.3672 3.2488 -3.5001 -15.2435
# 2 11.3678 99.6671 1.9599 -30.4518 -28.5158 9.5436
# 3 9.3672 1.9599 113.0872 13.3730 -18.0310 -6.8419
# 4 3.2488 -30.4518 13.3730 17.9081 -18.4815 8.2432
# 5 -3.5001 -28.5158 -18.0310 -18.4815 13.8572 -5.4238
# 6 -15.2435 9.5436 -6.8419 8.2432 -5.4238 28.1994
#
#
#
# Elastic Compliance Matrix: (Units=1/GPa)
#
#
# Indices 1 2 3 4 5 6 
#
# 1 0.009336 -0.000176 0.000396 0.000114 0.005069 0.006144
# 2 -0.000176 0.001461 -0.001000 -0.013225 -0.015994 -0.000042
# 3 0.000396 -0.001000 0.010962 -0.006348 0.006298 0.006279
# 4 0.000114 -0.013225 -0.006348 -0.004557 -0.043071 -0.003955
# 5 0.005069 -0.015994 0.006298 -0.043071 0.000001 0.022271
# 6 0.006144 -0.000042 0.006279 -0.003955 0.022271 0.045760
#
#
# Mechanical properties :
#
#
# Convention : Reuss Voigt Hill
#
# Bulk Modulus (GPa) = 49.50480 41.88459 45.69470
# Shear Modulus (GPa) = 70.17009 32.58472 51.37740
#
# Velocity S-wave (km/s) = 5.27249 3.59292 4.51155
# Velocity P-wave (km/s) = 7.52847 5.81424 6.72619
#
# Compressibility (1/GPa) = 0.02020006
#
# Stress axis : x y z
#
# Youngs Moduli (GPa) = 107.10871 684.68641 91.22411
#
# Poissons Ratio (x) = 0.12044 -0.03613
# Poissons Ratio (y) = 0.01884 0.09119
# Poissons Ratio (z) = -0.04242 0.68439
#
# Static dielectric constant tensor:
#      x y z
#    x 2.050920 0.090650 -0.087880 
#    y 0.090650 2.017870 -0.165520 
#    z -0.087880 -0.165520 2.122960 
# 
# From -- ./inp_files/159031.got.cif
#   From: 2010.05.17/outbox.ucp.g08.bks.cvg/sg2_80_cif.got.tgz:159031.got - 2010.06.11 11:32:03.
