data_PCOD9074262
_publ_section_title
;
Structure prediction by ZEFSAII (Michael W. Deem and Ramdas Pophale) SiO2 
 PCOD9074262
Probable space group: P -1
;
_chemical_formula_sum "Si O2"
_cell_formula_units_Z 12
_cell_length_a 13.897556
_cell_length_b 9.501328
_cell_length_c 8.456737
_cell_angle_alpha 146.704973
_cell_angle_beta 57.047533
_cell_angle_gamma 124.520127
_cell_volume 498.932763
_symmetry_space_group_name_H-M "P -1"
_symmetry_group_IT_number 2
_symmetry_cell_setting 'triclinic'
loop_
_space_group_symop_operation_xyz
x,y,z
-x,-y,-z
loop_
_atom_site_type_symbol
_atom_site_label
_atom_site_fract_x
_atom_site_fract_y
_atom_site_fract_z
Si Si1 0.849848 0.634197 0.305957
Si Si2 0.729195 0.093567 0.394825
Si Si3 0.908287 0.199643 0.614402
Si Si4 0.416893 0.847658 0.156012
Si Si5 0.358776 0.454604 0.082760
Si Si6 0.394626 0.259957 0.305142
O O1 0.722511 0.637794 0.491221
O O2 0.951355 0.678249 0.390466
O O3 0.883696 0.897162 0.412249
O O4 0.859248 0.379708 0.955528
O O5 0.841987 0.192306 0.499462
O O6 0.613484 0.988433 0.515337
O O7 0.728073 0.822838 0.059564
O O8 0.688175 0.329455 0.569680
O O9 0.380638 0.002066 0.186415
O O10 0.343292 0.559835 0.013737
O O11 0.548794 0.824691 0.984182
O O12 0.500000 0.500000 0.000000
O O13 0.500000 0.500000 0.500000
#
# Coordination Sequence:
#
# PCOD9074262 Si02
#       6
#     2   2   2   2   2   2
#     4  10  20  31  47  70 102 139 170 198 233 296
#     4  10  18  32  50  73 100 127 162 209 254 294
#     4  10  19  32  48  70 100 136 171 202 239 289
#     4   9  21  29  50  72 106 133 164 200 252 304
#     4  10  20  34  52  75  98 126 168 215 258 293
#     4  11  19  31  47  75 108 139 162 193 251 305
#
# _framework density 24.05134
#
# number of rings (size 3 to 8) (size 9 to 14) (size 15 to 20)
#    1.000    1.000    1.667    3.500    2.333    0.000 
#    0.000    0.000    0.000    0.000    0.000    2.333 
#    0.000    0.000    0.000    0.000    0.000    0.000 
#
# Total GULP energy -66848.692963 kJ/mol
# GULP energy per Si atom -5570.724414 kJ/mol
# Density = 2.399660 g / cm^3
# Si number density = 24.051340 Si / 1000 Ang^3
#
#
#
# Elastic Constant Matrix: (Units=GPa)
#
#
# Indices 1 2 3 4 5 6 
#
# 1 144.7273 27.6998 30.6133 10.3405 -17.8958 42.2414
# 2 27.6998 45.6887 19.1387 0.6229 -2.3750 14.0284
# 3 30.6133 19.1387 109.8047 32.2026 -15.7235 19.1792
# 4 10.3405 0.6229 32.2026 45.3218 10.7119 -3.2670
# 5 -17.8958 -2.3750 -15.7235 10.7119 34.4545 -6.0386
# 6 42.2414 14.0284 19.1792 -3.2670 -6.0386 43.2090
#
#
#
# Elastic Compliance Matrix: (Units=1/GPa)
#
#
# Indices 1 2 3 4 5 6 
#
# 1 0.011682 -0.004353 0.002312 -0.006675 0.007049 -0.010553
# 2 -0.004353 0.027218 -0.005421 0.005473 -0.004991 -0.002458
# 3 0.002312 -0.005421 0.017278 -0.016215 0.012411 -0.007661
# 4 -0.006675 0.005473 -0.016215 0.040888 -0.021083 0.012091
# 5 0.007049 -0.004991 0.012411 -0.021083 0.043455 -0.006300
# 6 -0.010553 -0.002458 -0.007661 0.012091 -0.006300 0.037693
#
#
# Mechanical properties :
#
#
# Convention : Reuss Voigt Hill
#
# Bulk Modulus (GPa) = 24.24022 50.56937 37.40479
# Shear Modulus (GPa) = 24.16738 39.44830 31.80784
#
# Velocity S-wave (km/s) = 3.17334 4.05430 3.64056
# Velocity P-wave (km/s) = 4.85048 6.55650 5.76692
#
# Compressibility (1/GPa) = 0.04125375
#
# Stress axis : x y z
#
# Youngs Moduli (GPa) = 85.59914 36.74018 57.87673
#
# Poissons Ratio (x) = 0.15995 -0.13381
# Poissons Ratio (y) = 0.37266 0.31374
# Poissons Ratio (z) = -0.19790 0.19917
#
# Static dielectric constant tensor:
#      x y z
#    x 1.996660 -0.026660 -0.014060 
#    y -0.026660 1.984680 0.094890 
#    z -0.014060 0.094890 2.108360 
# 
# From -- ./inp_files/79136.got.cif
#   From: 2010.05.17/outbox.cif.g08.bks.cpg/sg2_40_cif.got.tgz:79136.got - 2010.06.03 11:33:40.
