data_PCOD9074264
_publ_section_title
;
Structure prediction by ZEFSAII (Michael W. Deem and Ramdas Pophale) SiO2 
 PCOD9074264
Probable space group: P -1
;
_chemical_formula_sum "Si O2"
_cell_formula_units_Z 16
_cell_length_a 9.000000
_cell_length_b 18.000000
_cell_length_c 9.000000
_cell_angle_alpha 90.000000
_cell_angle_beta 150.000000
_cell_angle_gamma 90.000000
_cell_volume 729.000000
_symmetry_space_group_name_H-M "P -1"
_symmetry_group_IT_number 2
_symmetry_cell_setting 'triclinic'
loop_
_space_group_symop_operation_xyz
x,y,z
-x,-y,-z
loop_
_atom_site_type_symbol
_atom_site_label
_atom_site_fract_x
_atom_site_fract_y
_atom_site_fract_z
Si Si1 0.212301 0.846986 0.435552
Si Si2 0.285080 0.692656 0.345157
Si Si3 0.992453 0.167295 0.406517
Si Si4 0.757822 0.951767 0.884895
Si Si5 0.107748 0.306657 0.289092
Si Si6 0.324516 0.417077 0.738259
Si Si7 0.304931 0.585169 0.659553
Si Si8 0.532600 0.062608 0.901234
O O1 0.153101 0.768535 0.301121
O O2 0.519849 0.885115 0.642330
O O3 0.187750 0.828406 0.592134
O O4 0.960365 0.907917 0.180596
O O5 0.604612 0.714790 0.557483
O O6 0.323253 0.632984 0.519361
O O7 0.112642 0.670047 0.040204
O O8 0.000696 0.239466 0.306056
O O9 0.314840 0.133068 0.723183
O O10 0.851642 0.099803 0.193157
O O11 0.536033 0.015202 0.754807
O O12 0.000000 0.000000 0.000000
O O13 0.222570 0.369002 0.507072
O O14 0.421304 0.498882 0.760374
O O15 0.039150 0.423474 0.598034
O O16 0.555955 0.383949 0.062154
O O17 0.500000 0.000000 0.000000
#
# Coordination Sequence:
#
# PCOD9074264 Si02
#       8
#     2   2   2   2   2   2   2   2
#     4  12  25  46  64  94 130 180 227 277 342 412
#     4  12  27  43  66 101 146 180 222 279 350 401
#     4  12  25  43  69  92 129 177 230 284 333 408
#     4  12  27  42  67  95 128 171 222 291 351 406
#     4  12  27  43  66 104 140 183 223 283 339 404
#     4  10  22  44  74 103 135 178 235 268 330 403
#     4  10  22  44  74 103 135 182 223 280 327 407
#     4  12  23  44  68  94 123 168 233 288 340 402
#
# _framework density 21.947873999999999
#
# number of rings (size 3 to 8) (size 9 to 14) (size 15 to 20)
#    0.000    0.500    2.500    5.250    5.250    3.000 
#    0.000    0.000    0.000    0.000    0.000    0.000 
#    0.000    0.000    0.000    0.000    0.000    0.000 
#
# Total GULP energy -89150.768149 kJ/mol
# GULP energy per Si atom -5571.923009 kJ/mol
# Density = 2.189792 g / cm^3
# Si number density = 21.947874 Si / 1000 Ang^3
#
#
#
# Elastic Constant Matrix: (Units=GPa)
#
#
# Indices 1 2 3 4 5 6 
#
# 1 110.0056 59.3663 19.8680 -6.3009 -18.9140 28.2334
# 2 59.3663 124.2235 22.2513 6.3440 -30.0881 22.8881
# 3 19.8680 22.2513 114.0952 -2.0613 -21.1255 13.5302
# 4 -6.3009 6.3440 -2.0613 38.3867 0.1086 -10.3478
# 5 -18.9140 -30.0881 -21.1255 0.1086 48.8010 -6.5754
# 6 28.2334 22.8881 13.5302 -10.3478 -6.5754 45.1988
#
#
#
# Elastic Compliance Matrix: (Units=1/GPa)
#
#
# Indices 1 2 3 4 5 6 
#
# 1 0.013651 -0.005306 -0.000497 0.001702 0.001108 -0.005141
# 2 -0.005306 0.012676 -0.000278 -0.003842 0.005224 -0.003141
# 3 -0.000497 -0.000278 0.009808 -0.000050 0.003616 -0.001970
# 4 0.001702 -0.003842 -0.000050 0.028963 -0.000797 0.007412
# 5 0.001108 0.005224 0.003616 -0.000797 0.025590 -0.000879
# 6 -0.005141 -0.003141 -0.001970 0.007412 -0.000879 0.029085
#
#
# Mechanical properties :
#
#
# Convention : Reuss Voigt Hill
#
# Bulk Modulus (GPa) = 41.71426 61.25504 51.48465
# Shear Modulus (GPa) = 35.73336 42.93321 39.33328
#
# Velocity S-wave (km/s) = 4.03935 4.42763 4.23794
# Velocity P-wave (km/s) = 6.38768 7.35585 6.88879
#
# Compressibility (1/GPa) = 0.02397262
#
# Stress axis : x y z
#
# Youngs Moduli (GPa) = 73.25408 78.89037 101.96118
#
# Poissons Ratio (x) = 0.41862 0.05066
# Poissons Ratio (y) = 0.38871 0.02833
# Poissons Ratio (z) = 0.03639 0.02192
#
# Static dielectric constant tensor:
#      x y z
#    x 1.810760 -0.026860 0.017350 
#    y -0.026860 1.800250 0.011940 
#    z 0.017350 0.011940 2.013690 
# 
# From -- ./inp_files/217769.got.cif
#   From: 2010.05.17/outbox.ucp.g08.bks.cvg/sg2_109_cif.got.tgz:217769.got - 2010.06.11 11:32:03.
