data_PCOD9074571
_publ_section_title
;
Structure prediction by ZEFSAII (Michael W. Deem and Ramdas Pophale) SiO2 
 PCOD9074571
Probable space group: P -1
;
_chemical_formula_sum "Si O2"
_cell_formula_units_Z 15
_cell_length_a 9.000000
_cell_length_b 12.000000
_cell_length_c 9.000000
_cell_angle_alpha 120.000000
_cell_angle_beta 50.000000
_cell_angle_gamma 110.000000
_cell_volume 644.526612
_symmetry_space_group_name_H-M "P -1"
_symmetry_group_IT_number 2
_symmetry_cell_setting 'triclinic'
loop_
_space_group_symop_operation_xyz
x,y,z
-x,-y,-z
loop_
_atom_site_type_symbol
_atom_site_label
_atom_site_fract_x
_atom_site_fract_y
_atom_site_fract_z
Si Si1 0.969899 0.734827 0.443485
Si Si2 0.220658 0.904588 0.597376
Si Si3 0.334597 0.344567 0.641722
Si Si4 0.000000 0.500000 0.500000
Si Si5 0.257271 0.626431 0.950852
Si Si6 0.307360 0.366238 0.206872
Si Si7 0.778490 0.310201 0.296450
Si Si8 0.650488 0.832754 0.202608
O O1 0.781623 0.740266 0.463509
O O2 0.892522 0.641956 0.566716
O O3 0.057055 0.858925 0.554825
O O4 0.135359 0.672455 0.199104
O O5 0.220766 0.813284 0.680714
O O6 0.431293 0.884432 0.372235
O O7 0.211979 0.048278 0.758528
O O8 0.229167 0.478582 0.818766
O O9 0.560398 0.365212 0.469871
O O10 0.337286 0.271206 0.745308
O O11 0.754771 0.496974 0.722071
O O12 0.931619 0.407715 0.336286
O O13 0.486943 0.636007 0.847611
O O14 0.188409 0.712060 0.913652
O O15 0.298531 0.241509 0.027986
#
# Coordination Sequence:
#
# PCOD9074571 Si02
#       8
#     2   2   2   1   2   2   2   2
#     4  12  25  42  69 104 136 185 232 281 347 421
#     4  10  23  47  70  97 135 186 245 277 339 412
#     4  11  24  42  68 103 140 179 227 284 358 411
#     4  12  24  38  72 104 132 180 228 272 354 420
#     4  12  25  44  68 104 147 177 222 290 356 412
#     4  12  25  44  70 104 141 183 228 285 350 415
#     4  11  23  43  70  98 143 179 223 292 343 413
#     4  10  25  46  69  97 138 187 233 293 335 403
#
# _framework density 23.272894999999998
#
# number of rings (size 3 to 8) (size 9 to 14) (size 15 to 20)
#    0.000    0.800    5.333    1.600    3.733    1.600 
#    0.000    2.000    0.000    0.000    0.000    0.000 
#    0.000    0.000    0.000    0.000    0.000    0.000 
#
# Total GULP energy -83755.548487 kJ/mol
# GULP energy per Si atom -5583.703232 kJ/mol
# Density = 2.321992 g / cm^3
# Si number density = 23.272895 Si / 1000 Ang^3
#
#
#
# Elastic Constant Matrix: (Units=GPa)
#
#
# Indices 1 2 3 4 5 6 
#
# 1 144.8695 1.1981 50.9096 -8.2430 -1.9777 39.4849
# 2 1.1981 46.4645 38.9942 3.0477 14.7374 24.8817
# 3 50.9096 38.9942 108.7491 -3.3648 20.7324 -1.6818
# 4 -8.2430 3.0477 -3.3648 23.7776 3.9367 4.8757
# 5 -1.9777 14.7374 20.7324 3.9367 31.7553 8.2910
# 6 39.4849 24.8817 -1.6818 4.8757 8.2910 26.7251
#
#
#
# Elastic Compliance Matrix: (Units=1/GPa)
#
#
# Indices 1 2 3 4 5 6 
#
# 1 -0.002757 -0.019187 0.009107 -0.001552 -0.003233 0.023795
# 2 -0.019187 -0.010391 0.016593 -0.009486 -0.018151 0.046427
# 3 0.009107 0.016593 -0.001453 0.006934 0.000931 -0.030548
# 4 -0.001552 -0.009486 0.006934 0.043710 -0.007156 0.005807
# 5 -0.003233 -0.018151 0.000931 -0.007156 0.036972 0.011571
# 6 0.023795 0.046427 -0.030548 0.005807 0.011571 -0.047535
#
#
# Mechanical properties :
#
#
# Convention : Reuss Voigt Hill
#
# Bulk Modulus (GPa) = -634.97821 53.58744 -290.69538
# Shear Modulus (GPa) = 1000.87326 30.38368 515.62847
#
# Velocity S-wave (km/s) = 20.76038 3.61714 14.90096
# Velocity P-wave (km/s) = 17.35584 6.36558 13.07184
#
# Compressibility (1/GPa) = -0.00157486
#
# Stress axis : x y z
#
# Youngs Moduli (GPa) = -362.74282 -96.23775 -688.35770
#
# Poissons Ratio (x) = -1.84647 6.26863
# Poissons Ratio (y) = -6.95980 11.42174
# Poissons Ratio (z) = 3.30337 1.59685
#
# Static dielectric constant tensor:
#      x y z
#    x 1.885090 -0.022750 -0.015260 
#    y -0.022750 1.924010 -0.080020 
#    z -0.015260 -0.080020 1.954600 
# 
# From -- ./inp_files/189705.got.cif
#   From: 2010.05.17/outbox.ucp.g08.bks.cvg/sg2_95_cif.got.tgz:189705.got - 2010.06.11 11:32:03.
