data_PCOD9074372
_publ_section_title
;
Structure prediction by ZEFSAII (Michael W. Deem and Ramdas Pophale) SiO2 
 PCOD9074372
Probable space group: P -1
;
_chemical_formula_sum "Si O2"
_cell_formula_units_Z 14
_cell_length_a 9.000000
_cell_length_b 9.000000
_cell_length_c 12.000000
_cell_angle_alpha 80.000000
_cell_angle_beta 140.000000
_cell_angle_gamma 100.000000
_cell_volume 614.029152
_symmetry_space_group_name_H-M "P -1"
_symmetry_group_IT_number 2
_symmetry_cell_setting 'triclinic'
loop_
_space_group_symop_operation_xyz
x,y,z
-x,-y,-z
loop_
_atom_site_type_symbol
_atom_site_label
_atom_site_fract_x
_atom_site_fract_y
_atom_site_fract_z
Si Si1 0.769800 0.871112 0.462696
Si Si2 0.692951 0.416073 0.045108
Si Si3 0.771726 0.455533 0.631752
Si Si4 0.490840 0.386544 0.275912
Si Si5 0.151076 0.133250 0.222967
Si Si6 0.249965 0.828484 0.187839
Si Si7 0.745925 0.185282 0.277942
O O1 0.832572 0.897722 0.629170
O O2 0.514171 0.796820 0.320272
O O3 0.978605 0.775007 0.554361
O O4 0.744266 0.013960 0.346030
O O5 0.674497 0.242746 0.105635
O O6 0.973122 0.455779 0.216587
O O7 0.500000 0.500000 0.000000
O O8 0.626726 0.478234 0.875870
O O9 0.500000 0.500000 0.500000
O O10 0.717883 0.430600 0.473842
O O11 0.822139 0.305394 0.750530
O O12 0.309740 0.284369 0.262060
O O13 0.578349 0.271259 0.249816
O O14 0.242548 0.986979 0.230755
O O15 0.908191 0.158570 0.015314
#
# Coordination Sequence:
#
# PCOD9074372 Si02
#       7
#     2   2   2   2   2   2   2
#     4  11  21  41  64  95 128 165 206 273 317 374
#     4  10  24  43  62  92 133 174 208 259 321 392
#     4  12  25  40  67 100 128 168 220 269 318 382
#     4  11  22  44  68  91 129 171 213 263 324 376
#     4  11  22  38  70  97 120 167 214 268 318 368
#     4  11  22  39  67  98 126 155 223 266 318 373
#     4  10  23  41  64  89 133 169 208 252 330 387
#
# _framework density 22.800219999999999
#
# number of rings (size 3 to 8) (size 9 to 14) (size 15 to 20)
#    0.000    1.143    4.286    2.143    0.000    4.000 
#    0.000    7.143    0.000    0.000    0.000    0.000 
#    0.000    0.000    0.000    0.000    0.000    0.000 
#
# Total GULP energy -77991.396455 kJ/mol
# GULP energy per Si atom -5570.814032 kJ/mol
# Density = 2.274833 g / cm^3
# Si number density = 22.800220 Si / 1000 Ang^3
#
#
#
# Elastic Constant Matrix: (Units=GPa)
#
#
# Indices 1 2 3 4 5 6 
#
# 1 65.2623 23.8418 7.4232 -2.9797 11.3523 18.8230
# 2 23.8418 95.7352 39.8985 -33.8023 -22.7131 30.9864
# 3 7.4232 39.8985 134.1052 -22.1654 -4.8776 21.8668
# 4 -2.9797 -33.8023 -22.1654 57.0307 12.8820 -8.4778
# 5 11.3523 -22.7131 -4.8776 12.8820 46.0147 -20.3520
# 6 18.8230 30.9864 21.8668 -8.4778 -20.3520 36.9971
#
#
#
# Elastic Compliance Matrix: (Units=1/GPa)
#
#
# Indices 1 2 3 4 5 6 
#
# 1 0.025704 -0.005114 0.002784 0.000379 -0.017518 -0.019990
# 2 -0.005114 0.019172 -0.002763 0.007805 0.005034 -0.007265
# 3 0.002784 -0.002763 0.009417 0.002219 -0.004643 -0.006714
# 4 0.000379 0.007805 0.002219 0.023354 -0.004934 -0.005404
# 5 -0.017518 0.005034 -0.004643 -0.004934 0.042579 0.029733
# 6 -0.019990 -0.007265 -0.006714 -0.005404 0.029733 0.062370
#
#
# Mechanical properties :
#
#
# Convention : Reuss Voigt Hill
#
# Bulk Modulus (GPa) = 22.67194 48.60330 35.63762
# Shear Modulus (GPa) = 24.09812 42.93775 33.51794
#
# Velocity S-wave (km/s) = 3.25457 4.34431 3.83831
# Velocity P-wave (km/s) = 4.90798 6.82110 5.94204
#
# Compressibility (1/GPa) = 0.04410738
#
# Stress axis : x y z
#
# Youngs Moduli (GPa) = 38.90390 52.15895 106.18664
#
# Poissons Ratio (x) = 0.26672 -0.29558
# Poissons Ratio (y) = 0.19894 0.29342
# Poissons Ratio (z) = -0.10829 0.14413
#
# Static dielectric constant tensor:
#      x y z
#    x 1.961120 0.029580 -0.029860 
#    y 0.029580 1.971810 0.047460 
#    z -0.029860 0.047460 1.822010 
# 
# From -- ./inp_files/243765.got.cif
#   From: 2010.05.17/outbox.ucp.g08.bks.cvg/sg2_122_cif.got.tgz:243765.got - 2010.06.11 11:32:03.
