data_PCOD9074233
_publ_section_title
;
Structure prediction by ZEFSAII (Michael W. Deem and Ramdas Pophale) SiO2 
 PCOD9074233
Probable space group: P -1
;
_chemical_formula_sum "Si O2"
_cell_formula_units_Z 14
_cell_length_a 9.000000
_cell_length_b 21.000000
_cell_length_c 12.000000
_cell_angle_alpha 30.000000
_cell_angle_beta 60.000000
_cell_angle_gamma 40.000000
_cell_volume 627.666119
_symmetry_space_group_name_H-M "P -1"
_symmetry_group_IT_number 2
_symmetry_cell_setting 'triclinic'
loop_
_space_group_symop_operation_xyz
x,y,z
-x,-y,-z
loop_
_atom_site_type_symbol
_atom_site_label
_atom_site_fract_x
_atom_site_fract_y
_atom_site_fract_z
Si Si1 0.700175 0.274830 0.132742
Si Si2 0.375882 0.189971 0.381746
Si Si3 0.744900 0.669195 0.554885
Si Si4 0.139390 0.633362 0.390152
Si Si5 0.135328 0.976934 0.230237
Si Si6 0.954995 0.731968 0.826799
Si Si7 0.353805 0.626672 0.547789
O O1 0.498795 0.266508 0.229771
O O2 0.833821 0.272630 0.195806
O O3 0.511361 0.472580 0.826539
O O4 0.947561 0.090735 0.238698
O O5 0.276154 0.226315 0.488626
O O6 0.140143 0.282282 0.239297
O O7 0.655012 0.953242 0.626315
O O8 0.446149 0.816308 0.396099
O O9 0.930689 0.638643 0.446982
O O10 0.917731 0.451619 0.866948
O O11 0.228422 0.610423 0.520476
O O12 0.405571 0.446980 0.502280
O O13 0.994282 0.840368 0.077380
O O14 0.142528 0.842682 0.358172
#
# Coordination Sequence:
#
# PCOD9074233 Si02
#       7
#     2   2   2   2   2   2   2
#     4  11  23  45  67  97 136 167 219 268 319 395
#     4  11  26  43  66  98 133 173 216 269 323 384
#     4  12  24  42  64  98 130 170 218 264 326 388
#     4  10  24  42  66  96 131 166 220 271 317 396
#     4  11  23  41  67  97 127 173 214 264 333 380
#     4  11  24  43  65  96 132 173 218 264 325 383
#     4  10  22  44  68  95 127 173 214 268 334 375
#
# _framework density 22.304852
#
# number of rings (size 3 to 8) (size 9 to 14) (size 15 to 20)
#    0.000    1.143    2.857    2.571    0.000    5.714 
#    0.000    0.000    0.000    0.000    0.000    0.000 
#    0.000    0.000    0.000    0.000    0.000    0.000 
#
# Total GULP energy -77965.360333 kJ/mol
# GULP energy per Si atom -5568.954310 kJ/mol
# Density = 2.225409 g / cm^3
# Si number density = 22.304852 Si / 1000 Ang^3
#
#
#
# Elastic Constant Matrix: (Units=GPa)
#
#
# Indices 1 2 3 4 5 6 
#
# 1 112.5609 38.7059 9.2053 -6.4316 30.7296 6.1786
# 2 38.7059 60.3483 -16.6870 -1.4930 -10.2020 -11.0862
# 3 9.2053 -16.6870 78.9077 -11.5969 17.6594 -1.1685
# 4 -6.4316 -1.4930 -11.5969 12.4943 11.5427 10.8215
# 5 30.7296 -10.2020 17.6594 11.5427 45.0349 -8.4258
# 6 6.1786 -11.0862 -1.1685 10.8215 -8.4258 49.4932
#
#
#
# Elastic Compliance Matrix: (Units=1/GPa)
#
#
# Indices 1 2 3 4 5 6 
#
# 1 -0.006712 0.008439 -0.013930 -0.064721 0.032680 0.022114
# 2 0.008439 0.009033 0.016919 0.064570 -0.030245 -0.017897
# 3 -0.013930 0.016919 0.010254 -0.025190 0.018472 0.014423
# 4 -0.064721 0.064570 -0.025190 -0.142147 0.118806 0.073254
# 5 0.032680 -0.030245 0.018472 0.118806 -0.053142 -0.045442
# 6 0.022114 -0.017897 0.014423 0.073254 -0.045442 -0.009977
#
#
# Mechanical properties :
#
#
# Convention : Reuss Voigt Hill
#
# Bulk Modulus (GPa) = 28.22519 34.91835 31.57177
# Shear Modulus (GPa) = -24.54149 36.11065 5.78458
#
# Velocity S-wave (km/s) = -3.32064 4.02799 1.61216
# Velocity P-wave (km/s) = 1.42142 6.10917 4.20128
#
# Compressibility (1/GPa) = 0.03542935
#
# Stress axis : x y z
#
# Youngs Moduli (GPa) = -148.98074 110.70476 97.52724
#
# Poissons Ratio (x) = -0.93423 1.35860
# Poissons Ratio (y) = 1.25724 -1.65007
# Poissons Ratio (z) = -2.07537 -1.87302
#
# Static dielectric constant tensor:
#      x y z
#    x 1.868850 0.000360 -0.067020 
#    y 0.000360 1.885440 0.021350 
#    z -0.067020 0.021350 1.839500 
# 
# From -- ./inp_files/272948.got.cif
#   From: 2010.05.17/outbox.ucp.g08.bks.cvg/sg2_137_cif.got.tgz:272948.got - 2010.06.11 11:32:03.
