data_PCOD9074221
_publ_section_title
;
Structure prediction by ZEFSAII (Michael W. Deem and Ramdas Pophale) SiO2 
 PCOD9074221
Probable space group: P -1
;
_chemical_formula_sum "Si O2"
_cell_formula_units_Z 14
_cell_length_a 15.000000
_cell_length_b 21.000000
_cell_length_c 12.000000
_cell_angle_alpha 150.000000
_cell_angle_beta 150.000000
_cell_angle_gamma 20.000000
_cell_volume 615.533390
_symmetry_space_group_name_H-M "P -1"
_symmetry_group_IT_number 2
_symmetry_cell_setting 'triclinic'
loop_
_space_group_symop_operation_xyz
x,y,z
-x,-y,-z
loop_
_atom_site_type_symbol
_atom_site_label
_atom_site_fract_x
_atom_site_fract_y
_atom_site_fract_z
Si Si1 0.340282 0.432576 0.817812
Si Si2 0.175832 0.662672 0.761359
Si Si3 0.366169 0.922637 0.123482
Si Si4 0.066767 0.464762 0.760864
Si Si5 0.680269 0.990911 0.484477
Si Si6 0.229486 0.740575 0.584541
Si Si7 0.773889 0.847218 0.137319
O O1 0.231187 0.572601 0.807714
O O2 0.079767 0.524245 0.744306
O O3 0.531278 0.208659 0.649716
O O4 0.544015 0.416087 0.081961
O O5 0.084468 0.588093 0.481112
O O6 0.919327 0.897709 0.850020
O O7 0.612575 0.721584 0.149846
O O8 0.496439 0.995323 0.366111
O O9 0.305868 0.849008 0.848908
O O10 0.927766 0.634406 0.953437
O O11 0.647114 0.924592 0.238051
O O12 0.015468 0.828216 0.591047
O O13 0.500000 0.500000 0.500000
O O14 0.018914 0.821338 0.375913
O O15 0.500000 0.000000 0.000000
#
# Coordination Sequence:
#
# PCOD9074221 Si02
#       7
#     2   2   2   2   2   2   2
#     4  11  24  43  68  95 130 179 215 281 326 395
#     4  11  24  41  67  97 132 170 226 264 346 388
#     4  12  23  42  68 100 128 183 219 267 334 409
#     4  12  25  40  66 101 134 164 228 276 327 387
#     4  10  23  42  69  92 137 176 218 269 339 386
#     4  10  22  44  65  91 135 178 217 267 332 393
#     4  10  23  43  68  95 133 174 222 276 328 388
#
# _framework density 22.744501
#
# number of rings (size 3 to 8) (size 9 to 14) (size 15 to 20)
#    0.857    0.286    4.286    1.714    2.000    4.000 
#    2.571    0.714    0.000    0.000    0.000    0.000 
#    0.000    0.000    0.000    0.000    0.000    0.000 
#
# Total GULP energy -77947.496378 kJ/mol
# GULP energy per Si atom -5567.678313 kJ/mol
# Density = 2.269273 g / cm^3
# Si number density = 22.744501 Si / 1000 Ang^3
#
#
#
# Elastic Constant Matrix: (Units=GPa)
#
#
# Indices 1 2 3 4 5 6 
#
# 1 42.0389 7.4185 15.9757 4.2871 6.8367 -12.4561
# 2 7.4185 76.1231 41.5493 -14.5609 -7.8017 0.5251
# 3 15.9757 41.5493 175.9459 6.6736 7.4104 -8.3299
# 4 4.2871 -14.5609 6.6736 44.1645 -11.4179 0.3529
# 5 6.8367 -7.8017 7.4104 -11.4179 39.0725 6.2946
# 6 -12.4561 0.5251 -8.3299 0.3529 6.2946 18.3272
#
#
#
# Elastic Compliance Matrix: (Units=1/GPa)
#
#
# Indices 1 2 3 4 5 6 
#
# 1 0.038814 -0.008770 0.001317 -0.011676 -0.017601 0.033499
# 2 -0.008770 0.020761 -0.005728 0.011887 0.012440 -0.013660
# 3 0.001317 -0.005728 0.007610 -0.004556 -0.005177 0.006384
# 4 -0.011676 0.011887 -0.004556 0.033096 0.017701 -0.017063
# 5 -0.017601 0.012440 -0.005177 0.017701 0.042057 -0.029458
# 6 0.033499 -0.013660 0.006384 -0.017063 -0.029458 0.091070
#
#
# Mechanical properties :
#
#
# Convention : Reuss Voigt Hill
#
# Bulk Modulus (GPa) = 24.49628 47.11051 35.80339
# Shear Modulus (GPa) = 18.28983 35.59047 26.94015
#
# Velocity S-wave (km/s) = 2.83882 3.96004 3.44534
# Velocity P-wave (km/s) = 4.64099 6.45501 5.62165
#
# Compressibility (1/GPa) = 0.04082253
#
# Stress axis : x y z
#
# Youngs Moduli (GPa) = 25.76420 48.16828 131.41183
#
# Poissons Ratio (x) = 0.42242 -0.17305
# Poissons Ratio (y) = 0.22594 0.75270
# Poissons Ratio (z) = -0.03393 0.27590
#
# Static dielectric constant tensor:
#      x y z
#    x 1.948200 0.083220 -0.047570 
#    y 0.083220 1.839890 -0.054420 
#    z -0.047570 -0.054420 1.852050 
# 
# From -- ./inp_files/457780.got.cif
#   From: 2010.05.17/outbox.ucp.g08.bks.cvg/sg2_229_cif.got.tgz:457780.got - 2010.06.11 11:32:03.
