data_PCOD9074677
_publ_section_title
;
Structure prediction by ZEFSAII (Michael W. Deem and Ramdas Pophale) SiO2 
 PCOD9074677
Probable space group: P -1
;
_chemical_formula_sum "Si O2"
_cell_formula_units_Z 14
_cell_length_a 15.000000
_cell_length_b 15.000000
_cell_length_c 24.000000
_cell_angle_alpha 20.000000
_cell_angle_beta 160.000000
_cell_angle_gamma 150.000000
_cell_volume 624.976433
_symmetry_space_group_name_H-M "P -1"
_symmetry_group_IT_number 2
_symmetry_cell_setting 'triclinic'
loop_
_space_group_symop_operation_xyz
x,y,z
-x,-y,-z
loop_
_atom_site_type_symbol
_atom_site_label
_atom_site_fract_x
_atom_site_fract_y
_atom_site_fract_z
Si Si1 0.937454 0.756952 0.004205
Si Si2 0.745820 0.640426 0.077986
Si Si3 0.235943 0.597798 0.981853
Si Si4 0.492078 0.845246 0.307955
Si Si5 0.661121 0.580481 0.680959
Si Si6 0.589142 0.191229 0.487449
Si Si7 0.250536 0.208692 0.625493
O O1 0.860737 0.024766 0.766234
O O2 0.829304 0.788233 0.984966
O O3 0.804264 0.526992 0.029970
O O4 0.251022 0.702318 0.228105
O O5 0.995118 0.418869 0.367009
O O6 0.500000 0.500000 0.000000
O O7 0.647572 0.854098 0.941528
O O8 0.976785 0.506841 0.911937
O O9 0.216601 0.910069 0.795283
O O10 0.512210 0.467675 0.247798
O O11 0.594740 0.748061 0.486401
O O12 0.703385 0.816632 0.399497
O O13 0.567178 0.751707 0.579586
O O14 0.496457 0.333676 0.723220
O O15 0.500000 0.000000 0.500000
#
# Coordination Sequence:
#
# PCOD9074677 Si02
#       7
#     2   2   2   2   2   2   2
#     4  11  21  44  70  98 138 186 231 283 350 412
#     4  12  24  39  66 105 143 178 228 285 352 414
#     4  11  25  44  68  99 143 184 231 281 340 417
#     4  12  23  44  71 107 141 181 227 292 356 411
#     4  12  22  45  73  97 140 183 228 290 348 410
#     4  10  24  44  71  97 132 191 240 276 339 414
#     4  12  26  43  70 112 141 177 230 288 357 412
#
# _framework density 22.400845
#
# number of rings (size 3 to 8) (size 9 to 14) (size 15 to 20)
#    0.000    0.571    4.286    4.714    0.000    2.286 
#    0.000    0.714    0.000    0.000    0.000    0.000 
#    0.000    0.000    0.000    0.000    0.000    0.000 
#
# Total GULP energy -78184.666945 kJ/mol
# GULP energy per Si atom -5584.619068 kJ/mol
# Density = 2.234986 g / cm^3
# Si number density = 22.400845 Si / 1000 Ang^3
#
#
#
# Elastic Constant Matrix: (Units=GPa)
#
#
# Indices 1 2 3 4 5 6 
#
# 1 62.7761 5.1104 -1.5546 -5.9314 15.0818 -29.0548
# 2 5.1104 97.1783 30.9869 -15.4976 -1.6819 1.0065
# 3 -1.5546 30.9869 113.3388 -19.8049 -10.1009 -3.7804
# 4 -5.9314 -15.4976 -19.8049 40.9627 -14.0023 11.5904
# 5 15.0818 -1.6819 -10.1009 -14.0023 40.3738 -3.1473
# 6 -29.0548 1.0065 -3.7804 11.5904 -3.1473 33.1012
#
#
#
# Elastic Compliance Matrix: (Units=1/GPa)
#
#
# Indices 1 2 3 4 5 6 
#
# 1 0.033172 -0.003829 -0.000533 -0.010581 -0.013894 0.031556
# 2 -0.003829 0.012231 -0.002377 0.005484 0.002806 -0.005658
# 3 -0.000533 -0.002377 0.010973 0.006266 0.004951 -0.000865
# 4 -0.010581 0.005484 0.006266 0.040104 0.018015 -0.021069
# 5 -0.013894 0.002806 0.004951 0.018015 0.036427 -0.014560
# 6 0.031556 -0.005658 -0.000865 -0.021069 -0.014560 0.063975
#
#
# Mechanical properties :
#
#
# Convention : Reuss Voigt Hill
#
# Bulk Modulus (GPa) = 23.31111 38.04206 30.67659
# Shear Modulus (GPa) = 22.25587 38.80425 30.53006
#
# Velocity S-wave (km/s) = 3.15545 4.16657 3.69575
# Velocity P-wave (km/s) = 4.86875 6.33769 5.65115
#
# Compressibility (1/GPa) = 0.04289800
#
# Stress axis : x y z
#
# Youngs Moduli (GPa) = 30.14624 81.75668 91.13302
#
# Poissons Ratio (x) = 0.31307 0.04855
# Poissons Ratio (y) = 0.11544 0.21662
# Poissons Ratio (z) = 0.01606 0.19433
#
# Static dielectric constant tensor:
#      x y z
#    x 1.856130 0.002040 0.001840 
#    y 0.002040 1.831040 -0.038830 
#    z 0.001840 -0.038830 1.915090 
# 
# From -- ./inp_files/424927.got.cif
#   From: 2010.05.17/outbox.ucp.g08.bks.cvg/sg2_213_cif.got.tgz:424927.got - 2010.06.11 11:32:03.
