data_PCOD9074826
_publ_section_title
;
Structure prediction by ZEFSAII (Michael W. Deem and Ramdas Pophale) SiO2 
 PCOD9074826
Probable space group: P -1
;
_chemical_formula_sum "Si O2"
_cell_formula_units_Z 16
_cell_length_a 15.000000
_cell_length_b 12.000000
_cell_length_c 15.000000
_cell_angle_alpha 40.000000
_cell_angle_beta 30.000000
_cell_angle_gamma 40.000000
_cell_volume 822.330465
_symmetry_space_group_name_H-M "P -1"
_symmetry_group_IT_number 2
_symmetry_cell_setting 'triclinic'
loop_
_space_group_symop_operation_xyz
x,y,z
-x,-y,-z
loop_
_atom_site_type_symbol
_atom_site_label
_atom_site_fract_x
_atom_site_fract_y
_atom_site_fract_z
Si Si1 0.335909 0.283386 0.444132
Si Si2 0.947604 0.576746 0.629901
Si Si3 0.724344 0.003985 0.819066
Si Si4 0.648410 0.724619 0.350223
Si Si5 0.166924 0.996388 0.067994
Si Si6 0.107392 0.696922 0.597746
Si Si7 0.339499 0.653703 0.992838
Si Si8 0.247390 0.028991 0.537715
O O1 0.336071 0.272998 0.557144
O O2 0.533366 0.300919 0.224717
O O3 0.308698 0.104684 0.530376
O O4 0.145219 0.459570 0.480677
O O5 0.823697 0.775369 0.574960
O O6 0.016735 0.633660 0.628651
O O7 0.821014 0.440782 0.833200
O O8 0.746462 0.040491 0.883635
O O9 0.913827 0.822244 0.742841
O O10 0.774015 0.165909 0.619769
O O11 0.500000 0.000000 0.000000
O O12 0.741318 0.504103 0.377781
O O13 0.426295 0.861763 0.445730
O O14 0.774975 0.834245 0.126430
O O15 0.942038 0.027530 0.251828
O O16 0.252259 0.826915 0.028555
O O17 0.500000 0.500000 0.000000
#
# Coordination Sequence:
#
# PCOD9074826 Si02
#       8
#     2   2   2   2   2   2   2   2
#     4  11  23  40  60 100 146 188 227 272 336 408
#     4  11  22  41  71 102 137 183 235 288 332 409
#     4  11  27  48  80  99 130 178 242 298 343 408
#     4  11  27  43  67 102 150 183 223 283 353 417
#     4  12  26  43  68 107 139 187 235 277 347 420
#     4  10  26  50  70 105 135 174 236 295 347 406
#     4  12  23  35  68 105 141 180 230 277 339 413
#     4  12  22  40  67  96 149 184 225 283 338 408
#
# _framework density 19.456897999999999
#
# number of rings (size 3 to 8) (size 9 to 14) (size 15 to 20)
#    0.000    0.750    5.000    1.500    5.250    4.000 
#    0.000    1.250    0.000    0.000    0.000    0.000 
#    0.000    0.000    0.000    0.000    0.000    0.000 
#
# Total GULP energy -89165.563083 kJ/mol
# GULP energy per Si atom -5572.847693 kJ/mol
# Density = 1.941261 g / cm^3
# Si number density = 19.456898 Si / 1000 Ang^3
#
#
#
# Elastic Constant Matrix: (Units=GPa)
#
#
# Indices 1 2 3 4 5 6 
#
# 1 58.0510 12.5048 37.2888 3.8762 -10.6385 -1.1235
# 2 12.5048 173.1147 51.1834 9.0533 -8.9308 -10.1173
# 3 37.2888 51.1834 186.4300 4.7051 -24.2525 -3.4227
# 4 3.8762 9.0533 4.7051 44.3844 -5.1973 -0.7325
# 5 -10.6385 -8.9308 -24.2525 -5.1973 41.0187 1.6722
# 6 -1.1235 -10.1173 -3.4227 -0.7325 1.6722 36.6616
#
#
#
# Elastic Compliance Matrix: (Units=1/GPa)
#
#
# Indices 1 2 3 4 5 6 
#
# 1 0.020170 -0.000192 -0.003571 -0.000997 0.002948 0.000077
# 2 -0.000192 0.006436 -0.001649 -0.001074 0.000175 0.001587
# 3 -0.003571 -0.001649 0.006891 0.000248 0.002822 -0.000045
# 4 -0.000997 -0.001074 0.000248 0.023113 0.002581 0.000040
# 5 0.002948 0.000175 0.002822 0.002581 0.027210 -0.000787
# 6 0.000077 0.001587 -0.000045 0.000040 -0.000787 0.027749
#
#
# Mechanical properties :
#
#
# Convention : Reuss Voigt Hill
#
# Bulk Modulus (GPa) = 44.10907 68.83884 56.47396
# Shear Modulus (GPa) = 38.47543 45.52085 41.99814
#
# Velocity S-wave (km/s) = 4.45170 4.84216 4.65103
# Velocity P-wave (km/s) = 7.01020 8.16817 7.61124
#
# Compressibility (1/GPa) = 0.02267107
#
# Stress axis : x y z
#
# Youngs Moduli (GPa) = 49.57826 155.37457 145.11263
#
# Poissons Ratio (x) = 0.02988 0.51826
# Poissons Ratio (y) = 0.00953 0.23936
# Poissons Ratio (z) = 0.17706 0.25629
#
# Static dielectric constant tensor:
#      x y z
#    x 1.740360 -0.036810 0.013020 
#    y -0.036810 1.744030 0.001750 
#    z 0.013020 0.001750 1.713820 
# 
# From -- ./inp_files/531608.got.cif
#   From: 2010.05.17/outbox.ucp.g08.bks.cvg/sg2_266_cif.got.tgz:531608.got - 2010.06.11 11:32:03.
