data_PCOD9074081
_publ_section_title
;
Structure prediction by ZEFSAII (Michael W. Deem and Ramdas Pophale) SiO2 
 PCOD9074081
Probable space group: P -1
;
_chemical_formula_sum "Si O2"
_cell_formula_units_Z 16
_cell_length_a 13.306704
_cell_length_b 9.115344
_cell_length_c 14.419827
_cell_angle_alpha 138.216026
_cell_angle_beta 51.004339
_cell_angle_gamma 100.450718
_cell_volume 752.983018
_symmetry_space_group_name_H-M "P -1"
_symmetry_group_IT_number 2
_symmetry_cell_setting 'triclinic'
loop_
_space_group_symop_operation_xyz
x,y,z
-x,-y,-z
loop_
_atom_site_type_symbol
_atom_site_label
_atom_site_fract_x
_atom_site_fract_y
_atom_site_fract_z
Si Si1 0.542306 0.188877 0.938760
Si Si2 0.539581 0.556155 0.383694
Si Si3 0.479337 0.764666 0.236342
Si Si4 0.316925 0.023228 0.053039
Si Si5 0.245455 0.267591 0.711853
Si Si6 0.944327 0.832356 0.857850
Si Si7 0.811449 0.418346 0.272059
Si Si8 0.747242 0.857517 0.156931
O O1 0.502965 0.484389 0.103157
O O2 0.395762 0.173988 0.043685
O O3 0.585667 0.112169 0.770236
O O4 0.666748 0.016069 0.864660
O O5 0.645783 0.617425 0.285424
O O6 0.630243 0.525002 0.413791
O O7 0.369590 0.823408 0.611191
O O8 0.579514 0.274083 0.192838
O O9 0.361365 0.963096 0.474620
O O10 0.636425 0.756605 0.150216
O O11 0.142329 0.163137 0.181738
O O12 0.159887 0.405794 0.730851
O O13 0.170870 0.274935 0.855504
O O14 0.123617 0.622255 0.681218
O O15 0.904656 0.127426 0.033229
O O16 0.854935 0.802916 0.981765
#
# Coordination Sequence:
#
# PCOD9074081 Si02
#       8
#     2   2   2   2   2   2   2   2
#     4  10  20  30  48  73 101 133 168 202 244 278
#     4   8  17  31  51  75 101 125 156 203 257 286
#     4  10  19  32  47  76 102 127 161 208 248 289
#     4  10  18  32  48  70 102 134 167 202 235 294
#     4   9  18  31  52  72 101 128 157 202 260 290
#     4  10  19  32  48  75 106 128 163 196 248 299
#     4   8  19  33  48  71 105 135 150 201 255 303
#     4  11  18  29  54  80  99 125 161 208 252 296
#
# _framework density 21.248819000000001
#
# number of rings (size 3 to 8) (size 9 to 14) (size 15 to 20)
#    0.750    1.750    1.250    3.000    0.000    3.500 
#    0.000    0.000    0.000    1.500    0.000    1.750 
#    0.000    0.000    0.000    0.000    0.000    0.000 
#
# Total GULP energy -89176.928006 kJ/mol
# GULP energy per Si atom -5573.558000 kJ/mol
# Density = 2.120046 g / cm^3
# Si number density = 21.248819 Si / 1000 Ang^3
#
#
#
# Elastic Constant Matrix: (Units=GPa)
#
#
# Indices 1 2 3 4 5 6 
#
# 1 108.1800 31.2236 6.3933 7.2664 0.8489 -28.6516
# 2 31.2236 107.3318 18.6278 9.7858 11.5392 -19.7788
# 3 6.3933 18.6278 34.5562 10.6096 8.8751 13.9025
# 4 7.2664 9.7858 10.6096 24.7458 1.7224 2.4417
# 5 0.8489 11.5392 8.8751 1.7224 19.7452 7.5638
# 6 -28.6516 -19.7788 13.9025 2.4417 7.5638 44.8403
#
#
#
# Elastic Compliance Matrix: (Units=1/GPa)
#
#
# Indices 1 2 3 4 5 6 
#
# 1 0.012368 -0.000707 -0.004645 -0.002187 -0.001438 0.009393
# 2 -0.000707 0.013830 -0.008654 -0.001975 -0.007721 0.009742
# 3 -0.004645 -0.008654 0.048596 -0.013551 -0.007821 -0.019795
# 4 -0.002187 -0.001975 -0.013551 0.047514 0.003683 -0.001276
# 5 -0.001438 -0.007721 -0.007821 0.003683 0.063309 -0.012780
# 6 0.009393 0.009742 -0.019795 -0.001276 -0.012780 0.040963
#
#
# Mechanical properties :
#
#
# Convention : Reuss Voigt Hill
#
# Bulk Modulus (GPa) = 21.37593 40.28416 30.83004
# Shear Modulus (GPa) = 18.50571 30.78782 24.64676
#
# Velocity S-wave (km/s) = 2.95431 3.81060 3.40944
# Velocity P-wave (km/s) = 4.66036 6.19357 5.48084
#
# Compressibility (1/GPa) = 0.04678160
#
# Stress axis : x y z
#
# Youngs Moduli (GPa) = 80.85107 72.30721 20.57780
#
# Poissons Ratio (x) = 0.05111 0.09559
# Poissons Ratio (y) = 0.05715 0.17808
# Poissons Ratio (z) = 0.37558 0.62576
#
# Static dielectric constant tensor:
#      x y z
#    x 1.851470 -0.043660 -0.013730 
#    y -0.043660 1.826360 0.005200 
#    z -0.013730 0.005200 1.736080 
# 
# From -- ./inp_files/526984.got.cif
#   From: 2010.05.17/outbox.cif.g08.bks.cpg/sg2_264_cif.got.tgz:526984.got - 2010.06.03 11:33:40.
