data_PCOD9074774
_publ_section_title
;
Structure prediction by ZEFSAII (Michael W. Deem and Ramdas Pophale) SiO2 
 PCOD9074774
Probable space group: P -1
;
_chemical_formula_sum "Si O2"
_cell_formula_units_Z 12
_cell_length_a 15.000000
_cell_length_b 15.000000
_cell_length_c 9.000000
_cell_angle_alpha 130.000000
_cell_angle_beta 50.000000
_cell_angle_gamma 160.000000
_cell_volume 524.716012
_symmetry_space_group_name_H-M "P -1"
_symmetry_group_IT_number 2
_symmetry_cell_setting 'triclinic'
loop_
_space_group_symop_operation_xyz
x,y,z
-x,-y,-z
loop_
_atom_site_type_symbol
_atom_site_label
_atom_site_fract_x
_atom_site_fract_y
_atom_site_fract_z
Si Si1 0.904195 0.825689 0.793648
Si Si2 0.540838 0.767547 0.363073
Si Si3 0.654902 0.044390 0.281819
Si Si4 0.771881 0.727908 0.534969
Si Si5 0.850134 0.411538 0.847608
Si Si6 0.149601 0.475174 0.707033
O O1 0.696220 0.536695 0.750400
O O2 0.751066 0.756624 0.755103
O O3 0.190698 0.044096 0.656978
O O4 0.000000 0.000000 0.000000
O O5 0.652856 0.933417 0.276179
O O6 0.401923 0.718986 0.589160
O O7 0.446514 0.834989 0.150867
O O8 0.500000 0.000000 0.500000
O O9 0.933445 0.337752 0.229550
O O10 0.500000 0.500000 0.500000
O O11 0.838438 0.651276 0.405888
O O12 0.000000 0.000000 0.500000
O O13 0.925154 0.342110 0.711282
O O14 0.863120 0.478466 0.068548
#
# Coordination Sequence:
#
# PCOD9074774 Si02
#       6
#     2   2   2   2   2   2
#     4  11  25  45  70 101 135 182 231 282 346 405
#     4  11  24  43  72 100 141 179 220 288 339 410
#     4  12  25  42  67 102 137 173 226 271 342 398
#     4  11  25  43  69  94 134 178 225 289 333 400
#     4  11  26  43  70 100 139 183 220 283 327 426
#     4  10  25  46  68 100 137 180 232 268 353 396
#
# _framework density 22.869513999999999
#
# number of rings (size 3 to 8) (size 9 to 14) (size 15 to 20)
#    0.000    1.000    1.667    4.000    4.667   12.000 
#    0.000    0.000    0.000    0.000    0.000    0.000 
#    0.000    0.000    0.000    0.000    0.000    0.000 
#
# Total GULP energy -66961.820341 kJ/mol
# GULP energy per Si atom -5580.151695 kJ/mol
# Density = 2.281746 g / cm^3
# Si number density = 22.869514 Si / 1000 Ang^3
#
#
#
# Elastic Constant Matrix: (Units=GPa)
#
#
# Indices 1 2 3 4 5 6 
#
# 1 112.3488 44.7501 26.2146 9.9380 14.8654 -11.7392
# 2 44.7501 130.0865 22.2802 22.7422 -4.8589 -0.4237
# 3 26.2146 22.2802 85.9243 2.0815 11.5517 -0.0017
# 4 9.9380 22.7422 2.0815 21.2460 10.2967 -0.7984
# 5 14.8654 -4.8589 11.5517 10.2967 27.4478 0.4904
# 6 -11.7392 -0.4237 -0.0017 -0.7984 0.4904 45.0683
#
#
#
# Elastic Compliance Matrix: (Units=1/GPa)
#
#
# Indices 1 2 3 4 5 6 
#
# 1 0.012353 -0.005012 -0.001418 0.003987 -0.008536 0.003334
# 2 -0.005012 0.013782 -0.003427 -0.018756 0.013662 -0.001657
# 3 -0.001418 -0.003427 0.013907 0.006990 -0.008310 -0.000187
# 4 0.003987 -0.018756 0.006990 0.084094 -0.040018 0.002788
# 5 -0.008536 0.013662 -0.008310 -0.040018 0.062046 -0.003479
# 6 0.003334 -0.001657 -0.000187 0.002788 -0.003479 0.023129
#
#
# Mechanical properties :
#
#
# Convention : Reuss Voigt Hill
#
# Bulk Modulus (GPa) = 49.19170 57.20550 53.19860
# Shear Modulus (GPa) = 21.20430 34.42674 27.81552
#
# Velocity S-wave (km/s) = 3.04828 3.88410 3.49129
# Velocity P-wave (km/s) = 5.82630 6.72184 6.29003
#
# Compressibility (1/GPa) = 0.02032863
#
# Stress axis : x y z
#
# Youngs Moduli (GPa) = 80.95160 72.55802 71.90414
#
# Poissons Ratio (x) = 0.36364 0.10198
# Poissons Ratio (y) = 0.40570 0.24642
# Poissons Ratio (z) = 0.11481 0.24866
#
# Static dielectric constant tensor:
#      x y z
#    x 2.231290 0.310080 -0.188410 
#    y 0.310080 2.141610 -0.147250 
#    z -0.188410 -0.147250 2.152000 
# 
# From -- ./inp_files/311910.got.cif
#   From: 2010.05.17/outbox.ucp.g08.bks.cvg/sg2_156_cif.got.tgz:311910.got - 2010.06.11 11:32:03.
