data_PCOD9074945
_publ_section_title
;
Structure prediction by ZEFSAII (Michael W. Deem and Ramdas Pophale) SiO2 
 PCOD9074945
Probable space group: P -1
;
_chemical_formula_sum "Si O2"
_cell_formula_units_Z 14
_cell_length_a 21.000000
_cell_length_b 12.000000
_cell_length_c 9.000000
_cell_angle_alpha 40.000000
_cell_angle_beta 50.000000
_cell_angle_gamma 30.000000
_cell_volume 727.418465
_symmetry_space_group_name_H-M "P -1"
_symmetry_group_IT_number 2
_symmetry_cell_setting 'triclinic'
loop_
_space_group_symop_operation_xyz
x,y,z
-x,-y,-z
loop_
_atom_site_type_symbol
_atom_site_label
_atom_site_fract_x
_atom_site_fract_y
_atom_site_fract_z
Si Si1 0.357962 0.684937 0.728233
Si Si2 0.831846 0.015956 0.030503
Si Si3 0.631023 0.319688 0.758816
Si Si4 0.313874 0.467256 0.779292
Si Si5 0.990664 0.556118 0.780447
Si Si6 0.982676 0.985297 0.365106
Si Si7 0.298308 0.076236 0.185772
O O1 0.483683 0.513958 0.812084
O O2 0.368735 0.489722 0.815061
O O3 0.357122 0.854220 0.448136
O O4 0.231894 0.881497 0.816907
O O5 0.719451 0.202918 0.886843
O O6 0.922090 0.039455 0.841523
O O7 0.907217 0.719226 0.182025
O O8 0.354492 0.526973 0.518708
O O9 0.676677 0.076631 0.845234
O O10 0.338329 0.218531 0.983972
O O11 0.161432 0.734153 0.744733
O O12 0.853259 0.700244 0.791239
O O13 0.999952 0.750815 0.551909
O O14 0.000000 0.500000 0.000000
O O15 0.000000 0.000000 0.500000
#
# Coordination Sequence:
#
# PCOD9074945 Si02
#       7
#     2   2   2   2   2   2   2
#     4  11  27  43  57  95 135 171 201 247 321 379
#     4  12  25  40  66  94 131 163 202 264 318 371
#     4  11  23  43  67  89 125 171 218 249 296 379
#     4  11  21  41  68  94 122 162 214 261 307 364
#     4  12  20  38  66  95 121 154 211 263 309 363
#     4  12  20  38  66  95 121 154 211 263 309 363
#     4  11  21  41  68  94 122 162 214 261 307 364
#
# _framework density 19.246143
#
# number of rings (size 3 to 8) (size 9 to 14) (size 15 to 20)
#    0.000    0.571    8.571    2.143    0.000    4.571 
#    0.000    0.000    0.000    5.143    0.000    0.000 
#    0.000    0.000    0.000    0.000    0.000    0.000 
#
# Total GULP energy -78178.445313 kJ/mol
# GULP energy per Si atom -5584.174665 kJ/mol
# Density = 1.920234 g / cm^3
# Si number density = 19.246143 Si / 1000 Ang^3
#
#
#
# Elastic Constant Matrix: (Units=GPa)
#
#
# Indices 1 2 3 4 5 6 
#
# 1 88.0148 7.8561 35.3720 -6.6838 -31.8150 -8.8919
# 2 7.8561 48.5305 15.3565 6.1110 -16.1438 -3.8260
# 3 35.3720 15.3565 92.2146 -10.5636 -46.3596 16.0875
# 4 -6.6838 6.1110 -10.5636 20.4440 7.3596 -1.8138
# 5 -31.8150 -16.1438 -46.3596 7.3596 49.7027 -12.4052
# 6 -8.8919 -3.8260 16.0875 -1.8138 -12.4052 48.6354
#
#
#
# Elastic Compliance Matrix: (Units=1/GPa)
#
#
# Indices 1 2 3 4 5 6 
#
# 1 0.016786 0.002168 -0.002577 0.000258 0.010713 0.006834
# 2 0.002168 0.026567 -0.001819 -0.011803 0.011458 0.005571
# 3 -0.002577 -0.001819 0.021393 0.004629 0.016182 -0.003390
# 4 0.000258 -0.011803 0.004629 0.057767 -0.008511 -0.002429
# 5 0.010713 0.011458 0.016182 -0.008511 0.049503 0.009816
# 6 0.006834 0.005571 -0.003390 -0.002429 0.009816 0.025784
#
#
# Mechanical properties :
#
#
# Convention : Reuss Voigt Hill
#
# Bulk Modulus (GPa) = 16.58643 38.43655 27.51149
# Shear Modulus (GPa) = 22.48687 35.10145 28.79416
#
# Velocity S-wave (km/s) = 3.42187 4.27525 3.87214
# Velocity P-wave (km/s) = 4.92433 6.66219 5.85806
#
# Compressibility (1/GPa) = 0.06029024
#
# Stress axis : x y z
#
# Youngs Moduli (GPa) = 59.57213 37.64010 46.74530
#
# Poissons Ratio (x) = -0.08161 0.12045
# Poissons Ratio (y) = -0.12916 0.08505
# Poissons Ratio (z) = 0.15350 0.06848
#
# Static dielectric constant tensor:
#      x y z
#    x 1.675770 -0.029290 0.030820 
#    y -0.029290 1.698090 -0.013130 
#    z 0.030820 -0.013130 1.663900 
# 
# From -- ./inp_files/281699.got.cif
#   From: 2010.05.17/outbox.ucp.g08.bks.cvg/sg2_141_cif.got.tgz:281699.got - 2010.06.11 11:32:03.
