data_PCOD9074435
_publ_section_title
;
Structure prediction by ZEFSAII (Michael W. Deem and Ramdas Pophale) SiO2 
 PCOD9074435
Probable space group: P -1
;
_chemical_formula_sum "Si O2"
_cell_formula_units_Z 13
_cell_length_a 9.000000
_cell_length_b 15.000000
_cell_length_c 9.000000
_cell_angle_alpha 140.000000
_cell_angle_beta 130.000000
_cell_angle_gamma 50.000000
_cell_volume 569.686422
_symmetry_space_group_name_H-M "P -1"
_symmetry_group_IT_number 2
_symmetry_cell_setting 'triclinic'
loop_
_space_group_symop_operation_xyz
x,y,z
-x,-y,-z
loop_
_atom_site_type_symbol
_atom_site_label
_atom_site_fract_x
_atom_site_fract_y
_atom_site_fract_z
Si Si1 0.500000 0.500000 0.500000
Si Si2 0.654769 0.304497 0.011333
Si Si3 0.885238 0.328066 0.484192
Si Si4 0.139441 0.016053 0.372264
Si Si5 0.232342 0.032839 0.763734
Si Si6 0.754023 0.561598 0.252426
Si Si7 0.579635 0.746788 0.671775
O O1 0.733492 0.417609 0.625120
O O2 0.581289 0.627897 0.643397
O O3 0.421868 0.376865 0.905240
O O4 0.726720 0.129249 0.812149
O O5 0.704424 0.338496 0.256846
O O6 0.768546 0.396677 0.100244
O O7 0.014432 0.159328 0.382174
O O8 0.039737 0.409859 0.629321
O O9 0.252111 0.068317 0.647728
O O10 0.983957 0.956441 0.290968
O O11 0.360407 0.862703 0.644757
O O12 0.307332 0.142828 0.052214
O O13 0.674307 0.661776 0.474773
#
# Coordination Sequence:
#
# PCOD9074435 Si02
#       7
#     1   2   2   2   2   2   2
#     4  12  26  44  70 102 140 172 238 290 336 412
#     4  11  24  44  73  99 142 181 232 283 342 421
#     4  12  26  45  69 105 140 182 230 292 346 402
#     4  11  23  44  66 106 137 181 233 279 342 417
#     4  10  23  42  72  96 138 186 225 280 349 413
#     4  11  25  46  73 103 135 189 229 281 355 410
#     4  11  22  47  70  98 138 182 229 285 345 408
#
# _framework density 22.819571
#
# number of rings (size 3 to 8) (size 9 to 14) (size 15 to 20)
#    0.000    0.923    4.615    1.846    2.154    1.846 
#    0.000    1.538    0.000    0.000    0.000    0.000 
#    0.000    0.000    0.000    0.000    0.000    0.000 
#
# Total GULP energy -72433.803706 kJ/mol
# GULP energy per Si atom -5571.831054 kJ/mol
# Density = 2.276763 g / cm^3
# Si number density = 22.819571 Si / 1000 Ang^3
#
#
#
# Elastic Constant Matrix: (Units=GPa)
#
#
# Indices 1 2 3 4 5 6 
#
# 1 55.4674 -4.1651 10.1414 3.1766 17.6627 -6.3018
# 2 -4.1651 134.7719 23.4886 13.6816 5.8006 7.8824
# 3 10.1414 23.4886 67.5077 -6.3213 0.2579 -1.6474
# 4 3.1766 13.6816 -6.3213 36.7084 -6.3940 -5.3300
# 5 17.6627 5.8006 0.2579 -6.3940 11.7143 0.3956
# 6 -6.3018 7.8824 -1.6474 -5.3300 0.3956 31.0743
#
#
#
# Elastic Compliance Matrix: (Units=1/GPa)
#
#
# Indices 1 2 3 4 5 6 
#
# 1 0.061304 0.012760 -0.016142 -0.032476 -0.116267 0.004249
# 2 0.012760 0.011870 -0.007175 -0.012675 -0.031792 -0.002573
# 3 -0.016142 -0.007175 0.020953 0.014015 0.035026 0.001615
# 4 -0.032476 -0.012675 0.014015 0.052489 0.083406 0.005314
# 5 -0.116267 -0.031792 0.035026 0.083406 0.321286 -0.003441
# 6 0.004249 -0.002573 0.001615 0.005314 -0.003441 0.034736
#
#
# Mechanical properties :
#
#
# Convention : Reuss Voigt Hill
#
# Bulk Modulus (GPa) = 13.69624 35.18630 24.44127
# Shear Modulus (GPa) = 9.12257 31.11821 20.12039
#
# Velocity S-wave (km/s) = 2.00159 3.69679 2.97259
# Velocity P-wave (km/s) = 3.36999 5.80297 4.74507
#
# Compressibility (1/GPa) = 0.07301276
#
# Stress axis : x y z
#
# Youngs Moduli (GPa) = 16.31207 84.24279 47.72670
#
# Poissons Ratio (x) = -1.07498 0.77042
# Poissons Ratio (y) = -0.20815 0.34246
# Poissons Ratio (z) = 0.26332 0.60447
#
# Static dielectric constant tensor:
#      x y z
#    x 1.582560 0.080560 0.244780 
#    y 0.080560 1.847970 -0.177730 
#    z 0.244780 -0.177730 1.746210 
# 
# From -- ./inp_files/153165.got.cif
#   From: 2010.05.17/outbox.ucp.g08.bks.cvg/sg2_77_cif.got.tgz:153165.got - 2010.06.11 11:32:03.
