data_PCOD9074904
_publ_section_title
;
Structure prediction by ZEFSAII (Michael W. Deem and Ramdas Pophale) SiO2 
 PCOD9074904
Probable space group: P -1
;
_chemical_formula_sum "Si O2"
_cell_formula_units_Z 16
_cell_length_a 21.000000
_cell_length_b 12.000000
_cell_length_c 18.000000
_cell_angle_alpha 30.000000
_cell_angle_beta 20.000000
_cell_angle_gamma 40.000000
_cell_volume 744.844803
_symmetry_space_group_name_H-M "P -1"
_symmetry_group_IT_number 2
_symmetry_cell_setting 'triclinic'
loop_
_space_group_symop_operation_xyz
x,y,z
-x,-y,-z
loop_
_atom_site_type_symbol
_atom_site_label
_atom_site_fract_x
_atom_site_fract_y
_atom_site_fract_z
Si Si1 0.295475 0.905496 0.496542
Si Si2 0.794159 0.651241 0.047935
Si Si3 0.959981 0.727732 0.223892
Si Si4 0.399267 0.283130 0.283027
Si Si5 0.864942 0.485812 0.314795
Si Si6 0.499085 0.834579 0.167874
Si Si7 0.110674 0.083237 0.055503
Si Si8 0.337937 0.845407 0.822933
O O1 0.270756 0.626620 0.699738
O O2 0.420742 0.944690 0.261394
O O3 0.385849 0.047198 0.388923
O O4 0.114387 0.017275 0.614364
O O5 0.674060 0.747436 0.061953
O O6 0.792841 0.789372 0.047612
O O7 0.006036 0.673623 0.766601
O O8 0.806945 0.700453 0.472932
O O9 0.882079 0.545347 0.348462
O O10 0.161912 0.707102 0.045104
O O11 0.000000 0.000000 0.000000
O O12 0.538114 0.300801 0.190177
O O13 0.500000 0.500000 0.000000
O O14 0.654909 0.393901 0.562592
O O15 0.939949 0.734718 0.050947
O O16 0.500000 0.000000 0.000000
O O17 0.235963 0.958670 0.937055
O O18 0.500000 0.000000 0.500000
#
# Coordination Sequence:
#
# PCOD9074904 Si02
#       8
#     2   2   2   2   2   2   2   2
#     4  11  22  47  71  96 137 177 230 284 339 410
#     4  11  23  43  74 100 126 180 232 280 336 403
#     4  12  23  46  69 102 142 180 234 292 340 414
#     4  12  28  46  68 104 143 184 234 289 347 410
#     4  11  23  41  68 101 136 172 227 284 338 400
#     4  12  27  43  65 103 141 177 222 279 348 413
#     4  11  20  43  74 101 130 171 237 292 327 403
#     4  12  25  43  74 101 134 188 234 281 349 410
#
# _framework density 21.480985
#
# number of rings (size 3 to 8) (size 9 to 14) (size 15 to 20)
#    0.000    0.500    6.250    2.625    3.500    2.000 
#    0.000    0.000    0.000    0.000    0.000    0.000 
#    0.000    0.000    0.000    0.000    0.000    0.000 
#
# Total GULP energy -89090.596704 kJ/mol
# GULP energy per Si atom -5568.162294 kJ/mol
# Density = 2.143209 g / cm^3
# Si number density = 21.480985 Si / 1000 Ang^3
#
#
#
# Elastic Constant Matrix: (Units=GPa)
#
#
# Indices 1 2 3 4 5 6 
#
# 1 121.8022 5.0371 16.9241 8.4908 -7.8534 -6.8232
# 2 5.0371 31.3672 0.5365 18.2811 -0.8458 5.4235
# 3 16.9241 0.5365 42.2532 17.1384 7.2733 -17.6814
# 4 8.4908 18.2811 17.1384 23.0704 -1.4959 -4.4725
# 5 -7.8534 -0.8458 7.2733 -1.4959 44.7077 0.3651
# 6 -6.8232 5.4235 -17.6814 -4.4725 0.3651 50.5308
#
#
#
# Elastic Compliance Matrix: (Units=1/GPa)
#
#
# Indices 1 2 3 4 5 6 
#
# 1 0.009021 -0.003345 -0.005458 0.003542 0.002528 -0.000038
# 2 -0.003345 0.095462 0.043667 -0.108427 -0.009473 -0.004946
# 3 -0.005458 0.043667 0.063749 -0.078871 -0.013224 0.009998
# 4 0.003542 -0.108427 -0.078871 0.187895 0.017681 0.001021
# 5 0.002528 -0.009473 -0.013224 0.017681 0.025391 -0.001888
# 6 -0.000038 -0.004946 0.009998 0.001021 -0.001888 0.023918
#
#
# Mechanical properties :
#
#
# Convention : Reuss Voigt Hill
#
# Bulk Modulus (GPa) = 4.20236 26.71312 15.45774
# Shear Modulus (GPa) = 12.04737 35.19009 23.61873
#
# Velocity S-wave (km/s) = 2.37077 4.05186 3.31950
# Velocity P-wave (km/s) = 3.07484 5.86112 4.68014
#
# Compressibility (1/GPa) = 0.23796134
#
# Stress axis : x y z
#
# Youngs Moduli (GPa) = 110.85535 10.47533 15.68641
#
# Poissons Ratio (x) = 0.03504 0.08562
# Poissons Ratio (y) = 0.37079 -0.68498
# Poissons Ratio (z) = 0.60508 -0.45743
#
# Static dielectric constant tensor:
#      x y z
#    x 1.786830 0.002830 0.086050 
#    y 0.002830 1.780410 0.032510 
#    z 0.086050 0.032510 2.865860 
# 
# From -- ./inp_files/499776.got.cif
#   From: 2010.05.17/outbox.ucp.g08.bks.cvg/sg2_250_cif.got.tgz:499776.got - 2010.06.11 11:32:03.
