data_PCOD9074445
_publ_section_title
;
Structure prediction by ZEFSAII (Michael W. Deem and Ramdas Pophale) SiO2 
 PCOD9074445
Probable space group: P -1
;
_chemical_formula_sum "Si O2"
_cell_formula_units_Z 16
_cell_length_a 18.000000
_cell_length_b 27.000000
_cell_length_c 15.000000
_cell_angle_alpha 160.000000
_cell_angle_beta 160.000000
_cell_angle_gamma 20.000000
_cell_volume 746.015535
_symmetry_space_group_name_H-M "P -1"
_symmetry_group_IT_number 2
_symmetry_cell_setting 'triclinic'
loop_
_space_group_symop_operation_xyz
x,y,z
-x,-y,-z
loop_
_atom_site_type_symbol
_atom_site_label
_atom_site_fract_x
_atom_site_fract_y
_atom_site_fract_z
Si Si1 0.766594 0.167882 0.730917
Si Si2 0.717374 0.729513 0.133149
Si Si3 0.923159 0.184972 0.245617
Si Si4 0.655122 0.719073 0.675027
Si Si5 0.039833 0.635524 0.826756
Si Si6 0.031223 0.361982 0.932095
Si Si7 0.578996 0.414049 0.089778
Si Si8 0.175275 0.832790 0.696882
O O1 0.619374 0.153020 0.454072
O O2 0.929932 0.245091 0.006842
O O3 0.585694 0.300533 0.823328
O O4 0.932939 0.005993 0.701065
O O5 0.827243 0.696752 0.102025
O O6 0.813795 0.823810 0.463854
O O7 0.427556 0.833706 0.971038
O O8 0.841801 0.554149 0.027908
O O9 0.745775 0.306653 0.176981
O O10 0.807839 0.235719 0.299993
O O11 0.000000 0.000000 0.000000
O O12 0.674646 0.539279 0.377444
O O13 0.831353 0.738849 0.837042
O O14 0.765668 0.701002 0.867564
O O15 0.000000 0.500000 0.500000
O O16 0.295344 0.532937 0.995807
O O17 0.852766 0.282021 0.602218
#
# Coordination Sequence:
#
# PCOD9074445 Si02
#       8
#     2   2   2   2   2   2   2   2
#     4  11  23  40  59  92 133 156 200 259 305 366
#     4  10  23  44  64  88 126 163 208 257 302 366
#     4  11  23  39  63  98 127 161 195 255 321 367
#     4  11  22  41  65  91 121 164 208 254 303 361
#     4  11  21  36  64  91 117 169 203 241 308 370
#     4  10  23  43  65  87 119 167 213 257 301 356
#     4  11  21  38  60  92 131 154 205 254 304 371
#     4  11  25  41  63  93 126 166 204 255 310 365
#
# _framework density 21.447275000000001
#
# number of rings (size 3 to 8) (size 9 to 14) (size 15 to 20)
#    0.000    1.250    5.000    1.125    1.750    6.000 
#    0.000    1.250    0.000    0.000    0.000    0.000 
#    0.000    0.000    0.000    0.000    0.000    0.000 
#
# Total GULP energy -89128.978604 kJ/mol
# GULP energy per Si atom -5570.561163 kJ/mol
# Density = 2.139846 g / cm^3
# Si number density = 21.447275 Si / 1000 Ang^3
#
#
#
# Elastic Constant Matrix: (Units=GPa)
#
#
# Indices 1 2 3 4 5 6 
#
# 1 64.1835 10.7183 30.8407 -36.2353 -8.8373 24.9043
# 2 10.7183 69.7095 9.0842 10.2669 -4.2474 32.4042
# 3 30.8407 9.0842 106.6198 -44.2714 -12.7488 9.4698
# 4 -36.2353 10.2669 -44.2714 50.3785 5.8469 -11.1724
# 5 -8.8373 -4.2474 -12.7488 5.8469 25.7607 -11.1511
# 6 24.9043 32.4042 9.4698 -11.1724 -11.1511 28.9287
#
#
#
# Elastic Compliance Matrix: (Units=1/GPa)
#
#
# Indices 1 2 3 4 5 6 
#
# 1 0.039061 0.014090 -0.004507 0.011949 -0.009567 -0.047008
# 2 0.014090 0.084684 -0.027706 -0.056808 -0.040695 -0.135544
# 3 -0.004507 -0.027706 0.024470 0.032043 0.018876 0.046556
# 4 0.011949 -0.056808 0.032043 0.083993 0.028951 0.086456
# 5 -0.009567 -0.040695 0.018876 0.028951 0.068488 0.085222
# 6 -0.047008 -0.135544 0.046556 0.086456 0.085222 0.277865
#
#
# Mechanical properties :
#
#
# Convention : Reuss Voigt Hill
#
# Bulk Modulus (GPa) = 8.93099 37.97768 23.45434
# Shear Modulus (GPa) = 7.66718 33.67156 20.66937
#
# Velocity S-wave (km/s) = 1.89279 3.96658 3.10777
# Velocity P-wave (km/s) = 2.99167 6.22288 4.88233
#
# Compressibility (1/GPa) = 0.11196964
#
# Stress axis : x y z
#
# Youngs Moduli (GPa) = 25.60092 11.80863 40.86557
#
# Poissons Ratio (x) = -0.16639 0.18417
# Poissons Ratio (y) = -0.36072 1.13223
# Poissons Ratio (z) = 0.11538 0.32717
#
# Static dielectric constant tensor:
#      x y z
#    x 1.816530 -0.037870 -0.011250 
#    y -0.037870 1.725250 -0.014070 
#    z -0.011250 -0.014070 1.916900 
# 
# From -- ./inp_files/66424.got.cif
#   From: 2010.05.17/outbox.ucp.g08.bks.cvg/sg2_34_cif.got.tgz:66424.got - 2010.06.11 11:32:03.
