data_PCOD9074241
_publ_section_title
;
Structure prediction by ZEFSAII (Michael W. Deem and Ramdas Pophale) SiO2 
 PCOD9074241
Probable space group: P -1
;
_chemical_formula_sum "Si O2"
_cell_formula_units_Z 11
_cell_length_a 15.000000
_cell_length_b 6.000000
_cell_length_c 12.000000
_cell_angle_alpha 60.000000
_cell_angle_beta 150.000000
_cell_angle_gamma 110.000000
_cell_volume 457.211790
_symmetry_space_group_name_H-M "P -1"
_symmetry_group_IT_number 2
_symmetry_cell_setting 'triclinic'
loop_
_space_group_symop_operation_xyz
x,y,z
-x,-y,-z
loop_
_atom_site_type_symbol
_atom_site_label
_atom_site_fract_x
_atom_site_fract_y
_atom_site_fract_z
Si Si1 0.787514 0.929713 0.987969
Si Si2 0.804310 0.469569 0.752914
Si Si3 0.414612 0.977628 0.648023
Si Si4 0.197297 0.994212 0.759971
Si Si5 0.168971 0.554884 0.473836
Si Si6 0.500000 0.000000 0.000000
O O1 0.592720 0.850828 0.800949
O O2 0.783710 0.177480 0.840077
O O3 0.810973 0.039847 0.109941
O O4 0.953925 0.678673 0.222957
O O5 0.803756 0.497696 0.613067
O O6 0.661987 0.737691 0.564272
O O7 0.000000 0.500000 0.000000
O O8 0.270202 0.792025 0.546704
O O9 0.475715 0.012870 0.832084
O O10 0.244520 0.277108 0.691765
O O11 0.350078 0.805700 0.901596
O O12 0.000000 0.000000 0.500000
#
# Coordination Sequence:
#
# PCOD9074241 Si02
#       6
#     2   2   2   2   2   1
#     4  11  25  42  69 104 135 180 229 283 339 407
#     4  12  24  48  71  98 145 183 223 287 346 404
#     4  11  25  46  71 103 140 180 235 275 347 406
#     4  11  23  43  69 100 136 181 231 280 343 402
#     4  12  25  46  72 100 139 185 229 284 340 409
#     4  10  22  44  70 100 136 180 220 290 334 398
#
# _framework density 24.058872000000001
#
# number of rings (size 3 to 8) (size 9 to 14) (size 15 to 20)
#    0.000    0.727    3.636    3.818    0.000    5.091 
#    3.273    0.000    0.000    0.000    0.000    0.000 
#    0.000    0.000    0.000    0.000    0.000    0.000 
#
# Total GULP energy -61241.441857 kJ/mol
# GULP energy per Si atom -5567.403805 kJ/mol
# Density = 2.400411 g / cm^3
# Si number density = 24.058872 Si / 1000 Ang^3
#
#
#
# Elastic Constant Matrix: (Units=GPa)
#
#
# Indices 1 2 3 4 5 6 
#
# 1 79.1126 -8.0726 31.4350 -2.8248 4.0236 11.8510
# 2 -8.0726 33.4747 6.9457 -13.4561 -10.1143 12.6194
# 3 31.4350 6.9457 106.3354 -16.6933 -11.8216 8.6640
# 4 -2.8248 -13.4561 -16.6933 30.6610 21.8160 -6.8387
# 5 4.0236 -10.1143 -11.8216 21.8160 48.0834 -4.6762
# 6 11.8510 12.6194 8.6640 -6.8387 -4.6762 25.7161
#
#
#
# Elastic Compliance Matrix: (Units=1/GPa)
#
#
# Indices 1 2 3 4 5 6 
#
# 1 0.017385 0.009538 -0.004754 0.002905 -0.002992 -0.010862
# 2 0.009538 0.047468 -0.001579 0.016329 -0.000844 -0.022968
# 3 -0.004754 -0.001579 0.011716 0.004752 0.000832 0.000434
# 4 0.002905 0.016329 0.004752 0.058513 -0.022131 0.000583
# 5 -0.002992 -0.000844 0.000832 -0.022131 0.031243 0.001308
# 6 -0.010862 -0.022968 0.000434 0.000583 0.001308 0.055409
#
#
# Mechanical properties :
#
#
# Convention : Reuss Voigt Hill
#
# Bulk Modulus (GPa) = 12.05131 31.05990 21.55561
# Shear Modulus (GPa) = 20.57736 33.46642 27.02189
#
# Velocity S-wave (km/s) = 2.92771 3.73369 3.35499
# Velocity P-wave (km/s) = 4.05569 5.61473 4.89764
#
# Compressibility (1/GPa) = 0.08297851
#
# Stress axis : x y z
#
# Youngs Moduli (GPa) = 57.51960 21.06671 85.35351
#
# Poissons Ratio (x) = -0.20092 0.40577
# Poissons Ratio (y) = -0.54860 0.13478
# Poissons Ratio (z) = 0.27345 0.03327
#
# Static dielectric constant tensor:
#      x y z
#    x 2.523120 0.747900 1.938000 
#    y 0.747900 2.656390 2.102160 
#    z 1.938000 2.102160 7.305790 
# 
# From -- ./inp_files/20996.got.cif
#   From: 2010.05.17/outbox.ucp.g08.bks.cvg/sg2_11_cif.got.tgz:20996.got - 2010.06.11 11:32:03.
