data_PCOD9074161
_publ_section_title
;
Structure prediction by ZEFSAII (Michael W. Deem and Ramdas Pophale) SiO2 
 PCOD9074161
Probable space group: P -1
;
_chemical_formula_sum "Si O2"
_cell_formula_units_Z 16
_cell_length_a 23.624011
_cell_length_b 11.347798
_cell_length_c 7.288660
_cell_angle_alpha 114.234327
_cell_angle_beta 119.090692
_cell_angle_gamma 26.755291
_cell_volume 767.272903
_symmetry_space_group_name_H-M "P -1"
_symmetry_group_IT_number 2
_symmetry_cell_setting 'triclinic'
loop_
_space_group_symop_operation_xyz
x,y,z
-x,-y,-z
loop_
_atom_site_type_symbol
_atom_site_label
_atom_site_fract_x
_atom_site_fract_y
_atom_site_fract_z
Si Si1 0.189699 0.250743 0.159186
Si Si2 0.974647 0.116371 0.756894
Si Si3 0.479002 0.967112 0.138879
Si Si4 0.272765 0.146648 0.805281
Si Si5 0.943348 0.279202 0.206357
Si Si6 0.877637 0.813834 0.494262
Si Si7 0.105911 0.136229 0.859600
Si Si8 0.302570 0.319290 0.433873
O O1 0.288164 0.187582 0.356730
O O2 0.044079 0.549675 0.173079
O O3 0.202939 0.245527 0.956435
O O4 0.190508 0.093864 0.083412
O O5 0.842484 0.371297 0.599734
O O6 0.089208 0.018375 0.821733
O O7 0.925805 0.237592 0.961605
O O8 0.019764 0.890951 0.694655
O O9 0.371359 0.209761 0.270357
O O10 0.609984 0.757273 0.330108
O O11 0.418270 0.935716 0.956962
O O12 0.500000 0.000000 0.000000
O O13 0.187266 0.412553 0.756131
O O14 0.246516 0.064221 0.592282
O O15 0.064840 0.166259 0.291351
O O16 0.854765 0.916699 0.323902
O O17 0.000000 0.500000 0.500000
#
# Coordination Sequence:
#
# PCOD9074161 Si02
#       8
#     2   2   2   2   2   2   2   2
#     4   8  14  26  46  67  96 128 160 197 246 294
#     4  10  19  32  50  72 106 139 159 192 251 316
#     4  10  19  32  52  74  97 130 173 216 256 284
#     4   9  16  33  48  73 104 126 164 212 249 288
#     4  10  18  32  49  73 105 138 158 191 255 313
#     4   9  19  28  46  72 101 128 159 209 250 289
#     4   9  15  27  44  67  98 129 162 191 240 305
#     4   9  18  34  49  73 104 130 168 213 252 293
#
# _framework density 20.853076000000001
#
# number of rings (size 3 to 8) (size 9 to 14) (size 15 to 20)
#    0.000    2.750    3.750    0.000    1.750    4.500 
#    0.000    0.000    0.000    0.750    0.000    5.250 
#    0.000    0.000    0.000    0.000    0.000    0.000 
#
# Total GULP energy -89069.462929 kJ/mol
# GULP energy per Si atom -5566.841433 kJ/mol
# Density = 2.080561 g / cm^3
# Si number density = 20.853076 Si / 1000 Ang^3
#
#
#
# Elastic Constant Matrix: (Units=GPa)
#
#
# Indices 1 2 3 4 5 6 
#
# 1 117.1588 38.1632 40.6267 -10.8499 21.6330 13.0468
# 2 38.1632 24.4952 31.0117 -5.5177 8.4285 9.5772
# 3 40.6267 31.0117 125.3127 -18.7817 32.7794 -6.3801
# 4 -10.8499 -5.5177 -18.7817 20.2794 -14.0040 -0.8500
# 5 21.6330 8.4285 32.7794 -14.0040 43.1185 6.8313
# 6 13.0468 9.5772 -6.3801 -0.8500 6.8313 28.2342
#
#
#
# Elastic Compliance Matrix: (Units=1/GPa)
#
#
# Indices 1 2 3 4 5 6 
#
# 1 0.019283 -0.036232 0.004984 0.000315 -0.007273 0.006275
# 2 -0.036232 0.151404 -0.033483 0.004780 0.023136 -0.047635
# 3 0.004984 -0.033483 0.019160 0.003778 -0.011889 0.016374
# 4 0.000315 0.004780 0.003778 0.066732 0.018234 -0.003316
# 5 -0.007273 0.023136 -0.011889 0.018234 0.039855 -0.016268
# 6 0.006275 -0.047635 0.016374 -0.003316 -0.016268 0.056212
#
#
# Mechanical properties :
#
#
# Convention : Reuss Voigt Hill
#
# Bulk Modulus (GPa) = 16.56041 54.06334 35.31187
# Shear Modulus (GPa) = 9.95547 28.80409 19.37978
#
# Velocity S-wave (km/s) = 2.18734 3.72060 3.05183
# Velocity P-wave (km/s) = 3.78655 6.66628 5.42113
#
# Compressibility (1/GPa) = 0.06038498
#
# Stress axis : x y z
#
# Youngs Moduli (GPa) = 51.86013 6.60484 52.19212
#
# Poissons Ratio (x) = 0.23931 -0.26014
# Poissons Ratio (y) = 1.87902 1.74754
# Poissons Ratio (z) = -0.25849 0.22115
#
# Static dielectric constant tensor:
#      x y z
#    x 1.838070 0.008340 0.016970 
#    y 0.008340 1.711090 0.019440 
#    z 0.016970 0.019440 1.848460 
# 
# From -- ./inp_files/352731.got.cif
#   From: 2010.05.17/outbox.cif.g08.bks.cpg/sg2_177_cif.got.tgz:352731.got - 2010.06.03 11:33:40.
