data_PCOD9074268
_publ_section_title
;
Structure prediction by ZEFSAII (Michael W. Deem and Ramdas Pophale) SiO2 
 PCOD9074268
Probable space group: P -1
;
_chemical_formula_sum "Si O2"
_cell_formula_units_Z 16
_cell_length_a 21.000000
_cell_length_b 9.000000
_cell_length_c 6.000000
_cell_angle_alpha 100.000000
_cell_angle_beta 130.000000
_cell_angle_gamma 60.000000
_cell_volume 733.417773
_symmetry_space_group_name_H-M "P -1"
_symmetry_group_IT_number 2
_symmetry_cell_setting 'triclinic'
loop_
_space_group_symop_operation_xyz
x,y,z
-x,-y,-z
loop_
_atom_site_type_symbol
_atom_site_label
_atom_site_fract_x
_atom_site_fract_y
_atom_site_fract_z
Si Si1 0.777398 0.510511 0.149540
Si Si2 0.053330 0.607629 0.196098
Si Si3 0.578157 0.828879 0.265995
Si Si4 0.902129 0.917279 0.208265
Si Si5 0.406101 0.468126 0.080602
Si Si6 0.721422 0.870895 0.872718
Si Si7 0.063463 0.818221 0.861001
Si Si8 0.549791 0.239501 0.716738
O O1 0.835839 0.499963 0.502523
O O2 0.856656 0.358667 0.130977
O O3 0.690480 0.470759 0.973999
O O4 0.744028 0.700297 0.020777
O O5 0.988317 0.728918 0.280459
O O6 0.048187 0.739510 0.030078
O O7 0.000000 0.500000 0.000000
O O8 0.666776 0.854545 0.530445
O O9 0.526850 0.803517 0.358609
O O10 0.607764 0.649807 0.159899
O O11 0.500000 0.000000 0.000000
O O12 0.953543 0.943060 0.547032
O O13 0.890296 0.058655 0.034041
O O14 0.811988 0.893575 0.035930
O O15 0.502027 0.333019 0.399780
O O16 0.422695 0.623960 0.077044
O O17 0.644963 0.051613 0.864320
#
# Coordination Sequence:
#
# PCOD9074268 Si02
#       8
#     2   2   2   2   2   2   2   2
#     4  11  24  40  66  93 127 168 210 259 316 378
#     4  11  23  40  65  95 127 164 212 261 314 376
#     4  12  24  43  65  95 130 168 215 268 320 378
#     4  10  23  42  66  93 126 171 206 261 320 377
#     4  11  24  43  68  94 127 171 214 265 323 379
#     4  12  23  43  67  94 132 169 215 265 320 383
#     4  10  22  45  64  92 133 163 211 263 316 374
#     4  11  24  46  65  92 131 168 214 269 322 378
#
# _framework density 21.815670000000001
#
# number of rings (size 3 to 8) (size 9 to 14) (size 15 to 20)
#    0.000    1.000    2.500    4.125    3.500    2.000 
#    4.500    0.000    0.000    0.000    0.000    0.000 
#    0.000    0.000    0.000    0.000    0.000    0.000 
#
# Total GULP energy -89193.665412 kJ/mol
# GULP energy per Si atom -5574.604088 kJ/mol
# Density = 2.176602 g / cm^3
# Si number density = 21.815670 Si / 1000 Ang^3
#
#
#
# Elastic Constant Matrix: (Units=GPa)
#
#
# Indices 1 2 3 4 5 6 
#
# 1 75.4104 13.6660 16.6176 -4.6985 37.0459 13.7625
# 2 13.6660 97.9394 18.6675 5.1847 4.9978 -4.7656
# 3 16.6176 18.6675 66.0928 -13.1742 24.1622 20.9152
# 4 -4.6985 5.1847 -13.1742 20.8927 10.3272 15.3441
# 5 37.0459 4.9978 24.1622 10.3272 23.5647 -7.3787
# 6 13.7625 -4.7656 20.9152 15.3441 -7.3787 23.0765
#
#
#
# Elastic Compliance Matrix: (Units=1/GPa)
#
#
# Indices 1 2 3 4 5 6 
#
# 1 0.011706 0.001509 -0.010122 -0.013262 0.001127 0.011683
# 2 0.001509 0.010130 -0.000142 0.001962 -0.005812 -0.001842
# 3 -0.010122 -0.000142 0.008993 -0.008405 0.012761 0.007525
# 4 -0.013262 0.001962 -0.008405 0.015453 0.026726 0.014203
# 5 0.001127 -0.005812 0.012761 0.026726 0.008142 -0.028606
# 6 0.011683 -0.001842 0.007525 0.014203 -0.028606 0.010575
#
#
# Mechanical properties :
#
#
# Convention : Reuss Voigt Hill
#
# Bulk Modulus (GPa) = 75.08024 37.48274 56.28149
# Shear Modulus (GPa) = 57.50508 26.20619 41.85564
#
# Velocity S-wave (km/s) = 5.13972 3.46967 4.38494
# Velocity P-wave (km/s) = 8.34942 5.76805 7.17576
#
# Compressibility (1/GPa) = 0.01331908
#
# Stress axis : x y z
#
# Youngs Moduli (GPa) = 85.42880 98.71696 111.19202
#
# Poissons Ratio (x) = -0.14897 1.12550
# Poissons Ratio (y) = -0.12891 0.01578
# Poissons Ratio (z) = 0.86472 0.01401
#
# Static dielectric constant tensor:
#      x y z
#    x 1.913990 -0.037080 0.044010 
#    y -0.037080 1.818630 0.102550 
#    z 0.044010 0.102550 2.089240 
# 
# From -- ./inp_files/90555.got.cif
#   From: 2010.05.17/outbox.ucp.g08.bks.cvg/sg2_46_cif.got.tgz:90555.got - 2010.06.11 11:32:03.
