data_PCOD9074950
_publ_section_title
;
Structure prediction by ZEFSAII (Michael W. Deem and Ramdas Pophale) SiO2 
 PCOD9074950
Probable space group: P -1
;
_chemical_formula_sum "Si O2"
_cell_formula_units_Z 16
_cell_length_a 18.000000
_cell_length_b 9.000000
_cell_length_c 12.000000
_cell_angle_alpha 140.000000
_cell_angle_beta 40.000000
_cell_angle_gamma 140.000000
_cell_volume 723.717541
_symmetry_space_group_name_H-M "P -1"
_symmetry_group_IT_number 2
_symmetry_cell_setting 'triclinic'
loop_
_space_group_symop_operation_xyz
x,y,z
-x,-y,-z
loop_
_atom_site_type_symbol
_atom_site_label
_atom_site_fract_x
_atom_site_fract_y
_atom_site_fract_z
Si Si1 0.388483 0.536998 0.710965
Si Si2 0.219714 0.270837 0.153310
Si Si3 0.144944 0.088844 0.717011
Si Si4 0.622717 0.301439 0.940917
Si Si5 0.185865 0.914799 0.347044
Si Si6 0.038699 0.704880 0.972994
Si Si7 0.089305 0.570026 0.609826
Si Si8 0.345937 0.004883 0.992217
O O1 0.500000 0.500000 0.500000
O O2 0.288073 0.247976 0.684995
O O3 0.421530 0.675779 0.871285
O O4 0.331588 0.717522 0.817373
O O5 0.278658 0.427087 0.064206
O O6 0.178052 0.449453 0.382382
O O7 0.321098 0.176926 0.028978
O O8 0.101986 0.995684 0.112202
O O9 0.156909 0.093957 0.570655
O O10 0.090142 0.803376 0.666835
O O11 0.081422 0.273999 0.935545
O O12 0.703732 0.138176 0.751799
O O13 0.493946 0.164084 0.942478
O O14 0.053035 0.660573 0.350957
O O15 0.245172 0.989584 0.198214
O O16 0.120610 0.660550 0.754498
O O17 0.000000 0.500000 0.000000
#
# Coordination Sequence:
#
# PCOD9074950 Si02
#       8
#     2   2   2   2   2   2   2   2
#     4  11  23  42  68  97 129 170 228 278 323 390
#     4  12  25  45  67  98 141 174 218 271 333 402
#     4  12  22  41  66  98 134 169 222 276 328 393
#     4  11  22  44  67  95 128 174 225 270 328 391
#     4  11  21  41  70  95 126 172 224 270 326 389
#     4  12  26  42  65 101 139 172 219 273 334 397
#     4  12  25  43  69 101 133 178 218 272 336 392
#     4  11  25  43  66  95 133 176 221 273 332 389
#
# _framework density 22.108073000000001
#
# number of rings (size 3 to 8) (size 9 to 14) (size 15 to 20)
#    0.000    0.500    2.500    8.625    1.750    1.000 
#    2.250    0.625    0.000    0.000    0.000    0.000 
#    0.000    0.000    0.000    0.000    0.000    0.000 
#
# Total GULP energy -89260.970555 kJ/mol
# GULP energy per Si atom -5578.810660 kJ/mol
# Density = 2.205775 g / cm^3
# Si number density = 22.108073 Si / 1000 Ang^3
#
#
#
# Elastic Constant Matrix: (Units=GPa)
#
#
# Indices 1 2 3 4 5 6 
#
# 1 32.5799 -2.9429 20.4308 -1.5065 -10.3614 -11.6378
# 2 -2.9429 68.5526 10.3518 7.2440 -7.9403 -13.8398
# 3 20.4308 10.3518 139.9349 7.1069 2.6497 -17.4892
# 4 -1.5065 7.2440 7.1069 15.6011 3.6294 -6.2306
# 5 -10.3614 -7.9403 2.6497 3.6294 24.1982 -3.3133
# 6 -11.6378 -13.8398 -17.4892 -6.2306 -3.3133 35.7221
#
#
#
# Elastic Compliance Matrix: (Units=1/GPa)
#
#
# Indices 1 2 3 4 5 6 
#
# 1 0.053016 0.010472 -0.006618 0.005173 0.029055 0.021686
# 2 0.010472 0.019602 -0.001617 -0.006350 0.013464 0.010356
# 3 -0.006618 -0.001617 0.008510 -0.002649 -0.003821 0.000567
# 4 0.005173 -0.006350 -0.002649 0.074996 -0.009439 0.010133
# 5 0.029055 0.013464 -0.003821 -0.009439 0.062339 0.016947
# 6 0.021686 0.010356 0.000567 0.010133 0.016947 0.042688
#
#
# Mechanical properties :
#
#
# Convention : Reuss Voigt Hill
#
# Bulk Modulus (GPa) = 11.68190 32.97187 22.32688
# Shear Modulus (GPa) = 17.53093 29.31946 23.42519
#
# Velocity S-wave (km/s) = 2.81902 3.64564 3.25864
# Velocity P-wave (km/s) = 3.98639 5.71552 4.92740
#
# Compressibility (1/GPa) = 0.08560251
#
# Stress axis : x y z
#
# Youngs Moduli (GPa) = 18.86229 51.01450 117.51145
#
# Poissons Ratio (x) = -0.53423 0.77765
# Poissons Ratio (y) = -0.19753 0.19004
# Poissons Ratio (z) = 0.12482 0.08250
#
# Static dielectric constant tensor:
#      x y z
#    x 2.154920 0.197640 -0.105060 
#    y 0.197640 1.901580 -0.086590 
#    z -0.105060 -0.086590 1.868930 
# 
# From -- ./inp_files/272479.got.cif
#   From: 2010.05.17/outbox.ucp.g08.bks.cvg/sg2_137_cif.got.tgz:272479.got - 2010.06.11 11:32:03.
