data_PCOD9074717
_publ_section_title
;
Structure prediction by ZEFSAII (Michael W. Deem and Ramdas Pophale) SiO2 
 PCOD9074717
Probable space group: P -1
;
_chemical_formula_sum "Si O2"
_cell_formula_units_Z 14
_cell_length_a 9.085316
_cell_length_b 7.748296
_cell_length_c 10.991839
_cell_angle_alpha 78.258176
_cell_angle_beta 107.727730
_cell_angle_gamma 131.494078
_cell_volume 552.055316
_symmetry_space_group_name_H-M "P -1"
_symmetry_group_IT_number 2
_symmetry_cell_setting 'triclinic'
loop_
_space_group_symop_operation_xyz
x,y,z
-x,-y,-z
loop_
_atom_site_type_symbol
_atom_site_label
_atom_site_fract_x
_atom_site_fract_y
_atom_site_fract_z
Si Si1 0.055824 0.831188 0.471006
Si Si2 0.221560 0.621481 0.412123
Si Si3 0.240785 0.868319 0.174317
Si Si4 0.305446 0.184399 0.664504
Si Si5 0.522475 0.332429 0.312062
Si Si6 0.396853 0.154724 0.944642
Si Si7 0.230631 0.417840 0.906195
O O1 0.096721 0.701251 0.410980
O O2 0.928061 0.653957 0.576736
O O3 0.907761 0.864447 0.369808
O O4 0.261662 0.058621 0.544372
O O5 0.298341 0.734924 0.283497
O O6 0.378607 0.703801 0.548416
O O7 0.343861 0.966500 0.055127
O O8 0.001077 0.703511 0.121745
O O9 0.323803 0.093077 0.245281
O O10 0.474334 0.462229 0.671504
O O11 0.333063 0.079207 0.801141
O O12 0.671361 0.443753 0.216254
O O13 0.268347 0.235071 0.942408
O O14 0.625813 0.390295 0.983682
#
# Coordination Sequence:
#
# PCOD9074717 Si02
#       7
#     2   2   2   2   2   2   2
#     4   9  18  32  57  77  99 139 174 209 259 303
#     4  10  18  32  52  78 103 134 175 211 252 309
#     4  11  19  30  53  79 105 136 171 211 255 307
#     4   9  17  34  52  77 107 132 170 218 256 299
#     4   9  19  33  53  79 104 133 175 215 252 299
#     4   9  18  30  48  77 107 134 169 210 255 305
#     4   9  17  30  49  75 105 138 173 209 250 300
#
# _framework density 25.359776
#
# number of rings (size 3 to 8) (size 9 to 14) (size 15 to 20)
#    0.000    2.571    0.000    5.143    0.000    0.000 
#    0.000    1.429    0.000   16.286    0.000    0.000 
#    0.000    0.000    0.000    0.000    0.000    0.000 
#
# Total GULP energy -78359.739766 kJ/mol
# GULP energy per Si atom -5597.124269 kJ/mol
# Density = 2.530206 g / cm^3
# Si number density = 25.359776 Si / 1000 Ang^3
#
#
#
# Elastic Constant Matrix: (Units=GPa)
#
#
# Indices 1 2 3 4 5 6 
#
# 1 59.3693 27.0502 25.3376 -4.3152 12.3072 -3.6074
# 2 27.0502 95.0262 49.1064 -12.0858 7.0196 11.7644
# 3 25.3376 49.1064 130.3698 -11.4927 34.2002 -0.4321
# 4 -4.3152 -12.0858 -11.4927 58.0491 -6.1990 5.5363
# 5 12.3072 7.0196 34.2002 -6.1990 28.6392 1.8377
# 6 -3.6074 11.7644 -0.4321 5.5363 1.8377 31.0326
#
#
#
# Elastic Compliance Matrix: (Units=1/GPa)
#
#
# Indices 1 2 3 4 5 6 
#
# 1 0.021796 -0.006707 0.000577 -0.001184 -0.009042 0.005831
# 2 -0.006707 0.016879 -0.006974 0.003322 0.008329 -0.008362
# 3 0.000577 -0.006974 0.014360 -0.000664 -0.016086 0.003982
# 4 -0.001184 0.003322 -0.000664 0.018697 0.004857 -0.005029
# 5 -0.009042 0.008329 -0.016086 0.004857 0.057581 -0.008709
# 6 0.005831 -0.008362 0.003982 -0.005029 -0.008709 0.037540
#
#
# Mechanical properties :
#
#
# Convention : Reuss Voigt Hill
#
# Bulk Modulus (GPa) = 37.27603 54.19486 45.73545
# Shear Modulus (GPa) = 24.75198 35.76225 30.25711
#
# Velocity S-wave (km/s) = 3.12754 3.75933 3.45790
# Velocity P-wave (km/s) = 5.26999 6.34509 5.83237
#
# Compressibility (1/GPa) = 0.02682689
#
# Stress axis : x y z
#
# Youngs Moduli (GPa) = 45.87978 59.24482 69.63894
#
# Poissons Ratio (x) = 0.39738 -0.04022
# Poissons Ratio (y) = 0.30773 0.48567
# Poissons Ratio (z) = -0.02649 0.41318
#
# Static dielectric constant tensor:
#      x y z
#    x 2.034480 0.005440 -0.037830 
#    y 0.005440 2.035210 -0.025920 
#    z -0.037830 -0.025920 1.990190 
# 
# From -- ./inp_files/493199.got.cif
#   From: 2010.05.17/outbox.cif.g08.bks.cpg/sg2_247_cif.got.tgz:493199.got - 2010.06.03 11:33:40.
