data_PCOD9074803
_publ_section_title
;
Structure prediction by ZEFSAII (Michael W. Deem and Ramdas Pophale) SiO2 
 PCOD9074803
Probable space group: P -1
;
_chemical_formula_sum "Si O2"
_cell_formula_units_Z 15
_cell_length_a 15.000000
_cell_length_b 27.000000
_cell_length_c 27.000000
_cell_angle_alpha 10.000000
_cell_angle_beta 20.000000
_cell_angle_gamma 20.000000
_cell_volume 630.401208
_symmetry_space_group_name_H-M "P -1"
_symmetry_group_IT_number 2
_symmetry_cell_setting 'triclinic'
loop_
_space_group_symop_operation_xyz
x,y,z
-x,-y,-z
loop_
_atom_site_type_symbol
_atom_site_label
_atom_site_fract_x
_atom_site_fract_y
_atom_site_fract_z
Si Si1 0.765281 0.993997 0.836977
Si Si2 0.750729 0.456621 0.318267
Si Si3 0.380550 0.764292 0.766506
Si Si4 0.424024 0.352047 0.334314
Si Si5 0.732391 0.788513 0.770088
Si Si6 0.000000 0.500000 0.000000
Si Si7 0.561672 0.436854 0.714043
Si Si8 0.090596 0.156818 0.846271
O O1 0.739218 0.325766 0.507063
O O2 0.057241 0.861901 0.837880
O O3 0.500000 0.000000 0.000000
O O4 0.760088 0.793008 0.988899
O O5 0.499705 0.447587 0.423623
O O6 0.030572 0.258437 0.346882
O O7 0.493418 0.691221 0.723678
O O8 0.500000 0.000000 0.500000
O O9 0.500000 0.500000 0.000000
O O10 0.146863 0.588559 0.256423
O O11 0.474134 0.030049 0.649107
O O12 0.649486 0.478436 0.120609
O O13 0.857176 0.800929 0.745691
O O14 0.733187 0.560952 0.114735
O O15 0.688185 0.657813 0.462842
O O16 0.763895 0.116893 0.926019
O O17 0.000000 0.000000 0.000000
#
# Coordination Sequence:
#
# PCOD9074803 Si02
#       8
#     2   2   2   2   2   1   2   2
#     4  12  25  45  73 109 148 189 245 316 388 445
#     4  11  22  45  73 102 140 189 238 303 368 449
#     4  12  26  46  74 110 146 195 258 308 376 466
#     4  12  25  46  74  98 147 202 240 300 380 441
#     4  11  22  44  72 103 140 186 250 288 366 446
#     4  10  26  42  74 108 138 190 238 314 358 432
#     4  11  26  46  72 106 147 183 256 300 369 443
#     4  12  27  47  70 108 151 200 245 307 374 460
#
# _framework density 23.794371000000002
#
# number of rings (size 3 to 8) (size 9 to 14) (size 15 to 20)
#    0.000    0.533    2.667    4.800    0.000   10.667 
#    0.000    0.000    0.000    0.000    0.000    0.000 
#    0.000    0.000    0.000    0.000    0.000    0.000 
#
# Total GULP energy -83585.970050 kJ/mol
# GULP energy per Si atom -5572.398003 kJ/mol
# Density = 2.374021 g / cm^3
# Si number density = 23.794371 Si / 1000 Ang^3
#
#
#
# Elastic Constant Matrix: (Units=GPa)
#
#
# Indices 1 2 3 4 5 6 
#
# 1 97.7246 61.6342 27.0749 -8.1108 1.8720 -16.5068
# 2 61.6342 183.8586 32.8045 -15.2837 21.4434 -16.0523
# 3 27.0749 32.8045 87.3277 -12.2378 2.2345 -1.2440
# 4 -8.1108 -15.2837 -12.2378 40.4855 -7.3331 6.3836
# 5 1.8720 21.4434 2.2345 -7.3331 51.4038 -10.2119
# 6 -16.5068 -16.0523 -1.2440 6.3836 -10.2119 33.6206
#
#
#
# Elastic Compliance Matrix: (Units=1/GPa)
#
#
# Indices 1 2 3 4 5 6 
#
# 1 0.014606 -0.004151 -0.002950 -0.000002 0.002487 0.005836
# 2 -0.004151 0.007506 -0.001311 0.001044 -0.002677 0.000486
# 3 -0.002950 -0.001311 0.013286 0.003294 0.000115 -0.002173
# 4 -0.000002 0.001044 0.003294 0.027144 0.002546 -0.003761
# 5 0.002487 -0.002677 0.000115 0.002546 0.022063 0.006165
# 6 0.005836 0.000486 -0.002173 -0.003761 0.006165 0.035347
#
#
# Mechanical properties :
#
#
# Convention : Reuss Voigt Hill
#
# Bulk Modulus (GPa) = 53.83774 67.99314 60.91544
# Shear Modulus (GPa) = 34.97335 41.59513 38.28424
#
# Velocity S-wave (km/s) = 3.83798 4.18557 4.01554
# Velocity P-wave (km/s) = 6.50503 7.21083 6.86700
#
# Compressibility (1/GPa) = 0.01857433
#
# Stress axis : x y z
#
# Youngs Moduli (GPa) = 68.46569 133.23145 75.26812
#
# Poissons Ratio (x) = 0.55299 0.22204
# Poissons Ratio (y) = 0.28417 0.09867
# Poissons Ratio (z) = 0.20198 0.17466
#
# Static dielectric constant tensor:
#      x y z
#    x 1.963910 0.005180 -0.029310 
#    y 0.005180 1.851300 0.050710 
#    z -0.029310 0.050710 1.894570 
# 
# From -- ./inp_files/544584.got.cif
#   From: 2010.05.17/outbox.ucp.g08.bks.cvg/sg2_273_cif.got.tgz:544584.got - 2010.06.11 11:32:03.
