data_PCOD9074076
_publ_section_title
;
Structure prediction by ZEFSAII (Michael W. Deem and Ramdas Pophale) SiO2 
 PCOD9074076
Probable space group: P -1
;
_chemical_formula_sum "Si O2"
_cell_formula_units_Z 15
_cell_length_a 14.471184
_cell_length_b 6.827945
_cell_length_c 13.968231
_cell_angle_alpha 37.737396
_cell_angle_beta 136.991773
_cell_angle_gamma 110.737614
_cell_volume 486.047716
_symmetry_space_group_name_H-M "P -1"
_symmetry_group_IT_number 2
_symmetry_cell_setting 'triclinic'
loop_
_space_group_symop_operation_xyz
x,y,z
-x,-y,-z
loop_
_atom_site_type_symbol
_atom_site_label
_atom_site_fract_x
_atom_site_fract_y
_atom_site_fract_z
Si Si1 0.500000 0.500000 0.000000
Si Si2 0.705237 0.162588 0.849776
Si Si3 0.389625 0.271434 0.190897
Si Si4 0.740548 0.942069 0.669182
Si Si5 0.545971 0.964229 0.941180
Si Si6 0.173257 0.598442 0.302140
Si Si7 0.042551 0.382229 0.440821
Si Si8 0.855157 0.207936 0.493827
O O1 0.615278 0.452376 0.001099
O O2 0.569534 0.036486 0.225114
O O3 0.616798 0.058615 0.743728
O O4 0.747096 0.442319 0.725417
O O5 0.614131 0.206269 0.862200
O O6 0.871300 0.772457 0.147900
O O7 0.561606 0.120394 0.425991
O O8 0.251164 0.365312 0.130375
O O9 0.746708 0.262752 0.612773
O O10 0.857303 0.904387 0.684242
O O11 0.668973 0.489100 0.204239
O O12 0.500000 0.000000 0.000000
O O13 0.120544 0.336637 0.414208
O O14 0.000000 0.000000 0.000000
O O15 0.991297 0.116808 0.554480
O O16 0.135958 0.483562 0.550069
#
# Coordination Sequence:
#
# PCOD9074076 Si02
#       8
#     1   2   2   2   2   2   2   2
#     4  10  18  32  48  68 100 134 170 200 238 300
#     4   8  15  26  41  65  96 123 163 204 241 298
#     4   9  16  25  42  66  94 128 162 196 243 295
#     4   9  15  24  40  66  95 127 157 202 247 289
#     4  10  19  30  47  72 102 135 167 203 251 302
#     4   8  13  23  39  62  96 124 159 208 248 288
#     4   8  14  23  41  65  92 124 159 207 247 281
#     4   9  15  26  42  68  98 122 165 206 242 296
#
# _framework density 30.861166999999998
#
# number of rings (size 3 to 8) (size 9 to 14) (size 15 to 20)
#    0.000    3.200    1.333    0.000    0.000    0.000 
#    0.000    0.000    0.000   12.800    0.000   23.333 
#    0.000  100.800    0.000    0.000    0.000    0.000 
#
# Total GULP energy -83723.914176 kJ/mol
# GULP energy per Si atom -5581.594278 kJ/mol
# Density = 3.079093 g / cm^3
# Si number density = 30.861167 Si / 1000 Ang^3
#
#
#
# Elastic Constant Matrix: (Units=GPa)
#
#
# Indices 1 2 3 4 5 6 
#
# 1 393.4477 53.8273 90.8772 -11.8010 -95.8471 46.3495
# 2 53.8273 167.1656 32.4787 1.6757 -24.5503 48.7323
# 3 90.8772 32.4787 107.9131 8.7524 -17.9439 9.7518
# 4 -11.8010 1.6757 8.7524 42.5185 14.3055 -11.5724
# 5 -95.8471 -24.5503 -17.9439 14.3055 78.7791 -15.1585
# 6 46.3495 48.7323 9.7518 -11.5724 -15.1585 59.8515
#
#
#
# Elastic Compliance Matrix: (Units=1/GPa)
#
#
# Indices 1 2 3 4 5 6 
#
# 1 0.004553 0.000468 -0.002970 -0.000329 0.004623 -0.002316
# 2 0.000468 0.008523 -0.001821 -0.002370 0.001898 -0.006984
# 3 -0.002970 -0.001821 0.012335 -0.002778 -0.000662 0.001068
# 4 -0.000329 -0.002370 -0.002778 0.027754 -0.005542 0.006600
# 5 0.004623 0.001898 -0.000662 -0.005542 0.019546 -0.001139
# 6 -0.002316 -0.006984 0.001068 0.006600 -0.001139 0.025002
#
#
# Mechanical properties :
#
#
# Convention : Reuss Voigt Hill
#
# Bulk Modulus (GPa) = 59.64575 113.65475 86.65025
# Shear Modulus (GPa) = 44.66413 68.98604 56.82509
#
# Velocity S-wave (km/s) = 3.80841 4.73310 4.29571
# Velocity P-wave (km/s) = 6.22156 8.17174 7.26241
#
# Compressibility (1/GPa) = 0.01676565
#
# Stress axis : x y z
#
# Youngs Moduli (GPa) = 219.65076 117.32370 81.07049
#
# Poissons Ratio (x) = -0.05496 0.24081
# Poissons Ratio (y) = -0.10290 0.14762
# Poissons Ratio (z) = 0.65244 0.21363
#
# Static dielectric constant tensor:
#      x y z
#    x 2.550500 -0.054630 0.285030 
#    y -0.054630 2.560180 0.142700 
#    z 0.285030 0.142700 2.988520 
# 
# From -- ./inp_files/275776.got.cif
#   From: 2010.05.17/outbox.cif.g08.bks.cpg/sg2_138_cif.got.tgz:275776.got - 2010.06.03 11:33:40.
