data_PCOD9074207
_publ_section_title
;
Structure prediction by ZEFSAII (Michael W. Deem and Ramdas Pophale) SiO2 
 PCOD9074207
Probable space group: P -1
;
_chemical_formula_sum "Si O2"
_cell_formula_units_Z 16
_cell_length_a 9.000000
_cell_length_b 15.000000
_cell_length_c 9.000000
_cell_angle_alpha 80.000000
_cell_angle_beta 130.000000
_cell_angle_gamma 70.000000
_cell_volume 732.374747
_symmetry_space_group_name_H-M "P -1"
_symmetry_group_IT_number 2
_symmetry_cell_setting 'triclinic'
loop_
_space_group_symop_operation_xyz
x,y,z
-x,-y,-z
loop_
_atom_site_type_symbol
_atom_site_label
_atom_site_fract_x
_atom_site_fract_y
_atom_site_fract_z
Si Si1 0.746351 0.637462 0.174704
Si Si2 0.611347 0.380771 0.190938
Si Si3 0.830874 0.613692 0.577071
Si Si4 0.841502 0.808871 0.487553
Si Si5 0.267496 0.153489 0.916869
Si Si6 0.639670 0.025017 0.462592
Si Si7 0.468842 0.610995 0.516044
Si Si8 0.882538 0.114175 0.783598
O O1 0.709050 0.641080 0.327097
O O2 0.839207 0.712791 0.176418
O O3 0.917016 0.507390 0.265722
O O4 0.497982 0.681658 0.923977
O O5 0.566020 0.397153 0.331206
O O6 0.896185 0.291390 0.376583
O O7 0.500000 0.500000 0.000000
O O8 0.788917 0.729990 0.562305
O O9 0.721907 0.584847 0.644634
O O10 0.672095 0.867592 0.215004
O O11 0.837785 0.899371 0.558215
O O12 0.097750 0.113934 0.849907
O O13 0.469790 0.094032 0.191972
O O14 0.736732 0.090029 0.581840
O O15 0.500000 0.000000 0.500000
O O16 0.500000 0.500000 0.500000
O O17 0.285246 0.749234 0.311184
O O18 0.000000 0.000000 0.000000
#
# Coordination Sequence:
#
# PCOD9074207 Si02
#       8
#     2   2   2   2   2   2   2   2
#     4  10  22  43  71 101 147 191 239 304 372 443
#     4  12  24  46  71 112 153 194 249 310 372 455
#     4  10  22  43  71  99 143 192 240 300 369 437
#     4  11  25  47  74 105 149 195 247 304 382 447
#     4  11  24  47  73 103 145 197 245 303 377 442
#     4  12  26  48  74 104 146 195 249 305 370 446
#     4  12  26  45  74 107 145 194 254 307 372 445
#     4  12  26  48  74 109 154 190 247 318 377 442
#
# _framework density 21.846738999999999
#
# number of rings (size 3 to 8) (size 9 to 14) (size 15 to 20)
#    0.000    0.750    3.750    3.375    1.750    3.000 
#    4.500    0.000    0.000    0.000    0.000    0.000 
#    0.000    0.000    0.000    0.000    0.000    0.000 
#
# Total GULP energy -89104.537243 kJ/mol
# GULP energy per Si atom -5569.033578 kJ/mol
# Density = 2.179701 g / cm^3
# Si number density = 21.846739 Si / 1000 Ang^3
#
#
#
# Elastic Constant Matrix: (Units=GPa)
#
#
# Indices 1 2 3 4 5 6 
#
# 1 102.9697 38.3684 29.7119 4.6057 -12.5775 18.5461
# 2 38.3684 152.4431 38.7025 -10.6295 1.1380 29.8843
# 3 29.7119 38.7025 92.1668 -1.4765 -6.5081 9.1954
# 4 4.6057 -10.6295 -1.4765 24.9645 17.9388 8.1750
# 5 -12.5775 1.1380 -6.5081 17.9388 25.5442 -0.3945
# 6 18.5461 29.8843 9.1954 8.1750 -0.3945 49.4993
#
#
#
# Elastic Compliance Matrix: (Units=1/GPa)
#
#
# Indices 1 2 3 4 5 6 
#
# 1 0.016060 -0.005873 -0.001555 -0.023822 0.024533 0.001947
# 2 -0.005873 0.012695 -0.003696 0.025280 -0.022293 -0.009130
# 3 -0.001555 -0.003696 0.013159 -0.005984 0.006976 0.001413
# 4 -0.023822 0.025280 -0.005984 0.153131 -0.122405 -0.031491
# 5 0.024533 -0.022293 0.006976 -0.122405 0.140334 0.024306
# 6 0.001947 -0.009130 0.001413 -0.031491 0.024306 0.030117
#
#
# Mechanical properties :
#
#
# Convention : Reuss Voigt Hill
#
# Bulk Modulus (GPa) = 50.84788 62.34948 56.59868
# Shear Modulus (GPa) = 12.68071 36.05472 24.36772
#
# Velocity S-wave (km/s) = 2.41185 4.06685 3.34337
# Velocity P-wave (km/s) = 5.57506 7.11715 6.39278
#
# Compressibility (1/GPa) = 0.01966650
#
# Stress axis : x y z
#
# Youngs Moduli (GPa) = 62.26595 78.76904 75.99509
#
# Poissons Ratio (x) = 0.46264 0.11814
# Poissons Ratio (y) = 0.36571 0.28087
# Poissons Ratio (z) = 0.09680 0.29112
#
# Static dielectric constant tensor:
#      x y z
#    x 1.890500 0.008820 0.034460 
#    y 0.008820 1.811440 -0.029470 
#    z 0.034460 -0.029470 1.856080 
# 
# From -- ./inp_files/207190.got.cif
#   From: 2010.05.17/outbox.ucp.g08.bks.cvg/sg2_104_cif.got.tgz:207190.got - 2010.06.11 11:32:03.
