data_PCOD9074919
_publ_section_title
;
Structure prediction by ZEFSAII (Michael W. Deem and Ramdas Pophale) SiO2 
 PCOD9074919
Probable space group: P -1
;
_chemical_formula_sum "Si O2"
_cell_formula_units_Z 16
_cell_length_a 27.000000
_cell_length_b 12.000000
_cell_length_c 27.000000
_cell_angle_alpha 150.000000
_cell_angle_beta 10.000000
_cell_angle_gamma 150.000000
_cell_volume 750.765935
_symmetry_space_group_name_H-M "P -1"
_symmetry_group_IT_number 2
_symmetry_cell_setting 'triclinic'
loop_
_space_group_symop_operation_xyz
x,y,z
-x,-y,-z
loop_
_atom_site_type_symbol
_atom_site_label
_atom_site_fract_x
_atom_site_fract_y
_atom_site_fract_z
Si Si1 0.251776 0.943411 0.263886
Si Si2 0.873694 0.024534 0.358566
Si Si3 0.585117 0.695557 0.222961
Si Si4 0.452189 0.352316 0.299347
Si Si5 0.999657 0.414251 0.307846
Si Si6 0.664513 0.190611 0.134216
Si Si7 0.165890 0.301349 0.820200
Si Si8 0.678424 0.207395 0.345005
O O1 0.157249 0.672050 0.263325
O O2 0.301699 0.125710 0.330693
O O3 0.000000 0.000000 0.500000
O O4 0.500000 0.000000 0.000000
O O5 0.919956 0.268089 0.380061
O O6 0.566853 0.959296 0.661150
O O7 0.909407 0.846602 0.211004
O O8 0.079231 0.957329 0.174037
O O9 0.653522 0.491563 0.112524
O O10 0.271554 0.610261 0.473401
O O11 0.654449 0.937520 0.277127
O O12 0.783678 0.714129 0.986247
O O13 0.575069 0.257271 0.192364
O O14 0.316916 0.579188 0.539327
O O15 0.739133 0.434107 0.181226
O O16 0.414193 0.200336 0.565130
O O17 0.935700 0.284022 0.083768
#
# Coordination Sequence:
#
# PCOD9074919 Si02
#       8
#     2   2   2   2   2   2   2   2
#     4  12  25  47  73  98 128 173 226 276 326 392
#     4  12  22  42  65  92 140 171 234 260 318 395
#     4  12  22  43  68  99 141 164 219 274 340 396
#     4  11  26  44  68  98 143 167 227 268 340 403
#     4  12  24  43  72 101 124 177 225 278 321 382
#     4  11  25  39  62  98 133 187 207 276 327 389
#     4  11  21  39  64  95 137 174 232 255 326 393
#     4  11  22  39  64 105 135 178 200 282 341 393
#
# _framework density 21.311568999999999
#
# number of rings (size 3 to 8) (size 9 to 14) (size 15 to 20)
#    0.000    0.500    5.000    4.125    0.000    6.000 
#    0.000    5.625    0.000    0.000    0.000    0.000 
#    0.000    0.000    0.000    0.000    0.000    0.000 
#
# Total GULP energy -89121.957976 kJ/mol
# GULP energy per Si atom -5570.122374 kJ/mol
# Density = 2.126306 g / cm^3
# Si number density = 21.311569 Si / 1000 Ang^3
#
#
#
# Elastic Constant Matrix: (Units=GPa)
#
#
# Indices 1 2 3 4 5 6 
#
# 1 89.2436 44.0062 -0.0749 2.8582 -14.1999 11.3288
# 2 44.0062 178.2168 -2.7050 3.3939 -13.6022 2.0190
# 3 -0.0749 -2.7050 55.1159 -12.8442 -2.6236 6.8827
# 4 2.8582 3.3939 -12.8442 26.0162 -0.7287 6.8040
# 5 -14.1999 -13.6022 -2.6236 -0.7287 13.2705 7.3817
# 6 11.3288 2.0190 6.8827 6.8040 7.3817 52.0389
#
#
#
# Elastic Compliance Matrix: (Units=1/GPa)
#
#
# Indices 1 2 3 4 5 6 
#
# 1 0.016251 -0.002487 0.002065 0.001833 0.019052 -0.006657
# 2 -0.002487 0.006576 0.000561 -0.000078 0.004411 -0.000403
# 3 0.002065 0.000561 0.022611 0.012978 0.011766 -0.006828
# 4 0.001833 -0.000078 0.012978 0.047664 0.012708 -0.010147
# 5 0.019052 0.004411 0.011766 0.012708 0.116685 -0.024088
# 6 -0.006657 -0.000403 -0.006828 -0.010147 -0.024088 0.026328
#
#
# Mechanical properties :
#
#
# Convention : Reuss Voigt Hill
#
# Bulk Modulus (GPa) = 21.87284 45.00322 33.43803
# Shear Modulus (GPa) = 19.91439 37.02178 28.46809
#
# Velocity S-wave (km/s) = 3.06018 4.17246 3.65883
# Velocity P-wave (km/s) = 4.77199 6.66147 5.79427
#
# Compressibility (1/GPa) = 0.04571880
#
# Stress axis : x y z
#
# Youngs Moduli (GPa) = 61.53462 152.05781 44.22588
#
# Poissons Ratio (x) = 0.37814 -0.09135
# Poissons Ratio (y) = 0.15303 -0.02483
# Poissons Ratio (z) = -0.12710 -0.08537
#
# Static dielectric constant tensor:
#      x y z
#    x 1.751380 -0.083340 -0.063030 
#    y -0.083340 2.219510 0.137040 
#    z -0.063030 0.137040 1.879970 
# 
# From -- ./inp_files/410091.got.cif
#   From: 2010.05.17/outbox.ucp.g08.bks.cvg/sg2_206_cif.got.tgz:410091.got - 2010.06.11 11:32:03.
