data_PCOD9074147
_publ_section_title
;
Structure prediction by ZEFSAII (Michael W. Deem and Ramdas Pophale) SiO2 
 PCOD9074147
Probable space group: P -1
;
_chemical_formula_sum "Si O2"
_cell_formula_units_Z 14
_cell_length_a 18.000000
_cell_length_b 9.000000
_cell_length_c 9.000000
_cell_angle_alpha 60.000000
_cell_angle_beta 70.000000
_cell_angle_gamma 30.000000
_cell_volume 617.235917
_symmetry_space_group_name_H-M "P -1"
_symmetry_group_IT_number 2
_symmetry_cell_setting 'triclinic'
loop_
_space_group_symop_operation_xyz
x,y,z
-x,-y,-z
loop_
_atom_site_type_symbol
_atom_site_label
_atom_site_fract_x
_atom_site_fract_y
_atom_site_fract_z
Si Si1 0.535548 0.868280 0.213517
Si Si2 0.250765 0.231277 0.393674
Si Si3 0.792663 0.634992 0.295494
Si Si4 0.378689 0.776157 0.070743
Si Si5 0.333710 0.692729 0.696775
Si Si6 0.914061 0.831815 0.842317
Si Si7 0.948768 0.899776 0.105863
O O1 0.650960 0.787270 0.252414
O O2 0.640235 0.505350 0.337749
O O3 0.378698 0.112909 0.284991
O O4 0.500000 0.000000 0.000000
O O5 0.213916 0.358007 0.525069
O O6 0.096978 0.524274 0.254162
O O7 0.305101 0.934041 0.530185
O O8 0.968509 0.291365 0.289842
O O9 0.739417 0.909383 0.115395
O O10 0.501703 0.624523 0.176205
O O11 0.263784 0.882411 0.204174
O O12 0.500000 0.500000 0.000000
O O13 0.193870 0.889323 0.798718
O O14 0.904077 0.949751 0.943242
O O15 0.000000 0.500000 0.000000
O O16 0.000000 0.000000 0.000000
#
# Coordination Sequence:
#
# PCOD9074147 Si02
#       7
#     2   2   2   2   2   2   2
#     4  12  25  46  73 103 143 183 234 289 360 420
#     4  12  27  46  70 102 145 184 237 298 346 421
#     4  11  23  45  68 105 141 185 232 289 349 413
#     4  11  20  40  73 103 140 184 232 281 350 423
#     4  12  24  45  70 108 138 185 240 288 347 418
#     4  10  22  42  71 100 137 184 232 281 348 425
#     4  12  26  47  71 102 141 190 235 289 362 417
#
# _framework density 22.681764999999999
#
# number of rings (size 3 to 8) (size 9 to 14) (size 15 to 20)
#    0.000    0.571    4.286    4.714    2.000    0.000 
#    5.143    1.429    0.000    0.000    0.000    0.000 
#    0.000    0.000    0.000    0.000    0.000    0.000 
#
# Total GULP energy -77942.117836 kJ/mol
# GULP energy per Si atom -5567.294131 kJ/mol
# Density = 2.263014 g / cm^3
# Si number density = 22.681765 Si / 1000 Ang^3
#
#
#
# Elastic Constant Matrix: (Units=GPa)
#
#
# Indices 1 2 3 4 5 6 
#
# 1 90.0252 52.4061 15.6830 15.0164 -23.3142 -35.3815
# 2 52.4061 154.3483 30.8532 32.7781 -10.7679 -64.4597
# 3 15.6830 30.8532 98.7199 26.4627 -14.0537 -17.5637
# 4 15.0164 32.7781 26.4627 38.9680 -8.4972 -16.7451
# 5 -23.3142 -10.7679 -14.0537 -8.4972 20.1227 8.6829
# 6 -35.3815 -64.4597 -17.5637 -16.7451 8.6829 44.5468
#
#
#
# Elastic Compliance Matrix: (Units=1/GPa)
#
#
# Indices 1 2 3 4 5 6 
#
# 1 0.021608 -0.001407 0.001763 0.001497 0.020827 0.012325
# 2 -0.001407 0.017263 -0.000470 -0.004893 -0.004596 0.022734
# 3 0.001763 -0.000470 0.013211 -0.006832 0.007297 0.001940
# 4 0.001497 -0.004893 -0.006832 0.037316 0.008466 0.003792
# 5 0.020827 -0.004596 0.007297 0.008466 0.079872 0.000383
# 6 0.012325 0.022734 0.001940 0.003792 0.000383 0.067249
#
#
# Mechanical properties :
#
#
# Convention : Reuss Voigt Hill
#
# Bulk Modulus (GPa) = 19.28417 60.10866 39.69641
# Shear Modulus (GPa) = 19.68266 37.00424 28.34345
#
# Velocity S-wave (km/s) = 2.94900 4.04351 3.53882
# Velocity P-wave (km/s) = 4.48508 6.95402 5.85125
#
# Compressibility (1/GPa) = 0.05185602
#
# Stress axis : x y z
#
# Youngs Moduli (GPa) = 46.28006 57.92699 75.69194
#
# Poissons Ratio (x) = 0.08149 -0.13348
# Poissons Ratio (y) = 0.06510 0.03556
# Poissons Ratio (z) = -0.08161 0.02721
#
# Static dielectric constant tensor:
#      x y z
#    x 2.962420 0.053210 0.107480 
#    y 0.053210 2.083170 0.121720 
#    z 0.107480 0.121720 1.934970 
# 
# From -- ./inp_files/223184.got.cif
#   From: 2010.05.17/outbox.ucp.g08.bks.cvg/sg2_112_cif.got.tgz:223184.got - 2010.06.11 11:32:03.
