data_PCOD9074073
_publ_section_title
;
Structure prediction by ZEFSAII (Michael W. Deem and Ramdas Pophale) SiO2 
 PCOD9074073
Probable space group: P -1
;
_chemical_formula_sum "Si O2"
_cell_formula_units_Z 14
_cell_length_a 12.000000
_cell_length_b 12.000000
_cell_length_c 9.000000
_cell_angle_alpha 50.000000
_cell_angle_beta 60.000000
_cell_angle_gamma 40.000000
_cell_volume 638.079485
_symmetry_space_group_name_H-M "P -1"
_symmetry_group_IT_number 2
_symmetry_cell_setting 'triclinic'
loop_
_space_group_symop_operation_xyz
x,y,z
-x,-y,-z
loop_
_atom_site_type_symbol
_atom_site_label
_atom_site_fract_x
_atom_site_fract_y
_atom_site_fract_z
Si Si1 0.442787 0.388289 0.568943
Si Si2 0.814650 0.001354 0.328468
Si Si3 0.054411 0.618205 0.305019
Si Si4 0.195144 0.419435 0.909166
Si Si5 0.935529 0.240139 0.112680
Si Si6 0.259310 0.054429 0.250246
Si Si7 0.540351 0.621764 0.787550
O O1 0.500000 0.500000 0.500000
O O2 0.259829 0.451586 0.687420
O O3 0.468117 0.387220 0.377368
O O4 0.583278 0.164224 0.718414
O O5 0.623794 0.153444 0.248019
O O6 0.869620 0.129318 0.209315
O O7 0.775847 0.942530 0.554863
O O8 0.971750 0.800098 0.314961
O O9 0.260402 0.474254 0.254380
O O10 0.000000 0.500000 0.500000
O O11 0.978999 0.730940 0.101863
O O12 0.210823 0.543001 0.906289
O O13 0.296272 0.194458 0.067767
O O14 0.000000 0.500000 0.000000
O O15 0.085940 0.119921 0.236581
O O16 0.500000 0.500000 0.000000
#
# Coordination Sequence:
#
# PCOD9074073 Si02
#       7
#     2   2   2   2   2   2   2
#     4  11  25  42  69 103 133 181 228 280 343 403
#     4  11  24  47  68 102 135 183 231 286 340 412
#     4  12  28  45  72 100 141 186 228 284 350 406
#     4  10  22  41  68  98 137 172 223 287 339 399
#     4  11  23  42  69 101 131 179 229 273 345 405
#     4  10  23  40  68 100 138 171 229 287 339 401
#     4  11  26  46  70 101 140 180 234 282 338 415
#
# _framework density 21.940840000000001
#
# number of rings (size 3 to 8) (size 9 to 14) (size 15 to 20)
#    0.000    1.143    1.429    3.857   10.000    0.571 
#    0.000    0.000    0.000    0.000    0.000    0.000 
#    0.000    0.000    0.000    0.000    0.000    0.000 
#
# Total GULP energy -78043.382692 kJ/mol
# GULP energy per Si atom -5574.527335 kJ/mol
# Density = 2.189090 g / cm^3
# Si number density = 21.940840 Si / 1000 Ang^3
#
#
#
# Elastic Constant Matrix: (Units=GPa)
#
#
# Indices 1 2 3 4 5 6 
#
# 1 57.8686 47.0135 25.7866 -14.2375 -25.7458 -8.1231
# 2 47.0135 110.6606 38.3795 -12.7348 -15.4382 -0.2032
# 3 25.7866 38.3795 145.3933 1.6606 -40.5533 -1.8458
# 4 -14.2375 -12.7348 1.6606 36.9683 -5.7677 -11.0330
# 5 -25.7458 -15.4382 -40.5533 -5.7677 46.6952 -3.7403
# 6 -8.1231 -0.2032 -1.8458 -11.0330 -3.7403 43.9809
#
#
#
# Elastic Compliance Matrix: (Units=1/GPa)
#
#
# Indices 1 2 3 4 5 6 
#
# 1 0.049837 -0.015485 0.003498 0.023635 0.029736 0.017738
# 2 -0.015485 0.015450 -0.003303 -0.002848 -0.006989 -0.004236
# 3 0.003498 -0.003303 0.009888 0.002018 0.009865 0.002391
# 4 0.023635 -0.002848 0.002018 0.043385 0.020569 0.017070
# 5 0.029736 -0.006989 0.009865 0.020569 0.047818 0.015100
# 6 0.017738 -0.004236 0.002391 0.017070 0.015100 0.031660
#
#
# Mechanical properties :
#
#
# Convention : Reuss Voigt Hill
#
# Bulk Modulus (GPa) = 22.42359 59.58687 41.00523
# Shear Modulus (GPa) = 20.53536 39.04506 29.79021
#
# Velocity S-wave (km/s) = 3.06264 4.22306 3.68877
# Velocity P-wave (km/s) = 4.76954 7.14114 6.07225
#
# Compressibility (1/GPa) = 0.04459590
#
# Stress axis : x y z
#
# Youngs Moduli (GPa) = 20.06554 64.72385 101.13073
#
# Poissons Ratio (x) = 1.00225 -0.35375
# Poissons Ratio (y) = 0.31071 0.33400
# Poissons Ratio (z) = -0.07019 0.21376
#
# Static dielectric constant tensor:
#      x y z
#    x 1.856410 -0.021890 0.097530 
#    y -0.021890 1.909270 -0.004980 
#    z 0.097530 -0.004980 1.824400 
# 
# From -- ./inp_files/181369.got.cif
#   From: 2010.05.17/outbox.ucp.g08.bks.cvg/sg2_91_cif.got.tgz:181369.got - 2010.06.11 11:32:03.
