data_PCOD9074067
_publ_section_title
;
Structure prediction by ZEFSAII (Michael W. Deem and Ramdas Pophale) SiO2 
 PCOD9074067
Probable space group: P -1
;
_chemical_formula_sum "Si O2"
_cell_formula_units_Z 16
_cell_length_a 21.000000
_cell_length_b 12.000000
_cell_length_c 12.000000
_cell_angle_alpha 40.000000
_cell_angle_beta 30.000000
_cell_angle_gamma 30.000000
_cell_volume 754.441492
_symmetry_space_group_name_H-M "P -1"
_symmetry_group_IT_number 2
_symmetry_cell_setting 'triclinic'
loop_
_space_group_symop_operation_xyz
x,y,z
-x,-y,-z
loop_
_atom_site_type_symbol
_atom_site_label
_atom_site_fract_x
_atom_site_fract_y
_atom_site_fract_z
Si Si1 0.384724 0.760046 0.434328
Si Si2 0.749553 0.191193 0.801494
Si Si3 0.529908 0.665229 0.051951
Si Si4 0.056115 0.859628 0.905752
Si Si5 0.163650 0.448780 0.935289
Si Si6 0.313126 0.832236 0.842130
Si Si7 0.941253 0.322313 0.317976
Si Si8 0.459493 0.973985 0.339540
O O1 0.500000 0.500000 0.500000
O O2 0.463765 0.765845 0.197647
O O3 0.196582 0.856333 0.637584
O O4 0.384322 0.910066 0.411079
O O5 0.626162 0.272090 0.826000
O O6 0.821362 0.323963 0.582562
O O7 0.656000 0.217014 0.035643
O O8 0.904245 0.933135 0.747132
O O9 0.642561 0.396116 0.100225
O O10 0.589526 0.785224 0.801457
O O11 0.140223 0.596562 0.963682
O O12 0.000000 0.000000 0.000000
O O13 0.882853 0.982510 0.013173
O O14 0.144188 0.567608 0.755947
O O15 0.343341 0.208437 0.837622
O O16 0.019230 0.430505 0.165821
O O17 0.402885 0.920020 0.580240
#
# Coordination Sequence:
#
# PCOD9074067 Si02
#       8
#     2   2   2   2   2   2   2   2
#     4  12  23  46  75  95 135 183 231 285 341 411
#     4  11  23  43  67  99 141 180 226 286 346 411
#     4  12  26  46  70 102 135 186 233 279 343 416
#     4  12  23  42  72  99 136 182 223 284 353 399
#     4  11  22  42  72 100 135 180 237 284 336 417
#     4  12  26  44  66 102 144 180 220 288 353 402
#     4  10  22  41  68 104 133 179 233 284 340 406
#     4  12  25  45  71 101 135 185 234 279 340 414
#
# _framework density 21.207740999999999
#
# number of rings (size 3 to 8) (size 9 to 14) (size 15 to 20)
#    0.000    0.500    6.250    2.250    1.750    1.500 
#    0.000    0.625    0.000    0.000    0.000    0.000 
#    0.000    0.000    0.000    0.000    0.000    0.000 
#
# Total GULP energy -89347.102446 kJ/mol
# GULP energy per Si atom -5584.193903 kJ/mol
# Density = 2.115947 g / cm^3
# Si number density = 21.207741 Si / 1000 Ang^3
#
#
#
# Elastic Constant Matrix: (Units=GPa)
#
#
# Indices 1 2 3 4 5 6 
#
# 1 50.7843 -15.7327 20.5335 -2.3097 4.7211 6.5619
# 2 -15.7327 61.2176 26.0594 -6.4402 0.5490 -4.4552
# 3 20.5335 26.0594 142.1900 -29.8544 12.4194 4.3244
# 4 -2.3097 -6.4402 -29.8544 33.4854 3.4402 -6.1121
# 5 4.7211 0.5490 12.4194 3.4402 37.5133 4.4290
# 6 6.5619 -4.4552 4.3244 -6.1121 4.4290 32.2241
#
#
#
# Elastic Compliance Matrix: (Units=1/GPa)
#
#
# Indices 1 2 3 4 5 6 
#
# 1 0.024819 0.008189 -0.005322 -0.001999 -0.000889 -0.003465
# 2 0.008189 0.020737 -0.004939 0.000504 0.000024 0.001955
# 3 -0.005322 -0.004939 0.010896 0.009005 -0.003830 0.001173
# 4 -0.001999 0.000504 0.009005 0.040042 -0.007339 0.007872
# 5 -0.000889 0.000024 -0.003830 -0.007339 0.029266 -0.004716
# 6 -0.003465 0.001955 0.001173 0.007872 -0.004716 0.033992
#
#
# Mechanical properties :
#
#
# Convention : Reuss Voigt Hill
#
# Bulk Modulus (GPa) = 19.11666 35.10139 27.10903
# Shear Modulus (GPa) = 27.57366 35.53334 31.55350
#
# Velocity S-wave (km/s) = 3.60970 4.09771 3.86142
# Velocity P-wave (km/s) = 5.13875 6.24304 5.71762
#
# Compressibility (1/GPa) = 0.05231039
#
# Stress axis : x y z
#
# Youngs Moduli (GPa) = 40.29135 48.22232 91.77660
#
# Poissons Ratio (x) = -0.39491 0.48840
# Poissons Ratio (y) = -0.32996 0.45327
# Poissons Ratio (z) = 0.21441 0.23816
#
# Static dielectric constant tensor:
#      x y z
#    x 1.794460 0.005360 0.011770 
#    y 0.005360 1.802060 -0.009880 
#    z 0.011770 -0.009880 1.758150 
# 
# From -- ./inp_files/402783.got.cif
#   From: 2010.05.17/outbox.ucp.g08.bks.cvg/sg2_202_cif.got.tgz:402783.got - 2010.06.11 11:32:03.
