data_PCOD9074591
_publ_section_title
;
Structure prediction by ZEFSAII (Michael W. Deem and Ramdas Pophale) SiO2 
 PCOD9074591
Probable space group: P -1
;
_chemical_formula_sum "Si O2"
_cell_formula_units_Z 15
_cell_length_a 18.000000
_cell_length_b 9.000000
_cell_length_c 15.000000
_cell_angle_alpha 130.000000
_cell_angle_beta 160.000000
_cell_angle_gamma 50.000000
_cell_volume 629.659215
_symmetry_space_group_name_H-M "P -1"
_symmetry_group_IT_number 2
_symmetry_cell_setting 'triclinic'
loop_
_space_group_symop_operation_xyz
x,y,z
-x,-y,-z
loop_
_atom_site_type_symbol
_atom_site_label
_atom_site_fract_x
_atom_site_fract_y
_atom_site_fract_z
Si Si1 0.116150 0.284094 0.849472
Si Si2 0.024568 0.879583 0.643269
Si Si3 0.752465 0.930837 0.524352
Si Si4 0.535469 0.363664 0.869481
Si Si5 0.240116 0.349966 0.372368
Si Si6 0.589124 0.695238 0.649554
Si Si7 0.372331 0.230932 0.946008
Si Si8 0.000000 0.000000 0.000000
O O1 0.312206 0.304922 0.008202
O O2 0.901392 0.450915 0.670054
O O3 0.084664 0.056773 0.719147
O O4 0.200409 0.296294 0.049590
O O5 0.859188 0.980156 0.571637
O O6 0.871748 0.762834 0.367034
O O7 0.230587 0.742698 0.869401
O O8 0.642402 0.732416 0.308042
O O9 0.578378 0.107630 0.438096
O O10 0.943749 0.902915 0.802137
O O11 0.448328 0.285536 0.647579
O O12 0.528161 0.597275 0.931031
O O13 0.351768 0.342827 0.400187
O O14 0.075478 0.191964 0.112954
O O15 0.500000 0.500000 0.500000
O O16 0.500000 0.000000 0.000000
#
# Coordination Sequence:
#
# PCOD9074591 Si02
#       8
#     2   2   2   2   2   2   2   1
#     4  12  25  48  72 106 146 189 242 302 361 427
#     4  12  26  49  74 107 145 191 244 301 363 427
#     4  11  25  43  72 108 148 188 238 293 355 427
#     4  11  27  48  74 107 147 187 245 298 365 432
#     4  11  25  43  73 108 146 191 240 295 359 432
#     4  12  23  41  71 106 147 189 239 289 356 427
#     4  12  28  50  77 104 141 192 246 305 366 428
#     4  10  24  40  68 102 148 186 234 284 356 422
#
# _framework density 23.822410000000001
#
# number of rings (size 3 to 8) (size 9 to 14) (size 15 to 20)
#    0.000    0.533    1.333    6.000    5.600    1.600 
#    0.000    0.000    0.000    0.000    0.000    0.000 
#    0.000    0.000    0.000    0.000    0.000    0.000 
#
# Total GULP energy -83514.326975 kJ/mol
# GULP energy per Si atom -5567.621798 kJ/mol
# Density = 2.376819 g / cm^3
# Si number density = 23.822410 Si / 1000 Ang^3
#
#
#
# Elastic Constant Matrix: (Units=GPa)
#
#
# Indices 1 2 3 4 5 6 
#
# 1 89.7780 31.4433 4.8355 -20.2073 -9.0685 4.6405
# 2 31.4433 123.2191 11.6370 19.1583 26.3047 18.9219
# 3 4.8355 11.6370 91.2473 10.7836 -18.2184 5.0461
# 4 -20.2073 19.1583 10.7836 42.2507 2.5876 13.3387
# 5 -9.0685 26.3047 -18.2184 2.5876 21.0879 7.7753
# 6 4.6405 18.9219 5.0461 13.3387 7.7753 29.2129
#
#
#
# Elastic Compliance Matrix: (Units=1/GPa)
#
#
# Indices 1 2 3 4 5 6 
#
# 1 0.027039 -0.017996 0.008011 0.021224 0.044087 -0.015448
# 2 -0.017996 0.025833 -0.010946 -0.017410 -0.050778 0.009482
# 3 0.008011 -0.010946 0.019204 0.004600 0.036566 -0.009333
# 4 0.021224 -0.017410 0.004600 0.045757 0.038016 -0.023900
# 5 0.044087 -0.050778 0.036566 0.038016 0.172787 -0.043777
# 6 -0.015448 0.009482 -0.009333 -0.023900 -0.043777 0.054720
#
#
# Mechanical properties :
#
#
# Convention : Reuss Voigt Hill
#
# Bulk Modulus (GPa) = 33.09833 44.45290 38.77561
# Shear Modulus (GPa) = 12.58582 35.59887 24.09235
#
# Velocity S-wave (km/s) = 2.30101 3.86987 3.18359
# Velocity P-wave (km/s) = 4.58077 6.21840 5.46132
#
# Compressibility (1/GPa) = 0.03021301
#
# Stress axis : x y z
#
# Youngs Moduli (GPa) = 36.98388 38.71073 52.07252
#
# Poissons Ratio (x) = 0.69663 -0.41714
# Poissons Ratio (y) = 0.66556 0.56999
# Poissons Ratio (z) = -0.29627 0.42373
#
# Static dielectric constant tensor:
#      x y z
#    x 2.113350 0.124780 0.130550 
#    y 0.124780 1.840970 -0.063820 
#    z 0.130550 -0.063820 1.911150 
# 
# From -- ./inp_files/537661.got.cif
#   From: 2010.05.17/outbox.ucp.g08.bks.cvg/sg2_269_cif.got.tgz:537661.got - 2010.06.11 11:32:03.
