data_PCOD9074892
_publ_section_title
;
Structure prediction by ZEFSAII (Michael W. Deem and Ramdas Pophale) SiO2 
 PCOD9074892
Probable space group: P -1
;
_chemical_formula_sum "Si O2"
_cell_formula_units_Z 16
_cell_length_a 6.000000
_cell_length_b 15.000000
_cell_length_c 9.000000
_cell_angle_alpha 80.000000
_cell_angle_beta 100.000000
_cell_angle_gamma 110.000000
_cell_volume 743.852236
_symmetry_space_group_name_H-M "P -1"
_symmetry_group_IT_number 2
_symmetry_cell_setting 'triclinic'
loop_
_space_group_symop_operation_xyz
x,y,z
-x,-y,-z
loop_
_atom_site_type_symbol
_atom_site_label
_atom_site_fract_x
_atom_site_fract_y
_atom_site_fract_z
Si Si1 0.578154 0.050919 0.832012
Si Si2 0.670345 0.707653 0.640608
Si Si3 0.904551 0.816881 0.064978
Si Si4 0.566823 0.494494 0.182180
Si Si5 0.139146 0.583060 0.168216
Si Si6 0.533918 0.757070 0.287839
Si Si7 0.575909 0.861338 0.792546
Si Si8 0.088624 0.703784 0.874390
O O1 0.461059 0.131959 0.747987
O O2 0.855937 0.113176 0.857947
O O3 0.532989 0.962385 0.738513
O O4 0.500000 0.000000 0.000000
O O5 0.492946 0.613098 0.727852
O O6 0.610964 0.719056 0.459945
O O7 0.652439 0.805227 0.684627
O O8 0.928571 0.696367 0.711348
O O9 0.721087 0.755495 0.181702
O O10 0.777830 0.878723 0.936763
O O11 0.954368 0.745612 0.971330
O O12 0.353567 0.533274 0.219533
O O13 0.862493 0.541334 0.210807
O O14 0.500000 0.500000 0.000000
O O15 0.273848 0.685604 0.232700
O O16 0.114457 0.609706 0.982677
O O17 0.341336 0.783196 0.854439
#
# Coordination Sequence:
#
# PCOD9074892 Si02
#       8
#     2   2   2   2   2   2   2   2
#     4  12  22  40  73 107 130 185 246 293 353 430
#     4  11  29  45  65 105 150 184 229 306 369 423
#     4  11  20  40  71 101 137 183 235 299 348 430
#     4  12  26  45  79 108 139 192 250 301 361 432
#     4  12  24  46  77 106 139 190 252 294 353 439
#     4  12  27  44  68 107 147 185 232 299 371 421
#     4  11  23  42  71  99 138 183 241 291 353 433
#     4  11  21  43  72 102 135 188 238 294 355 430
#
# _framework density 21.509647999999999
#
# number of rings (size 3 to 8) (size 9 to 14) (size 15 to 20)
#    0.000    0.500    6.250    2.250    1.750    2.500 
#    0.000    1.250    0.000    0.000    0.000    0.000 
#    0.000    0.000    0.000    0.000    0.000    0.000 
#
# Total GULP energy -89328.533423 kJ/mol
# GULP energy per Si atom -5583.033339 kJ/mol
# Density = 2.146069 g / cm^3
# Si number density = 21.509648 Si / 1000 Ang^3
#
#
#
# Elastic Constant Matrix: (Units=GPa)
#
#
# Indices 1 2 3 4 5 6 
#
# 1 106.8780 19.5850 6.2616 3.3279 13.6200 8.6631
# 2 19.5850 94.9026 -1.2948 -11.3673 8.9753 -9.3847
# 3 6.2616 -1.2948 84.1964 -8.2705 20.2329 -5.2435
# 4 3.3279 -11.3673 -8.2705 23.0838 -4.5220 2.1839
# 5 13.6200 8.9753 20.2329 -4.5220 24.7867 -0.1511
# 6 8.6631 -9.3847 -5.2435 2.1839 -0.1511 47.8164
#
#
#
# Elastic Compliance Matrix: (Units=1/GPa)
#
#
# Indices 1 2 3 4 5 6 
#
# 1 0.010820 -0.002338 0.000062 -0.003615 -0.005823 -0.002266
# 2 -0.002338 0.012418 0.002044 0.006189 -0.003734 0.002791
# 3 0.000062 0.002044 0.015443 0.003873 -0.012662 0.001866
# 4 -0.003615 0.006189 0.003873 0.049367 0.005590 0.000057
# 5 -0.005823 -0.003734 -0.012662 0.005590 0.056245 -0.001144
# 6 -0.002266 0.002791 0.001866 0.000057 -0.001144 0.022070
#
#
# Mechanical properties :
#
#
# Convention : Reuss Voigt Hill
#
# Bulk Modulus (GPa) = 26.16654 37.23118 31.69886
# Shear Modulus (GPa) = 27.84500 36.56573 32.20537
#
# Velocity S-wave (km/s) = 3.60187 4.12754 3.87363
# Velocity P-wave (km/s) = 5.43041 6.32946 5.89710
#
# Compressibility (1/GPa) = 0.03821675
#
# Stress axis : x y z
#
# Youngs Moduli (GPa) = 92.42539 80.52866 64.75279
#
# Poissons Ratio (x) = 0.18830 -0.00404
# Poissons Ratio (y) = 0.21612 -0.13235
# Poissons Ratio (z) = -0.00577 -0.16459
#
# Static dielectric constant tensor:
#      x y z
#    x 1.838700 -0.054770 0.004240 
#    y -0.054770 1.840220 0.027610 
#    z 0.004240 0.027610 1.755980 
# 
# From -- ./inp_files/39422.got.cif
#   From: 2010.05.17/outbox.ucp.g08.bks.cvg/sg2_20_cif.got.tgz:39422.got - 2010.06.11 11:32:03.
