data_PCOD9074137
_publ_section_title
;
Structure prediction by ZEFSAII (Michael W. Deem and Ramdas Pophale) SiO2 
 PCOD9074137
Probable space group: P -1
;
_chemical_formula_sum "Si O2"
_cell_formula_units_Z 16
_cell_length_a 15.000000
_cell_length_b 12.000000
_cell_length_c 15.000000
_cell_angle_alpha 120.000000
_cell_angle_beta 140.000000
_cell_angle_gamma 30.000000
_cell_volume 747.221570
_symmetry_space_group_name_H-M "P -1"
_symmetry_group_IT_number 2
_symmetry_cell_setting 'triclinic'
loop_
_space_group_symop_operation_xyz
x,y,z
-x,-y,-z
loop_
_atom_site_type_symbol
_atom_site_label
_atom_site_fract_x
_atom_site_fract_y
_atom_site_fract_z
Si Si1 0.713347 0.158522 0.325941
Si Si2 0.843858 0.852906 0.853043
Si Si3 0.165639 0.668775 0.211100
Si Si4 0.739204 0.519842 0.326843
Si Si5 0.225107 0.171253 0.696980
Si Si6 0.783029 0.644406 0.812208
Si Si7 0.732501 0.215832 0.167455
Si Si8 0.783116 0.527059 0.172336
O O1 0.485462 0.401387 0.315982
O O2 0.628878 0.256373 0.200877
O O3 0.751959 0.973618 0.282356
O O4 0.000000 0.000000 0.500000
O O5 0.820421 0.716249 0.791155
O O6 0.021738 0.711826 0.840976
O O7 0.558053 0.167227 0.759257
O O8 0.000512 0.769905 0.031830
O O9 0.162997 0.551966 0.233694
O O10 0.024686 0.910971 0.240923
O O11 0.734009 0.369312 0.241285
O O12 0.886011 0.456912 0.324982
O O13 0.935280 0.390334 0.509657
O O14 0.267575 0.280590 0.813697
O O15 0.479108 0.931516 0.729065
O O16 0.000000 0.500000 0.000000
O O17 0.500300 0.329228 0.975967
#
# Coordination Sequence:
#
# PCOD9074137 Si02
#       8
#     2   2   2   2   2   2   2   2
#     4  11  24  47  69 103 140 175 230 290 343 395
#     4  11  23  41  68 100 137 177 232 283 333 405
#     4  10  22  42  69  99 136 178 230 282 337 402
#     4  12  26  47  65 101 148 177 224 283 345 409
#     4  11  24  46  71  97 146 176 221 297 336 401
#     4   9  19  41  65  95 134 175 219 282 333 388
#     4  12  25  45  73 100 137 186 227 278 347 409
#     4  12  25  42  71 103 130 188 233 268 343 410
#
# _framework density 21.412658
#
# number of rings (size 3 to 8) (size 9 to 14) (size 15 to 20)
#    0.000    1.000    5.000    1.500    1.750    3.000 
#    0.000    0.000    0.000    0.000    0.000    0.000 
#    0.000    0.000    0.000    0.000    0.000    0.000 
#
# Total GULP energy -89134.467614 kJ/mol
# GULP energy per Si atom -5570.904226 kJ/mol
# Density = 2.136392 g / cm^3
# Si number density = 21.412658 Si / 1000 Ang^3
#
#
#
# Elastic Constant Matrix: (Units=GPa)
#
#
# Indices 1 2 3 4 5 6 
#
# 1 60.5007 30.4667 -6.2173 -8.7957 1.6784 4.9815
# 2 30.4667 176.0996 22.8700 -16.8659 8.1859 1.2432
# 3 -6.2173 22.8700 59.4316 -18.2993 13.5652 8.0645
# 4 -8.7957 -16.8659 -18.2993 39.1533 -0.6826 2.5698
# 5 1.6784 8.1859 13.5652 -0.6826 18.2931 2.2450
# 6 4.9815 1.2432 8.0645 2.5698 2.2450 38.0828
#
#
#
# Elastic Compliance Matrix: (Units=1/GPa)
#
#
# Indices 1 2 3 4 5 6 
#
# 1 0.020550 -0.003605 0.007289 0.006665 -0.004904 -0.004275
# 2 -0.003605 0.006755 -0.002664 0.000788 -0.000786 0.000808
# 3 0.007289 -0.002664 0.028060 0.013708 -0.018961 -0.006616
# 4 0.006665 0.000788 0.013708 0.033988 -0.009179 -0.005553
# 5 -0.004904 -0.000786 -0.018961 -0.009179 0.069034 0.001232
# 6 -0.004275 0.000808 -0.006616 -0.005553 0.001232 0.028494
#
#
# Mechanical properties :
#
#
# Convention : Reuss Voigt Hill
#
# Bulk Modulus (GPa) = 17.42058 43.36342 30.39200
# Shear Modulus (GPa) = 24.51244 35.70002 30.10623
#
# Velocity S-wave (km/s) = 3.38711 4.08761 3.75374
# Velocity P-wave (km/s) = 4.84252 6.52483 5.74558
#
# Compressibility (1/GPa) = 0.05740338
#
# Stress axis : x y z
#
# Youngs Moduli (GPa) = 48.66090 148.04596 35.63777
#
# Poissons Ratio (x) = 0.53378 -0.25976
# Poissons Ratio (y) = 0.17545 0.09495
# Poissons Ratio (z) = -0.35468 0.39442
#
# Static dielectric constant tensor:
#      x y z
#    x 1.824470 0.069370 0.410570 
#    y 0.069370 1.735600 -0.185180 
#    z 0.410570 -0.185180 -0.256320 
# 
# From -- ./inp_files/427801.got.cif
#   From: 2010.05.17/outbox.ucp.g08.bks.cvg/sg2_214_cif.got.tgz:427801.got - 2010.06.11 11:32:03.
