data_PCOD9074108
_publ_section_title
;
Structure prediction by ZEFSAII (Michael W. Deem and Ramdas Pophale) SiO2 
 PCOD9074108
Probable space group: P -1
;
_chemical_formula_sum "Si O2"
_cell_formula_units_Z 16
_cell_length_a 27.000000
_cell_length_b 12.000000
_cell_length_c 9.000000
_cell_angle_alpha 140.000000
_cell_angle_beta 30.000000
_cell_angle_gamma 150.000000
_cell_volume 727.497153
_symmetry_space_group_name_H-M "P -1"
_symmetry_group_IT_number 2
_symmetry_cell_setting 'triclinic'
loop_
_space_group_symop_operation_xyz
x,y,z
-x,-y,-z
loop_
_atom_site_type_symbol
_atom_site_label
_atom_site_fract_x
_atom_site_fract_y
_atom_site_fract_z
Si Si1 0.266722 0.805419 0.544062
Si Si2 0.248297 0.061800 0.613871
Si Si3 0.304984 0.158479 0.228577
Si Si4 0.012356 0.403782 0.220691
Si Si5 0.519290 0.881115 0.455811
Si Si6 0.076704 0.770471 0.230416
Si Si7 0.756522 0.531076 0.209554
Si Si8 0.173085 0.343146 0.182939
O O1 0.239522 0.578008 0.333253
O O2 0.296239 0.954826 0.476641
O O3 0.382673 0.942667 0.497695
O O4 0.154404 0.787988 0.905274
O O5 0.317443 0.138732 0.352956
O O6 0.247253 0.241285 0.891535
O O7 0.098267 0.860096 0.764728
O O8 0.271892 0.323637 0.482220
O O9 0.181201 0.928825 0.246202
O O10 0.420291 0.219256 0.888438
O O11 0.997773 0.521071 0.244733
O O12 0.000000 0.500000 0.500000
O O13 0.153338 0.482409 0.934374
O O14 0.381909 0.697588 0.696497
O O15 0.500000 0.000000 0.500000
O O16 0.972267 0.808534 0.531719
O O17 0.828414 0.630540 0.966265
#
# Coordination Sequence:
#
# PCOD9074108 Si02
#       8
#     2   2   2   2   2   2   2   2
#     4  11  25  45  63  91 137 169 213 274 320 390
#     4  11  23  41  68  99 131 171 209 271 333 381
#     4  10  22  42  66  96 129 165 224 268 314 390
#     4  12  20  36  71  98 132 170 214 266 324 385
#     4  11  26  46  68  92 122 175 221 268 324 382
#     4  11  21  39  63  98 134 170 215 264 320 386
#     4  11  22  41  65  98 128 172 217 269 319 378
#     4  11  23  40  64  99 133 171 216 260 333 392
#
# _framework density 21.993213000000001
#
# number of rings (size 3 to 8) (size 9 to 14) (size 15 to 20)
#    0.000    1.000    3.750    3.000    1.750    3.000 
#   11.250    1.250    0.000    0.000    0.000    0.000 
#    0.000    0.000    0.000    0.000    0.000    0.000 
#
# Total GULP energy -89389.025832 kJ/mol
# GULP energy per Si atom -5586.814115 kJ/mol
# Density = 2.194316 g / cm^3
# Si number density = 21.993213 Si / 1000 Ang^3
#
#
#
# Elastic Constant Matrix: (Units=GPa)
#
#
# Indices 1 2 3 4 5 6 
#
# 1 71.6054 22.1109 23.5672 11.5305 -4.6926 19.7223
# 2 22.1109 50.9717 18.6204 18.0220 -6.5954 12.1405
# 3 23.5672 18.6204 65.9296 19.5674 -4.4370 16.5961
# 4 11.5305 18.0220 19.5674 38.6448 5.8634 3.5247
# 5 -4.6926 -6.5954 -4.4370 5.8634 19.8525 -0.0226
# 6 19.7223 12.1405 16.5961 3.5247 -0.0226 24.4478
#
#
#
# Elastic Compliance Matrix: (Units=1/GPa)
#
#
# Indices 1 2 3 4 5 6 
#
# 1 0.019818 -0.003393 -0.001827 -0.002856 0.003978 -0.012647
# 2 -0.003393 0.030307 0.000538 -0.014502 0.013658 -0.010575
# 3 -0.001827 0.000538 0.022746 -0.011312 0.008157 -0.012596
# 4 -0.002856 -0.014502 -0.011312 0.041260 -0.020195 0.011217
# 5 0.003978 0.013658 0.008157 -0.020195 0.063623 -0.012559
# 6 -0.012647 -0.010575 -0.012596 0.011217 -0.012559 0.063279
#
#
# Mechanical properties :
#
#
# Convention : Reuss Voigt Hill
#
# Bulk Modulus (GPa) = 15.74591 35.23376 25.48983
# Shear Modulus (GPa) = 18.41174 24.86957 21.64066
#
# Velocity S-wave (km/s) = 2.89650 3.36636 3.14023
# Velocity P-wave (km/s) = 4.28501 5.58255 4.97625
#
# Compressibility (1/GPa) = 0.06350855
#
# Stress axis : x y z
#
# Youngs Moduli (GPa) = 50.45811 32.99529 43.96458
#
# Poissons Ratio (x) = 0.11194 0.08033
# Poissons Ratio (y) = 0.17119 -0.02367
# Poissons Ratio (z) = 0.09219 -0.01777
#
# Static dielectric constant tensor:
#      x y z
#    x 1.751500 -0.140380 0.044810 
#    y -0.140380 1.505080 0.186260 
#    z 0.044810 0.186260 1.677490 
# 
# From -- ./inp_files/283029.got.cif
#   From: 2010.05.17/outbox.ucp.g08.bks.cvg/sg2_142_cif.got.tgz:283029.got - 2010.06.11 11:32:03.
