data_PCOD9074914
_publ_section_title
;
Structure prediction by ZEFSAII (Michael W. Deem and Ramdas Pophale) SiO2 
 PCOD9074914
Probable space group: P -1
;
_chemical_formula_sum "Si O2"
_cell_formula_units_Z 16
_cell_length_a 13.161467
_cell_length_b 11.358134
_cell_length_c 5.450573
_cell_angle_alpha 92.769144
_cell_angle_beta 63.263379
_cell_angle_gamma 118.929516
_cell_volume 621.763159
_symmetry_space_group_name_H-M "P -1"
_symmetry_group_IT_number 2
_symmetry_cell_setting 'triclinic'
loop_
_space_group_symop_operation_xyz
x,y,z
-x,-y,-z
loop_
_atom_site_type_symbol
_atom_site_label
_atom_site_fract_x
_atom_site_fract_y
_atom_site_fract_z
Si Si1 0.163972 0.986543 0.879903
Si Si2 0.706831 0.170013 0.769868
Si Si3 0.557519 0.395249 0.126145
Si Si4 0.301898 0.104852 0.241874
Si Si5 0.099340 0.293506 0.877546
Si Si6 0.642107 0.137125 0.337659
Si Si7 0.013215 0.366907 0.479589
Si Si8 0.370345 0.503612 0.439621
O O1 0.244177 0.904063 0.791847
O O2 0.210720 0.065952 0.579300
O O3 0.008182 0.869709 0.032580
O O4 0.218764 0.079750 0.076869
O O5 0.665726 0.213092 0.574182
O O6 0.863726 0.237445 0.606588
O O7 0.649313 0.006171 0.825503
O O8 0.660193 0.209104 0.067418
O O9 0.430948 0.253330 0.154958
O O10 0.501619 0.497892 0.245832
O O11 0.604743 0.394243 0.352324
O O12 0.659038 0.458624 0.794283
O O13 0.252940 0.355881 0.651448
O O14 0.059723 0.355962 0.698710
O O15 0.086051 0.350098 0.161685
O O16 0.500000 0.000000 0.500000
O O17 0.000000 0.500000 0.500000
#
# Coordination Sequence:
#
# PCOD9074914 Si02
#       8
#     2   2   2   2   2   2   2   2
#     4  10  19  35  59  86 116 159 192 253 307 358
#     4  10  19  37  52  79 110 153 186 243 305 339
#     4  10  21  42  62  94 128 157 209 247 311 368
#     4  10  18  35  63  83 117 159 190 242 308 356
#     4  12  21  43  64  88 123 165 210 250 320 367
#     4  10  18  32  53  77 106 149 190 235 300 354
#     4  12  23  40  62  85 123 165 205 258 306 366
#     4  10  23  40  66  90 126 168 196 260 302 373
#
# _framework density 25.733274000000002
#
# number of rings (size 3 to 8) (size 9 to 14) (size 15 to 20)
#    0.000    1.500    5.000    2.250    0.000    0.000 
#    0.000   16.250    0.000    0.000    0.000    0.000 
#    0.000    0.000    0.000    0.000    0.000    0.000 
#
# Total GULP energy -89501.304799 kJ/mol
# GULP energy per Si atom -5593.831550 kJ/mol
# Density = 2.567470 g / cm^3
# Si number density = 25.733274 Si / 1000 Ang^3
#
#
#
# Elastic Constant Matrix: (Units=GPa)
#
#
# Indices 1 2 3 4 5 6 
#
# 1 42.1157 23.7147 36.7073 19.6698 8.2024 13.6129
# 2 23.7147 128.0543 63.7557 16.3417 4.2074 11.2188
# 3 36.7073 63.7557 246.2362 23.9031 29.4241 24.5766
# 4 19.6698 16.3417 23.9031 46.8509 24.1007 2.9159
# 5 8.2024 4.2074 29.4241 24.1007 47.1554 6.5710
# 6 13.6129 11.2188 24.5766 2.9159 6.5710 45.7223
#
#
#
# Elastic Compliance Matrix: (Units=1/GPa)
#
#
# Indices 1 2 3 4 5 6 
#
# 1 0.036590 -0.002842 -0.002999 -0.014568 0.004360 -0.008282
# 2 -0.002842 0.009612 -0.002049 -0.002158 0.002098 -0.000575
# 3 -0.002999 -0.002049 0.005427 0.000778 -0.002919 -0.001152
# 4 -0.014568 -0.002158 0.000778 0.036232 -0.016914 0.004569
# 5 0.004360 0.002098 -0.002919 -0.016914 0.031236 -0.003654
# 6 -0.008282 -0.000575 -0.001152 0.004569 -0.003654 0.025331
#
#
# Mechanical properties :
#
#
# Convention : Reuss Voigt Hill
#
# Bulk Modulus (GPa) = 27.89415 73.86241 50.87828
# Shear Modulus (GPa) = 29.04307 47.42761 38.23534
#
# Velocity S-wave (km/s) = 3.36314 4.29773 3.85883
# Velocity P-wave (km/s) = 5.09354 7.30703 6.29829
#
# Compressibility (1/GPa) = 0.03584981
#
# Stress axis : x y z
#
# Youngs Moduli (GPa) = 27.33003 104.03144 184.26447
#
# Poissons Ratio (x) = 0.29561 0.55261
# Poissons Ratio (y) = 0.07766 0.37758
# Poissons Ratio (z) = 0.08196 0.21317
#
# Static dielectric constant tensor:
#      x y z
#    x 2.067120 0.037770 0.062740 
#    y 0.037770 1.915790 0.005030 
#    z 0.062740 0.005030 2.062520 
# 
# From -- ./inp_files/110550.got.cif
#   From: 2010.05.17/outbox.cif.g08.bks.cpg/sg2_56_cif.got.tgz:110550.got - 2010.06.03 11:33:40.
