data_PCOD9074878
_publ_section_title
;
Structure prediction by ZEFSAII (Michael W. Deem and Ramdas Pophale) SiO2 
 PCOD9074878
Probable space group: P -1
;
_chemical_formula_sum "Si O2"
_cell_formula_units_Z 16
_cell_length_a 12.000000
_cell_length_b 9.000000
_cell_length_c 18.000000
_cell_angle_alpha 40.000000
_cell_angle_beta 40.000000
_cell_angle_gamma 40.000000
_cell_volume 723.717541
_symmetry_space_group_name_H-M "P -1"
_symmetry_group_IT_number 2
_symmetry_cell_setting 'triclinic'
loop_
_space_group_symop_operation_xyz
x,y,z
-x,-y,-z
loop_
_atom_site_type_symbol
_atom_site_label
_atom_site_fract_x
_atom_site_fract_y
_atom_site_fract_z
Si Si1 0.453680 0.917017 0.355004
Si Si2 0.968260 0.646745 0.611602
Si Si3 0.199907 0.018198 0.911613
Si Si4 0.913714 0.124262 0.829347
Si Si5 0.603555 0.484517 0.572613
Si Si6 0.276497 0.153307 0.052004
Si Si7 0.755526 0.363979 0.210896
Si Si8 0.021042 0.626854 0.765369
O O1 0.596856 0.049549 0.208963
O O2 0.542363 0.724713 0.453694
O O3 0.436557 0.734410 0.367174
O O4 0.233744 0.128974 0.398542
O O5 0.945163 0.380449 0.718228
O O6 0.001152 0.698550 0.661930
O O7 0.170821 0.612311 0.485918
O O8 0.125487 0.322251 0.834378
O O9 0.223973 0.883678 0.030305
O O10 0.000000 0.000000 0.000000
O O11 0.125333 0.876730 0.811895
O O12 0.809703 0.049419 0.844317
O O13 0.464637 0.567380 0.683744
O O14 0.225600 0.388486 0.928997
O O15 0.187513 0.276870 0.128608
O O16 0.500000 0.000000 0.000000
O O17 0.855270 0.296474 0.267955
#
# Coordination Sequence:
#
# PCOD9074878 Si02
#       8
#     2   2   2   2   2   2   2   2
#     4  11  24  42  67  98 134 173 222 277 324 393
#     4  12  26  42  68 105 133 170 225 278 329 387
#     4  12  20  39  68  99 133 168 211 274 348 387
#     4  11  23  42  63  95 138 167 214 276 339 394
#     4  11  22  45  68  91 131 182 226 267 325 387
#     4  11  24  40  64 101 131 173 224 268 333 402
#     4  11  22  43  69  90 131 185 219 263 327 404
#     4  11  20  38  67  94 130 173 216 265 331 395
#
# _framework density 22.108073000000001
#
# number of rings (size 3 to 8) (size 9 to 14) (size 15 to 20)
#    0.000    0.750    6.250    1.875    3.500    2.000 
#    4.500    0.625    0.000    0.000    0.000    0.000 
#    0.000    0.000    0.000    0.000    0.000    0.000 
#
# Total GULP energy -89292.371957 kJ/mol
# GULP energy per Si atom -5580.773247 kJ/mol
# Density = 2.205775 g / cm^3
# Si number density = 22.108073 Si / 1000 Ang^3
#
#
#
# Elastic Constant Matrix: (Units=GPa)
#
#
# Indices 1 2 3 4 5 6 
#
# 1 50.9815 25.8315 16.6046 5.9556 -21.0371 -14.0615
# 2 25.8315 105.9942 32.7995 20.7937 -14.0916 -32.6056
# 3 16.6046 32.7995 106.1538 27.9113 -28.4581 -8.3242
# 4 5.9556 20.7937 27.9113 47.1550 -8.4922 -12.9508
# 5 -21.0371 -14.0916 -28.4581 -8.4922 32.4499 12.6626
# 6 -14.0615 -32.6056 -8.3242 -12.9508 12.6626 27.1984
#
#
#
# Elastic Compliance Matrix: (Units=1/GPa)
#
#
# Indices 1 2 3 4 5 6 
#
# 1 0.029345 -0.004830 0.001464 0.001358 0.017692 0.002239
# 2 -0.004830 0.017515 -0.005299 0.000263 -0.008235 0.020837
# 3 0.001464 -0.005299 0.016027 -0.007747 0.015134 -0.011425
# 4 0.001358 0.000263 -0.007747 0.028687 -0.003781 0.014066
# 5 0.017692 -0.008235 0.015134 -0.003781 0.061310 -0.026437
# 6 0.002239 0.020837 -0.011425 0.014066 -0.026437 0.078413
#
#
# Mechanical properties :
#
#
# Convention : Reuss Voigt Hill
#
# Bulk Modulus (GPa) = 21.95125 45.95564 33.95344
# Shear Modulus (GPa) = 18.95289 33.88692 26.41990
#
# Velocity S-wave (km/s) = 2.93112 3.91933 3.46068
# Velocity P-wave (km/s) = 4.62665 6.42755 5.59997
#
# Compressibility (1/GPa) = 0.04555549
#
# Stress axis : x y z
#
# Youngs Moduli (GPa) = 34.07743 57.09460 62.39553
#
# Poissons Ratio (x) = 0.27578 -0.09132
# Poissons Ratio (y) = 0.16460 0.33063
# Poissons Ratio (z) = -0.04988 0.30254
#
# Static dielectric constant tensor:
#      x y z
#    x 1.902900 -0.000060 0.020570 
#    y -0.000060 1.886190 0.086860 
#    z 0.020570 0.086860 1.875140 
# 
# From -- ./inp_files/566416.got.cif
#   From: 2010.05.17/outbox.ucp.g08.bks.cvg/sg2_284_cif.got.tgz:566416.got - 2010.06.11 11:32:03.
