data_PCOD9074347
_publ_section_title
;
Structure prediction by ZEFSAII (Michael W. Deem and Ramdas Pophale) SiO2 
 PCOD9074347
Probable space group: P -1
;
_chemical_formula_sum "Si O2"
_cell_formula_units_Z 16
_cell_length_a 9.000000
_cell_length_b 9.000000
_cell_length_c 15.000000
_cell_angle_alpha 80.000000
_cell_angle_beta 40.000000
_cell_angle_gamma 90.000000
_cell_volume 751.948787
_symmetry_space_group_name_H-M "P -1"
_symmetry_group_IT_number 2
_symmetry_cell_setting 'triclinic'
loop_
_space_group_symop_operation_xyz
x,y,z
-x,-y,-z
loop_
_atom_site_type_symbol
_atom_site_label
_atom_site_fract_x
_atom_site_fract_y
_atom_site_fract_z
Si Si1 0.928958 0.686889 0.730794
Si Si2 0.470832 0.820422 0.504224
Si Si3 0.235740 0.557720 0.309883
Si Si4 0.953929 0.249609 0.022735
Si Si5 0.779560 0.677078 0.518763
Si Si6 0.257864 0.482760 0.991477
Si Si7 0.752313 0.910719 0.663240
Si Si8 0.645387 0.919676 0.221682
O O1 0.926573 0.584307 0.654411
O O2 0.805712 0.826085 0.739045
O O3 0.192127 0.745579 0.641345
O O4 0.786255 0.571567 0.881231
O O5 0.637953 0.728062 0.494096
O O6 0.543645 0.833343 0.366356
O O7 0.500000 0.000000 0.500000
O O8 0.283568 0.496039 0.393053
O O9 0.493088 0.562227 0.146564
O O10 0.067089 0.685701 0.372503
O O11 0.058877 0.369480 0.037884
O O12 0.178039 0.185098 0.886644
O O13 0.797172 0.345062 0.022303
O O14 0.798984 0.092094 0.149931
O O15 0.692691 0.779158 0.627110
O O16 0.570500 0.027248 0.738818
O O17 0.000000 0.000000 0.500000
#
# Coordination Sequence:
#
# PCOD9074347 Si02
#       8
#     2   2   2   2   2   2   2   2
#     4  11  24  40  66  98 124 173 218 264 326 378
#     4  12  23  40  68  95 131 164 216 269 312 387
#     4  10  24  42  64  91 135 166 208 266 325 385
#     4  10  25  42  67  95 127 176 216 268 325 384
#     4  10  23  40  63  95 126 167 211 257 321 379
#     4  11  24  44  68  91 132 170 221 268 323 380
#     4  11  21  41  66  91 133 169 205 263 327 379
#     4  11  23  43  66  96 134 169 218 264 327 385
#
# _framework density 21.278044999999999
#
# number of rings (size 3 to 8) (size 9 to 14) (size 15 to 20)
#    0.000    1.250    2.500    2.625    7.000    1.500 
#    2.250    0.625    0.000    0.000    0.000    0.000 
#    0.000    0.000    0.000    0.000    0.000    0.000 
#
# Total GULP energy -89102.766315 kJ/mol
# GULP energy per Si atom -5568.922895 kJ/mol
# Density = 2.122962 g / cm^3
# Si number density = 21.278045 Si / 1000 Ang^3
#
#
#
# Elastic Constant Matrix: (Units=GPa)
#
#
# Indices 1 2 3 4 5 6 
#
# 1 144.4292 46.7577 43.1689 -5.2608 -3.6334 -54.5537
# 2 46.7577 73.5081 25.8154 5.4609 -0.6448 -28.1546
# 3 43.1689 25.8154 109.9637 5.1562 -4.2753 -25.5602
# 4 -5.2608 5.4609 5.1562 32.5037 -11.4266 -12.1702
# 5 -3.6334 -0.6448 -4.2753 -11.4266 38.1425 -4.0102
# 6 -54.5537 -28.1546 -25.5602 -12.1702 -4.0102 58.7390
#
#
#
# Elastic Compliance Matrix: (Units=1/GPa)
#
#
# Indices 1 2 3 4 5 6 
#
# 1 0.014146 -0.004143 -0.001870 0.009960 0.005395 0.012771
# 2 -0.004143 0.018443 -0.001755 -0.002305 -0.000580 0.003712
# 3 -0.001870 -0.001755 0.010789 -0.000577 0.001046 0.002069
# 4 0.009960 -0.002305 -0.000577 0.045541 0.016428 0.018452
# 5 0.005395 -0.000580 0.001046 0.016428 0.032900 0.010837
# 6 0.012771 0.003712 0.002069 0.018452 0.010837 0.036128
#
#
# Mechanical properties :
#
#
# Convention : Reuss Voigt Hill
#
# Bulk Modulus (GPa) = 35.91601 62.15390 49.03495
# Shear Modulus (GPa) = 27.35788 40.02097 33.68942
#
# Velocity S-wave (km/s) = 3.58960 4.34159 3.98338
# Velocity P-wave (km/s) = 5.83921 7.37606 6.65217
#
# Compressibility (1/GPa) = 0.02784274
#
# Stress axis : x y z
#
# Youngs Moduli (GPa) = 70.69046 54.22024 92.69094
#
# Poissons Ratio (x) = 0.22463 0.17330
# Poissons Ratio (y) = 0.29286 0.16269
# Poissons Ratio (z) = 0.13217 0.09517
#
# Static dielectric constant tensor:
#      x y z
#    x 1.808110 0.038120 -0.032250 
#    y 0.038120 1.818790 -0.021360 
#    z -0.032250 -0.021360 1.854570 
# 
# From -- ./inp_files/260367.got.cif
#   From: 2010.05.17/outbox.ucp.g08.bks.cvg/sg2_131_cif.got.tgz:260367.got - 2010.06.11 11:32:03.
