data_PCOD9074462
_publ_section_title
;
Structure prediction by ZEFSAII (Michael W. Deem and Ramdas Pophale) SiO2 
 PCOD9074462
Probable space group: P -1
;
_chemical_formula_sum "Si O2"
_cell_formula_units_Z 16
_cell_length_a 27.000000
_cell_length_b 9.000000
_cell_length_c 27.000000
_cell_angle_alpha 40.000000
_cell_angle_beta 10.000000
_cell_angle_gamma 40.000000
_cell_volume 728.340053
_symmetry_space_group_name_H-M "P -1"
_symmetry_group_IT_number 2
_symmetry_cell_setting 'triclinic'
loop_
_space_group_symop_operation_xyz
x,y,z
-x,-y,-z
loop_
_atom_site_type_symbol
_atom_site_label
_atom_site_fract_x
_atom_site_fract_y
_atom_site_fract_z
Si Si1 0.895384 0.315068 0.689736
Si Si2 0.589690 0.994969 0.769753
Si Si3 0.824078 0.695485 0.375651
Si Si4 0.648972 0.169789 0.774611
Si Si5 0.894375 0.522993 0.746410
Si Si6 0.718593 0.567686 0.192682
Si Si7 0.681552 0.510429 0.126253
Si Si8 0.250605 0.779724 0.660431
O O1 0.848492 0.400822 0.770430
O O2 0.000000 0.500000 0.500000
O O3 0.618127 0.207538 0.969504
O O4 0.146216 0.104617 0.498001
O O5 0.699046 0.061898 0.698821
O O6 0.426692 0.224886 0.848452
O O7 0.918416 0.597268 0.362226
O O8 0.512817 0.653871 0.671645
O O9 0.860361 0.965850 0.276617
O O10 0.013634 0.558608 0.181415
O O11 0.932386 0.260042 0.493761
O O12 0.407719 0.389683 0.954077
O O13 0.500000 0.000000 0.000000
O O14 0.687327 0.500156 0.183293
O O15 0.504710 0.782805 0.369373
O O16 0.661543 0.361259 0.339640
O O17 0.026714 0.641887 0.885553
#
# Coordination Sequence:
#
# PCOD9074462 Si02
#       8
#     2   2   2   2   2   2   2   2
#     4  12  26  43  64  92 124 163 215 267 321 375
#     4  12  24  42  63  93 125 164 210 263 313 379
#     4  12  24  42  63  96 131 169 209 261 311 376
#     4  12  23  43  67  87 124 168 208 259 320 374
#     4  12  24  42  61  95 125 162 213 263 312 380
#     4  10  23  43  68  99 129 169 211 255 308 376
#     4  12  25  42  65  96 131 168 213 255 315 376
#     4  10  23  43  69  98 131 167 211 255 312 368
#
# _framework density 21.967760999999999
#
# number of rings (size 3 to 8) (size 9 to 14) (size 15 to 20)
#    0.000    0.500    2.500    6.000    3.500    1.000 
#    0.000    0.000    0.000    0.000    0.000    0.000 
#    0.000    0.000    0.000    0.000    0.000    0.000 
#
# Total GULP energy -89402.614123 kJ/mol
# GULP energy per Si atom -5587.663383 kJ/mol
# Density = 2.191776 g / cm^3
# Si number density = 21.967761 Si / 1000 Ang^3
#
#
#
# Elastic Constant Matrix: (Units=GPa)
#
#
# Indices 1 2 3 4 5 6 
#
# 1 121.7089 24.3428 -25.0911 -5.3414 4.0625 6.3635
# 2 24.3428 83.9813 -3.1854 2.9619 1.5105 9.5905
# 3 -25.0911 -3.1854 54.8369 3.0616 -11.4306 2.3277
# 4 -5.3414 2.9619 3.0616 16.0830 -2.0615 -5.8278
# 5 4.0625 1.5105 -11.4306 -2.0615 20.4386 -8.6952
# 6 6.3635 9.5905 2.3277 -5.8278 -8.6952 32.9184
#
#
#
# Elastic Compliance Matrix: (Units=1/GPa)
#
#
# Indices 1 2 3 4 5 6 
#
# 1 0.009787 -0.002692 0.004332 0.002724 0.000625 -0.000766
# 2 -0.002692 0.013541 -0.000671 -0.005675 -0.003692 -0.005357
# 3 0.004332 -0.000671 0.022729 -0.000919 0.012146 0.000796
# 4 0.002724 -0.005675 -0.000919 0.072583 0.014262 0.017809
# 5 0.000625 -0.003692 0.012146 0.014262 0.065818 0.020006
# 6 -0.000766 -0.005357 0.000796 0.017809 0.020006 0.040468
#
#
# Mechanical properties :
#
#
# Convention : Reuss Voigt Hill
#
# Bulk Modulus (GPa) = 20.83557 28.07330 24.45444
# Shear Modulus (GPa) = 20.92184 31.51871 26.22027
#
# Velocity S-wave (km/s) = 3.08943 3.79195 3.45857
# Velocity P-wave (km/s) = 4.71501 5.65499 5.20625
#
# Compressibility (1/GPa) = 0.04799484
#
# Stress axis : x y z
#
# Youngs Moduli (GPa) = 102.17961 73.85185 43.99757
#
# Poissons Ratio (x) = 0.19883 -0.19062
# Poissons Ratio (y) = 0.27509 0.02951
# Poissons Ratio (z) = -0.44268 0.04953
#
# Static dielectric constant tensor:
#      x y z
#    x 1.744010 0.003900 -0.042650 
#    y 0.003900 0.879800 0.062430 
#    z -0.042650 0.062430 1.899870 
# 
# From -- ./inp_files/48089.got.cif
#   From: 2010.05.17/outbox.ucp.g08.bks.cvg/sg2_25_cif.got.tgz:48089.got - 2010.06.11 11:32:03.
