data_PCOD9074340
_publ_section_title
;
Structure prediction by ZEFSAII (Michael W. Deem and Ramdas Pophale) SiO2 
 PCOD9074340
Probable space group: P -1
;
_chemical_formula_sum "Si O2"
_cell_formula_units_Z 16
_cell_length_a 15.000000
_cell_length_b 15.000000
_cell_length_c 15.000000
_cell_angle_alpha 140.000000
_cell_angle_beta 140.000000
_cell_angle_gamma 20.000000
_cell_volume 725.414092
_symmetry_space_group_name_H-M "P -1"
_symmetry_group_IT_number 2
_symmetry_cell_setting 'triclinic'
loop_
_space_group_symop_operation_xyz
x,y,z
-x,-y,-z
loop_
_atom_site_type_symbol
_atom_site_label
_atom_site_fract_x
_atom_site_fract_y
_atom_site_fract_z
Si Si1 0.435503 0.463906 0.114603
Si Si2 0.258358 0.349394 0.776780
Si Si3 0.623349 0.218461 0.266222
Si Si4 0.649456 0.752353 0.612026
Si Si5 0.181372 0.480291 0.622434
Si Si6 0.036042 0.629202 0.172127
Si Si7 0.982225 0.924562 0.733579
Si Si8 0.138642 0.688205 0.473923
O O1 0.495595 0.374854 0.194599
O O2 0.735191 0.249474 0.151285
O O3 0.322225 0.421490 0.948380
O O4 0.240814 0.764853 0.188745
O O5 0.311331 0.368987 0.733979
O O6 0.948601 0.563259 0.708309
O O7 0.441930 0.054300 0.702202
O O8 0.744211 0.261336 0.430909
O O9 0.355682 0.382939 0.230594
O O10 0.850269 0.903268 0.188402
O O11 0.627591 0.711804 0.462973
O O12 0.647565 0.612110 0.561108
O O13 0.993000 0.773025 0.682237
O O14 0.000000 0.500000 0.500000
O O15 0.973337 0.741593 0.312730
O O16 0.000000 0.500000 0.000000
O O17 0.998882 0.856969 0.590246
#
# Coordination Sequence:
#
# PCOD9074340 Si02
#       8
#     2   2   2   2   2   2   2   2
#     4  11  24  41  65  92 130 170 212 261 324 378
#     4  11  23  38  64  93 131 171 208 270 322 373
#     4  11  25  45  65  94 135 170 214 263 322 394
#     4  10  23  39  65  95 127 165 222 261 314 384
#     4   9  21  40  62  92 127 165 214 269 317 373
#     4  12  27  43  69  99 131 166 213 274 324 384
#     4  10  23  42  63  94 126 168 218 261 311 393
#     4  10  24  44  71  95 128 177 217 263 326 388
#
# _framework density 22.056367999999999
#
# number of rings (size 3 to 8) (size 9 to 14) (size 15 to 20)
#    0.000    1.500    0.000    3.750    3.500   16.000 
#    0.000    0.000    0.000    0.000    0.000    0.000 
#    0.000    0.000    0.000    0.000    0.000    0.000 
#
# Total GULP energy -89248.117706 kJ/mol
# GULP energy per Si atom -5578.007357 kJ/mol
# Density = 2.200617 g / cm^3
# Si number density = 22.056368 Si / 1000 Ang^3
#
#
#
# Elastic Constant Matrix: (Units=GPa)
#
#
# Indices 1 2 3 4 5 6 
#
# 1 58.9611 24.4966 25.7562 5.6529 19.6879 14.5498
# 2 24.4966 183.1729 52.7062 31.5983 19.7427 18.5263
# 3 25.7562 52.7062 174.8214 14.2020 17.0602 18.1322
# 4 5.6529 31.5983 14.2020 48.7777 9.8072 14.0841
# 5 19.6879 19.7427 17.0602 9.8072 33.0747 4.4151
# 6 14.5498 18.5263 18.1322 14.0841 4.4151 33.7131
#
#
#
# Elastic Compliance Matrix: (Units=1/GPa)
#
#
# Indices 1 2 3 4 5 6 
#
# 1 0.024165 -0.001173 -0.001317 0.003482 -0.012857 -0.008847
# 2 -0.001173 0.006846 -0.001372 -0.003316 -0.001574 -0.000927
# 3 -0.001317 -0.001372 0.006696 0.000008 -0.001576 -0.002076
# 4 0.003482 -0.003316 0.000008 0.026419 -0.006616 -0.009856
# 5 -0.012857 -0.001574 -0.001576 -0.006616 0.040980 0.004658
# 6 -0.008847 -0.000927 -0.002076 -0.009856 0.004658 0.038614
#
#
# Mechanical properties :
#
#
# Convention : Reuss Voigt Hill
#
# Bulk Modulus (GPa) = 33.35185 69.20817 51.28001
# Shear Modulus (GPa) = 30.97127 44.04617 37.50872
#
# Velocity S-wave (km/s) = 3.75131 4.47361 4.12829
# Velocity P-wave (km/s) = 5.82384 7.62432 6.78408
#
# Compressibility (1/GPa) = 0.02998335
#
# Stress axis : x y z
#
# Youngs Moduli (GPa) = 41.38141 146.06329 149.33477
#
# Poissons Ratio (x) = 0.17132 0.19672
# Poissons Ratio (y) = 0.04854 0.20492
# Poissons Ratio (z) = 0.05451 0.20043
#
# Static dielectric constant tensor:
#      x y z
#    x 1.988990 -0.055500 -0.035650 
#    y -0.055500 1.819790 -0.030800 
#    z -0.035650 -0.030800 1.812890 
# 
# From -- ./inp_files/534459.got.cif
#   From: 2010.05.17/outbox.ucp.g08.bks.cvg/sg2_268_cif.got.tgz:534459.got - 2010.06.11 11:32:03.
