data_PCOD9074198
_publ_section_title
;
Structure prediction by ZEFSAII (Michael W. Deem and Ramdas Pophale) SiO2 
 PCOD9074198
Probable space group: P -1
;
_chemical_formula_sum "Si O2"
_cell_formula_units_Z 14
_cell_length_a 30.000000
_cell_length_b 15.000000
_cell_length_c 12.000000
_cell_angle_alpha 150.000000
_cell_angle_beta 160.000000
_cell_angle_gamma 20.000000
_cell_volume 624.976433
_symmetry_space_group_name_H-M "P -1"
_symmetry_group_IT_number 2
_symmetry_cell_setting 'triclinic'
loop_
_space_group_symop_operation_xyz
x,y,z
-x,-y,-z
loop_
_atom_site_type_symbol
_atom_site_label
_atom_site_fract_x
_atom_site_fract_y
_atom_site_fract_z
Si Si1 0.329685 0.281839 0.348864
Si Si2 0.189760 0.694504 0.652583
Si Si3 0.954295 0.581832 0.657642
Si Si4 0.014431 0.884441 0.024852
Si Si5 0.756042 0.430262 0.102137
Si Si6 0.434332 0.441410 0.580153
Si Si7 0.557555 0.142965 0.321797
O O1 0.230983 0.508001 0.453061
O O2 0.434700 0.288195 0.506663
O O3 0.500000 0.000000 0.500000
O O4 0.148197 0.373272 0.959700
O O5 0.188439 0.604060 0.674536
O O6 0.384015 0.617416 0.033987
O O7 0.000000 0.000000 0.500000
O O8 0.869660 0.466251 0.335466
O O9 0.769921 0.884119 0.592166
O O10 0.006825 0.673833 0.781046
O O11 0.216977 0.737432 0.397568
O O12 0.835908 0.153946 0.962071
O O13 0.000000 0.000000 0.000000
O O14 0.530755 0.672552 0.798426
O O15 0.448328 0.347537 0.387499
O O16 0.500000 0.000000 0.000000
#
# Coordination Sequence:
#
# PCOD9074198 Si02
#       7
#     2   2   2   2   2   2   2
#     4  11  27  45  69 102 137 186 237 287 350 403
#     4  12  27  46  73  99 138 188 239 285 343 420
#     4  10  25  45  68  98 143 177 232 285 342 413
#     4  11  23  43  68 103 139 177 224 282 353 411
#     4  11  25  44  72 103 136 186 230 279 358 420
#     4  11  24  45  71 100 140 174 234 294 342 414
#     4  10  22  43  69 105 137 176 226 281 354 418
#
# _framework density 22.400845
#
# number of rings (size 3 to 8) (size 9 to 14) (size 15 to 20)
#    0.000    1.143    1.429    3.857   10.000    2.286 
#    2.571    0.000    0.000    0.000    0.000    0.000 
#    0.000    0.000    0.000    0.000    0.000    0.000 
#
# Total GULP energy -77970.633465 kJ/mol
# GULP energy per Si atom -5569.330962 kJ/mol
# Density = 2.234986 g / cm^3
# Si number density = 22.400845 Si / 1000 Ang^3
#
#
#
# Elastic Constant Matrix: (Units=GPa)
#
#
# Indices 1 2 3 4 5 6 
#
# 1 80.2319 0.1235 1.1589 -7.2708 -8.2084 32.2047
# 2 0.1235 128.1314 22.3564 -33.8750 -1.8753 37.8076
# 3 1.1589 22.3564 60.4251 -16.6669 16.9067 36.9164
# 4 -7.2708 -33.8750 -16.6669 52.2691 7.8318 -8.4393
# 5 -8.2084 -1.8753 16.9067 7.8318 29.4538 -5.6988
# 6 32.2047 37.8076 36.9164 -8.4393 -5.6988 41.4870
#
#
#
# Elastic Compliance Matrix: (Units=1/GPa)
#
#
# Indices 1 2 3 4 5 6 
#
# 1 -0.000564 -0.008926 -0.031557 -0.014100 0.028430 0.037690
# 2 -0.008926 0.003009 -0.023418 -0.005136 0.017620 0.026401
# 3 -0.031557 -0.023418 -0.042979 -0.025298 0.037378 0.084070
# 4 -0.014100 -0.005136 -0.025298 0.010260 0.015737 0.042386
# 5 0.028430 0.017620 0.037378 0.015737 0.004278 -0.067597
# 6 0.037690 0.026401 0.084070 0.042386 -0.067597 -0.104683
#
#
# Mechanical properties :
#
#
# Convention : Reuss Voigt Hill
#
# Bulk Modulus (GPa) = -5.94046 35.11843 14.58898
# Shear Modulus (GPa) = -84.76133 40.98530 -21.88802
#
# Velocity S-wave (km/s) = -6.15797 4.28206 -3.12926
# Velocity P-wave (km/s) = 7.29510 6.33714 2.55530
#
# Compressibility (1/GPa) = -0.16833706
#
# Stress axis : x y z
#
# Youngs Moduli (GPa) = -1772.32791 332.33725 -23.26715
#
# Poissons Ratio (x) = 2.96653 -0.73424
# Poissons Ratio (y) = -15.82027 -0.54488
# Poissons Ratio (z) = -55.92914 7.78275
#
# Static dielectric constant tensor:
#      x y z
#    x 1.844730 -0.024720 0.054230 
#    y -0.024720 1.825410 -0.020170 
#    z 0.054230 -0.020170 1.953670 
# 
# From -- ./inp_files/477700.got.cif
#   From: 2010.05.17/outbox.ucp.g08.bks.cvg/sg2_239_cif.got.tgz:477700.got - 2010.06.11 11:32:03.
