data_PCOD9074576
_publ_section_title
;
Structure prediction by ZEFSAII (Michael W. Deem and Ramdas Pophale) SiO2 
 PCOD9074576
Probable space group: P -1
;
_chemical_formula_sum "Si O2"
_cell_formula_units_Z 16
_cell_length_a 18.000000
_cell_length_b 6.000000
_cell_length_c 9.000000
_cell_angle_alpha 100.000000
_cell_angle_beta 60.000000
_cell_angle_gamma 120.000000
_cell_volume 725.212580
_symmetry_space_group_name_H-M "P -1"
_symmetry_group_IT_number 2
_symmetry_cell_setting 'triclinic'
loop_
_space_group_symop_operation_xyz
x,y,z
-x,-y,-z
loop_
_atom_site_type_symbol
_atom_site_label
_atom_site_fract_x
_atom_site_fract_y
_atom_site_fract_z
Si Si1 0.386858 0.892641 0.297190
Si Si2 0.687225 0.645657 0.052529
Si Si3 0.096486 0.038571 0.248806
Si Si4 0.236484 0.435064 0.547029
Si Si5 0.401406 0.997159 0.955462
Si Si6 0.614621 0.674631 0.444325
Si Si7 0.925492 0.146579 0.444795
Si Si8 0.057493 0.475786 0.799015
O O1 0.285830 0.620869 0.377294
O O2 0.488715 0.883355 0.208665
O O3 0.377229 0.075703 0.451210
O O4 0.399746 0.017305 0.137115
O O5 0.642821 0.325035 0.058382
O O6 0.675778 0.725206 0.239091
O O7 0.641351 0.810630 0.031803
O O8 0.799774 0.774777 0.904303
O O9 0.035949 0.188776 0.367759
O O10 0.109465 0.875150 0.351887
O O11 0.015537 0.821747 0.200893
O O12 0.333488 0.454042 0.525549
O O13 0.168471 0.524591 0.717161
O O14 0.158688 0.138132 0.556705
O O15 0.500000 0.500000 0.500000
O O16 0.933417 0.346071 0.332793
O O17 0.000000 0.500000 0.000000
#
# Coordination Sequence:
#
# PCOD9074576 Si02
#       8
#     2   2   2   2   2   2   2   2
#     4  11  26  47  76 104 148 198 250 316 383 455
#     4  12  28  47  75 114 149 201 251 319 375 455
#     4  10  25  42  73  99 143 188 247 303 369 444
#     4  11  26  43  76 100 146 196 249 302 386 447
#     4  11  28  48  76 110 153 194 259 313 378 456
#     4  12  27  47  73 106 153 199 252 314 380 455
#     4  10  23  48  68 101 139 189 246 305 371 444
#     4  11  26  43  69 108 145 190 242 309 373 454
#
# _framework density 22.062495999999999
#
# number of rings (size 3 to 8) (size 9 to 14) (size 15 to 20)
#    0.000    1.000    1.250    2.625   14.000    3.000 
#    0.000    0.000    0.000    0.000    0.000    0.000 
#    0.000    0.000    0.000    0.000    0.000    0.000 
#
# Total GULP energy -89151.130909 kJ/mol
# GULP energy per Si atom -5571.945682 kJ/mol
# Density = 2.201228 g / cm^3
# Si number density = 22.062496 Si / 1000 Ang^3
#
#
#
# Elastic Constant Matrix: (Units=GPa)
#
#
# Indices 1 2 3 4 5 6 
#
# 1 93.9341 7.5657 13.3104 -10.4229 -22.1247 -5.4148
# 2 7.5657 83.2781 7.9154 -15.1612 -15.1953 14.2893
# 3 13.3104 7.9154 67.1143 -22.9884 -33.8685 46.8785
# 4 -10.4229 -15.1612 -22.9884 36.0127 8.9714 0.5969
# 5 -22.1247 -15.1953 -33.8685 8.9714 36.8363 0.5624
# 6 -5.4148 14.2893 46.8785 0.5969 0.5624 12.8205
#
#
#
# Elastic Compliance Matrix: (Units=1/GPa)
#
#
# Indices 1 2 3 4 5 6 
#
# 1 0.012739 0.000254 0.000699 0.002258 0.007816 0.002094
# 2 0.000254 0.011700 -0.005192 0.001658 -0.000290 0.005989
# 3 0.000699 -0.005192 -0.004430 -0.003894 -0.005194 0.022691
# 4 0.002258 0.001658 -0.003894 0.028594 -0.008694 0.012395
# 5 0.007816 -0.000290 -0.005194 -0.008694 0.028732 0.021760
# 6 0.002094 0.005989 0.022691 0.012395 0.021760 -0.012292
#
#
# Mechanical properties :
#
#
# Convention : Reuss Voigt Hill
#
# Bulk Modulus (GPa) = 86.74021 33.54549 60.14285
# Shear Modulus (GPa) = 64.63009 31.50292 48.06650
#
# Velocity S-wave (km/s) = 5.41827 3.78285 4.67267
# Velocity P-wave (km/s) = 8.86254 5.85813 7.51207
#
# Compressibility (1/GPa) = 0.01152868
#
# Stress axis : x y z
#
# Youngs Moduli (GPa) = 78.50165 85.47357 -225.71931
#
# Poissons Ratio (x) = -0.02173 0.15769
# Poissons Ratio (y) = -0.01996 -1.17202
# Poissons Ratio (z) = -0.05484 0.44381
#
# Static dielectric constant tensor:
#      x y z
#    x 1.780150 -0.020470 0.038220 
#    y -0.020470 1.877900 0.054890 
#    z 0.038220 0.054890 1.822790 
# 
# From -- ./inp_files/117111.got.cif
#   From: 2010.05.17/outbox.ucp.g08.bks.cvg/sg2_59_cif.got.tgz:117111.got - 2010.06.11 11:32:03.
