data_PCOD9074903
_publ_section_title
;
Structure prediction by ZEFSAII (Michael W. Deem and Ramdas Pophale) SiO2 
 PCOD9074903
Probable space group: P -1
;
_chemical_formula_sum "Si O2"
_cell_formula_units_Z 16
_cell_length_a 15.000000
_cell_length_b 12.000000
_cell_length_c 9.000000
_cell_angle_alpha 50.000000
_cell_angle_beta 110.000000
_cell_angle_gamma 140.000000
_cell_volume 759.581896
_symmetry_space_group_name_H-M "P -1"
_symmetry_group_IT_number 2
_symmetry_cell_setting 'triclinic'
loop_
_space_group_symop_operation_xyz
x,y,z
-x,-y,-z
loop_
_atom_site_type_symbol
_atom_site_label
_atom_site_fract_x
_atom_site_fract_y
_atom_site_fract_z
Si Si1 0.350585 0.400248 0.061164
Si Si2 0.132043 0.605892 0.878770
Si Si3 0.408978 0.969699 0.343575
Si Si4 0.581867 0.458587 0.500970
Si Si5 0.900509 0.510905 0.374873
Si Si6 0.329827 0.090379 0.438790
Si Si7 0.382672 0.695116 0.062161
Si Si8 0.852871 0.761879 0.188548
O O1 0.266296 0.174165 0.294244
O O2 0.375961 0.552313 0.066863
O O3 0.500000 0.500000 0.000000
O O4 0.259351 0.362186 0.907920
O O5 0.087781 0.473008 0.812481
O O6 0.222581 0.851710 0.661122
O O7 0.241296 0.629883 0.012569
O O8 0.000000 0.500000 0.000000
O O9 0.261909 0.712772 0.477788
O O10 0.500000 0.000000 0.500000
O O11 0.369407 0.074417 0.311837
O O12 0.483929 0.063215 0.146522
O O13 0.500000 0.500000 0.500000
O O14 0.471883 0.277748 0.463030
O O15 0.597669 0.349927 0.726082
O O16 0.742197 0.680518 0.329625
O O17 0.920675 0.683209 0.324070
O O18 0.000000 0.500000 0.500000
O O19 0.000000 0.000000 0.000000
#
# Coordination Sequence:
#
# PCOD9074903 Si02
#       8
#     2   2   2   2   2   2   2   2
#     4  12  21  43  73  98 132 183 230 276 343 417
#     4  11  27  46  65  99 138 180 228 278 351 406
#     4  11  20  43  73  99 126 177 237 274 335 414
#     4  12  26  44  66 110 141 172 234 292 342 404
#     4  11  26  45  69  98 138 176 230 286 336 409
#     4  11  23  41  72  96 132 177 230 275 335 414
#     4  12  23  42  72  98 137 179 219 290 341 400
#     4  12  28  46  71 103 140 186 237 280 342 418
#
# _framework density 21.064219999999999
#
# number of rings (size 3 to 8) (size 9 to 14) (size 15 to 20)
#    0.000    0.500    7.500    0.750    5.250    2.500 
#    0.000    1.250    0.000    0.000    0.000    0.000 
#    0.000    0.000    0.000    0.000    0.000    0.000 
#
# Total GULP energy -89221.635995 kJ/mol
# GULP energy per Si atom -5576.352250 kJ/mol
# Density = 2.101628 g / cm^3
# Si number density = 21.064220 Si / 1000 Ang^3
#
#
#
# Elastic Constant Matrix: (Units=GPa)
#
#
# Indices 1 2 3 4 5 6 
#
# 1 125.2541 1.9964 48.2957 -21.7121 -18.1641 7.5941
# 2 1.9964 20.1116 11.2167 -3.9615 -14.5769 1.9412
# 3 48.2957 11.2167 118.3206 4.4897 -15.5747 8.1955
# 4 -21.7121 -3.9615 4.4897 41.9024 3.9959 4.6692
# 5 -18.1641 -14.5769 -15.5747 3.9959 50.3261 0.2697
# 6 7.5941 1.9412 8.1955 4.6692 0.2697 27.2720
#
#
#
# Elastic Compliance Matrix: (Units=1/GPa)
#
#
# Indices 1 2 3 4 5 6 
#
# 1 0.011839 0.006245 -0.004928 0.007266 0.003999 -0.003544
# 2 0.006245 0.069417 -0.006444 0.009343 0.019660 -0.006538
# 3 -0.004928 -0.006444 0.011322 -0.004302 0.000205 -0.000837
# 4 0.007266 0.009343 -0.004302 0.029534 0.001687 -0.006469
# 5 0.003999 0.019660 0.000205 0.001687 0.026954 -0.003130
# 6 -0.003544 -0.006538 -0.000837 -0.006469 -0.003130 0.039510
#
#
# Mechanical properties :
#
#
# Convention : Reuss Voigt Hill
#
# Bulk Modulus (GPa) = 12.14706 42.96711 27.55708
# Shear Modulus (GPa) = 22.09732 37.37860 29.73796
#
# Velocity S-wave (km/s) = 3.24241 4.21706 3.76144
# Velocity P-wave (km/s) = 4.44936 6.64484 5.65468
#
# Compressibility (1/GPa) = 0.08232445
#
# Stress axis : x y z
#
# Youngs Moduli (GPa) = 84.46790 14.40567 88.32163
#
# Poissons Ratio (x) = -0.08996 0.43527
# Poissons Ratio (y) = -0.52750 0.56911
# Poissons Ratio (z) = 0.41628 0.09282
#
# Static dielectric constant tensor:
#      x y z
#    x 1.719280 -0.066310 0.075350 
#    y -0.066310 1.854180 -0.172200 
#    z 0.075350 -0.172200 2.043070 
# 
# From -- ./inp_files/298880.got.cif
#   From: 2010.05.17/outbox.ucp.g08.bks.cvg/sg2_150_cif.got.tgz:298880.got - 2010.06.11 11:32:03.
