data_PCOD9074813
_publ_section_title
;
Structure prediction by ZEFSAII (Michael W. Deem and Ramdas Pophale) SiO2 
 PCOD9074813
Probable space group: P -1
;
_chemical_formula_sum "Si O2"
_cell_formula_units_Z 16
_cell_length_a 7.058126
_cell_length_b 13.110429
_cell_length_c 11.637144
_cell_angle_alpha 47.743217
_cell_angle_beta 104.715986
_cell_angle_gamma 118.732348
_cell_volume 694.893294
_symmetry_space_group_name_H-M "P -1"
_symmetry_group_IT_number 2
_symmetry_cell_setting 'triclinic'
loop_
_space_group_symop_operation_xyz
x,y,z
-x,-y,-z
loop_
_atom_site_type_symbol
_atom_site_label
_atom_site_fract_x
_atom_site_fract_y
_atom_site_fract_z
Si Si1 0.012851 0.879631 0.437376
Si Si2 0.318717 0.326995 0.608073
Si Si3 0.840345 0.813293 0.895476
Si Si4 0.218621 0.796788 0.082337
Si Si5 0.365167 0.089421 0.494527
Si Si6 0.517283 0.092875 0.754252
Si Si7 0.591548 0.622943 0.816745
Si Si8 0.486986 0.346945 0.853256
O O1 0.897210 0.722312 0.465906
O O2 0.827745 0.883483 0.491104
O O3 0.056122 0.008517 0.248707
O O4 0.232881 0.946381 0.498027
O O5 0.500000 0.500000 0.500000
O O6 0.431709 0.222111 0.659757
O O7 0.301786 0.299880 0.762798
O O8 0.817015 0.736525 0.824687
O O9 0.616495 0.761789 0.969978
O O10 0.978110 0.750076 0.039594
O O11 0.261420 0.844046 0.186431
O O12 0.317431 0.679868 0.151686
O O13 0.358581 0.945348 0.913125
O O14 0.499261 0.061621 0.640013
O O15 0.495283 0.250822 0.325231
O O16 0.569911 0.518831 0.782587
O O17 0.500000 0.500000 0.000000
#
# Coordination Sequence:
#
# PCOD9074813 Si02
#       8
#     2   2   2   2   2   2   2   2
#     4   9  17  29  51  85 103 138 195 221 270 337
#     4  10  18  32  52  80 111 143 189 233 272 335
#     4  10  19  36  57  83 115 143 187 234 267 334
#     4  10  19  35  54  85 118 143 186 228 271 337
#     4   9  15  30  57  78 104 151 185 222 281 327
#     4   9  18  33  51  81 111 145 184 224 277 328
#     4   9  19  34  55  85 113 145 188 232 274 330
#     4  10  21  33  56  87 108 152 184 222 290 320
#
# _framework density 23.025117000000002
#
# number of rings (size 3 to 8) (size 9 to 14) (size 15 to 20)
#    0.000    2.500    2.500    1.500    0.000    1.000 
#    0.000    0.000    0.000   18.750    6.500    0.000 
#    0.000    0.000    0.000    0.000    0.000    0.000 
#
# Total GULP energy -89099.687841 kJ/mol
# GULP energy per Si atom -5568.730490 kJ/mol
# Density = 2.297271 g / cm^3
# Si number density = 23.025117 Si / 1000 Ang^3
#
#
#
# Elastic Constant Matrix: (Units=GPa)
#
#
# Indices 1 2 3 4 5 6 
#
# 1 43.4802 28.0954 15.3572 15.3352 -0.0016 -10.5036
# 2 28.0954 186.5370 52.1120 32.4498 13.3561 0.2575
# 3 15.3572 52.1120 113.3685 19.8208 2.9658 1.5421
# 4 15.3352 32.4498 19.8208 60.2938 6.9877 6.8002
# 5 -0.0016 13.3561 2.9658 6.9877 30.6442 9.1793
# 6 -10.5036 0.2575 1.5421 6.8002 9.1793 15.7025
#
#
#
# Elastic Compliance Matrix: (Units=1/GPa)
#
#
# Indices 1 2 3 4 5 6 
#
# 1 0.037253 -0.002799 -0.002256 -0.010260 -0.006177 0.033241
# 2 -0.002799 0.006993 -0.002422 -0.002031 -0.002534 0.000611
# 3 -0.002256 -0.002422 0.010492 -0.001415 0.001125 -0.002545
# 4 -0.010260 -0.002031 -0.001415 0.022561 0.000979 -0.017033
# 5 -0.006177 -0.002534 0.001125 0.000979 0.042175 -0.029280
# 6 0.033241 0.000611 -0.002545 -0.017033 -0.029280 0.110652
#
#
# Mechanical properties :
#
#
# Convention : Reuss Voigt Hill
#
# Bulk Modulus (GPa) = 25.13659 59.39054 42.26357
# Shear Modulus (GPa) = 19.35410 37.84951 28.60180
#
# Velocity S-wave (km/s) = 2.90239 4.05882 3.52831
# Velocity P-wave (km/s) = 4.70878 6.91485 5.91556
#
# Compressibility (1/GPa) = 0.03978264
#
# Stress axis : x y z
#
# Youngs Moduli (GPa) = 26.84334 143.00019 95.30638
#
# Poissons Ratio (x) = 0.40031 0.21505
# Poissons Ratio (y) = 0.07514 0.23086
# Poissons Ratio (z) = 0.06057 0.34638
#
# Static dielectric constant tensor:
#      x y z
#    x 1.876680 0.020030 0.001070 
#    y 0.020030 1.937860 0.024280 
#    z 0.001070 0.024280 1.968080 
# 
# From -- ./inp_files/397109.got.cif
#   From: 2010.05.17/outbox.cif.g08.bks.cpg/sg2_199_cif.got.tgz:397109.got - 2010.06.03 11:33:40.
