data_PCOD9074490
_publ_section_title
;
Structure prediction by ZEFSAII (Michael W. Deem and Ramdas Pophale) SiO2 
 PCOD9074490
Probable space group: P -1
;
_chemical_formula_sum "Si O2"
_cell_formula_units_Z 10
_cell_length_a 12.000000
_cell_length_b 9.000000
_cell_length_c 24.000000
_cell_angle_alpha 30.000000
_cell_angle_beta 20.000000
_cell_angle_gamma 40.000000
_cell_volume 425.625602
_symmetry_space_group_name_H-M "P -1"
_symmetry_group_IT_number 2
_symmetry_cell_setting 'triclinic'
loop_
_space_group_symop_operation_xyz
x,y,z
-x,-y,-z
loop_
_atom_site_type_symbol
_atom_site_label
_atom_site_fract_x
_atom_site_fract_y
_atom_site_fract_z
Si Si1 0.506392 0.756530 0.959135
Si Si2 0.864121 0.667599 0.642956
Si Si3 0.516681 0.372097 0.707335
Si Si4 0.377987 0.696856 0.771658
Si Si5 0.739621 0.189630 0.375881
O O1 0.886727 0.846582 0.777455
O O2 0.390442 0.024110 0.897974
O O3 0.500000 0.500000 0.000000
O O4 0.223828 0.609622 0.183627
O O5 0.511843 0.647169 0.784493
O O6 0.134000 0.607102 0.493625
O O7 0.000000 0.000000 0.500000
O O8 0.579177 0.563220 0.673289
O O9 0.259674 0.471825 0.754283
O O10 0.505519 0.061270 0.580891
O O11 0.000000 0.500000 0.000000
O O12 0.500000 0.000000 0.500000
#
# Coordination Sequence:
#
# PCOD9074490 Si02
#       5
#     2   2   2   2   2
#     4  12  25  47  69 100 142 179 228 287 337 408
#     4  12  24  45  71 102 139 180 226 285 341 404
#     4  11  25  45  73 100 139 184 228 276 352 400
#     4  11  24  46  70 103 139 178 232 283 335 412
#     4  10  23  44  67  99 137 174 230 281 327 411
#
# _framework density 23.494827000000001
#
# number of rings (size 3 to 8) (size 9 to 14) (size 15 to 20)
#    0.000    0.800    4.000    3.000    5.600    1.600 
#    3.600    2.000    0.000    0.000    0.000    0.000 
#    0.000    0.000    0.000    0.000    0.000    0.000 
#
# Total GULP energy -55738.269642 kJ/mol
# GULP energy per Si atom -5573.826964 kJ/mol
# Density = 2.344135 g / cm^3
# Si number density = 23.494827 Si / 1000 Ang^3
#
#
#
# Elastic Constant Matrix: (Units=GPa)
#
#
# Indices 1 2 3 4 5 6 
#
# 1 10.9801 34.8958 19.0780 3.0067 30.0630 22.7197
# 2 34.8958 69.4798 37.9206 -11.8338 7.8670 -15.6907
# 3 19.0780 37.9206 130.6778 5.3796 37.0028 10.0997
# 4 3.0067 -11.8338 5.3796 30.4612 -19.3023 8.5688
# 5 30.0630 7.8670 37.0028 -19.3023 43.2264 -28.0306
# 6 22.7197 -15.6907 10.0997 8.5688 -28.0306 20.3110
#
#
#
# Elastic Compliance Matrix: (Units=1/GPa)
#
#
# Indices 1 2 3 4 5 6 
#
# 1 0.007994 0.004341 -0.008790 0.007735 0.016396 0.018146
# 2 0.004341 0.012149 -0.000997 0.000922 -0.009129 -0.007963
# 3 -0.008790 -0.000997 0.010061 -0.003566 -0.002871 0.001602
# 4 0.007735 0.000922 -0.003566 0.041111 0.005885 -0.015388
# 5 0.016396 -0.009129 -0.002871 0.005885 0.012643 -0.008999
# 6 0.018146 -0.007963 0.001602 -0.015388 -0.008999 0.016060
#
#
# Mechanical properties :
#
#
# Convention : Reuss Voigt Hill
#
# Bulk Modulus (GPa) = 51.77954 43.88071 47.83012
# Shear Modulus (GPa) = 42.60843 26.74927 34.67885
#
# Velocity S-wave (km/s) = 4.26317 3.37785 3.84607
# Velocity P-wave (km/s) = 6.80583 5.82499 6.33442
#
# Compressibility (1/GPa) = 0.01931265
#
# Stress axis : x y z
#
# Youngs Moduli (GPa) = 125.08672 82.31329 99.39367
#
# Poissons Ratio (x) = -0.35735 0.87370
# Poissons Ratio (y) = -0.54304 0.09907
# Poissons Ratio (z) = 1.09956 0.08204
#
# Static dielectric constant tensor:
#      x y z
#    x 1.964610 -0.150110 0.112790 
#    y -0.150110 2.088230 -0.140950 
#    z 0.112790 -0.140950 1.969290 
# 
# From -- ./inp_files/144037.got.cif
#   From: 2010.05.17/outbox.ucp.g08.bks.cvg/sg2_73_cif.got.tgz:144037.got - 2010.06.11 11:32:03.
