data_PCOD9074299
_publ_section_title
;
Structure prediction by ZEFSAII (Michael W. Deem and Ramdas Pophale) SiO2 
 PCOD9074299
Probable space group: P -1
;
_chemical_formula_sum "Si O2"
_cell_formula_units_Z 16
_cell_length_a 21.000000
_cell_length_b 18.000000
_cell_length_c 12.000000
_cell_angle_alpha 150.000000
_cell_angle_beta 40.000000
_cell_angle_gamma 160.000000
_cell_volume 744.844803
_symmetry_space_group_name_H-M "P -1"
_symmetry_group_IT_number 2
_symmetry_cell_setting 'triclinic'
loop_
_space_group_symop_operation_xyz
x,y,z
-x,-y,-z
loop_
_atom_site_type_symbol
_atom_site_label
_atom_site_fract_x
_atom_site_fract_y
_atom_site_fract_z
Si Si1 0.002341 0.668625 0.998307
Si Si2 0.150668 0.832264 0.235898
Si Si3 0.465190 0.572890 0.042784
Si Si4 0.382511 0.898846 0.137225
Si Si5 0.130544 0.966548 0.990186
Si Si6 0.060032 0.969100 0.702022
Si Si7 0.546410 0.109162 0.448700
Si Si8 0.025436 0.398888 0.488909
O O1 0.809797 0.451071 0.045375
O O2 0.947459 0.442977 0.714300
O O3 0.176505 0.888752 0.141496
O O4 0.044643 0.831281 0.051599
O O5 0.314620 0.976869 0.287274
O O6 0.069992 0.877072 0.460329
O O7 0.000000 0.500000 0.000000
O O8 0.457743 0.720553 0.305471
O O9 0.500000 0.500000 0.000000
O O10 0.644748 0.782512 0.991850
O O11 0.270351 0.303566 0.884474
O O12 0.468596 0.997543 0.277094
O O13 0.500000 0.000000 0.000000
O O14 0.083955 0.076633 0.164627
O O15 0.039125 0.731414 0.717702
O O16 0.013719 0.796969 0.640170
O O17 0.747893 0.284664 0.398018
O O18 0.500000 0.000000 0.500000
#
# Coordination Sequence:
#
# PCOD9074299 Si02
#       8
#     2   2   2   2   2   2   2   2
#     4  11  24  45  69 100 137 182 240 287 349 415
#     4  10  22  46  68  92 132 183 232 282 336 431
#     4  12  24  44  66 102 145 184 232 282 354 426
#     4  11  23  41  70 105 135 182 239 290 342 420
#     4  12  25  43  71 104 143 184 222 298 364 399
#     4  12  24  44  68 102 140 180 237 284 349 426
#     4  12  25  41  70 110 143 179 238 298 350 411
#     4  12  21  43  71  98 142 185 227 290 352 421
#
# _framework density 21.480985
#
# number of rings (size 3 to 8) (size 9 to 14) (size 15 to 20)
#    0.000    0.500    5.000    5.250    1.750    0.500 
#    0.000    0.625    0.000    0.000    0.000    0.000 
#    0.000    0.000    0.000    0.000    0.000    0.000 
#
# Total GULP energy -89086.186190 kJ/mol
# GULP energy per Si atom -5567.886637 kJ/mol
# Density = 2.143209 g / cm^3
# Si number density = 21.480985 Si / 1000 Ang^3
#
#
#
# Elastic Constant Matrix: (Units=GPa)
#
#
# Indices 1 2 3 4 5 6 
#
# 1 91.3129 13.1778 19.4156 1.3039 28.0778 -34.9353
# 2 13.1778 96.0365 8.4270 -13.5691 14.9024 -16.0072
# 3 19.4156 8.4270 84.0723 -21.6452 15.1038 -7.0213
# 4 1.3039 -13.5691 -21.6452 24.4275 -0.6343 1.5724
# 5 28.0778 14.9024 15.1038 -0.6343 45.2603 -5.7771
# 6 -34.9353 -16.0072 -7.0213 1.5724 -5.7771 10.0746
#
#
#
# Elastic Compliance Matrix: (Units=1/GPa)
#
#
# Indices 1 2 3 4 5 6 
#
# 1 -0.016628 -0.010991 -0.002948 -0.002952 0.005486 -0.073571
# 2 -0.010991 0.008991 0.001851 0.008756 0.000336 -0.023710
# 3 -0.002948 0.001851 0.017410 0.016514 -0.004390 -0.000244
# 4 -0.002952 0.008756 0.016514 0.060279 -0.005374 0.002696
# 5 0.005486 0.000336 -0.004390 -0.005374 0.023935 0.031062
# 6 -0.073571 -0.023710 -0.000244 0.002696 0.031062 -0.176311
#
#
# Mechanical properties :
#
#
# Convention : Reuss Voigt Hill
#
# Bulk Modulus (GPa) = -69.43116 39.27363 -15.07877
# Shear Modulus (GPa) = -79.42994 31.31255 -24.05869
#
# Velocity S-wave (km/s) = -6.08746 3.82211 -3.35027
# Velocity P-wave (km/s) = 9.04444 6.14823 4.69048
#
# Compressibility (1/GPa) = -0.01440275
#
# Stress axis : x y z
#
# Youngs Moduli (GPa) = -60.14028 111.21651 57.43892
#
# Poissons Ratio (x) = 1.22234 0.16934
# Poissons Ratio (y) = -0.66098 -0.10630
# Poissons Ratio (z) = -0.17730 -0.20583
#
# Static dielectric constant tensor:
#      x y z
#    x 1.807720 0.024220 0.049980 
#    y 0.024220 1.855780 -0.010570 
#    z 0.049980 -0.010570 1.755790 
# 
# From -- ./inp_files/472489.got.cif
#   From: 2010.05.17/outbox.ucp.g08.bks.cvg/sg2_237_cif.got.tgz:472489.got - 2010.06.11 11:32:03.
