data_PCOD9074597
_publ_section_title
;
Structure prediction by ZEFSAII (Michael W. Deem and Ramdas Pophale) SiO2 
 PCOD9074597
Probable space group: P -1
;
_chemical_formula_sum "Si O2"
_cell_formula_units_Z 15
_cell_length_a 9.000000
_cell_length_b 18.000000
_cell_length_c 9.000000
_cell_angle_alpha 60.000000
_cell_angle_beta 30.000000
_cell_angle_gamma 60.000000
_cell_volume 623.732165
_symmetry_space_group_name_H-M "P -1"
_symmetry_group_IT_number 2
_symmetry_cell_setting 'triclinic'
loop_
_space_group_symop_operation_xyz
x,y,z
-x,-y,-z
loop_
_atom_site_type_symbol
_atom_site_label
_atom_site_fract_x
_atom_site_fract_y
_atom_site_fract_z
Si Si1 0.904145 0.670704 0.201473
Si Si2 0.474316 0.779107 0.228553
Si Si3 0.346118 0.117293 0.452755
Si Si4 0.000000 0.000000 0.000000
Si Si5 0.084559 0.092971 0.389930
Si Si6 0.847134 0.514647 0.959132
Si Si7 0.735993 0.369648 0.646406
Si Si8 0.542753 0.293433 0.186874
O O1 0.692786 0.715812 0.208449
O O2 0.696125 0.661613 0.533033
O O3 0.073318 0.575420 0.106335
O O4 0.152106 0.732797 0.957215
O O5 0.343182 0.713830 0.291849
O O6 0.185825 0.833942 0.499254
O O7 0.631195 0.859730 0.949946
O O8 0.135520 0.089355 0.528972
O O9 0.387593 0.216924 0.325270
O O10 0.676117 0.063808 0.207441
O O11 0.181910 0.085173 0.769347
O O12 0.000000 0.000000 0.500000
O O13 0.956273 0.598202 0.700775
O O14 0.498982 0.543607 0.266276
O O15 0.000000 0.500000 0.000000
O O16 0.675896 0.348441 0.889427
#
# Coordination Sequence:
#
# PCOD9074597 Si02
#       8
#     2   2   2   1   2   2   2   2
#     4  12  28  46  73 112 147 191 244 308 359 432
#     4  12  26  47  75 105 143 195 245 290 372 436
#     4  11  24  46  69 102 142 194 239 295 369 433
#     4  10  24  40  72  98 138 182 242 294 368 426
#     4  12  27  45  74 106 142 185 253 301 352 431
#     4  12  26  46  76 109 147 188 249 302 361 427
#     4  12  26  46  79 103 143 204 238 294 372 441
#     4  12  27  46  72 106 150 193 240 301 363 442
#
# _framework density 24.048784000000001
#
# number of rings (size 3 to 8) (size 9 to 14) (size 15 to 20)
#    0.000    0.267    2.667    5.600    3.733    9.600 
#    0.000    0.000    0.000    0.000    0.000    0.000 
#    0.000    0.000    0.000    0.000    0.000    0.000 
#
# Total GULP energy -83598.383301 kJ/mol
# GULP energy per Si atom -5573.225553 kJ/mol
# Density = 2.399405 g / cm^3
# Si number density = 24.048784 Si / 1000 Ang^3
#
#
#
# Elastic Constant Matrix: (Units=GPa)
#
#
# Indices 1 2 3 4 5 6 
#
# 1 53.6891 32.5675 6.9358 20.2925 -19.4306 26.2952
# 2 32.5675 124.7053 15.2813 -5.5607 3.9907 17.3873
# 3 6.9358 15.2813 104.8185 -8.0525 -14.0617 8.0742
# 4 20.2925 -5.5607 -8.0525 21.0434 2.6817 -12.5510
# 5 -19.4306 3.9907 -14.0617 2.6817 33.4306 5.0090
# 6 26.2952 17.3873 8.0742 -12.5510 5.0090 37.9941
#
#
#
# Elastic Compliance Matrix: (Units=1/GPa)
#
#
# Indices 1 2 3 4 5 6 
#
# 1 -0.021007 0.004042 -0.001093 0.040976 -0.020814 0.029201
# 2 0.004042 0.007914 -0.000916 -0.008095 0.003062 -0.009302
# 3 -0.001093 -0.000916 0.010569 0.004332 0.003589 -0.000113
# 4 0.040976 -0.008095 0.004332 -0.018211 0.033459 -0.036002
# 5 -0.020814 0.003062 0.003589 0.033459 0.013043 0.021574
# 6 0.029201 -0.009302 -0.000113 -0.036002 0.021574 -0.004346
#
#
# Mechanical properties :
#
#
# Convention : Reuss Voigt Hill
#
# Bulk Modulus (GPa) = 648.43098 43.64245 346.03672
# Shear Modulus (GPa) = -320.70875 33.72218 -143.49329
#
# Velocity S-wave (km/s) = -11.56058 3.74871 -7.73286
# Velocity P-wave (km/s) = 9.59274 6.07651 8.02947
#
# Compressibility (1/GPa) = 0.00154218
#
# Stress axis : x y z
#
# Youngs Moduli (GPa) = -47.60410 126.36494 94.61574
#
# Poissons Ratio (x) = -0.51073 0.10341
# Poissons Ratio (y) = 0.19240 0.08664
# Poissons Ratio (z) = -0.05203 0.11571
#
# Static dielectric constant tensor:
#      x y z
#    x 2.098220 -0.040290 0.154400 
#    y -0.040290 1.925810 0.007490 
#    z 0.154400 0.007490 2.115710 
# 
# From -- ./inp_files/216906.got.cif
#   From: 2010.05.17/outbox.ucp.g08.bks.cvg/sg2_109_cif.got.tgz:216906.got - 2010.06.11 11:32:03.
