data_PCOD9074687
_publ_section_title
;
Structure prediction by ZEFSAII (Michael W. Deem and Ramdas Pophale) SiO2 
 PCOD9074687
Probable space group: P -1
;
_chemical_formula_sum "Si O2"
_cell_formula_units_Z 13
_cell_length_a 9.000000
_cell_length_b 9.000000
_cell_length_c 12.000000
_cell_angle_alpha 130.000000
_cell_angle_beta 70.000000
_cell_angle_gamma 130.000000
_cell_volume 566.184258
_symmetry_space_group_name_H-M "P -1"
_symmetry_group_IT_number 2
_symmetry_cell_setting 'triclinic'
loop_
_space_group_symop_operation_xyz
x,y,z
-x,-y,-z
loop_
_atom_site_type_symbol
_atom_site_label
_atom_site_fract_x
_atom_site_fract_y
_atom_site_fract_z
Si Si1 0.160728 0.862989 0.992270
Si Si2 0.555965 0.270994 0.162488
Si Si3 0.178453 0.558786 0.253546
Si Si4 0.677576 0.971076 0.668019
Si Si5 0.020033 0.065285 0.312238
Si Si6 0.000000 0.500000 0.500000
Si Si7 0.580108 0.734499 0.349881
O O1 0.250325 0.708730 0.911829
O O2 0.988319 0.712289 0.874517
O O3 0.377003 0.115655 0.044944
O O4 0.064841 0.929225 0.143527
O O5 0.468661 0.139475 0.241843
O O6 0.587961 0.519644 0.284192
O O7 0.391404 0.634113 0.272330
O O8 0.081566 0.599953 0.402254
O O9 0.218654 0.746238 0.236421
O O10 0.567554 0.856270 0.523519
O O11 0.839212 0.917339 0.617707
O O12 0.078353 0.324538 0.385319
O O13 0.788858 0.913044 0.322370
#
# Coordination Sequence:
#
# PCOD9074687 Si02
#       7
#     2   2   2   2   2   1   2
#     4  10  25  48  71 108 140 195 230 297 350 436
#     4  10  24  44  77 102 144 186 246 282 361 419
#     4  12  27  44  74 105 149 184 239 291 366 409
#     4  11  24  46  74 110 138 192 236 300 346 430
#     4  11  26  48  75 104 147 182 247 285 364 414
#     4  12  28  46  72 106 140 192 230 306 344 426
#     4  12  25  44  71 112 143 188 235 300 346 429
#
# _framework density 22.960723000000002
#
# number of rings (size 3 to 8) (size 9 to 14) (size 15 to 20)
#    0.000    0.923    1.538    4.154    4.308    9.846 
#    0.000    0.000    0.000    0.000    0.000    0.000 
#    0.000    0.000    0.000    0.000    0.000    0.000 
#
# Total GULP energy -72374.728837 kJ/mol
# GULP energy per Si atom -5567.286834 kJ/mol
# Density = 2.290846 g / cm^3
# Si number density = 22.960723 Si / 1000 Ang^3
#
#
#
# Elastic Constant Matrix: (Units=GPa)
#
#
# Indices 1 2 3 4 5 6 
#
# 1 127.0821 21.1741 55.2384 -7.7314 13.7098 20.2982
# 2 21.1741 77.3037 21.2757 -5.7653 -6.7738 -2.8050
# 3 55.2384 21.2757 103.9681 -0.8878 -10.4806 16.6871
# 4 -7.7314 -5.7653 -0.8878 5.2758 9.3188 9.3516
# 5 13.7098 -6.7738 -10.4806 9.3188 44.6194 12.1312
# 6 20.2982 -2.8050 16.6871 9.3516 12.1312 33.2859
#
#
#
# Elastic Compliance Matrix: (Units=1/GPa)
#
#
# Indices 1 2 3 4 5 6 
#
# 1 -0.092388 -0.018658 0.027686 -0.740131 0.132070 0.200692
# 2 -0.018658 0.011708 0.003171 -0.117813 0.023234 0.035407
# 3 0.027686 0.003171 0.004096 0.238049 -0.037208 -0.071988
# 4 -0.740131 -0.117813 0.238049 -5.265100 0.971596 1.447188
# 5 0.132070 0.023234 -0.037208 0.971596 -0.150726 -0.277962
# 6 0.200692 0.035407 -0.071988 1.447188 -0.277962 -0.358548
#
#
# Mechanical properties :
#
#
# Convention : Reuss Voigt Hill
#
# Bulk Modulus (GPa) = -19.16177 55.97002 18.40412
# Shear Modulus (GPa) = -0.84850 30.68060 14.91605
#
# Velocity S-wave (km/s) = -0.60856 3.65940 2.55156
# Velocity P-wave (km/s) = 2.97613 6.50264 4.08821
#
# Compressibility (1/GPa) = -0.05218725
#
# Stress axis : x y z
#
# Youngs Moduli (GPa) = -10.82390 85.41044 244.13314
#
# Poissons Ratio (x) = 1.59361 -6.75909
# Poissons Ratio (y) = -0.20196 -0.77402
# Poissons Ratio (z) = 0.29967 -0.27079
#
# Static dielectric constant tensor:
#      x y z
#    x 1.862340 -0.019230 0.040160 
#    y -0.019230 1.913100 0.045150 
#    z 0.040160 0.045150 1.925360 
# 
# From -- ./inp_files/241246.got.cif
#   From: 2010.05.17/outbox.ucp.g08.bks.cvg/sg2_121_cif.got.tgz:241246.got - 2010.06.11 11:32:03.
