data_PCOD9074338
_publ_section_title
;
Structure prediction by ZEFSAII (Michael W. Deem and Ramdas Pophale) SiO2 
 PCOD9074338
Probable space group: P -1
;
_chemical_formula_sum "Si O2"
_cell_formula_units_Z 16
_cell_length_a 9.000000
_cell_length_b 18.000000
_cell_length_c 21.000000
_cell_angle_alpha 20.000000
_cell_angle_beta 140.000000
_cell_angle_gamma 140.000000
_cell_volume 731.217405
_symmetry_space_group_name_H-M "P -1"
_symmetry_group_IT_number 2
_symmetry_cell_setting 'triclinic'
loop_
_space_group_symop_operation_xyz
x,y,z
-x,-y,-z
loop_
_atom_site_type_symbol
_atom_site_label
_atom_site_fract_x
_atom_site_fract_y
_atom_site_fract_z
Si Si1 0.774404 0.875351 0.981454
Si Si2 0.627638 0.375638 0.287239
Si Si3 0.236346 0.808054 0.392561
Si Si4 0.920287 0.691280 0.862615
Si Si5 0.251354 0.298030 0.615147
Si Si6 0.365202 0.858677 0.959475
Si Si7 0.483151 0.458596 0.390165
Si Si8 0.996406 0.213180 0.463643
O O1 0.753097 0.611935 0.171498
O O2 0.538092 0.905209 0.917570
O O3 0.759580 0.979064 0.822723
O O4 0.000000 0.000000 0.000000
O O5 0.632508 0.198261 0.490274
O O6 0.760710 0.305290 0.325096
O O7 0.364699 0.385998 0.169046
O O8 0.346260 0.649656 0.509858
O O9 0.962102 0.729263 0.382432
O O10 0.102355 0.735468 0.947529
O O11 0.950316 0.952334 0.642313
O O12 0.000000 0.500000 0.000000
O O13 0.430032 0.509202 0.533900
O O14 0.114432 0.283299 0.515216
O O15 0.358481 0.079485 0.818648
O O16 0.480167 0.700257 0.168623
O O17 0.213216 0.327300 0.398871
#
# Coordination Sequence:
#
# PCOD9074338 Si02
#       8
#     2   2   2   2   2   2   2   2
#     4  12  26  41  70 102 138 171 221 271 336 398
#     4  11  25  47  68  96 136 178 219 281 324 389
#     4  11  24  42  66 101 130 178 222 258 338 395
#     4  11  21  47  68  89 132 174 225 280 327 385
#     4  10  23  39  65  93 142 171 214 277 329 397
#     4  11  24  44  63 103 132 177 220 276 327 395
#     4  12  22  40  65 100 136 174 219 270 336 399
#     4  10  25  40  66  98 125 175 228 269 335 393
#
# _framework density 21.881316999999999
#
# number of rings (size 3 to 8) (size 9 to 14) (size 15 to 20)
#    0.000    1.000    2.500    3.750    7.000    0.000 
#    2.250    2.500    0.000    0.000    0.000    0.000 
#    0.000    0.000    0.000    0.000    0.000    0.000 
#
# Total GULP energy -89173.176964 kJ/mol
# GULP energy per Si atom -5573.323560 kJ/mol
# Density = 2.183151 g / cm^3
# Si number density = 21.881317 Si / 1000 Ang^3
#
#
#
# Elastic Constant Matrix: (Units=GPa)
#
#
# Indices 1 2 3 4 5 6 
#
# 1 98.2550 16.5550 34.2818 -17.6761 38.0700 14.6235
# 2 16.5550 94.4531 14.1383 -13.0209 11.3731 10.6032
# 3 34.2818 14.1383 80.1049 -3.0897 23.2507 14.7216
# 4 -17.6761 -13.0209 -3.0897 34.5433 -13.6763 5.3999
# 5 38.0700 11.3731 23.2507 -13.6763 38.9450 3.5915
# 6 14.6235 10.6032 14.7216 5.3999 3.5915 30.3353
#
#
#
# Elastic Compliance Matrix: (Units=1/GPa)
#
#
# Indices 1 2 3 4 5 6 
#
# 1 0.018393 0.000285 -0.002273 0.004705 -0.014409 -0.006995
# 2 0.000285 0.011995 -0.000873 0.004871 -0.001122 -0.004641
# 3 -0.002273 -0.000873 0.016796 -0.002246 -0.007839 -0.005422
# 4 0.004705 0.004871 -0.002246 0.038614 0.009887 -0.010925
# 5 -0.014409 -0.001122 -0.007839 0.009887 0.047900 0.003712
# 6 -0.006995 -0.004641 -0.005422 -0.010925 0.003712 0.042096
#
#
# Mechanical properties :
#
#
# Convention : Reuss Voigt Hill
#
# Bulk Modulus (GPa) = 24.11744 44.75147 34.43445
# Shear Modulus (GPa) = 25.59710 34.62059 30.10884
#
# Velocity S-wave (km/s) = 3.42397 3.98200 3.71348
# Velocity P-wave (km/s) = 5.16500 6.45276 5.84446
#
# Compressibility (1/GPa) = 0.04146378
#
# Stress axis : x y z
#
# Youngs Moduli (GPa) = 54.36916 83.36474 59.53968
#
# Poissons Ratio (x) = -0.02378 0.13531
# Poissons Ratio (y) = -0.01551 0.05196
# Poissons Ratio (z) = 0.12356 0.07275
#
# Static dielectric constant tensor:
#      x y z
#    x 1.856220 0.052820 -0.046060 
#    y 0.052820 1.794080 0.009410 
#    z -0.046060 0.009410 1.852740 
# 
# From -- ./inp_files/405598.got.cif
#   From: 2010.05.17/outbox.ucp.g08.bks.cvg/sg2_203_cif.got.tgz:405598.got - 2010.06.11 11:32:03.
