data_PCOD9074558
_publ_section_title
;
Structure prediction by ZEFSAII (Michael W. Deem and Ramdas Pophale) SiO2 
 PCOD9074558
Probable space group: P -1
;
_chemical_formula_sum "Si O2"
_cell_formula_units_Z 12
_cell_length_a 6.000000
_cell_length_b 21.000000
_cell_length_c 15.000000
_cell_angle_alpha 20.000000
_cell_angle_beta 120.000000
_cell_angle_gamma 110.000000
_cell_volume 505.000802
_symmetry_space_group_name_H-M "P -1"
_symmetry_group_IT_number 2
_symmetry_cell_setting 'triclinic'
loop_
_space_group_symop_operation_xyz
x,y,z
-x,-y,-z
loop_
_atom_site_type_symbol
_atom_site_label
_atom_site_fract_x
_atom_site_fract_y
_atom_site_fract_z
Si Si1 0.235080 0.480957 0.182925
Si Si2 0.270992 0.826956 0.438002
Si Si3 0.655040 0.734965 0.792232
Si Si4 0.763069 0.724093 0.183146
Si Si5 0.560986 0.199808 0.154577
Si Si6 0.267225 0.224530 0.682490
O O1 0.441912 0.311988 0.378248
O O2 0.338705 0.379447 0.433273
O O3 0.242760 0.700715 0.898270
O O4 0.898144 0.552805 0.025128
O O5 0.363760 0.771729 0.632904
O O6 0.027055 0.779018 0.406304
O O7 0.181774 0.072028 0.090717
O O8 0.686697 0.694062 0.959042
O O9 0.662138 0.956814 0.499288
O O10 0.715829 0.731247 0.269282
O O11 0.000000 0.500000 0.500000
O O12 0.514964 0.751088 0.028024
O O13 0.500000 0.000000 0.000000
#
# Coordination Sequence:
#
# PCOD9074558 Si02
#       6
#     2   2   2   2   2   2
#     4  12  23  42  71 101 138 182 223 280 343 404
#     4  11  25  44  70  98 140 177 227 290 328 410
#     4  10  23  46  69 102 136 177 231 275 350 397
#     4  11  23  45  70  96 137 181 225 284 340 393
#     4  10  24  44  67 103 138 176 226 288 329 411
#     4  12  27  46  68 102 137 183 231 275 342 405
#
# _framework density 23.762339000000001
#
# number of rings (size 3 to 8) (size 9 to 14) (size 15 to 20)
#    0.000    1.000    1.667    4.500    2.333    4.667 
#    9.000    0.000    0.000    0.000    0.000    0.000 
#    0.000    0.000    0.000    0.000    0.000    0.000 
#
# Total GULP energy -66875.670536 kJ/mol
# GULP energy per Si atom -5572.972545 kJ/mol
# Density = 2.370825 g / cm^3
# Si number density = 23.762339 Si / 1000 Ang^3
#
#
#
# Elastic Constant Matrix: (Units=GPa)
#
#
# Indices 1 2 3 4 5 6 
#
# 1 50.0896 50.5802 44.4962 -4.1658 14.0490 -25.5311
# 2 50.5802 137.6193 72.5852 -1.7481 -13.5514 -50.6849
# 3 44.4962 72.5852 64.1584 -13.4483 25.1855 -6.0248
# 4 -4.1658 -1.7481 -13.4483 50.8172 -12.6621 -7.9726
# 5 14.0490 -13.5514 25.1855 -12.6621 34.0492 -12.6152
# 6 -25.5311 -50.6849 -6.0248 -7.9726 -12.6152 27.9006
#
#
#
# Elastic Compliance Matrix: (Units=1/GPa)
#
#
# Indices 1 2 3 4 5 6 
#
# 1 0.049395 -0.017301 -0.006003 -0.004119 -0.024232 0.000341
# 2 -0.017301 0.001308 0.011450 -0.002518 -0.007306 -0.015005
# 3 -0.006003 0.011450 0.004600 0.009586 0.017117 0.026779
# 4 -0.004119 -0.002518 0.009586 0.022626 0.002513 0.001329
# 5 -0.024232 -0.007306 0.017117 0.002513 0.015899 -0.023842
# 6 0.000341 -0.015005 0.026779 0.001329 -0.023842 0.004277
#
#
# Mechanical properties :
#
#
# Convention : Reuss Voigt Hill
#
# Bulk Modulus (GPa) = 31.65013 65.24339 48.44676
# Shear Modulus (GPa) = 37.77982 28.16709 32.97346
#
# Velocity S-wave (km/s) = 3.99168 3.44665 3.72914
# Velocity P-wave (km/s) = 5.88159 6.58449 6.24294
#
# Compressibility (1/GPa) = 0.03159544
#
# Stress axis : x y z
#
# Youngs Moduli (GPa) = 20.24492 764.35717 217.37124
#
# Poissons Ratio (x) = 13.22422 1.30488
# Poissons Ratio (y) = 0.35026 -2.48888
# Poissons Ratio (z) = 0.12153 -8.75182
#
# Static dielectric constant tensor:
#      x y z
#    x 2.076720 0.008150 -0.039260 
#    y 0.008150 1.818730 0.051770 
#    z -0.039260 0.051770 1.920470 
# 
# From -- ./inp_files/25819.got.cif
#   From: 2010.05.17/outbox.ucp.g08.bks.cvg/sg2_13_cif.got.tgz:25819.got - 2010.06.11 11:32:03.
