data_PCOD9074188
_publ_section_title
;
Structure prediction by ZEFSAII (Michael W. Deem and Ramdas Pophale) SiO2 
 PCOD9074188
Probable space group: P -1
;
_chemical_formula_sum "Si O2"
_cell_formula_units_Z 14
_cell_length_a 9.000000
_cell_length_b 21.000000
_cell_length_c 6.000000
_cell_angle_alpha 70.000000
_cell_angle_beta 90.000000
_cell_angle_gamma 140.000000
_cell_volume 617.169155
_symmetry_space_group_name_H-M "P -1"
_symmetry_group_IT_number 2
_symmetry_cell_setting 'triclinic'
loop_
_space_group_symop_operation_xyz
x,y,z
-x,-y,-z
loop_
_atom_site_type_symbol
_atom_site_label
_atom_site_fract_x
_atom_site_fract_y
_atom_site_fract_z
Si Si1 0.906614 0.852461 0.136618
Si Si2 0.112716 0.464938 0.107827
Si Si3 0.428882 0.861638 0.739826
Si Si4 0.147238 0.869111 0.477944
Si Si5 0.037175 0.359161 0.744860
Si Si6 0.678789 0.669613 0.050670
Si Si7 0.790561 0.924403 0.397785
O O1 0.678948 0.733763 0.141215
O O2 0.802353 0.864814 0.308437
O O3 0.045723 0.840634 0.265129
O O4 0.119738 0.975754 0.858867
O O5 0.039395 0.400455 0.446061
O O6 0.418225 0.573682 0.024282
O O7 0.069610 0.411030 0.928030
O O8 0.000000 0.500000 0.000000
O O9 0.295470 0.856969 0.555556
O O10 0.528252 0.833388 0.641574
O O11 0.669834 0.997881 0.646051
O O12 0.247225 0.777497 0.047572
O O13 0.910444 0.776446 0.758124
O O14 0.239981 0.370775 0.772136
O O15 0.000000 0.000000 0.500000
#
# Coordination Sequence:
#
# PCOD9074188 Si02
#       7
#     2   2   2   2   2   2   2
#     4  11  23  39  72 104 147 203 250 304 382 450
#     4  12  29  56  79 115 153 199 264 328 394 456
#     4  10  22  45  70 106 158 186 256 306 376 460
#     4  10  22  43  68 110 143 201 241 313 375 448
#     4  11  28  51  83 115 150 209 256 325 386 455
#     4  11  25  48  80 110 153 198 268 314 384 463
#     4  11  22  43  61 105 155 199 246 294 381 453
#
# _framework density 22.684218999999999
#
# number of rings (size 3 to 8) (size 9 to 14) (size 15 to 20)
#    0.000    1.143    2.857    1.286    6.000    4.000 
#    5.143    0.000    0.000    0.000    0.000    0.000 
#    0.000    0.000    0.000    0.000    0.000    0.000 
#
# Total GULP energy -77957.135096 kJ/mol
# GULP energy per Si atom -5568.366793 kJ/mol
# Density = 2.263259 g / cm^3
# Si number density = 22.684219 Si / 1000 Ang^3
#
#
#
# Elastic Constant Matrix: (Units=GPa)
#
#
# Indices 1 2 3 4 5 6 
#
# 1 108.9766 35.1020 41.3827 0.3870 1.7918 -1.4811
# 2 35.1020 97.6615 43.8553 8.5217 -10.6946 -7.6254
# 3 41.3827 43.8553 125.0597 -0.8878 15.5807 7.7663
# 4 0.3870 8.5217 -0.8878 38.9110 5.8961 -4.4708
# 5 1.7918 -10.6946 15.5807 5.8961 45.3169 6.0239
# 6 -1.4811 -7.6254 7.7663 -4.4708 6.0239 36.4781
#
#
#
# Elastic Compliance Matrix: (Units=1/GPa)
#
#
# Indices 1 2 3 4 5 6 
#
# 1 0.011116 -0.002839 -0.002671 0.000565 -0.000338 0.000552
# 2 -0.002839 0.014684 -0.005084 -0.003826 0.005469 0.002664
# 3 -0.002671 -0.005084 0.011450 0.001853 -0.004930 -0.002567
# 4 0.000565 -0.003826 0.001853 0.027785 -0.005597 0.003158
# 5 -0.000338 0.005469 -0.004930 -0.005597 0.026170 -0.002828
# 6 0.000552 0.002664 -0.002567 0.003158 -0.002828 0.029394
#
#
# Mechanical properties :
#
#
# Convention : Reuss Voigt Hill
#
# Bulk Modulus (GPa) = 62.25978 63.59754 62.92866
# Shear Modulus (GPa) = 33.98124 38.23171 36.10647
#
# Velocity S-wave (km/s) = 3.87462 4.10980 3.99394
# Velocity P-wave (km/s) = 6.89367 7.11460 7.00501
#
# Compressibility (1/GPa) = 0.01606173
#
# Stress axis : x y z
#
# Youngs Moduli (GPa) = 89.95955 68.10329 87.33998
#
# Poissons Ratio (x) = 0.19337 0.23327
# Poissons Ratio (y) = 0.25543 0.44400
# Poissons Ratio (z) = 0.24026 0.34621
#
# Static dielectric constant tensor:
#      x y z
#    x 1.908400 -0.008720 -0.021700 
#    y -0.008720 1.938110 -0.009150 
#    z -0.021700 -0.009150 1.925580 
# 
# From -- ./inp_files/52759.got.cif
#   From: 2010.05.17/outbox.ucp.g08.bks.cvg/sg2_27_cif.got.tgz:52759.got - 2010.06.11 11:32:03.
