data_PCOD9074075
_publ_section_title
;
Structure prediction by ZEFSAII (Michael W. Deem and Ramdas Pophale) SiO2 
 PCOD9074075
Probable space group: P -1
;
_chemical_formula_sum "Si O2"
_cell_formula_units_Z 13
_cell_length_a 9.000000
_cell_length_b 9.000000
_cell_length_c 15.000000
_cell_angle_alpha 110.000000
_cell_angle_beta 40.000000
_cell_angle_gamma 130.000000
_cell_volume 569.686422
_symmetry_space_group_name_H-M "P -1"
_symmetry_group_IT_number 2
_symmetry_cell_setting 'triclinic'
loop_
_space_group_symop_operation_xyz
x,y,z
-x,-y,-z
loop_
_atom_site_type_symbol
_atom_site_label
_atom_site_fract_x
_atom_site_fract_y
_atom_site_fract_z
Si Si1 0.407346 0.730550 0.113397
Si Si2 0.234284 0.801009 0.937882
Si Si3 0.500000 0.500000 0.500000
Si Si4 0.691749 0.419361 0.670622
Si Si5 0.378544 0.128316 0.595256
Si Si6 0.308781 0.237634 0.187022
Si Si7 0.154246 0.494981 0.793585
O O1 0.333196 0.639958 0.226727
O O2 0.091341 0.650636 0.199481
O O3 0.649181 0.972875 0.066469
O O4 0.544234 0.679795 0.961932
O O5 0.497534 0.812901 0.864509
O O6 0.164707 0.684129 0.852890
O O7 0.956134 0.645262 0.097409
O O8 0.496421 0.313904 0.510692
O O9 0.456412 0.559969 0.629291
O O10 0.454125 0.225648 0.679141
O O11 0.681496 0.603143 0.724535
O O12 0.000000 0.500000 0.500000
O O13 0.500000 0.000000 0.500000
O O14 0.025798 0.963988 0.711311
#
# Coordination Sequence:
#
# PCOD9074075 Si02
#       7
#     2   2   1   2   2   2   2
#     4  11  24  42  70 101 137 184 234 288 352 422
#     4  10  22  42  70 100 136 180 239 283 352 420
#     4  12  24  44  74 100 136 190 230 286 366 404
#     4  12  26  45  66 101 142 183 233 289 357 423
#     4  12  27  47  71 103 146 183 236 299 349 423
#     4  11  24  45  69 101 140 184 236 294 349 421
#     4  10  22  41  69 101 138 179 232 294 342 427
#
# _framework density 22.819571
#
# number of rings (size 3 to 8) (size 9 to 14) (size 15 to 20)
#    0.000    0.923    1.538    6.000    2.154    3.077 
#    0.000    3.077    0.000    0.000    0.000    0.000 
#    0.000    0.000    0.000    0.000    0.000    0.000 
#
# Total GULP energy -72420.392730 kJ/mol
# GULP energy per Si atom -5570.799441 kJ/mol
# Density = 2.276763 g / cm^3
# Si number density = 22.819571 Si / 1000 Ang^3
#
#
#
# Elastic Constant Matrix: (Units=GPa)
#
#
# Indices 1 2 3 4 5 6 
#
# 1 58.9551 42.4284 47.1974 -0.4782 5.7941 5.5130
# 2 42.4284 112.5681 34.0207 22.6090 6.9134 16.0075
# 3 47.1974 34.0207 104.2495 26.7170 20.2543 -4.7328
# 4 -0.4782 22.6090 26.7170 39.2090 12.0805 -0.8749
# 5 5.7941 6.9134 20.2543 12.0805 31.0127 0.2255
# 6 5.5130 16.0075 -4.7328 -0.8749 0.2255 44.3074
#
#
#
# Elastic Compliance Matrix: (Units=1/GPa)
#
#
# Indices 1 2 3 4 5 6 
#
# 1 0.046280 -0.015333 -0.022312 0.024635 -0.000237 -0.002115
# 2 -0.015333 0.016410 0.004534 -0.013268 0.001441 -0.003806
# 3 -0.022312 0.004534 0.023928 -0.017349 -0.005736 0.003381
# 4 0.024635 -0.013268 -0.017349 0.048085 -0.009052 0.000871
# 5 -0.000237 0.001441 -0.005736 -0.009052 0.039251 -0.001482
# 6 -0.002115 -0.003806 0.003381 0.000871 -0.001482 0.024594
#
#
# Mechanical properties :
#
#
# Convention : Reuss Voigt Hill
#
# Bulk Modulus (GPa) = 49.02936 58.11840 53.57388
# Shear Modulus (GPa) = 18.41149 33.04756 25.72952
#
# Velocity S-wave (km/s) = 2.84355 3.80967 3.36150
# Velocity P-wave (km/s) = 5.68449 6.69891 6.21244
#
# Compressibility (1/GPa) = 0.02039594
#
# Stress axis : x y z
#
# Youngs Moduli (GPa) = 21.60751 60.93872 41.79127
#
# Poissons Ratio (x) = 0.93437 0.93246
# Poissons Ratio (y) = 0.33131 -0.18948
# Poissons Ratio (z) = 0.48212 -0.27630
#
# Static dielectric constant tensor:
#      x y z
#    x 1.864980 -0.013710 -0.094100 
#    y -0.013710 1.843240 -0.000540 
#    z -0.094100 -0.000540 1.900140 
# 
# From -- ./inp_files/173941.got.cif
#   From: 2010.05.17/outbox.ucp.g08.bks.cvg/sg2_87_cif.got.tgz:173941.got - 2010.06.11 11:32:03.
