data_PCOD9074157
_publ_section_title
;
Structure prediction by ZEFSAII (Michael W. Deem and Ramdas Pophale) SiO2 
 PCOD9074157
Probable space group: P -1
;
_chemical_formula_sum "Si O2"
_cell_formula_units_Z 16
_cell_length_a 9.000000
_cell_length_b 12.000000
_cell_length_c 12.000000
_cell_angle_alpha 40.000000
_cell_angle_beta 110.000000
_cell_angle_gamma 120.000000
_cell_volume 719.485186
_symmetry_space_group_name_H-M "P -1"
_symmetry_group_IT_number 2
_symmetry_cell_setting 'triclinic'
loop_
_space_group_symop_operation_xyz
x,y,z
-x,-y,-z
loop_
_atom_site_type_symbol
_atom_site_label
_atom_site_fract_x
_atom_site_fract_y
_atom_site_fract_z
Si Si1 0.141085 0.920753 0.561938
Si Si2 0.149009 0.280101 0.979415
Si Si3 0.474997 0.129018 0.620042
Si Si4 0.961314 0.502442 0.620156
Si Si5 0.498338 0.517787 0.208341
Si Si6 0.105649 0.378300 0.143721
Si Si7 0.445721 0.658787 0.310586
Si Si8 0.190845 0.932961 0.323900
O O1 0.232833 0.009867 0.402468
O O2 0.003932 0.710335 0.704028
O O3 0.296401 0.973818 0.648858
O O4 0.000000 0.000000 0.500000
O O5 0.350004 0.399650 0.906363
O O6 0.049517 0.378483 0.802676
O O7 0.097289 0.282540 0.093577
O O8 0.126599 0.061431 0.131102
O O9 0.502538 0.327185 0.412145
O O10 0.469911 0.161602 0.725701
O O11 0.639707 0.083256 0.669330
O O12 0.760612 0.415769 0.669168
O O13 0.000000 0.500000 0.500000
O O14 0.048566 0.729577 0.476325
O O15 0.306852 0.464050 0.155028
O O16 0.512369 0.668193 0.194686
O O17 0.000000 0.500000 0.000000
O O18 0.500000 0.500000 0.500000
#
# Coordination Sequence:
#
# PCOD9074157 Si02
#       8
#     2   2   2   2   2   2   2   2
#     4  12  24  44  68 100 139 180 233 290 346 408
#     4  12  26  44  70 108 140 184 237 290 351 417
#     4  11  23  44  69  99 138 186 232 284 353 418
#     4  12  24  49  74 101 141 183 235 287 353 419
#     4  11  22  44  68  98 146 184 231 290 353 412
#     4  12  26  43  69 105 141 187 236 296 351 415
#     4  10  22  42  73  99 133 189 230 279 355 414
#     4  12  25  45  72 104 139 186 233 289 350 414
#
# _framework density 22.238123000000002
#
# number of rings (size 3 to 8) (size 9 to 14) (size 15 to 20)
#    0.000    0.500    5.000    3.750    3.500    0.500 
#    0.000    1.875    0.000    0.000    0.000    0.000 
#    0.000    0.000    0.000    0.000    0.000    0.000 
#
# Total GULP energy -89084.181075 kJ/mol
# GULP energy per Si atom -5567.761317 kJ/mol
# Density = 2.218751 g / cm^3
# Si number density = 22.238123 Si / 1000 Ang^3
#
#
#
# Elastic Constant Matrix: (Units=GPa)
#
#
# Indices 1 2 3 4 5 6 
#
# 1 93.0793 20.9233 30.7227 -16.5072 9.0102 -3.4270
# 2 20.9233 47.1818 16.1548 16.5307 7.5490 0.1066
# 3 30.7227 16.1548 108.8079 3.6129 23.2155 1.1058
# 4 -16.5072 16.5307 3.6129 8.6175 -3.1796 -8.2008
# 5 9.0102 7.5490 23.2155 -3.1796 47.9603 6.2000
# 6 -3.4270 0.1066 1.1058 -8.2008 6.2000 39.0452
#
#
#
# Elastic Compliance Matrix: (Units=1/GPa)
#
#
# Indices 1 2 3 4 5 6 
#
# 1 -0.001218 0.017140 0.000367 -0.045624 -0.004504 -0.009031
# 2 0.017140 -0.009583 -0.006832 0.070792 0.004230 0.015921
# 3 0.000367 -0.006832 0.010523 0.010435 -0.003723 0.002536
# 4 -0.045624 0.070792 0.010435 -0.148298 -0.013116 -0.033558
# 5 -0.004504 0.004230 -0.003723 -0.013116 0.022827 -0.006681
# 6 -0.009031 0.015921 0.002536 -0.033558 -0.006681 0.018716
#
#
# Mechanical properties :
#
#
# Convention : Reuss Voigt Hill
#
# Bulk Modulus (GPa) = 47.45433 42.74119 45.09776
# Shear Modulus (GPa) = -41.20021 31.20914 -4.99553
#
# Velocity S-wave (km/s) = -4.30895 3.75027 -1.50042
# Velocity P-wave (km/s) = 1.83591 6.16557 4.16195
#
# Compressibility (1/GPa) = 0.02107289
#
# Stress axis : x y z
#
# Youngs Moduli (GPa) = -820.88213 -104.35418 95.02549
#
# Poissons Ratio (x) = 1.78867 -0.03485
# Poissons Ratio (y) = 14.07023 0.64921
# Poissons Ratio (z) = 0.30104 -0.71294
#
# Static dielectric constant tensor:
#      x y z
#    x 1.741820 -0.118770 0.049900 
#    y -0.118770 2.108570 -0.039360 
#    z 0.049900 -0.039360 1.764650 
# 
# From -- ./inp_files/388903.got.cif
#   From: 2010.05.17/outbox.ucp.g08.bks.cvg/sg2_195_cif.got.tgz:388903.got - 2010.06.11 11:32:03.
