data_PCOD9074071
_publ_section_title
;
Structure prediction by ZEFSAII (Michael W. Deem and Ramdas Pophale) SiO2 
 PCOD9074071
Probable space group: P -1
;
_chemical_formula_sum "Si O2"
_cell_formula_units_Z 16
_cell_length_a 27.000000
_cell_length_b 12.000000
_cell_length_c 27.000000
_cell_angle_alpha 150.000000
_cell_angle_beta 170.000000
_cell_angle_gamma 30.000000
_cell_volume 750.765935
_symmetry_space_group_name_H-M "P -1"
_symmetry_group_IT_number 2
_symmetry_cell_setting 'triclinic'
loop_
_space_group_symop_operation_xyz
x,y,z
-x,-y,-z
loop_
_atom_site_type_symbol
_atom_site_label
_atom_site_fract_x
_atom_site_fract_y
_atom_site_fract_z
Si Si1 0.910104 0.134315 0.258319
Si Si2 0.189647 0.703426 0.314735
Si Si3 0.722309 0.616867 0.453505
Si Si4 0.712152 0.116403 0.287429
Si Si5 0.366390 0.143983 0.791505
Si Si6 0.278967 0.605367 0.930717
Si Si7 0.232608 0.000377 0.273036
Si Si8 0.250161 0.640087 0.239726
O O1 0.794271 0.265338 0.144050
O O2 0.100060 0.232773 0.526065
O O3 0.639210 0.066730 0.995366
O O4 0.126211 0.922145 0.369440
O O5 0.185159 0.774934 0.279733
O O6 0.464831 0.530738 0.534130
O O7 0.961725 0.541147 0.039735
O O8 0.666525 0.384848 0.335659
O O9 0.994731 0.570151 0.667298
O O10 0.780767 0.788870 0.620816
O O11 0.467588 0.707394 0.198099
O O12 0.697086 0.040080 0.300926
O O13 0.000000 0.000000 0.500000
O O14 0.500000 0.000000 0.000000
O O15 0.434405 0.358611 0.972531
O O16 0.245416 0.791985 0.244560
O O17 0.500000 0.000000 0.500000
O O18 0.000000 0.000000 0.000000
#
# Coordination Sequence:
#
# PCOD9074071 Si02
#       8
#     2   2   2   2   2   2   2   2
#     4  12  25  40  64 104 138 173 220 280 348 396
#     4  10  22  41  68  95 128 176 222 274 331 405
#     4  12  25  45  73  98 127 189 227 273 342 402
#     4  12  23  45  69  94 133 174 235 277 317 402
#     4  12  24  41  66  98 137 177 216 287 336 392
#     4  12  24  44  69  96 138 174 232 270 335 414
#     4  12  27  45  69 102 141 173 224 287 344 400
#     4  10  22  43  68  93 130 175 223 273 334 395
#
# _framework density 21.311568999999999
#
# number of rings (size 3 to 8) (size 9 to 14) (size 15 to 20)
#    0.000    0.500    2.500    6.000    0.000    6.000 
#    0.000    0.000    0.000    0.000    0.000    0.000 
#    0.000    0.000    0.000    0.000    0.000    0.000 
#
# Total GULP energy -89232.881814 kJ/mol
# GULP energy per Si atom -5577.055113 kJ/mol
# Density = 2.126306 g / cm^3
# Si number density = 21.311569 Si / 1000 Ang^3
#
#
#
# Elastic Constant Matrix: (Units=GPa)
#
#
# Indices 1 2 3 4 5 6 
#
# 1 220.9951 71.7291 71.3703 -13.9988 -2.2832 29.4704
# 2 71.7291 82.4051 30.6651 -1.2617 -4.4113 14.4392
# 3 71.3703 30.6651 173.1497 -32.8972 -6.9641 5.9016
# 4 -13.9988 -1.2617 -32.8972 38.1278 -6.8995 -4.8884
# 5 -2.2832 -4.4113 -6.9641 -6.8995 48.1717 -2.2341
# 6 29.4704 14.4392 5.9016 -4.8884 -2.2341 48.0731
#
#
#
# Elastic Compliance Matrix: (Units=1/GPa)
#
#
# Indices 1 2 3 4 5 6 
#
# 1 0.007158 -0.005084 -0.001904 0.000398 -0.000466 -0.002609
# 2 -0.005084 0.017461 -0.001400 -0.002656 0.000674 -0.002195
# 3 -0.001904 -0.001400 0.008136 0.006812 0.001997 0.001375
# 4 0.000398 -0.002656 0.006812 0.033638 0.005736 0.003404
# 5 -0.000466 0.000674 0.001997 0.005736 0.021976 0.001442
# 6 -0.002609 -0.002195 0.001375 0.003404 0.001442 0.023305
#
#
# Mechanical properties :
#
#
# Convention : Reuss Voigt Hill
#
# Bulk Modulus (GPa) = 62.57958 91.56432 77.07195
# Shear Modulus (GPa) = 37.37578 47.06022 42.21800
#
# Velocity S-wave (km/s) = 4.19236 4.70425 4.45566
# Velocity P-wave (km/s) = 7.27065 8.51848 7.91918
#
# Compressibility (1/GPa) = 0.01597965
#
# Stress axis : x y z
#
# Youngs Moduli (GPa) = 139.69493 57.26920 122.91284
#
# Poissons Ratio (x) = 0.29116 0.23407
# Poissons Ratio (y) = 0.71022 0.17202
# Poissons Ratio (z) = 0.26603 0.08015
#
# Static dielectric constant tensor:
#      x y z
#    x 1.697880 0.008260 -0.012800 
#    y 0.008260 1.738880 0.012930 
#    z -0.012800 0.012930 1.774310 
# 
# From -- ./inp_files/621269.got.cif
#   From: 2010.05.17/outbox.ucp.g08.bks.cvg/sg2_311_cif.got.tgz:621269.got - 2010.06.11 11:32:03.
