data_PCOD9074942
_publ_section_title
;
Structure prediction by ZEFSAII (Michael W. Deem and Ramdas Pophale) SiO2 
 PCOD9074942
Probable space group: P -1
;
_chemical_formula_sum "Si O2"
_cell_formula_units_Z 16
_cell_length_a 9.000000
_cell_length_b 27.000000
_cell_length_c 27.000000
_cell_angle_alpha 10.000000
_cell_angle_beta 40.000000
_cell_angle_gamma 40.000000
_cell_volume 728.340053
_symmetry_space_group_name_H-M "P -1"
_symmetry_group_IT_number 2
_symmetry_cell_setting 'triclinic'
loop_
_space_group_symop_operation_xyz
x,y,z
-x,-y,-z
loop_
_atom_site_type_symbol
_atom_site_label
_atom_site_fract_x
_atom_site_fract_y
_atom_site_fract_z
Si Si1 0.346631 0.121554 0.040258
Si Si2 0.008824 0.576314 0.799601
Si Si3 0.817587 0.038706 0.243787
Si Si4 0.276627 0.331044 0.740760
Si Si5 0.104208 0.869971 0.654631
Si Si6 0.512993 0.363640 0.443822
Si Si7 0.075161 0.129747 0.724604
Si Si8 0.367672 0.435727 0.179441
O O1 0.363427 0.189760 0.910372
O O2 0.490964 0.319603 0.843432
O O3 0.065265 0.136698 0.102081
O O4 0.431572 0.816084 0.342800
O O5 0.254073 0.636124 0.651096
O O6 0.799873 0.518744 0.871172
O O7 0.904692 0.862121 0.571091
O O8 0.042643 0.345824 0.063091
O O9 0.806760 0.033798 0.192123
O O10 0.781058 0.735679 0.575307
O O11 0.617828 0.255155 0.105127
O O12 0.500000 0.500000 0.500000
O O13 0.074813 0.594639 0.532492
O O14 0.127206 0.080617 0.999716
O O15 0.370248 0.719150 0.735947
O O16 0.000000 0.000000 0.500000
O O17 0.282637 0.248917 0.588766
#
# Coordination Sequence:
#
# PCOD9074942 Si02
#       8
#     2   2   2   2   2   2   2   2
#     4  11  21  43  68 101 135 175 228 276 329 410
#     4  12  24  46  68  93 132 182 230 283 354 410
#     4  11  21  41  68 101 125 179 229 280 332 411
#     4  11  24  47  74 103 143 189 223 261 332 418
#     4  12  28  46  62  96 139 179 230 291 354 418
#     4  12  24  43  70 103 138 172 229 294 344 385
#     4  11  25  43  69 105 144 174 226 283 339 391
#     4  12  23  43  71  94 129 177 239 278 349 407
#
# _framework density 21.967760999999999
#
# number of rings (size 3 to 8) (size 9 to 14) (size 15 to 20)
#    0.000    0.500    2.500    7.500    1.750    0.000 
#    2.250    3.750    0.000    0.000    0.000    0.000 
#    0.000    0.000    0.000    0.000    0.000    0.000 
#
# Total GULP energy -89128.174197 kJ/mol
# GULP energy per Si atom -5570.510887 kJ/mol
# Density = 2.191776 g / cm^3
# Si number density = 21.967761 Si / 1000 Ang^3
#
#
#
# Elastic Constant Matrix: (Units=GPa)
#
#
# Indices 1 2 3 4 5 6 
#
# 1 119.8892 25.8598 -4.7570 16.3730 -8.4208 -21.1672
# 2 25.8598 39.8667 -10.6763 18.6792 7.0484 -19.2650
# 3 -4.7570 -10.6763 58.8702 10.2089 0.6896 -9.8957
# 4 16.3730 18.6792 10.2089 48.2441 1.7513 -2.4010
# 5 -8.4208 7.0484 0.6896 1.7513 50.7217 2.9440
# 6 -21.1672 -19.2650 -9.8957 -2.4010 2.9440 20.6139
#
#
#
# Elastic Compliance Matrix: (Units=1/GPa)
#
#
# Indices 1 2 3 4 5 6 
#
# 1 0.012366 0.015751 0.011117 -0.011005 -0.001748 0.031722
# 2 0.015751 0.258989 0.120665 -0.113952 -0.049066 0.309875
# 3 0.011117 0.120665 0.076572 -0.058019 -0.023101 0.157484
# 4 -0.011005 -0.113952 -0.058019 0.073150 0.020399 -0.140041
# 5 -0.001748 -0.049066 -0.023101 0.020399 0.029368 -0.060558
# 6 0.031722 0.309875 0.157484 -0.140041 -0.060558 0.438619
#
#
# Mechanical properties :
#
#
# Convention : Reuss Voigt Hill
#
# Bulk Modulus (GPa) = 1.55523 26.60878 14.08200
# Shear Modulus (GPa) = 6.18559 37.79593 21.99076
#
# Velocity S-wave (km/s) = 1.67984 4.15241 3.16737
# Velocity P-wave (km/s) = 2.11471 5.92697 4.44977
#
# Compressibility (1/GPa) = 0.64299270
#
# Stress axis : x y z
#
# Youngs Moduli (GPa) = 80.86911 3.86116 13.05961
#
# Poissons Ratio (x) = -0.06082 -0.14518
# Poissons Ratio (y) = -1.27375 -1.57584
# Poissons Ratio (z) = -0.89902 -0.46591
#
# Static dielectric constant tensor:
#      x y z
#    x 1.778080 0.015820 -0.004310 
#    y 0.015820 1.883410 0.006060 
#    z -0.004310 0.006060 1.915330 
# 
# From -- ./inp_files/617663.got.cif
#   From: 2010.05.17/outbox.ucp.g08.bks.cvg/sg2_309_cif.got.tgz:617663.got - 2010.06.11 11:32:03.
