data_PCOD9074039
_publ_section_title
;
Structure prediction by ZEFSAII (Michael W. Deem and Ramdas Pophale) SiO2 
 PCOD9074039
Probable space group: P -1
;
_chemical_formula_sum "Si O2"
_cell_formula_units_Z 16
_cell_length_a 9.000000
_cell_length_b 24.000000
_cell_length_c 21.000000
_cell_angle_alpha 20.000000
_cell_angle_beta 30.000000
_cell_angle_gamma 30.000000
_cell_volume 738.640068
_symmetry_space_group_name_H-M "P -1"
_symmetry_group_IT_number 2
_symmetry_cell_setting 'triclinic'
loop_
_space_group_symop_operation_xyz
x,y,z
-x,-y,-z
loop_
_atom_site_type_symbol
_atom_site_label
_atom_site_fract_x
_atom_site_fract_y
_atom_site_fract_z
Si Si1 0.832229 0.949177 0.964714
Si Si2 0.829463 0.531452 0.834040
Si Si3 0.332637 0.274045 0.011195
Si Si4 0.168332 0.077110 0.601196
Si Si5 0.220838 0.584292 0.157439
Si Si6 0.276080 0.232501 0.227024
Si Si7 0.568340 0.042469 0.781151
Si Si8 0.461563 0.605881 0.643002
O O1 0.006362 0.754014 0.089563
O O2 0.720310 0.974407 0.051154
O O3 0.500000 0.000000 0.000000
O O4 0.027782 0.063527 0.738634
O O5 0.828345 0.730447 0.623211
O O6 0.931411 0.463700 0.797381
O O7 0.045321 0.402917 0.942144
O O8 0.500000 0.500000 0.000000
O O9 0.529114 0.413270 0.795578
O O10 0.292204 0.221590 0.155602
O O11 0.403641 0.098179 0.133441
O O12 0.520066 0.941552 0.624812
O O13 0.911834 0.018715 0.714898
O O14 0.341685 0.427966 0.328732
O O15 0.530593 0.637047 0.968461
O O16 0.911381 0.314021 0.290355
O O17 0.470942 0.242595 0.583635
#
# Coordination Sequence:
#
# PCOD9074039 Si02
#       8
#     2   2   2   2   2   2   2   2
#     4   9  20  45  64  88 127 174 221 272 317 374
#     4  12  23  38  65 102 132 167 221 264 323 399
#     4  11  23  41  63  98 127 172 218 265 325 383
#     4  10  23  43  65  96 131 175 214 265 332 382
#     4  10  22  41  65  91 135 172 212 269 329 383
#     4  10  22  42  65  91 137 172 206 269 334 393
#     4  11  24  42  68  93 132 170 227 272 311 382
#     4  11  23  42  64  98 134 171 213 268 332 388
#
# _framework density 21.661429999999999
#
# number of rings (size 3 to 8) (size 9 to 14) (size 15 to 20)
#    0.000    1.500    1.250    5.250    3.500    1.500 
#    2.250    7.500    0.000    0.000    0.000    0.000 
#    0.000    0.000    0.000    0.000    0.000    0.000 
#
# Total GULP energy -89209.511151 kJ/mol
# GULP energy per Si atom -5575.594447 kJ/mol
# Density = 2.161213 g / cm^3
# Si number density = 21.661430 Si / 1000 Ang^3
#
#
#
# Elastic Constant Matrix: (Units=GPa)
#
#
# Indices 1 2 3 4 5 6 
#
# 1 124.8398 37.6451 25.2970 -20.8895 14.2610 12.1050
# 2 37.6451 72.2881 22.4526 -2.8988 -0.9423 8.6283
# 3 25.2970 22.4526 102.2951 -13.7685 5.1271 13.4103
# 4 -20.8895 -2.8988 -13.7685 30.6501 -4.2450 1.7101
# 5 14.2610 -0.9423 5.1271 -4.2450 34.1511 -18.7181
# 6 12.1050 8.6283 13.4103 1.7101 -18.7181 48.0088
#
#
#
# Elastic Compliance Matrix: (Units=1/GPa)
#
#
# Indices 1 2 3 4 5 6 
#
# 1 0.012184 -0.005601 0.000226 0.007163 -0.007239 -0.005206
# 2 -0.005601 0.017577 -0.003115 -0.003143 0.003156 0.000466
# 3 0.000226 -0.003115 0.011837 0.004900 -0.003791 -0.004456
# 4 0.007163 -0.003143 0.004900 0.039472 -0.001410 -0.004566
# 5 -0.007239 0.003156 -0.003791 -0.001410 0.043346 0.019267
# 6 -0.005206 0.000466 -0.004456 -0.004566 0.019267 0.030978
#
#
# Mechanical properties :
#
#
# Convention : Reuss Voigt Hill
#
# Bulk Modulus (GPa) = 40.62066 52.24582 46.43324
# Shear Modulus (GPa) = 27.68845 36.83055 32.25950
#
# Velocity S-wave (km/s) = 3.57912 4.12792 3.86328
# Velocity P-wave (km/s) = 5.98944 6.84772 6.43291
#
# Compressibility (1/GPa) = 0.02461802
#
# Stress axis : x y z
#
# Youngs Moduli (GPa) = 82.07575 56.89152 84.47895
#
# Poissons Ratio (x) = 0.31864 -0.01908
# Poissons Ratio (y) = 0.45969 0.26317
# Poissons Ratio (z) = -0.01853 0.17723
#
# Static dielectric constant tensor:
#      x y z
#    x 1.896840 0.043440 0.048700 
#    y 0.043440 1.835690 0.047240 
#    z 0.048700 0.047240 1.789040 
# 
# From -- ./inp_files/591931.got.cif
#   From: 2010.05.17/outbox.ucp.g08.bks.cvg/sg2_296_cif.got.tgz:591931.got - 2010.06.11 11:32:03.
