data_PCOD9074620
_publ_section_title
;
Structure prediction by ZEFSAII (Michael W. Deem and Ramdas Pophale) SiO2 
 PCOD9074620
Probable space group: P -1
;
_chemical_formula_sum "Si O2"
_cell_formula_units_Z 15
_cell_length_a 12.000000
_cell_length_b 9.000000
_cell_length_c 12.000000
_cell_angle_alpha 80.000000
_cell_angle_beta 100.000000
_cell_angle_gamma 150.000000
_cell_volume 637.442765
_symmetry_space_group_name_H-M "P -1"
_symmetry_group_IT_number 2
_symmetry_cell_setting 'triclinic'
loop_
_space_group_symop_operation_xyz
x,y,z
-x,-y,-z
loop_
_atom_site_type_symbol
_atom_site_label
_atom_site_fract_x
_atom_site_fract_y
_atom_site_fract_z
Si Si1 0.063327 0.404431 0.058179
Si Si2 0.530895 0.680218 0.312154
Si Si3 0.936950 0.560203 0.391571
Si Si4 0.625352 0.179173 0.743584
Si Si5 0.681123 0.717569 0.102393
Si Si6 0.500000 0.000000 0.500000
Si Si7 0.813536 0.879038 0.543250
Si Si8 0.739167 0.439187 0.155716
O O1 0.169422 0.533219 0.182637
O O2 0.235326 0.557139 0.971606
O O3 0.867926 0.056784 0.063020
O O4 0.000000 0.500000 0.000000
O O5 0.547809 0.878488 0.275738
O O6 0.576930 0.653000 0.208585
O O7 0.672375 0.784002 0.428169
O O8 0.290719 0.357173 0.357186
O O9 0.685541 0.308526 0.421264
O O10 0.902571 0.528272 0.254654
O O11 0.000000 0.500000 0.500000
O O12 0.109085 0.887774 0.406003
O O13 0.656258 0.192161 0.616589
O O14 0.509606 0.900844 0.812947
O O15 0.776049 0.659341 0.149981
O O16 0.500000 0.500000 0.000000
O O17 0.000000 0.000000 0.500000
#
# Coordination Sequence:
#
# PCOD9074620 Si02
#       8
#     2   2   2   2   2   1   2   2
#     4  12  27  45  75 107 145 202 252 305 377 448
#     4  11  26  45  71 108 146 195 246 308 370 442
#     4  11  25  41  71  98 142 185 236 295 367 433
#     4  11  24  46  74 100 150 190 249 305 371 448
#     4  12  27  46  73 106 151 195 249 311 371 439
#     4  10  24  42  68 108 138 186 240 302 360 430
#     4  11  24  43  70 104 145 191 243 300 371 435
#     4  11  25  46  70 107 144 194 251 305 376 437
#
# _framework density 23.531524000000001
#
# number of rings (size 3 to 8) (size 9 to 14) (size 15 to 20)
#    0.000    0.800    0.000    6.400    9.333    6.400 
#    0.000    0.000    0.000    0.000    0.000    0.000 
#    0.000    0.000    0.000    0.000    0.000    0.000 
#
# Total GULP energy -83513.139588 kJ/mol
# GULP energy per Si atom -5567.542639 kJ/mol
# Density = 2.347797 g / cm^3
# Si number density = 23.531524 Si / 1000 Ang^3
#
#
#
# Elastic Constant Matrix: (Units=GPa)
#
#
# Indices 1 2 3 4 5 6 
#
# 1 76.7333 19.4681 11.4854 -13.7009 11.7592 -24.3077
# 2 19.4681 107.6797 64.2749 4.5042 -1.9066 -27.9326
# 3 11.4854 64.2749 134.4408 25.4535 -2.4776 -2.9747
# 4 -13.7009 4.5042 25.4535 33.8978 8.0024 4.5090
# 5 11.7592 -1.9066 -2.4776 8.0024 49.5626 -10.4763
# 6 -24.3077 -27.9326 -2.9747 4.5090 -10.4763 27.0772
#
#
#
# Elastic Compliance Matrix: (Units=1/GPa)
#
#
# Indices 1 2 3 4 5 6 
#
# 1 0.021311 0.004005 -0.005218 0.009927 -0.002526 0.020059
# 2 0.004005 0.021483 -0.010328 0.001980 0.004547 0.026052
# 3 -0.005218 -0.010328 0.014515 -0.010246 0.000737 -0.011752
# 4 0.009927 0.001980 -0.010246 0.043502 -0.010094 -0.001321
# 5 -0.002526 0.004547 0.000737 -0.010094 0.025595 0.014088
# 6 0.020059 0.026052 -0.011752 -0.001321 0.014088 0.086193
#
#
# Mechanical properties :
#
#
# Convention : Reuss Voigt Hill
#
# Bulk Modulus (GPa) = 29.21552 56.59006 42.90279
# Shear Modulus (GPa) = 20.23551 37.01588 28.62570
#
# Velocity S-wave (km/s) = 2.93564 3.97045 3.49160
# Velocity P-wave (km/s) = 4.89215 6.71715 5.87594
#
# Compressibility (1/GPa) = 0.03422838
#
# Stress axis : x y z
#
# Youngs Moduli (GPa) = 46.92415 46.54812 68.89410
#
# Poissons Ratio (x) = -0.18642 0.35946
# Poissons Ratio (y) = -0.18793 0.71152
# Poissons Ratio (z) = 0.24483 0.48074
#
# Static dielectric constant tensor:
#      x y z
#    x 1.757180 0.026570 0.048600 
#    y 0.026570 1.953670 0.014290 
#    z 0.048600 0.014290 1.770210 
# 
# From -- ./inp_files/419368.got.cif
#   From: 2010.05.17/outbox.ucp.g08.bks.cvg/sg2_210_cif.got.tgz:419368.got - 2010.06.11 11:32:03.
