data_PCOD9074544
_publ_section_title
;
Structure prediction by ZEFSAII (Michael W. Deem and Ramdas Pophale) SiO2 
 PCOD9074544
Probable space group: P -1
;
_chemical_formula_sum "Si O2"
_cell_formula_units_Z 16
_cell_length_a 12.000000
_cell_length_b 9.000000
_cell_length_c 15.000000
_cell_angle_alpha 110.000000
_cell_angle_beta 70.000000
_cell_angle_gamma 50.000000
_cell_volume 728.972637
_symmetry_space_group_name_H-M "P -1"
_symmetry_group_IT_number 2
_symmetry_cell_setting 'triclinic'
loop_
_space_group_symop_operation_xyz
x,y,z
-x,-y,-z
loop_
_atom_site_type_symbol
_atom_site_label
_atom_site_fract_x
_atom_site_fract_y
_atom_site_fract_z
Si Si1 0.065906 0.276834 0.055111
Si Si2 0.613319 0.594296 0.189207
Si Si3 0.305410 0.946311 0.105334
Si Si4 0.137267 0.148657 0.712813
Si Si5 0.248121 0.245914 0.333750
Si Si6 0.212481 0.865055 0.461243
Si Si7 0.199443 0.730786 0.111684
Si Si8 0.524374 0.230061 0.307935
O O1 0.832102 0.435030 0.143697
O O2 0.997407 0.537503 0.153083
O O3 0.216862 0.052302 0.051859
O O4 0.238977 0.059142 0.877422
O O5 0.411302 0.718046 0.314255
O O6 0.456647 0.910711 0.254378
O O7 0.729614 0.361768 0.030116
O O8 0.185087 0.931377 0.182248
O O9 0.243796 0.176593 0.221999
O O10 0.580776 0.596682 0.963612
O O11 0.019480 0.128865 0.784840
O O12 0.133184 0.098357 0.599093
O O13 0.387848 0.888029 0.638183
O O14 0.339914 0.316653 0.336130
O O15 0.000000 0.500000 0.500000
O O16 0.378007 0.558022 0.408712
O O17 0.000000 0.000000 0.500000
#
# Coordination Sequence:
#
# PCOD9074544 Si02
#       8
#     2   2   2   2   2   2   2   2
#     4  12  25  45  77 109 139 183 250 298 347 418
#     4  11  24  48  71 102 144 186 231 296 351 425
#     4  10  25  40  70 106 136 186 237 293 344 423
#     4  12  27  47  72 107 146 188 236 294 364 423
#     4  11  25  44  70  98 145 189 233 282 364 425
#     4  12  31  47  71 108 150 185 237 300 359 423
#     4  10  23  45  72 101 142 185 238 284 357 425
#     4  12  26  49  73 103 145 193 237 295 358 427
#
# _framework density 21.948698
#
# number of rings (size 3 to 8) (size 9 to 14) (size 15 to 20)
#    0.000    0.750    2.500    3.750   14.000    3.500 
#    0.000    0.000    0.000    0.000    0.000    0.000 
#    0.000    0.000    0.000    0.000    0.000    0.000 
#
# Total GULP energy -89301.959173 kJ/mol
# GULP energy per Si atom -5581.372448 kJ/mol
# Density = 2.189874 g / cm^3
# Si number density = 21.948698 Si / 1000 Ang^3
#
#
#
# Elastic Constant Matrix: (Units=GPa)
#
#
# Indices 1 2 3 4 5 6 
#
# 1 144.4103 14.6467 33.2641 -5.7086 -6.8054 -23.2684
# 2 14.6467 51.6200 -3.8908 3.7962 18.0379 -13.0875
# 3 33.2641 -3.8908 72.1091 -12.7795 -6.2042 -9.5565
# 4 -5.7086 3.7962 -12.7795 30.2038 13.5877 10.5795
# 5 -6.8054 18.0379 -6.2042 13.5877 36.4324 -3.1442
# 6 -23.2684 -13.0875 -9.5565 10.5795 -3.1442 44.0861
#
#
#
# Elastic Compliance Matrix: (Units=1/GPa)
#
#
# Indices 1 2 3 4 5 6 
#
# 1 0.008801 -0.002932 -0.003853 -0.002631 0.003752 0.003838
# 2 -0.002932 0.026308 0.002596 0.001153 -0.013076 0.005616
# 3 -0.003853 0.002596 0.016908 0.006514 -0.001492 0.000733
# 4 -0.002631 0.001153 0.006514 0.048165 -0.018999 -0.012547
# 5 0.003752 -0.013076 -0.001492 -0.018999 0.041914 0.005324
# 6 0.003838 0.005616 0.000733 -0.012547 0.005324 0.029925
#
#
# Mechanical properties :
#
#
# Convention : Reuss Voigt Hill
#
# Bulk Modulus (GPa) = 22.91511 39.57547 31.24529
# Shear Modulus (GPa) = 25.64802 37.08575 31.36689
#
# Velocity S-wave (km/s) = 3.42211 4.11500 3.78445
# Velocity P-wave (km/s) = 5.10660 6.37555 5.77603
#
# Compressibility (1/GPa) = 0.04363933
#
# Stress axis : x y z
#
# Youngs Moduli (GPa) = 113.62568 38.01077 59.14203
#
# Poissons Ratio (x) = 0.11145 0.22786
# Poissons Ratio (y) = 0.33315 -0.15351
# Poissons Ratio (z) = 0.43777 -0.09866
#
# Static dielectric constant tensor:
#      x y z
#    x 1.883540 0.068690 0.014440 
#    y 0.068690 1.881020 -0.033060 
#    z 0.014440 -0.033060 1.804350 
# 
# From -- ./inp_files/515919.got.cif
#   From: 2010.05.17/outbox.ucp.g08.bks.cvg/sg2_258_cif.got.tgz:515919.got - 2010.06.11 11:32:03.
