data_PCOD9074059
_publ_section_title
;
Structure prediction by ZEFSAII (Michael W. Deem and Ramdas Pophale) SiO2 
 PCOD9074059
Probable space group: P -1
;
_chemical_formula_sum "Si O2"
_cell_formula_units_Z 14
_cell_length_a 12.000000
_cell_length_b 15.000000
_cell_length_c 30.000000
_cell_angle_alpha 20.000000
_cell_angle_beta 160.000000
_cell_angle_gamma 150.000000
_cell_volume 624.976433
_symmetry_space_group_name_H-M "P -1"
_symmetry_group_IT_number 2
_symmetry_cell_setting 'triclinic'
loop_
_space_group_symop_operation_xyz
x,y,z
-x,-y,-z
loop_
_atom_site_type_symbol
_atom_site_label
_atom_site_fract_x
_atom_site_fract_y
_atom_site_fract_z
Si Si1 0.735365 0.061516 0.215352
Si Si2 0.106335 0.045920 0.836963
Si Si3 0.516825 0.355014 0.428842
Si Si4 0.856374 0.520744 0.855979
Si Si5 0.354916 0.791423 0.609939
Si Si6 0.154027 0.321261 0.815047
Si Si7 0.715173 0.238587 0.768975
O O1 0.867494 0.341996 0.130057
O O2 0.583999 0.938173 0.260474
O O3 0.452889 0.118048 0.044985
O O4 0.065087 0.851078 0.435303
O O5 0.021281 0.176924 0.791193
O O6 0.901821 0.241712 0.633319
O O7 0.500000 0.000000 0.000000
O O8 0.010075 0.755360 0.941432
O O9 0.407932 0.497407 0.274401
O O10 0.382279 0.547928 0.328503
O O11 0.368195 0.076833 0.502738
O O12 0.678273 0.696539 0.746477
O O13 0.283129 0.573217 0.721707
O O14 0.865697 0.370649 0.720710
O O15 0.000000 0.000000 0.000000
#
# Coordination Sequence:
#
# PCOD9074059 Si02
#       7
#     2   2   2   2   2   2   2
#     4  10  22  41  67  92 128 179 216 270 326 383
#     4  12  26  40  67 105 133 176 219 270 338 398
#     4  11  25  44  66  99 136 174 227 270 328 399
#     4  11  24  43  66  99 140 174 217 273 334 397
#     4  11  24  41  67 101 134 179 214 270 342 390
#     4  11  24  44  66  97 137 173 223 275 325 392
#     4  10  23  46  70  95 132 179 227 273 326 390
#
# _framework density 22.400845
#
# number of rings (size 3 to 8) (size 9 to 14) (size 15 to 20)
#    0.000    1.143    1.429    5.143    4.000    4.571 
#    0.000   19.286    0.000    0.000    0.000    0.000 
#    0.000    0.000    0.000    0.000    0.000    0.000 
#
# Total GULP energy -78071.436571 kJ/mol
# GULP energy per Si atom -5576.531184 kJ/mol
# Density = 2.234986 g / cm^3
# Si number density = 22.400845 Si / 1000 Ang^3
#
#
#
# Elastic Constant Matrix: (Units=GPa)
#
#
# Indices 1 2 3 4 5 6 
#
# 1 111.8065 35.6003 18.2511 -9.8293 2.6528 7.6569
# 2 35.6003 81.5703 29.6900 -15.0868 9.7636 19.2496
# 3 18.2511 29.6900 102.0517 -3.2725 -7.0382 -18.2997
# 4 -9.8293 -15.0868 -3.2725 41.8484 -5.7616 -9.1799
# 5 2.6528 9.7636 -7.0382 -5.7616 41.3233 -2.7523
# 6 7.6569 19.2496 -18.2997 -9.1799 -2.7523 30.3605
#
#
#
# Elastic Compliance Matrix: (Units=1/GPa)
#
#
# Indices 1 2 3 4 5 6 
#
# 1 0.010457 -0.004219 -0.000589 0.000938 0.000356 -0.000002
# 2 -0.004219 0.024154 -0.010604 0.001094 -0.008494 -0.021081
# 3 -0.000589 -0.010604 0.016836 0.002341 0.006960 0.018358
# 4 0.000938 0.001094 0.002341 0.027320 0.004499 0.009149
# 5 0.000356 -0.008494 0.006960 0.004499 0.028893 0.013470
# 6 -0.000002 -0.021081 0.018358 0.009149 0.013470 0.061356
#
#
# Mechanical properties :
#
#
# Convention : Reuss Voigt Hill
#
# Bulk Modulus (GPa) = 48.48230 51.39015 49.93623
# Shear Modulus (GPa) = 24.18808 36.83224 30.51016
#
# Velocity S-wave (km/s) = 3.28957 4.05932 3.69454
# Velocity P-wave (km/s) = 6.00986 6.70535 6.36711
#
# Compressibility (1/GPa) = 0.02062608
#
# Stress axis : x y z
#
# Youngs Moduli (GPa) = 95.62559 41.40143 59.39613
#
# Poissons Ratio (x) = 0.17465 0.03496
# Poissons Ratio (y) = 0.40340 0.62981
# Poissons Ratio (z) = 0.05628 0.43900
#
# Static dielectric constant tensor:
#      x y z
#    x 1.800000 0.033170 0.005720 
#    y 0.033170 1.965790 0.089230 
#    z 0.005720 0.089230 1.884810 
# 
# From -- ./inp_files/333934.got.cif
#   From: 2010.05.17/outbox.ucp.g08.bks.cvg/sg2_167_cif.got.tgz:333934.got - 2010.06.11 11:32:03.
