data_PCOD9074236
_publ_section_title
;
Structure prediction by ZEFSAII (Michael W. Deem and Ramdas Pophale) SiO2 
 PCOD9074236
Probable space group: P -1
;
_chemical_formula_sum "Si O2"
_cell_formula_units_Z 16
_cell_length_a 12.000000
_cell_length_b 12.000000
_cell_length_c 12.000000
_cell_angle_alpha 70.000000
_cell_angle_beta 40.000000
_cell_angle_gamma 100.000000
_cell_volume 722.981415
_symmetry_space_group_name_H-M "P -1"
_symmetry_group_IT_number 2
_symmetry_cell_setting 'triclinic'
loop_
_space_group_symop_operation_xyz
x,y,z
-x,-y,-z
loop_
_atom_site_type_symbol
_atom_site_label
_atom_site_fract_x
_atom_site_fract_y
_atom_site_fract_z
Si Si1 0.299702 0.653899 0.571314
Si Si2 0.251635 0.843513 0.387004
Si Si3 0.799604 0.819067 0.065779
Si Si4 0.232658 0.288839 0.099832
Si Si5 0.576588 0.232473 0.926771
Si Si6 0.995290 0.163875 0.877980
Si Si7 0.533516 0.355482 0.308247
Si Si8 0.208656 0.677852 0.040585
O O1 0.317921 0.800244 0.463711
O O2 0.498191 0.666216 0.350738
O O3 0.349563 0.642852 0.666617
O O4 0.026415 0.485893 0.793943
O O5 0.305292 0.772592 0.272012
O O6 0.970636 0.757771 0.643150
O O7 0.410406 0.041086 0.170746
O O8 0.930001 0.798048 0.061889
O O9 0.896288 0.843183 0.860447
O O10 0.839112 0.969795 0.033669
O O11 0.421378 0.278331 0.004630
O O12 0.343856 0.463503 0.897373
O O13 0.768860 0.354319 0.838190
O O14 0.254453 0.262146 0.582897
O O15 0.845536 0.208423 0.950176
O O16 0.560791 0.265048 0.225521
#
# Coordination Sequence:
#
# PCOD9074236 Si02
#       8
#     2   2   2   2   2   2   2   2
#     4  11  22  47  72 103 141 178 228 285 350 409
#     4  11  25  47  70  97 136 188 233 285 335 412
#     4  10  22  44  69 101 139 184 228 281 349 406
#     4  12  24  45  72  99 138 187 226 283 350 411
#     4  11  28  47  66 100 137 189 239 277 338 405
#     4  10  24  43  67 103 143 176 227 290 342 411
#     4  11  26  44  71 111 140 175 229 285 355 418
#     4  12  25  43  71 101 141 182 226 287 342 413
#
# _framework density 22.130583000000001
#
# number of rings (size 3 to 8) (size 9 to 14) (size 15 to 20)
#    0.000    1.000    2.500    3.000    5.250    4.000 
#    0.000    2.500    0.000    0.000    0.000    0.000 
#    0.000    0.000    0.000    0.000    0.000    0.000 
#
# Total GULP energy -89328.225984 kJ/mol
# GULP energy per Si atom -5583.014124 kJ/mol
# Density = 2.208021 g / cm^3
# Si number density = 22.130583 Si / 1000 Ang^3
#
#
#
# Elastic Constant Matrix: (Units=GPa)
#
#
# Indices 1 2 3 4 5 6 
#
# 1 165.5345 58.8418 37.7401 18.5685 0.9668 -35.8543
# 2 58.8418 87.7789 36.5416 34.8290 -4.2901 -28.2802
# 3 37.7401 36.5416 77.9910 11.9390 1.6210 -8.9417
# 4 18.5685 34.8290 11.9390 34.4763 -9.1043 0.9913
# 5 0.9668 -4.2901 1.6210 -9.1043 30.0549 1.2865
# 6 -35.8543 -28.2802 -8.9417 0.9913 1.2865 45.0970
#
#
#
# Elastic Compliance Matrix: (Units=1/GPa)
#
#
# Indices 1 2 3 4 5 6 
#
# 1 0.008770 -0.002943 -0.002060 -0.001505 -0.001252 0.004787
# 2 -0.002943 0.036627 -0.008021 -0.034694 -0.005609 0.019961
# 3 -0.002060 -0.008021 0.016697 0.003308 -0.000831 -0.003406
# 4 -0.001505 -0.034694 0.003308 0.068859 0.016816 -0.024291
# 5 -0.001252 -0.005609 -0.000831 0.016816 0.037913 -0.006129
# 6 0.004787 0.019961 -0.003406 -0.024291 -0.006129 0.038532
#
#
# Mechanical properties :
#
#
# Convention : Reuss Voigt Hill
#
# Bulk Modulus (GPa) = 27.74143 66.39460 47.06802
# Shear Modulus (GPa) = 20.36996 35.13771 27.75384
#
# Velocity S-wave (km/s) = 3.03717 3.98897 3.54516
# Velocity P-wave (km/s) = 4.98616 7.16117 6.17025
#
# Compressibility (1/GPa) = 0.03604717
#
# Stress axis : x y z
#
# Youngs Moduli (GPa) = 114.02781 27.30241 59.89107
#
# Poissons Ratio (x) = 0.08035 0.12335
# Poissons Ratio (y) = 0.33557 0.48037
# Poissons Ratio (z) = 0.23484 0.21899
#
# Static dielectric constant tensor:
#      x y z
#    x 1.805570 0.023270 -0.006660 
#    y 0.023270 1.823720 -0.057780 
#    z -0.006660 -0.057780 1.920400 
# 
# From -- ./inp_files/427963.got.cif
#   From: 2010.05.17/outbox.ucp.g08.bks.cvg/sg2_214_cif.got.tgz:427963.got - 2010.06.11 11:32:03.
