data_PCOD9074492
_publ_section_title
;
Structure prediction by ZEFSAII (Michael W. Deem and Ramdas Pophale) SiO2 
 PCOD9074492
Probable space group: P -1
;
_chemical_formula_sum "Si O2"
_cell_formula_units_Z 14
_cell_length_a 6.000000
_cell_length_b 18.000000
_cell_length_c 15.000000
_cell_angle_alpha 30.000000
_cell_angle_beta 50.000000
_cell_angle_gamma 60.000000
_cell_volume 613.666794
_symmetry_space_group_name_H-M "P -1"
_symmetry_group_IT_number 2
_symmetry_cell_setting 'triclinic'
loop_
_space_group_symop_operation_xyz
x,y,z
-x,-y,-z
loop_
_atom_site_type_symbol
_atom_site_label
_atom_site_fract_x
_atom_site_fract_y
_atom_site_fract_z
Si Si1 0.923994 0.166796 0.728489
Si Si2 0.316038 0.203369 0.064090
Si Si3 0.760883 0.687129 0.674082
Si Si4 0.410000 0.331768 0.721088
Si Si5 0.078056 0.853429 0.037132
Si Si6 0.834224 0.970216 0.473459
Si Si7 0.082173 0.583464 0.982219
O O1 0.618602 0.228519 0.725777
O O2 0.148292 0.253360 0.509808
O O3 0.981092 0.177750 0.809715
O O4 0.922327 0.990574 0.901018
O O5 0.583421 0.116693 0.110121
O O6 0.444932 0.301436 0.846573
O O7 0.039672 0.081653 0.239799
O O8 0.171602 0.314825 0.046900
O O9 0.872353 0.806169 0.599216
O O10 0.886366 0.533177 0.824405
O O11 0.410353 0.668606 0.795670
O O12 0.500000 0.500000 0.500000
O O13 0.072553 0.290870 0.825249
O O14 0.500000 0.000000 0.500000
O O15 0.000000 0.000000 0.500000
O O16 0.000000 0.500000 0.000000
#
# Coordination Sequence:
#
# PCOD9074492 Si02
#       7
#     2   2   2   2   2   2   2
#     4  10  23  44  68 102 133 183 233 289 360 420
#     4  11  25  43  72 101 139 188 237 303 359 439
#     4  11  25  43  70  99 140 186 237 300 361 438
#     4  11  24  43  68 101 140 184 235 292 363 435
#     4  10  24  43  70  99 139 182 233 297 355 436
#     4  12  27  47  73 108 146 192 249 302 366 438
#     4  11  25  45  66 100 140 186 237 298 367 433
#
# _framework density 22.813683000000001
#
# number of rings (size 3 to 8) (size 9 to 14) (size 15 to 20)
#    0.000    1.143    1.429    3.000    4.000   10.286 
#    0.000    0.000    0.000    0.000    0.000    0.000 
#    0.000    0.000    0.000    0.000    0.000    0.000 
#
# Total GULP energy -77998.197849 kJ/mol
# GULP energy per Si atom -5571.299846 kJ/mol
# Density = 2.276176 g / cm^3
# Si number density = 22.813683 Si / 1000 Ang^3
#
#
#
# Elastic Constant Matrix: (Units=GPa)
#
#
# Indices 1 2 3 4 5 6 
#
# 1 58.8244 35.2565 36.3423 -3.3109 1.4690 -4.0676
# 2 35.2565 108.0276 51.5030 5.2306 -8.5131 -8.8810
# 3 36.3423 51.5030 130.5183 3.5675 13.7835 -23.3044
# 4 -3.3109 5.2306 3.5675 14.4295 13.8488 -2.5882
# 5 1.4690 -8.5131 13.7835 13.8488 20.6779 9.3235
# 6 -4.0676 -8.8810 -23.3044 -2.5882 9.3235 22.8323
#
#
#
# Elastic Compliance Matrix: (Units=1/GPa)
#
#
# Indices 1 2 3 4 5 6 
#
# 1 0.022239 -0.002506 -0.008902 -0.008504 0.014956 -0.013170
# 2 -0.002506 0.005825 0.004801 0.029227 -0.030301 0.022406
# 3 -0.008902 0.004801 0.003092 -0.039747 0.033890 -0.014907
# 4 -0.008504 0.029227 -0.039747 -0.089660 0.144154 -0.099744
# 5 0.014956 -0.030301 0.033890 0.144154 -0.126445 0.093443
# 6 -0.013170 0.022406 -0.014907 -0.099744 0.093443 -0.014513
#
#
# Mechanical properties :
#
#
# Convention : Reuss Voigt Hill
#
# Bulk Modulus (GPa) = 55.73813 60.39711 58.06762
# Shear Modulus (GPa) = -27.73641 23.20585 -2.26528
#
# Velocity S-wave (km/s) = -3.49059 3.19280 -0.99755
# Velocity P-wave (km/s) = 2.87042 6.33431 4.91746
#
# Compressibility (1/GPa) = 0.01794104
#
# Stress axis : x y z
#
# Youngs Moduli (GPa) = 44.96670 171.67642 323.45335
#
# Poissons Ratio (x) = 0.43026 2.87934
# Poissons Ratio (y) = 0.11270 -1.55290
# Poissons Ratio (z) = 0.40029 -0.82422
#
# Static dielectric constant tensor:
#      x y z
#    x 1.043450 -1.179570 0.855170 
#    y -1.179570 -0.192660 1.342700 
#    z 0.855170 1.342700 0.962840 
# 
# From -- ./inp_files/99936.got.cif
#   From: 2010.05.17/outbox.ucp.g08.bks.cvg/sg2_50_cif.got.tgz:99936.got - 2010.06.11 11:32:03.
