data_PCOD9074353
_publ_section_title
;
Structure prediction by ZEFSAII (Michael W. Deem and Ramdas Pophale) SiO2 
 PCOD9074353
Probable space group: P -1
;
_chemical_formula_sum "Si O2"
_cell_formula_units_Z 16
_cell_length_a 7.720012
_cell_length_b 17.556628
_cell_length_c 8.327743
_cell_angle_alpha 115.715968
_cell_angle_beta 83.763169
_cell_angle_gamma 56.585111
_cell_volume 752.724295
_symmetry_space_group_name_H-M "P -1"
_symmetry_group_IT_number 2
_symmetry_cell_setting 'triclinic'
loop_
_space_group_symop_operation_xyz
x,y,z
-x,-y,-z
loop_
_atom_site_type_symbol
_atom_site_label
_atom_site_fract_x
_atom_site_fract_y
_atom_site_fract_z
Si Si1 0.188359 0.977459 0.084787
Si Si2 0.140772 0.801808 0.531020
Si Si3 0.858245 0.471582 0.148469
Si Si4 0.238141 0.306147 0.737572
Si Si5 0.400556 0.544277 0.234663
Si Si6 0.675854 0.179950 0.782959
Si Si7 0.454302 0.231855 0.338544
Si Si8 0.698913 0.603786 0.776387
O O1 0.195569 0.921034 0.196308
O O2 0.435063 0.877181 0.882697
O O3 0.098104 0.098237 0.260389
O O4 0.000000 0.000000 0.000000
O O5 0.227233 0.678860 0.393490
O O6 0.155073 0.835231 0.380441
O O7 0.338668 0.789690 0.600799
O O8 0.760098 0.590930 0.189530
O O9 0.639533 0.492379 0.256663
O O10 0.067419 0.429595 0.206409
O O11 0.992916 0.372465 0.909644
O O12 0.458132 0.207836 0.734118
O O13 0.274792 0.258123 0.514145
O O14 0.287793 0.499184 0.285626
O O15 0.500000 0.500000 0.000000
O O16 0.533325 0.294501 0.006916
O O17 0.341296 0.341840 0.342374
#
# Coordination Sequence:
#
# PCOD9074353 Si02
#       8
#     2   2   2   2   2   2   2   2
#     4   9  18  29  50  78 113 143 183 241 280 326
#     4  10  18  32  50  81 110 146 193 230 274 335
#     4  10  19  35  55  81 115 151 192 227 270 339
#     4   9  16  31  52  77 107 144 187 227 267 333
#     4  12  20  35  57  83 118 147 187 239 272 334
#     4   9  15  31  50  76 106 141 189 229 270 327
#     4   9  18  34  52  81 116 145 188 231 282 337
#     4  10  21  33  56  85 116 152 179 228 290 336
#
# _framework density 21.256121
#
# number of rings (size 3 to 8) (size 9 to 14) (size 15 to 20)
#    0.000    2.250    3.750    1.875    0.000    1.000 
#    0.000    0.000    0.000    0.000    0.000   28.000 
#    0.000    2.500    0.000    0.000    0.000    0.000 
#
# Total GULP energy -89245.898191 kJ/mol
# GULP energy per Si atom -5577.868637 kJ/mol
# Density = 2.120774 g / cm^3
# Si number density = 21.256121 Si / 1000 Ang^3
#
#
#
# Elastic Constant Matrix: (Units=GPa)
#
#
# Indices 1 2 3 4 5 6 
#
# 1 56.8247 19.6002 21.2987 2.5733 -4.1348 -3.9279
# 2 19.6002 112.2745 53.0534 -4.5712 3.5232 -13.3862
# 3 21.2987 53.0534 155.2718 23.0544 1.5585 13.6176
# 4 2.5733 -4.5712 23.0544 39.1409 1.4284 9.1191
# 5 -4.1348 3.5232 1.5585 1.4284 17.5344 2.6224
# 6 -3.9279 -13.3862 13.6176 9.1191 2.6224 12.5441
#
#
#
# Elastic Compliance Matrix: (Units=1/GPa)
#
#
# Indices 1 2 3 4 5 6 
#
# 1 0.020087 -0.001433 -0.002744 -0.001955 0.004189 0.008284
# 2 -0.001433 0.016076 -0.007597 0.000662 -0.006820 0.025898
# 3 -0.002744 -0.007597 0.011579 -0.002976 0.003087 -0.020018
# 4 -0.001955 0.000662 -0.002976 0.032184 0.000052 -0.020084
# 5 0.004189 -0.006820 0.003087 0.000052 0.062463 -0.022413
# 6 0.008284 0.025898 -0.020018 -0.020084 -0.022413 0.150966
#
#
# Mechanical properties :
#
#
# Convention : Reuss Voigt Hill
#
# Bulk Modulus (GPa) = 41.33519 56.91952 49.12736
# Shear Modulus (GPa) = 15.38615 29.20514 22.29564
#
# Velocity S-wave (km/s) = 2.69336 3.71072 3.24219
# Velocity P-wave (km/s) = 5.40006 6.72275 6.09738
#
# Compressibility (1/GPa) = 0.02419246
#
# Stress axis : x y z
#
# Youngs Moduli (GPa) = 49.78402 62.20600 86.36313
#
# Poissons Ratio (x) = 0.08916 0.23697
# Poissons Ratio (y) = 0.07136 0.65612
# Poissons Ratio (z) = 0.13660 0.47259
#
# Static dielectric constant tensor:
#      x y z
#    x 1.760970 -0.041430 0.018380 
#    y -0.041430 1.770120 -0.005680 
#    z 0.018380 -0.005680 1.868850 
# 
# From -- ./inp_files/218017.got.cif
#   From: 2010.05.17/outbox.cif.g08.bks.cpg/sg2_110_cif.got.tgz:218017.got - 2010.06.03 11:33:40.
