data_PCOD9074542
_publ_section_title
;
Structure prediction by ZEFSAII (Michael W. Deem and Ramdas Pophale) SiO2 
 PCOD9074542
Probable space group: P -1
;
_chemical_formula_sum "Si O2"
_cell_formula_units_Z 16
_cell_length_a 15.000000
_cell_length_b 9.000000
_cell_length_c 9.000000
_cell_angle_alpha 70.000000
_cell_angle_beta 40.000000
_cell_angle_gamma 70.000000
_cell_volume 727.419504
_symmetry_space_group_name_H-M "P -1"
_symmetry_group_IT_number 2
_symmetry_cell_setting 'triclinic'
loop_
_space_group_symop_operation_xyz
x,y,z
-x,-y,-z
loop_
_atom_site_type_symbol
_atom_site_label
_atom_site_fract_x
_atom_site_fract_y
_atom_site_fract_z
Si Si1 0.519052 0.148797 0.215140
Si Si2 0.891307 0.806565 0.135985
Si Si3 0.346594 0.569363 0.112550
Si Si4 0.919493 0.476962 0.338575
Si Si5 0.936544 0.099680 0.394188
Si Si6 0.770880 0.600993 0.935082
Si Si7 0.618878 0.807562 0.320838
Si Si8 0.765139 0.858068 0.596994
O O1 0.480479 0.225791 0.402726
O O2 0.385505 0.164720 0.270301
O O3 0.553942 0.959878 0.257935
O O4 0.644017 0.241067 0.964277
O O5 0.904995 0.611395 0.181513
O O6 0.741897 0.869038 0.237249
O O7 0.875203 0.826996 0.328612
O O8 0.986894 0.894087 0.871157
O O9 0.222790 0.503085 0.387343
O O10 0.320313 0.511205 0.000120
O O11 0.500000 0.500000 0.000000
O O12 0.927680 0.287543 0.368328
O O13 0.073205 0.489519 0.205319
O O14 0.793389 0.029764 0.563107
O O15 0.000000 0.000000 0.500000
O O16 0.790779 0.743547 0.745997
O O17 0.690393 0.673097 0.161571
#
# Coordination Sequence:
#
# PCOD9074542 Si02
#       8
#     2   2   2   2   2   2   2   2
#     4  10  24  46  69  99 142 194 232 292 358 421
#     4  11  23  47  68  99 150 180 228 298 355 421
#     4  12  25  45  70 100 142 196 235 286 355 426
#     4  12  26  45  72 107 146 187 236 294 360 410
#     4  12  25  42  72 106 136 184 235 291 360 418
#     4  12  24  44  73 105 142 184 243 298 344 423
#     4  10  23  45  70  98 144 181 240 300 346 414
#     4  11  23  44  68 105 141 183 239 291 352 422
#
# _framework density 21.995560999999999
#
# number of rings (size 3 to 8) (size 9 to 14) (size 15 to 20)
#    0.000    0.750    5.000    1.875    3.500    2.000 
#    6.750    0.000    0.000    0.000    0.000    0.000 
#    0.000    0.000    0.000    0.000    0.000    0.000 
#
# Total GULP energy -89081.776378 kJ/mol
# GULP energy per Si atom -5567.611024 kJ/mol
# Density = 2.194550 g / cm^3
# Si number density = 21.995561 Si / 1000 Ang^3
#
#
#
# Elastic Constant Matrix: (Units=GPa)
#
#
# Indices 1 2 3 4 5 6 
#
# 1 90.4883 37.0298 33.6640 2.1033 -2.9987 -1.9705
# 2 37.0298 64.6827 21.6608 -15.3084 -12.8334 3.7352
# 3 33.6640 21.6608 105.4133 -12.0703 -0.9945 2.8200
# 4 2.1033 -15.3084 -12.0703 46.4770 0.8946 0.3354
# 5 -2.9987 -12.8334 -0.9945 0.8946 35.7583 -7.5576
# 6 -1.9705 3.7352 2.8200 0.3354 -7.5576 44.5163
#
#
#
# Elastic Compliance Matrix: (Units=1/GPa)
#
#
# Indices 1 2 3 4 5 6 
#
# 1 0.016620 -0.009826 -0.003917 -0.004983 -0.001791 0.001542
# 2 -0.009826 0.024944 -0.000934 0.008280 0.007634 -0.001235
# 3 -0.003917 -0.000934 0.011271 0.002815 -0.000618 -0.000935
# 4 -0.004983 0.008280 0.002815 0.025172 0.001795 -0.000978
# 5 -0.001791 0.007634 -0.000618 0.001795 0.031476 0.004650
# 6 0.001542 -0.001235 -0.000935 -0.000978 0.004650 0.023492
#
#
# Mechanical properties :
#
#
# Convention : Reuss Voigt Hill
#
# Bulk Modulus (GPa) = 42.59132 49.47705 46.03419
# Shear Modulus (GPa) = 29.38482 36.56563 32.97522
#
# Velocity S-wave (km/s) = 3.65902 4.08169 3.87612
# Velocity P-wave (km/s) = 6.10384 6.69003 6.40365
#
# Compressibility (1/GPa) = 0.02347896
#
# Stress axis : x y z
#
# Youngs Moduli (GPa) = 60.16994 40.08981 88.72387
#
# Poissons Ratio (x) = 0.39394 0.34753
# Poissons Ratio (y) = 0.59125 0.08290
# Poissons Ratio (z) = 0.23569 0.03746
#
# Static dielectric constant tensor:
#      x y z
#    x 1.789940 0.034090 0.022930 
#    y 0.034090 1.935710 0.067870 
#    z 0.022930 0.067870 1.915890 
# 
# From -- ./inp_files/297755.got.cif
#   From: 2010.05.17/outbox.ucp.g08.bks.cvg/sg2_149_cif.got.tgz:297755.got - 2010.06.11 11:32:03.
