data_PCOD9074976
_publ_section_title
;
Structure prediction by ZEFSAII (Michael W. Deem and Ramdas Pophale) SiO2 
 PCOD9074976
Probable space group: P -1
;
_chemical_formula_sum "Si O2"
_cell_formula_units_Z 14
_cell_length_a 18.000000
_cell_length_b 12.000000
_cell_length_c 9.000000
_cell_angle_alpha 40.000000
_cell_angle_beta 130.000000
_cell_angle_gamma 150.000000
_cell_volume 623.501542
_symmetry_space_group_name_H-M "P -1"
_symmetry_group_IT_number 2
_symmetry_cell_setting 'triclinic'
loop_
_space_group_symop_operation_xyz
x,y,z
-x,-y,-z
loop_
_atom_site_type_symbol
_atom_site_label
_atom_site_fract_x
_atom_site_fract_y
_atom_site_fract_z
Si Si1 0.909095 0.214848 0.811115
Si Si2 0.965667 0.311083 0.335850
Si Si3 0.567264 0.198771 0.238286
Si Si4 0.548801 0.605860 0.283066
Si Si5 0.321935 0.014140 0.501392
Si Si6 0.102089 0.987018 0.712530
Si Si7 0.895393 0.709177 0.224656
O O1 0.933341 0.400301 0.767425
O O2 0.049544 0.380386 0.714095
O O3 0.765535 0.057053 0.689893
O O4 0.908029 0.049812 0.087005
O O5 0.046288 0.258447 0.572020
O O6 0.800879 0.118165 0.391506
O O7 0.957488 0.257444 0.209154
O O8 0.721039 0.493384 0.194946
O O9 0.500000 0.000000 0.500000
O O10 0.615051 0.097316 0.301203
O O11 0.483376 0.243520 0.990172
O O12 0.500000 0.500000 0.500000
O O13 0.451994 0.331811 0.351941
O O14 0.720928 0.781562 0.322538
O O15 0.000000 0.000000 0.500000
O O16 0.000000 0.000000 0.000000
#
# Coordination Sequence:
#
# PCOD9074976 Si02
#       7
#     2   2   2   2   2   2   2
#     4  11  22  43  72 107 143 192 256 308 369 452
#     4  11  21  44  72 103 144 189 246 310 371 457
#     4  12  26  46  79 114 153 201 264 320 386 458
#     4  12  29  50  74 112 159 200 256 317 395 466
#     4  11  23  49  79 105 151 200 256 314 382 457
#     4  12  28  46  70 107 150 195 251 315 384 451
#     4  11  22  40  75 107 142 198 256 310 380 455
#
# _framework density 22.453834000000001
#
# number of rings (size 3 to 8) (size 9 to 14) (size 15 to 20)
#    0.000    0.571    4.286    4.714    2.000    5.143 
#    2.571    0.000    0.000    0.000    0.000    0.000 
#    0.000    0.000    0.000    0.000    0.000    0.000 
#
# Total GULP energy -78035.011832 kJ/mol
# GULP energy per Si atom -5573.929417 kJ/mol
# Density = 2.240273 g / cm^3
# Si number density = 22.453834 Si / 1000 Ang^3
#
#
#
# Elastic Constant Matrix: (Units=GPa)
#
#
# Indices 1 2 3 4 5 6 
#
# 1 82.8914 42.8571 49.1933 19.9985 9.2396 -5.8422
# 2 42.8571 120.1996 46.7075 10.7345 11.4888 2.9687
# 3 49.1933 46.7075 163.3032 23.4747 14.0577 6.7195
# 4 19.9985 10.7345 23.4747 31.8456 -8.5755 12.6915
# 5 9.2396 11.4888 14.0577 -8.5755 51.9426 9.6543
# 6 -5.8422 2.9687 6.7195 12.6915 9.6543 39.8766
#
#
#
# Elastic Compliance Matrix: (Units=1/GPa)
#
#
# Indices 1 2 3 4 5 6 
#
# 1 0.021467 -0.004826 -0.002666 -0.015907 -0.006630 0.010621
# 2 -0.004826 0.010679 -0.001636 0.001025 -0.000632 -0.001400
# 3 -0.002666 -0.001636 0.008227 -0.004565 -0.002206 0.000332
# 4 -0.015907 0.001025 -0.004565 0.059255 0.018252 -0.024916
# 5 -0.006630 -0.000632 -0.002206 0.018252 0.026559 -0.012792
# 6 0.010621 -0.001400 0.000332 -0.024916 -0.012792 0.037709
#
#
# Mechanical properties :
#
#
# Convention : Reuss Voigt Hill
#
# Bulk Modulus (GPa) = 45.21386 71.54559 58.37972
# Shear Modulus (GPa) = 26.38179 39.90871 33.14525
#
# Velocity S-wave (km/s) = 3.43145 4.22046 3.84624
# Velocity P-wave (km/s) = 5.98998 7.46206 6.76617
#
# Compressibility (1/GPa) = 0.02211711
#
# Stress axis : x y z
#
# Youngs Moduli (GPa) = 46.58367 93.63839 121.55007
#
# Poissons Ratio (x) = 0.45190 0.32405
# Poissons Ratio (y) = 0.22482 0.19886
# Poissons Ratio (z) = 0.12419 0.15319
#
# Static dielectric constant tensor:
#      x y z
#    x 1.915930 -0.035520 -0.007610 
#    y -0.035520 1.811020 0.000160 
#    z -0.007610 0.000160 1.705640 
# 
# From -- ./inp_files/261330.got.cif
#   From: 2010.05.17/outbox.ucp.g08.bks.cvg/sg2_131_cif.got.tgz:261330.got - 2010.06.11 11:32:03.
