data_PCOD9074779
_publ_section_title
;
Structure prediction by ZEFSAII (Michael W. Deem and Ramdas Pophale) SiO2 
 PCOD9074779
Probable space group: P -1
;
_chemical_formula_sum "Si O2"
_cell_formula_units_Z 16
_cell_length_a 9.000000
_cell_length_b 12.000000
_cell_length_c 9.000000
_cell_angle_alpha 80.000000
_cell_angle_beta 130.000000
_cell_angle_gamma 90.000000
_cell_volume 725.212580
_symmetry_space_group_name_H-M "P -1"
_symmetry_group_IT_number 2
_symmetry_cell_setting 'triclinic'
loop_
_space_group_symop_operation_xyz
x,y,z
-x,-y,-z
loop_
_atom_site_type_symbol
_atom_site_label
_atom_site_fract_x
_atom_site_fract_y
_atom_site_fract_z
Si Si1 0.977783 0.128101 0.622983
Si Si2 0.713970 0.991744 0.908697
Si Si3 0.801831 0.783942 0.786466
Si Si4 0.254458 0.410963 0.978813
Si Si5 0.465476 0.414480 0.808534
Si Si6 0.164088 0.616574 0.407676
Si Si7 0.272322 0.062046 0.566491
Si Si8 0.747790 0.250654 0.850482
O O1 0.095489 0.112932 0.548428
O O2 0.908744 0.263653 0.577813
O O3 0.801966 0.051247 0.525534
O O4 0.139461 0.064605 0.856424
O O5 0.481188 0.017274 0.786514
O O6 0.760298 0.115710 0.859127
O O7 0.753702 0.896647 0.830193
O O8 0.711260 0.834400 0.561999
O O9 0.724457 0.682331 0.853302
O O10 0.038047 0.745724 0.937385
O O11 0.382065 0.377508 0.920268
O O12 0.030291 0.427442 0.773561
O O13 0.343348 0.521943 0.063089
O O14 0.301718 0.512391 0.604338
O O15 0.555193 0.299617 0.808069
O O16 0.266909 0.667604 0.321610
#
# Coordination Sequence:
#
# PCOD9074779 Si02
#       8
#     2   2   2   2   2   2   2   2
#     4  11  24  45  67 108 148 175 228 288 348 406
#     4  12  23  44  72 101 143 181 226 280 355 409
#     4  11  23  46  71 102 143 182 225 289 350 408
#     4  10  25  46  70  97 135 185 227 290 341 397
#     4  11  26  46  68 102 134 183 237 283 337 410
#     4  11  24  45  73  96 139 185 226 288 340 415
#     4  11  26  39  69 112 137 185 226 279 350 425
#     4  11  24  43  71 102 140 179 228 289 338 411
#
# _framework density 22.062495999999999
#
# number of rings (size 3 to 8) (size 9 to 14) (size 15 to 20)
#    0.000    1.000    3.750    2.625    5.250    5.000 
#    2.250    0.000    0.000    0.000    0.000    0.000 
#    0.000    0.000    0.000    0.000    0.000    0.000 
#
# Total GULP energy -89413.857027 kJ/mol
# GULP energy per Si atom -5588.366064 kJ/mol
# Density = 2.201228 g / cm^3
# Si number density = 22.062496 Si / 1000 Ang^3
#
#
#
# Elastic Constant Matrix: (Units=GPa)
#
#
# Indices 1 2 3 4 5 6 
#
# 1 58.2974 31.1792 15.8341 -7.1632 0.5173 9.8945
# 2 31.1792 28.1971 20.1992 -12.5010 8.4340 -0.7570
# 3 15.8341 20.1992 57.2876 -6.5621 8.0331 2.6676
# 4 -7.1632 -12.5010 -6.5621 35.5285 3.8723 8.0898
# 5 0.5173 8.4340 8.0331 3.8723 39.1416 -3.2077
# 6 9.8945 -0.7570 2.6676 8.0898 -3.2077 38.9020
#
#
#
# Elastic Compliance Matrix: (Units=1/GPa)
#
#
# Indices 1 2 3 4 5 6 
#
# 1 0.061042 -0.086762 0.010366 -0.014997 0.016140 -0.013475
# 2 -0.086762 0.183194 -0.031828 0.041110 -0.034517 0.016420
# 3 0.010366 -0.031828 0.025370 -0.003655 0.001539 -0.004109
# 4 -0.014997 0.041110 -0.003655 0.041345 -0.012390 -0.004755
# 5 0.016140 -0.034517 0.001539 -0.012390 0.033721 0.000475
# 6 -0.013475 0.016420 -0.004109 -0.004755 0.000475 0.030762
#
#
# Mechanical properties :
#
#
# Convention : Reuss Voigt Hill
#
# Bulk Modulus (GPa) = 18.81172 30.91190 24.86181
# Shear Modulus (GPa) = 8.20210 27.81905 18.01057
#
# Velocity S-wave (km/s) = 1.93022 3.55480 2.86027
# Velocity P-wave (km/s) = 3.67597 5.55790 4.71184
#
# Compressibility (1/GPa) = 0.05315836
#
# Stress axis : x y z
#
# Youngs Moduli (GPa) = 16.38218 5.45871 39.41734
#
# Poissons Ratio (x) = 0.47361 -0.40861
# Poissons Ratio (y) = 1.42135 1.25456
# Poissons Ratio (z) = -0.16982 0.17374
#
# Static dielectric constant tensor:
#      x y z
#    x 1.839170 0.003670 -0.035600 
#    y 0.003670 1.791820 0.075060 
#    z -0.035600 0.075060 1.837310 
# 
# From -- ./inp_files/187028.got.cif
#   From: 2010.05.17/outbox.ucp.g08.bks.cvg/sg2_94_cif.got.tgz:187028.got - 2010.06.11 11:32:03.
