data_PCOD9074530
_publ_section_title
;
Structure prediction by ZEFSAII (Michael W. Deem and Ramdas Pophale) SiO2 
 PCOD9074530
Probable space group: P -1
;
_chemical_formula_sum "Si O2"
_cell_formula_units_Z 12
_cell_length_a 9.000000
_cell_length_b 9.000000
_cell_length_c 9.000000
_cell_angle_alpha 50.000000
_cell_angle_beta 80.000000
_cell_angle_gamma 70.000000
_cell_volume 523.686142
_symmetry_space_group_name_H-M "P -1"
_symmetry_group_IT_number 2
_symmetry_cell_setting 'triclinic'
loop_
_space_group_symop_operation_xyz
x,y,z
-x,-y,-z
loop_
_atom_site_type_symbol
_atom_site_label
_atom_site_fract_x
_atom_site_fract_y
_atom_site_fract_z
Si Si1 0.020280 0.350809 0.948912
Si Si2 0.877274 0.175512 0.321676
Si Si3 0.738638 0.453659 0.720898
Si Si4 0.523871 0.194780 0.291458
Si Si5 0.547284 0.185459 0.943504
Si Si6 0.740034 0.554779 0.315113
O O1 0.894761 0.454493 0.779798
O O2 0.185702 0.283248 0.879030
O O3 0.965264 0.179756 0.148383
O O4 0.000000 0.500000 0.000000
O O5 0.704551 0.174051 0.306750
O O6 0.836447 0.359534 0.330067
O O7 0.000000 0.000000 0.500000
O O8 0.597797 0.605865 0.743677
O O9 0.714709 0.229887 0.872299
O O10 0.750005 0.529015 0.504252
O O11 0.500000 0.000000 0.500000
O O12 0.500522 0.196547 0.117527
O O13 0.440358 0.378393 0.744822
O O14 0.500000 0.000000 0.000000
#
# Coordination Sequence:
#
# PCOD9074530 Si02
#       6
#     2   2   2   2   2   2
#     4  10  23  45  69 100 138 186 230 284 351 420
#     4  11  25  45  70 103 144 187 233 288 355 424
#     4  12  24  48  74 103 144 186 238 294 357 419
#     4  12  26  43  74 105 141 188 239 290 356 425
#     4  12  26  46  72 106 143 182 241 297 352 418
#     4  11  25  44  73 104 142 186 232 295 354 420
#
# _framework density 22.914487999999999
#
# number of rings (size 3 to 8) (size 9 to 14) (size 15 to 20)
#    0.000    0.667    3.333    4.500    9.333    0.000 
#    3.000    1.667    0.000    0.000    0.000    0.000 
#    0.000    0.000    0.000    0.000    0.000    0.000 
#
# Total GULP energy -66902.019978 kJ/mol
# GULP energy per Si atom -5575.168331 kJ/mol
# Density = 2.286233 g / cm^3
# Si number density = 22.914488 Si / 1000 Ang^3
#
#
#
# Elastic Constant Matrix: (Units=GPa)
#
#
# Indices 1 2 3 4 5 6 
#
# 1 95.1572 52.3552 50.6183 21.1633 6.2228 23.6187
# 2 52.3552 90.0846 37.2408 24.6688 8.1567 11.0019
# 3 50.6183 37.2408 112.7460 60.0175 18.9441 2.6756
# 4 21.1633 24.6688 60.0175 53.2314 -0.0182 9.8411
# 5 6.2228 8.1567 18.9441 -0.0182 48.8300 8.6726
# 6 23.6187 11.0019 2.6756 9.8411 8.6726 19.7517
#
#
#
# Elastic Compliance Matrix: (Units=1/GPa)
#
#
# Indices 1 2 3 4 5 6 
#
# 1 0.113752 -0.036331 -0.134529 0.163027 0.081972 -0.214782
# 2 -0.036331 0.025406 0.038318 -0.051828 -0.025342 0.061052
# 3 -0.134529 0.038318 0.194877 -0.236011 -0.114886 0.281161
# 4 0.163027 -0.051828 -0.236011 0.308889 0.141768 -0.350254
# 5 0.081972 -0.025342 -0.114886 0.141768 0.090642 -0.178776
# 6 -0.214782 0.061052 0.281161 -0.350254 -0.178776 0.488376
#
#
# Mechanical properties :
#
#
# Convention : Reuss Voigt Hill
#
# Bulk Modulus (GPa) = 14.50319 64.26849 39.38584
# Shear Modulus (GPa) = 3.31124 34.88087 19.09606
#
# Velocity S-wave (km/s) = 1.20340 3.90580 2.88993
# Velocity P-wave (km/s) = 2.87644 6.96048 5.32551
#
# Compressibility (1/GPa) = 0.06895036
#
# Stress axis : x y z
#
# Youngs Moduli (GPa) = 8.79105 39.36126 5.13144
#
# Poissons Ratio (x) = 1.43002 0.69033
# Poissons Ratio (y) = 0.31938 -0.19662
# Poissons Ratio (z) = 1.18266 -1.50823
#
# Static dielectric constant tensor:
#      x y z
#    x 2.390910 0.064910 -0.033900 
#    y 0.064910 1.917300 -0.155290 
#    z -0.033900 -0.155290 1.943500 
# 
# From -- ./inp_files/148779.got.cif
#   From: 2010.05.17/outbox.ucp.g08.bks.cvg/sg2_75_cif.got.tgz:148779.got - 2010.06.11 11:32:03.
