data_PCOD9074054
_publ_section_title
;
Structure prediction by ZEFSAII (Michael W. Deem and Ramdas Pophale) SiO2 
 PCOD9074054
Probable space group: P -1
;
_chemical_formula_sum "Si O2"
_cell_formula_units_Z 16
_cell_length_a 9.000000
_cell_length_b 18.000000
_cell_length_c 21.000000
_cell_angle_alpha 20.000000
_cell_angle_beta 40.000000
_cell_angle_gamma 40.000000
_cell_volume 731.217405
_symmetry_space_group_name_H-M "P -1"
_symmetry_group_IT_number 2
_symmetry_cell_setting 'triclinic'
loop_
_space_group_symop_operation_xyz
x,y,z
-x,-y,-z
loop_
_atom_site_type_symbol
_atom_site_label
_atom_site_fract_x
_atom_site_fract_y
_atom_site_fract_z
Si Si1 0.718164 0.566926 0.034180
Si Si2 0.345084 0.221396 0.746159
Si Si3 0.869484 0.401886 0.931712
Si Si4 0.452459 0.773460 0.728329
Si Si5 0.678487 0.312133 0.675132
Si Si6 0.974691 0.051872 0.078538
Si Si7 0.524918 0.056221 0.692236
Si Si8 0.358270 0.498246 0.746364
O O1 0.616050 0.384538 0.176625
O O2 0.608472 0.583905 0.126729
O O3 0.000000 0.500000 0.000000
O O4 0.654495 0.810547 0.828633
O O5 0.484062 0.252710 0.739544
O O6 0.241914 0.470126 0.553541
O O7 0.536257 0.109574 0.720807
O O8 0.148231 0.083307 0.938810
O O9 0.683461 0.634856 0.799751
O O10 0.111314 0.448579 0.842579
O O11 0.759247 0.229045 0.149874
O O12 0.898867 0.295429 0.937873
O O13 0.500000 0.000000 0.500000
O O14 0.558061 0.377821 0.729718
O O15 0.879595 0.100079 0.792384
O O16 0.752682 0.943359 0.224495
O O17 0.624050 0.243893 0.471518
#
# Coordination Sequence:
#
# PCOD9074054 Si02
#       8
#     2   2   2   2   2   2   2   2
#     4  12  26  45  67  99 128 171 222 272 335 393
#     4  10  22  41  66  97 135 174 224 262 320 398
#     4  11  25  45  68 101 132 169 223 272 329 397
#     4  11  27  48  70  97 131 173 219 274 336 395
#     4  10  23  41  66 100 131 180 221 259 326 392
#     4  12  23  41  68  95 138 172 215 279 323 383
#     4  11  27  43  64 100 136 173 218 276 330 383
#     4  11  25  44  67  97 136 175 217 271 325 393
#
# _framework density 21.881316999999999
#
# number of rings (size 3 to 8) (size 9 to 14) (size 15 to 20)
#    0.000    1.000    3.750    1.500    5.250    4.500 
#    0.000    0.000    0.000    0.000    0.000    0.000 
#    0.000    0.000    0.000    0.000    0.000    0.000 
#
# Total GULP energy -89449.995684 kJ/mol
# GULP energy per Si atom -5590.624730 kJ/mol
# Density = 2.183151 g / cm^3
# Si number density = 21.881317 Si / 1000 Ang^3
#
#
#
# Elastic Constant Matrix: (Units=GPa)
#
#
# Indices 1 2 3 4 5 6 
#
# 1 32.1585 9.0710 9.8338 7.2094 -6.8933 8.3455
# 2 9.0710 37.8152 26.8862 -7.3183 13.5367 -6.9088
# 3 9.8338 26.8862 136.6548 -5.0181 -7.2774 -18.4789
# 4 7.2094 -7.3183 -5.0181 24.9319 7.0741 -2.4697
# 5 -6.8933 13.5367 -7.2774 7.0741 29.2490 1.8317
# 6 8.3455 -6.9088 -18.4789 -2.4697 1.8317 30.7566
#
#
#
# Elastic Compliance Matrix: (Units=1/GPa)
#
#
# Indices 1 2 3 4 5 6 
#
# 1 0.120305 -0.100470 0.003927 -0.099678 0.104136 -0.067058
# 2 -0.100470 0.134904 -0.012901 0.106342 -0.119141 0.065448
# 3 0.003927 -0.012901 0.010063 -0.005853 0.010755 0.000972
# 4 -0.099678 0.106342 -0.005853 0.137015 -0.111376 0.065053
# 5 0.104136 -0.119141 0.010755 -0.111376 0.147636 -0.066293
# 6 -0.067058 0.065448 0.000972 0.065053 -0.066293 0.075166
#
#
# Mechanical properties :
#
#
# Convention : Reuss Voigt Hill
#
# Bulk Modulus (GPa) = 21.55963 33.13452 27.34707
# Shear Modulus (GPa) = 5.81776 27.70999 16.76388
#
# Velocity S-wave (km/s) = 1.63235 3.56248 2.77090
# Velocity P-wave (km/s) = 3.66430 5.66546 4.77098
#
# Compressibility (1/GPa) = 0.04638299
#
# Stress axis : x y z
#
# Youngs Moduli (GPa) = 8.31221 7.41268 99.37787
#
# Poissons Ratio (x) = 0.74475 -0.39029
# Poissons Ratio (y) = 0.83513 1.28212
# Poissons Ratio (z) = -0.03264 0.09563
#
# Static dielectric constant tensor:
#      x y z
#    x 1.795630 0.023750 0.017500 
#    y 0.023750 1.863600 -0.037570 
#    z 0.017500 -0.037570 1.775510 
# 
# From -- ./inp_files/307396.got.cif
#   From: 2010.05.17/outbox.ucp.g08.bks.cvg/sg2_154_cif.got.tgz:307396.got - 2010.06.11 11:32:03.
