data_PCOD9074541
_publ_section_title
;
Structure prediction by ZEFSAII (Michael W. Deem and Ramdas Pophale) SiO2 
 PCOD9074541
Probable space group: P -1
;
_chemical_formula_sum "Si O2"
_cell_formula_units_Z 16
_cell_length_a 12.000000
_cell_length_b 9.000000
_cell_length_c 21.000000
_cell_angle_alpha 130.000000
_cell_angle_beta 140.000000
_cell_angle_gamma 30.000000
_cell_volume 727.418465
_symmetry_space_group_name_H-M "P -1"
_symmetry_group_IT_number 2
_symmetry_cell_setting 'triclinic'
loop_
_space_group_symop_operation_xyz
x,y,z
-x,-y,-z
loop_
_atom_site_type_symbol
_atom_site_label
_atom_site_fract_x
_atom_site_fract_y
_atom_site_fract_z
Si Si1 0.372784 0.527800 0.056148
Si Si2 0.061668 0.406043 0.074426
Si Si3 0.259896 0.566748 0.273039
Si Si4 0.489049 0.275850 0.423426
Si Si5 0.082843 0.143071 0.399619
Si Si6 0.490985 0.582892 0.257534
Si Si7 0.893985 0.729913 0.700204
Si Si8 0.524424 0.756258 0.110869
O O1 0.522355 0.447239 0.165999
O O2 0.349370 0.758158 0.077541
O O3 0.486134 0.312263 0.985662
O O4 0.120415 0.618109 0.991567
O O5 0.025411 0.620237 0.163751
O O6 0.369835 0.088584 0.132095
O O7 0.000000 0.500000 0.000000
O O8 0.449954 0.305552 0.337621
O O9 0.398485 0.515935 0.253996
O O10 0.144027 0.865742 0.332843
O O11 0.500000 0.500000 0.500000
O O12 0.241551 0.359718 0.365144
O O13 0.732173 0.979960 0.490784
O O14 0.117247 0.229510 0.370909
O O15 0.774227 0.428124 0.359497
O O16 0.278474 0.940045 0.257842
O O17 0.185241 0.490193 0.795913
#
# Coordination Sequence:
#
# PCOD9074541 Si02
#       8
#     2   2   2   2   2   2   2   2
#     4  11  25  42  65  95 137 175 229 271 322 390
#     4  12  26  43  67 100 139 177 222 269 332 398
#     4  10  24  43  66 100 137 177 219 276 330 398
#     4  10  23  45  70  98 136 172 218 277 336 400
#     4  10  23  45  72  96 133 179 223 277 334 382
#     4  11  24  41  69  96 134 180 224 276 322 394
#     4  11  24  44  69 100 132 172 226 276 331 394
#     4  11  27  41  69  98 132 181 223 275 328 391
#
# _framework density 21.995591999999998
#
# number of rings (size 3 to 8) (size 9 to 14) (size 15 to 20)
#    0.000    1.250    2.500    1.500    8.750    4.500 
#    0.000    2.500    0.000    0.000    0.000    0.000 
#    0.000    0.000    0.000    0.000    0.000    0.000 
#
# Total GULP energy -89293.033098 kJ/mol
# GULP energy per Si atom -5580.814569 kJ/mol
# Density = 2.194553 g / cm^3
# Si number density = 21.995592 Si / 1000 Ang^3
#
#
#
# Elastic Constant Matrix: (Units=GPa)
#
#
# Indices 1 2 3 4 5 6 
#
# 1 129.8112 51.9007 59.8092 -21.8085 3.1450 22.4172
# 2 51.9007 62.3352 20.7079 -12.3425 -3.6331 18.7332
# 3 59.8092 20.7079 119.5218 -9.3143 -7.3794 16.3063
# 4 -21.8085 -12.3425 -9.3143 19.8868 6.7987 1.6443
# 5 3.1450 -3.6331 -7.3794 6.7987 48.4228 -0.0197
# 6 22.4172 18.7332 16.3063 1.6443 -0.0197 19.2680
#
#
#
# Elastic Compliance Matrix: (Units=1/GPa)
#
#
# Indices 1 2 3 4 5 6 
#
# 1 0.017099 -0.006915 -0.005138 0.014402 -0.004439 -0.010056
# 2 -0.006915 0.032053 0.002844 0.015485 0.001102 -0.026846
# 3 -0.005138 0.002844 0.011602 0.001397 0.002116 -0.006723
# 4 0.014402 0.015485 0.001397 0.083527 -0.011304 -0.040134
# 5 -0.004439 0.001102 0.002116 -0.011304 0.022933 0.003289
# 6 -0.010056 -0.026846 -0.006723 -0.040134 0.003289 0.098818
#
#
# Mechanical properties :
#
#
# Convention : Reuss Voigt Hill
#
# Bulk Modulus (GPa) = 23.62042 64.05599 43.83821
# Shear Modulus (GPa) = 16.74691 29.46554 23.10623
#
# Velocity S-wave (km/s) = 2.76230 3.66404 3.24465
# Velocity P-wave (km/s) = 4.57556 6.86190 5.83187
#
# Compressibility (1/GPa) = 0.04233625
#
# Stress axis : x y z
#
# Youngs Moduli (GPa) = 58.48145 31.19835 86.19365
#
# Poissons Ratio (x) = 0.21574 0.44288
# Poissons Ratio (y) = 0.40440 -0.24515
# Poissons Ratio (z) = 0.30049 -0.08874
#
# Static dielectric constant tensor:
#      x y z
#    x 1.796990 -0.009840 0.009520 
#    y -0.009840 1.818480 0.006920 
#    z 0.009520 0.006920 1.826070 
# 
# From -- ./inp_files/346541.got.cif
#   From: 2010.05.17/outbox.ucp.g08.bks.cvg/sg2_174_cif.got.tgz:346541.got - 2010.06.11 11:32:03.
