data_PCOD9074196
_publ_section_title
;
Structure prediction by ZEFSAII (Michael W. Deem and Ramdas Pophale) SiO2 
 PCOD9074196
Probable space group: P -1
;
_chemical_formula_sum "Si O2"
_cell_formula_units_Z 16
_cell_length_a 12.000000
_cell_length_b 6.000000
_cell_length_c 12.000000
_cell_angle_alpha 100.000000
_cell_angle_beta 120.000000
_cell_angle_gamma 90.000000
_cell_volume 733.050061
_symmetry_space_group_name_H-M "P -1"
_symmetry_group_IT_number 2
_symmetry_cell_setting 'triclinic'
loop_
_space_group_symop_operation_xyz
x,y,z
-x,-y,-z
loop_
_atom_site_type_symbol
_atom_site_label
_atom_site_fract_x
_atom_site_fract_y
_atom_site_fract_z
Si Si1 0.446862 0.756632 0.012533
Si Si2 0.491855 0.489325 0.361651
Si Si3 0.149348 0.119180 0.579703
Si Si4 0.190685 0.430845 0.173529
Si Si5 0.166117 0.528373 0.797315
Si Si6 0.074919 0.222217 0.314964
Si Si7 0.019802 0.243308 0.895748
Si Si8 0.428688 0.033863 0.687161
O O1 0.481478 0.841623 0.161166
O O2 0.500000 0.500000 0.000000
O O3 0.297007 0.687882 0.901041
O O4 0.500000 0.000000 0.000000
O O5 0.500000 0.500000 0.500000
O O6 0.343322 0.472146 0.241183
O O7 0.555791 0.744528 0.373175
O O8 0.534768 0.229336 0.335910
O O9 0.175626 0.323766 0.698117
O O10 0.155363 0.203563 0.463649
O O11 0.276996 0.987740 0.643205
O O12 0.000000 0.000000 0.500000
O O13 0.157038 0.375622 0.279948
O O14 0.108309 0.641428 0.121701
O O15 0.117137 0.225774 0.046049
O O16 0.105793 0.411360 0.869535
O O17 0.055844 0.672789 0.709362
O O18 0.028583 0.982415 0.213950
#
# Coordination Sequence:
#
# PCOD9074196 Si02
#       8
#     2   2   2   2   2   2   2   2
#     4  12  27  48  76 105 152 199 251 309 367 450
#     4  12  28  49  78 107 151 194 250 313 377 451
#     4  12  26  46  73 104 151 190 245 303 372 448
#     4  10  24  43  69 101 139 185 242 306 362 429
#     4  11  25  44  71 108 143 194 240 306 375 439
#     4  11  24  40  72 103 139 188 241 297 365 445
#     4  10  22  43  69 103 141 182 245 296 369 433
#     4  12  29  49  75 112 146 203 252 305 379 451
#
# _framework density 21.826612999999998
#
# number of rings (size 3 to 8) (size 9 to 14) (size 15 to 20)
#    0.000    0.750    2.500    3.375    8.750    1.000 
#    0.000    0.000    0.000    0.000    0.000    0.000 
#    0.000    0.000    0.000    0.000    0.000    0.000 
#
# Total GULP energy -89179.389791 kJ/mol
# GULP energy per Si atom -5573.711862 kJ/mol
# Density = 2.177693 g / cm^3
# Si number density = 21.826613 Si / 1000 Ang^3
#
#
#
# Elastic Constant Matrix: (Units=GPa)
#
#
# Indices 1 2 3 4 5 6 
#
# 1 114.6585 51.4399 44.0617 12.6277 37.8240 -11.7184
# 2 51.4399 116.7093 5.0123 4.9064 2.1388 -9.5136
# 3 44.0617 5.0123 107.5229 -7.8367 1.5397 -9.7866
# 4 12.6277 4.9064 -7.8367 18.8830 0.4213 -9.1777
# 5 37.8240 2.1388 1.5397 0.4213 47.7919 1.1215
# 6 -11.7184 -9.5136 -9.7866 -9.1777 1.1215 47.9167
#
#
#
# Elastic Compliance Matrix: (Units=1/GPa)
#
#
# Indices 1 2 3 4 5 6 
#
# 1 0.026186 -0.009952 -0.011552 -0.019903 -0.019701 -0.001283
# 2 -0.009952 0.012559 0.003976 0.005763 0.007093 0.001810
# 3 -0.011552 0.003976 0.015124 0.014557 0.008263 0.003648
# 4 -0.019903 0.005763 0.014557 0.077158 0.014024 0.013700
# 5 -0.019701 0.007093 0.008263 0.014024 0.035806 0.000126
# 6 -0.001283 0.001810 0.003648 0.013700 0.000126 0.024281
#
#
# Mechanical properties :
#
#
# Convention : Reuss Voigt Hill
#
# Bulk Modulus (GPa) = 53.15645 59.99094 56.57370
# Shear Modulus (GPa) = 21.51091 38.81010 30.16050
#
# Velocity S-wave (km/s) = 3.14273 4.22134 3.72132
# Velocity P-wave (km/s) = 6.12991 7.16271 6.66635
#
# Compressibility (1/GPa) = 0.01881239
#
# Stress axis : x y z
#
# Youngs Moduli (GPa) = 38.18885 79.62311 66.12202
#
# Poissons Ratio (x) = 0.79241 0.76384
# Poissons Ratio (y) = 0.38006 -0.26290
# Poissons Ratio (z) = 0.44115 -0.31658
#
# Static dielectric constant tensor:
#      x y z
#    x 1.858990 0.035770 0.006770 
#    y 0.035770 1.900400 0.027140 
#    z 0.006770 0.027140 1.958780 
# 
# From -- ./inp_files/410358.got.cif
#   From: 2010.05.17/outbox.ucp.g08.bks.cvg/sg2_206_cif.got.tgz:410358.got - 2010.06.11 11:32:03.
