data_PCOD9074181
_publ_section_title
;
Structure prediction by ZEFSAII (Michael W. Deem and Ramdas Pophale) SiO2 
 PCOD9074181
Probable space group: P -1
;
_chemical_formula_sum "Si O2"
_cell_formula_units_Z 16
_cell_length_a 9.000000
_cell_length_b 24.000000
_cell_length_c 12.000000
_cell_angle_alpha 30.000000
_cell_angle_beta 40.000000
_cell_angle_gamma 50.000000
_cell_volume 831.335389
_symmetry_space_group_name_H-M "P -1"
_symmetry_group_IT_number 2
_symmetry_cell_setting 'triclinic'
loop_
_space_group_symop_operation_xyz
x,y,z
-x,-y,-z
loop_
_atom_site_type_symbol
_atom_site_label
_atom_site_fract_x
_atom_site_fract_y
_atom_site_fract_z
Si Si1 0.775253 0.132909 0.568587
Si Si2 0.436796 0.978066 0.898140
Si Si3 0.615845 0.494105 0.321984
Si Si4 0.509617 0.671379 0.688345
Si Si5 0.769902 0.739111 0.827665
Si Si6 0.833466 0.826337 0.389810
Si Si7 0.354027 0.759415 0.198058
Si Si8 0.268018 0.507281 0.288641
O O1 0.619429 0.238879 0.464443
O O2 0.033679 0.191616 0.331272
O O3 0.672855 0.051602 0.668565
O O4 0.709788 0.058842 0.843380
O O5 0.273766 0.056363 0.784074
O O6 0.482695 0.859550 0.021800
O O7 0.500000 0.500000 0.500000
O O8 0.683140 0.363579 0.508251
O O9 0.437399 0.513634 0.288990
O O10 0.797239 0.604509 0.028139
O O11 0.691995 0.736179 0.551409
O O12 0.648719 0.595785 0.654783
O O13 0.329785 0.606023 0.991309
O O14 0.787101 0.796149 0.597866
O O15 0.518877 0.746155 0.018745
O O16 0.102477 0.808104 0.240554
O O17 0.000000 0.500000 0.500000
#
# Coordination Sequence:
#
# PCOD9074181 Si02
#       8
#     2   2   2   2   2   2   2   2
#     4  10  22  43  67  93 133 170 221 278 316 402
#     4  10  22  44  67  94 130 173 222 271 335 375
#     4  10  24  42  64 101 135 169 217 267 331 392
#     4  10  24  41  64  96 129 181 218 260 342 383
#     4  11  24  41  67  98 130 171 222 270 328 391
#     4  11  23  43  66  94 133 172 217 278 321 396
#     4  11  24  40  69  95 132 172 218 268 334 384
#     4  11  24  40  65  95 137 173 222 271 321 399
#
# _framework density 19.246143
#
# number of rings (size 3 to 8) (size 9 to 14) (size 15 to 20)
#    0.000    1.500    2.500    1.125    7.000    2.500 
#    0.000    0.000    0.000    0.000    0.000    0.000 
#    0.000    0.000    0.000    0.000    0.000    0.000 
#
# Total GULP energy -89166.345075 kJ/mol
# GULP energy per Si atom -5572.896567 kJ/mol
# Density = 1.920234 g / cm^3
# Si number density = 19.246143 Si / 1000 Ang^3
#
#
#
# Elastic Constant Matrix: (Units=GPa)
#
#
# Indices 1 2 3 4 5 6 
#
# 1 90.7057 32.2380 50.3335 -2.9403 -0.7731 -3.3274
# 2 32.2380 93.1113 50.8731 -7.7740 -0.9022 8.1830
# 3 50.3335 50.8731 132.2678 -11.7693 -4.3045 -9.1098
# 4 -2.9403 -7.7740 -11.7693 48.7869 -1.4327 -3.3368
# 5 -0.7731 -0.9022 -4.3045 -1.4327 38.0257 -5.8037
# 6 -3.3274 8.1830 -9.1098 -3.3368 -5.8037 22.9682
#
#
#
# Elastic Compliance Matrix: (Units=1/GPa)
#
#
# Indices 1 2 3 4 5 6 
#
# 1 0.014482 -0.002753 -0.004421 -0.000552 -0.000106 0.001218
# 2 -0.002753 0.015451 -0.005497 0.000347 -0.001586 -0.008434
# 3 -0.004421 -0.005497 0.012126 0.002333 0.002316 0.007052
# 4 -0.000552 0.000347 0.002333 0.021425 0.001720 0.004269
# 5 -0.000106 -0.001586 0.002316 0.001720 0.027924 0.008774
# 6 0.001218 -0.008434 0.007052 0.004269 0.008774 0.052354
#
#
# Mechanical properties :
#
#
# Convention : Reuss Voigt Hill
#
# Bulk Modulus (GPa) = 59.81766 64.77492 62.29629
# Shear Modulus (GPa) = 28.62439 34.13217 31.37828
#
# Velocity S-wave (km/s) = 3.86071 4.21581 4.04216
# Velocity P-wave (km/s) = 7.14292 7.57803 7.36369
#
# Compressibility (1/GPa) = 0.01671747
#
# Stress axis : x y z
#
# Youngs Moduli (GPa) = 69.05030 64.72014 82.46968
#
# Poissons Ratio (x) = 0.17817 0.36459
# Poissons Ratio (y) = 0.19009 0.45333
# Poissons Ratio (z) = 0.30527 0.35576
#
# Static dielectric constant tensor:
#      x y z
#    x 1.695230 0.020600 -0.024140 
#    y 0.020600 1.680990 -0.031980 
#    z -0.024140 -0.031980 1.697950 
# 
# From -- ./inp_files/406466.got.cif
#   From: 2010.05.17/outbox.ucp.g08.bks.cvg/sg2_204_cif.got.tgz:406466.got - 2010.06.11 11:32:03.
