data_PCOD9074311
_publ_section_title
;
Structure prediction by ZEFSAII (Michael W. Deem and Ramdas Pophale) SiO2 
 PCOD9074311
Probable space group: P -1
;
_chemical_formula_sum "Si O2"
_cell_formula_units_Z 14
_cell_length_a 21.000000
_cell_length_b 12.000000
_cell_length_c 9.000000
_cell_angle_alpha 120.000000
_cell_angle_beta 140.000000
_cell_angle_gamma 30.000000
_cell_volume 627.666119
_symmetry_space_group_name_H-M "P -1"
_symmetry_group_IT_number 2
_symmetry_cell_setting 'triclinic'
loop_
_space_group_symop_operation_xyz
x,y,z
-x,-y,-z
loop_
_atom_site_type_symbol
_atom_site_label
_atom_site_fract_x
_atom_site_fract_y
_atom_site_fract_z
Si Si1 0.369113 0.788044 0.751937
Si Si2 0.684568 0.445232 0.529826
Si Si3 0.280603 0.629883 0.107628
Si Si4 0.069154 0.608885 0.640747
Si Si5 0.650027 0.050717 0.886421
Si Si6 0.911300 0.890376 0.035918
Si Si7 0.947622 0.512977 0.168939
O O1 0.353476 0.653795 0.670513
O O2 0.497009 0.641412 0.733589
O O3 0.449619 0.780690 0.029697
O O4 0.161355 0.092254 0.554446
O O5 0.737037 0.366754 0.745060
O O6 0.505658 0.747735 0.389156
O O7 0.870611 0.298635 0.685586
O O8 0.169624 0.636031 0.831699
O O9 0.209787 0.853448 0.083547
O O10 0.076635 0.490602 0.446489
O O11 0.131609 0.468476 0.811780
O O12 0.822698 0.954835 0.080114
O O13 0.761033 0.790217 0.934970
O O14 0.937162 0.726868 0.879722
#
# Coordination Sequence:
#
# PCOD9074311 Si02
#       7
#     2   2   2   2   2   2   2
#     4  11  24  44  69 102 137 171 226 282 334 390
#     4  12  24  40  69 105 135 170 223 284 335 390
#     4  12  24  42  76 105 124 175 232 285 329 382
#     4  10  22  46  72  96 135 174 229 276 330 393
#     4  11  27  44  64 100 143 181 215 271 342 405
#     4  12  24  43  72  98 137 174 228 274 336 395
#     4  10  23  46  67  97 138 182 217 272 335 406
#
# _framework density 22.304852
#
# number of rings (size 3 to 8) (size 9 to 14) (size 15 to 20)
#    0.000    0.857    4.286    2.571    2.000    3.429 
#    0.000    9.286    0.000    0.000    0.000    0.000 
#    0.000    0.000    0.000    0.000    0.000    0.000 
#
# Total GULP energy -78166.159185 kJ/mol
# GULP energy per Si atom -5583.297085 kJ/mol
# Density = 2.225409 g / cm^3
# Si number density = 22.304852 Si / 1000 Ang^3
#
#
#
# Elastic Constant Matrix: (Units=GPa)
#
#
# Indices 1 2 3 4 5 6 
#
# 1 36.1776 5.3383 -8.2409 -27.4152 -6.7843 18.7199
# 2 5.3383 115.1937 23.6918 9.7721 -2.5626 29.1632
# 3 -8.2409 23.6918 23.9967 -2.7041 5.2831 16.8407
# 4 -27.4152 9.7721 -2.7041 38.2363 6.9639 -3.8494
# 5 -6.7843 -2.5626 5.2831 6.9639 26.7977 -12.9091
# 6 18.7199 29.1632 16.8407 -3.8494 -12.9091 44.1663
#
#
#
# Elastic Compliance Matrix: (Units=1/GPa)
#
#
# Indices 1 2 3 4 5 6 
#
# 1 -0.059036 0.011693 -0.091752 -0.054357 0.048059 0.061596
# 2 0.011693 0.009952 0.007443 0.006001 -0.006731 -0.015810
# 3 -0.091752 0.007443 -0.054166 -0.072013 0.035111 0.058614
# 4 -0.054357 0.006001 -0.072013 -0.019869 0.032304 0.054246
# 5 0.048059 -0.006731 0.035111 0.032304 0.024160 -0.019436
# 6 0.061596 -0.015810 0.058614 0.054246 -0.019436 -0.016329
#
#
# Mechanical properties :
#
#
# Convention : Reuss Voigt Hill
#
# Bulk Modulus (GPa) = -4.02443 24.10513 10.04035
# Shear Modulus (GPa) = -94.54882 32.14532 -31.20175
#
# Velocity S-wave (km/s) = -6.51777 3.80041 -3.74421
# Velocity P-wave (km/s) = 7.64526 5.48526 3.76577
#
# Compressibility (1/GPa) = -0.24848263
#
# Stress axis : x y z
#
# Youngs Moduli (GPa) = -16.93878 100.48198 -18.46193
#
# Poissons Ratio (x) = -1.17491 -1.69393
# Poissons Ratio (y) = 0.19806 0.13742
# Poissons Ratio (z) = -1.55417 -0.74790
#
# Static dielectric constant tensor:
#      x y z
#    x 1.816900 0.005460 0.010410 
#    y 0.005460 1.788150 -0.023220 
#    z 0.010410 -0.023220 1.930970 
# 
# From -- ./inp_files/346300.got.cif
#   From: 2010.05.17/outbox.ucp.g08.bks.cvg/sg2_174_cif.got.tgz:346300.got - 2010.06.11 11:32:03.
