data_PCOD9074330
_publ_section_title
;
Structure prediction by ZEFSAII (Michael W. Deem and Ramdas Pophale) SiO2 
 PCOD9074330
Probable space group: P -1
;
_chemical_formula_sum "Si O2"
_cell_formula_units_Z 12
_cell_length_a 12.000000
_cell_length_b 9.000000
_cell_length_c 6.000000
_cell_angle_alpha 80.000000
_cell_angle_beta 100.000000
_cell_angle_gamma 60.000000
_cell_volume 526.253775
_symmetry_space_group_name_H-M "P -1"
_symmetry_group_IT_number 2
_symmetry_cell_setting 'triclinic'
loop_
_space_group_symop_operation_xyz
x,y,z
-x,-y,-z
loop_
_atom_site_type_symbol
_atom_site_label
_atom_site_fract_x
_atom_site_fract_y
_atom_site_fract_z
Si Si1 0.424711 0.845116 0.670262
Si Si2 0.311865 0.381247 0.444929
Si Si3 0.169674 0.032071 0.188384
Si Si4 0.285785 0.184536 0.841677
Si Si5 0.384818 0.445945 0.890377
Si Si6 0.146481 0.732184 0.996727
O O1 0.555231 0.789655 0.577986
O O2 0.484682 0.651806 0.873831
O O3 0.288474 0.933683 0.444901
O O4 0.387852 0.990853 0.814059
O O5 0.229445 0.310943 0.566872
O O6 0.389461 0.439747 0.627232
O O7 0.204910 0.556787 0.223005
O O8 0.009940 0.168792 0.160531
O O9 0.340414 0.298140 0.944043
O O10 0.167961 0.876195 0.090125
O O11 0.204915 0.144523 0.002777
O O12 0.254544 0.637598 0.861642
#
# Coordination Sequence:
#
# PCOD9074330 Si02
#       6
#     2   2   2   2   2   2
#     4  11  21  39  67  98 123 158 205 258 309 365
#     4   9  22  40  66  90 127 158 200 253 313 359
#     4  11  26  40  65  90 126 165 212 248 310 363
#     4  10  23  38  66  99 120 160 205 257 307 368
#     4   9  22  39  68  90 127 157 205 254 310 362
#     4  10  24  48  58  86 130 172 201 256 303 366
#
# _framework density 22.802686999999999
#
# number of rings (size 3 to 8) (size 9 to 14) (size 15 to 20)
#    1.000    1.000    0.000    2.000    7.000    6.667 
#    0.000    8.333    0.000    0.000    0.000    0.000 
#    0.000    0.000    0.000    0.000    0.000    0.000 
#
# Total GULP energy -66816.746709 kJ/mol
# GULP energy per Si atom -5568.062226 kJ/mol
# Density = 2.275079 g / cm^3
# Si number density = 22.802687 Si / 1000 Ang^3
#
#
#
# Elastic Constant Matrix: (Units=GPa)
#
#
# Indices 1 2 3 4 5 6 
#
# 1 84.6612 13.8414 28.1795 -8.5589 14.9507 -34.9734
# 2 13.8414 85.8694 11.4145 4.5470 18.4222 -44.0345
# 3 28.1795 11.4145 76.9041 -13.6297 16.9553 -19.3475
# 4 -8.5589 4.5470 -13.6297 48.5703 1.5771 -7.5483
# 5 14.9507 18.4222 16.9553 1.5771 38.8644 -9.2324
# 6 -34.9734 -44.0345 -19.3475 -7.5483 -9.2324 24.6388
#
#
#
# Elastic Compliance Matrix: (Units=1/GPa)
#
#
# Indices 1 2 3 4 5 6 
#
# 1 0.002704 -0.016431 -0.008399 -0.005523 0.002858 -0.032743
# 2 -0.016431 -0.007474 -0.006509 -0.010971 0.002659 -0.044157
# 3 -0.008399 -0.006509 0.014815 0.001418 -0.003220 -0.012694
# 4 -0.005523 -0.010971 0.001418 0.017826 0.001125 -0.020451
# 5 0.002858 0.002659 -0.003220 0.001125 0.028874 0.017445
# 6 -0.032743 -0.044157 -0.012694 -0.020451 0.017445 -0.094504
#
#
# Mechanical properties :
#
#
# Convention : Reuss Voigt Hill
#
# Bulk Modulus (GPa) = -18.99932 39.36730 10.18399
# Shear Modulus (GPa) = 677.99558 35.34799 356.67178
#
# Velocity S-wave (km/s) = 17.26201 3.94149 12.52023
# Velocity P-wave (km/s) = 19.72188 6.16568 14.61109
#
# Compressibility (1/GPa) = -0.05263345
#
# Stress axis : x y z
#
# Youngs Moduli (GPa) = 369.76253 -133.79803 67.50114
#
# Poissons Ratio (x) = -2.19845 0.56692
# Poissons Ratio (y) = 6.07561 0.43940
# Poissons Ratio (z) = 3.10552 -0.87095
#
# Static dielectric constant tensor:
#      x y z
#    x 1.918970 0.073320 -0.042230 
#    y 0.073320 1.873110 0.039810 
#    z -0.042230 0.039810 1.968610 
# 
# From -- ./inp_files/60449.got.cif
#   From: 2010.05.17/outbox.ucp.g08.bks.cvg/sg2_31_cif.got.tgz:60449.got - 2010.06.11 11:32:03.
