data_PCOD9074436
_publ_section_title
;
Structure prediction by ZEFSAII (Michael W. Deem and Ramdas Pophale) SiO2 
 PCOD9074436
Probable space group: P -1
;
_chemical_formula_sum "Si O2"
_cell_formula_units_Z 16
_cell_length_a 18.000000
_cell_length_b 12.000000
_cell_length_c 9.000000
_cell_angle_alpha 40.000000
_cell_angle_beta 140.000000
_cell_angle_gamma 140.000000
_cell_volume 723.717541
_symmetry_space_group_name_H-M "P -1"
_symmetry_group_IT_number 2
_symmetry_cell_setting 'triclinic'
loop_
_space_group_symop_operation_xyz
x,y,z
-x,-y,-z
loop_
_atom_site_type_symbol
_atom_site_label
_atom_site_fract_x
_atom_site_fract_y
_atom_site_fract_z
Si Si1 0.307854 0.928961 0.470715
Si Si2 0.754434 0.739379 0.961806
Si Si3 0.451421 0.012214 0.076185
Si Si4 0.963541 0.635936 0.914363
Si Si5 0.130577 0.512493 0.755537
Si Si6 0.756850 0.201218 0.811693
Si Si7 0.242839 0.389219 0.575108
Si Si8 0.509758 0.555497 0.284596
O O1 0.453468 0.044188 0.626276
O O2 0.241116 0.719044 0.661107
O O3 0.320264 0.915270 0.327932
O O4 0.228277 0.048468 0.267414
O O5 0.614696 0.591842 0.840800
O O6 0.845429 0.660648 0.101278
O O7 0.759613 0.719947 0.166692
O O8 0.307897 0.882607 0.044301
O O9 0.478853 0.230325 0.926021
O O10 0.500000 0.000000 0.000000
O O11 0.878981 0.714193 0.612494
O O12 0.887981 0.521449 0.061161
O O13 0.000000 0.500000 0.000000
O O14 0.104307 0.792232 0.009136
O O15 0.000000 0.500000 0.500000
O O16 0.762017 0.411926 0.588976
O O17 0.366520 0.439306 0.612960
O O18 0.500000 0.500000 0.500000
#
# Coordination Sequence:
#
# PCOD9074436 Si02
#       8
#     2   2   2   2   2   2   2   2
#     4  12  25  45  73 104 138 184 234 287 348 417
#     4  12  25  45  71 106 136 188 234 284 352 413
#     4  12  26  43  69 104 139 181 233 294 349 415
#     4  10  23  42  72  99 138 191 223 282 357 413
#     4  12  23  47  74 102 143 181 235 287 349 415
#     4  11  22  45  67 102 140 182 233 284 350 415
#     4  11  22  42  70  99 141 186 230 287 349 415
#     4  12  24  44  67 102 142 181 236 294 349 414
#
# _framework density 22.108073000000001
#
# number of rings (size 3 to 8) (size 9 to 14) (size 15 to 20)
#    0.000    0.500    3.750    5.250    3.500    0.500 
#    0.000    2.500    0.000    0.000    0.000    0.000 
#    0.000    0.000    0.000    0.000    0.000    0.000 
#
# Total GULP energy -89421.449008 kJ/mol
# GULP energy per Si atom -5588.840563 kJ/mol
# Density = 2.205775 g / cm^3
# Si number density = 22.108073 Si / 1000 Ang^3
#
#
#
# Elastic Constant Matrix: (Units=GPa)
#
#
# Indices 1 2 3 4 5 6 
#
# 1 124.8196 5.8393 38.1127 8.8737 -0.9429 -2.4608
# 2 5.8393 36.5272 24.7149 -3.6023 3.6132 -5.8564
# 3 38.1127 24.7149 104.5849 10.0619 3.6829 -8.0928
# 4 8.8737 -3.6023 10.0619 44.4280 -1.7450 2.1297
# 5 -0.9429 3.6132 3.6829 -1.7450 49.5852 -2.3534
# 6 -2.4608 -5.8564 -8.0928 2.1297 -2.3534 30.4899
#
#
#
# Elastic Compliance Matrix: (Units=1/GPa)
#
#
# Indices 1 2 3 4 5 6 
#
# 1 0.009088 0.000726 -0.003396 -0.000977 0.000341 0.000066
# 2 0.000726 0.034141 -0.008382 0.004272 -0.001512 0.003976
# 3 -0.003396 -0.008382 0.013235 -0.003104 -0.000460 0.001810
# 4 -0.000977 0.004272 -0.003104 0.023860 0.000660 -0.001698
# 5 0.000341 -0.001512 -0.000460 0.000660 0.020396 0.001143
# 6 0.000066 0.003976 0.001810 -0.001698 0.001143 0.034254
#
#
# Mechanical properties :
#
#
# Convention : Reuss Voigt Hill
#
# Bulk Modulus (GPa) = 29.10551 44.80731 36.95641
# Shear Modulus (GPa) = 29.66793 38.05161 33.85977
#
# Velocity S-wave (km/s) = 3.66724 4.15319 3.91776
# Velocity P-wave (km/s) = 5.57900 6.58104 6.10063
#
# Compressibility (1/GPa) = 0.03435776
#
# Stress axis : x y z
#
# Youngs Moduli (GPa) = 110.03576 29.29038 75.55727
#
# Poissons Ratio (x) = -0.02125 0.25661
# Poissons Ratio (y) = -0.07984 0.63335
# Poissons Ratio (z) = 0.37370 0.24553
#
# Static dielectric constant tensor:
#      x y z
#    x 2.565700 0.057880 -0.026570 
#    y 0.057880 1.887520 0.085940 
#    z -0.026570 0.085940 1.877650 
# 
# From -- ./inp_files/259480.got.cif
#   From: 2010.05.17/outbox.ucp.g08.bks.cvg/sg2_130_cif.got.tgz:259480.got - 2010.06.11 11:32:03.
