data_PCOD9074540
_publ_section_title
;
Structure prediction by ZEFSAII (Michael W. Deem and Ramdas Pophale) SiO2 
 PCOD9074540
Probable space group: P -1
;
_chemical_formula_sum "Si O2"
_cell_formula_units_Z 16
_cell_length_a 18.000000
_cell_length_b 30.000000
_cell_length_c 12.000000
_cell_angle_alpha 30.000000
_cell_angle_beta 20.000000
_cell_angle_gamma 20.000000
_cell_volume 749.971719
_symmetry_space_group_name_H-M "P -1"
_symmetry_group_IT_number 2
_symmetry_cell_setting 'triclinic'
loop_
_space_group_symop_operation_xyz
x,y,z
-x,-y,-z
loop_
_atom_site_type_symbol
_atom_site_label
_atom_site_fract_x
_atom_site_fract_y
_atom_site_fract_z
Si Si1 0.701508 0.854062 0.306383
Si Si2 0.506283 0.596744 0.191868
Si Si3 0.637536 0.058174 0.184522
Si Si4 0.617352 0.205717 0.240885
Si Si5 0.360122 0.916778 0.128694
Si Si6 0.443353 0.596024 0.781510
Si Si7 0.242541 0.330158 0.730538
Si Si8 0.298916 0.475154 0.675347
O O1 0.573213 0.847222 0.617438
O O2 0.554858 0.832917 0.468678
O O3 0.084300 0.737271 0.008988
O O4 0.598515 0.987875 0.139742
O O5 0.253122 0.593099 0.526695
O O6 0.532114 0.612284 0.256566
O O7 0.434275 0.701190 0.982436
O O8 0.861243 0.446943 0.991766
O O9 0.500000 0.000000 0.500000
O O10 0.608597 0.114396 0.982110
O O11 0.009775 0.931595 0.966949
O O12 0.447326 0.279335 0.438375
O O13 0.603049 0.793164 0.139502
O O14 0.000000 0.000000 0.500000
O O15 0.695527 0.596454 0.452682
O O16 0.493104 0.570890 0.631977
O O17 0.500000 0.500000 0.000000
O O18 0.000000 0.500000 0.000000
#
# Coordination Sequence:
#
# PCOD9074540 Si02
#       8
#     2   2   2   2   2   2   2   2
#     4  11  25  42  67 102 136 184 237 285 354 420
#     4  11  26  46  73 108 147 184 234 296 361 420
#     4  10  23  45  70  96 137 188 239 286 347 421
#     4  12  24  45  69 104 144 183 235 296 353 422
#     4  11  22  45  69 102 138 187 237 289 349 418
#     4  12  24  43  72 104 140 185 236 286 355 429
#     4  12  23  43  73 101 146 184 234 294 355 417
#     4  11  25  46  69 104 146 184 233 286 359 428
#
# _framework density 21.334137999999999
#
# number of rings (size 3 to 8) (size 9 to 14) (size 15 to 20)
#    0.000    0.750    3.750    3.750    0.000    6.500 
#    0.000    0.000    0.000    0.000    0.000    0.000 
#    0.000    0.000    0.000    0.000    0.000    0.000 
#
# Total GULP energy -89229.762929 kJ/mol
# GULP energy per Si atom -5576.860183 kJ/mol
# Density = 2.128558 g / cm^3
# Si number density = 21.334138 Si / 1000 Ang^3
#
#
#
# Elastic Constant Matrix: (Units=GPa)
#
#
# Indices 1 2 3 4 5 6 
#
# 1 153.7381 27.8517 40.2817 -12.1438 26.5635 -6.4216
# 2 27.8517 86.3188 30.0821 -19.2937 7.8436 -29.3906
# 3 40.2817 30.0821 105.4603 -5.7033 9.9134 -8.4653
# 4 -12.1438 -19.2937 -5.7033 53.8901 -0.2674 8.6789
# 5 26.5635 7.8436 9.9134 -0.2674 74.8411 -6.1895
# 6 -6.4216 -29.3906 -8.4653 8.6789 -6.1895 43.4721
#
#
#
# Elastic Compliance Matrix: (Units=1/GPa)
#
#
# Indices 1 2 3 4 5 6 
#
# 1 0.007865 -0.001569 -0.002346 0.001098 -0.002388 -0.000915
# 2 -0.001569 0.017649 -0.003400 0.003954 0.000020 0.010251
# 3 -0.002346 -0.003400 0.011323 -0.000486 -0.000345 -0.000392
# 4 0.001098 0.003954 -0.000486 0.020396 -0.000786 -0.001443
# 5 -0.002388 0.000020 -0.000345 -0.000786 0.014399 0.001800
# 6 -0.000915 0.010251 -0.000392 -0.001443 0.001800 0.030267
#
#
# Mechanical properties :
#
#
# Convention : Reuss Voigt Hill
#
# Bulk Modulus (GPa) = 45.03341 60.21646 52.62493
# Shear Modulus (GPa) = 40.34512 50.92744 45.63628
#
# Velocity S-wave (km/s) = 4.35340 4.89113 4.63008
# Velocity P-wave (km/s) = 6.81351 7.75785 7.30096
#
# Compressibility (1/GPa) = 0.02220574
#
# Stress axis : x y z
#
# Youngs Moduli (GPa) = 127.15160 56.66121 88.31761
#
# Poissons Ratio (x) = 0.08892 0.20719
# Poissons Ratio (y) = 0.19954 0.30027
# Poissons Ratio (z) = 0.29829 0.19264
#
# Static dielectric constant tensor:
#      x y z
#    x 1.878640 0.021320 -0.016940 
#    y 0.021320 1.750020 -0.021230 
#    z -0.016940 -0.021230 1.751980 
# 
# From -- ./inp_files/467683.got.cif
#   From: 2010.05.17/outbox.ucp.g08.bks.cvg/sg2_234_cif.got.tgz:467683.got - 2010.06.11 11:32:03.
