data_PCOD9074642
_publ_section_title
;
Structure prediction by ZEFSAII (Michael W. Deem and Ramdas Pophale) SiO2 
 PCOD9074642
Probable space group: P -1
;
_chemical_formula_sum "Si O2"
_cell_formula_units_Z 16
_cell_length_a 9.000000
_cell_length_b 12.000000
_cell_length_c 15.000000
_cell_angle_alpha 130.000000
_cell_angle_beta 70.000000
_cell_angle_gamma 140.000000
_cell_volume 759.581896
_symmetry_space_group_name_H-M "P -1"
_symmetry_group_IT_number 2
_symmetry_cell_setting 'triclinic'
loop_
_space_group_symop_operation_xyz
x,y,z
-x,-y,-z
loop_
_atom_site_type_symbol
_atom_site_label
_atom_site_fract_x
_atom_site_fract_y
_atom_site_fract_z
Si Si1 0.791780 0.064479 0.040302
Si Si2 0.632762 0.784438 0.540162
Si Si3 0.925191 0.221683 0.818858
Si Si4 0.176874 0.404009 0.565382
Si Si5 0.245748 0.403634 0.016374
Si Si6 0.343169 0.834880 0.529575
Si Si7 0.295391 0.660260 0.850318
Si Si8 0.495940 0.114663 0.819425
O O1 0.760053 0.209672 0.089412
O O2 0.072908 0.230222 0.043728
O O3 0.716016 0.994157 0.123202
O O4 0.575200 0.832811 0.911581
O O5 0.407250 0.587800 0.548946
O O6 0.793923 0.745704 0.483117
O O7 0.475340 0.766926 0.487684
O O8 0.821246 0.029224 0.672895
O O9 0.682234 0.142486 0.850872
O O10 0.116161 0.463797 0.858266
O O11 0.066804 0.259214 0.894057
O O12 0.228952 0.534598 0.708562
O O13 0.934870 0.308471 0.517724
O O14 0.339795 0.636283 0.120240
O O15 0.500000 0.500000 0.000000
O O16 0.500000 0.000000 0.500000
O O17 0.394557 0.957014 0.674110
#
# Coordination Sequence:
#
# PCOD9074642 Si02
#       8
#     2   2   2   2   2   2   2   2
#     4  11  23  42  73  99 134 180 234 283 344 419
#     4  10  24  43  68 102 136 186 234 292 350 416
#     4  11  21  43  69  96 136 173 232 285 342 415
#     4  11  23  44  69 100 139 181 240 289 348 421
#     4  12  26  42  65 102 141 177 226 287 354 408
#     4  11  25  44  70 101 143 186 236 287 352 418
#     4  11  21  40  73 102 127 182 232 283 345 410
#     4  11  23  46  69 100 133 184 233 283 342 417
#
# _framework density 21.064219999999999
#
# number of rings (size 3 to 8) (size 9 to 14) (size 15 to 20)
#    0.000    1.000    2.500    6.000    1.750    2.500 
#    0.000    0.000    0.000    0.000    0.000    0.000 
#    0.000    0.000    0.000    0.000    0.000    0.000 
#
# Total GULP energy -89218.965190 kJ/mol
# GULP energy per Si atom -5576.185324 kJ/mol
# Density = 2.101628 g / cm^3
# Si number density = 21.064220 Si / 1000 Ang^3
#
#
#
# Elastic Constant Matrix: (Units=GPa)
#
#
# Indices 1 2 3 4 5 6 
#
# 1 95.8638 19.5761 43.1737 -4.2905 6.9642 22.4284
# 2 19.5761 135.1924 24.9165 -1.8310 10.5698 15.6194
# 3 43.1737 24.9165 99.7061 6.2461 16.3629 7.0638
# 4 -4.2905 -1.8310 6.2461 31.8690 -9.7467 4.0429
# 5 6.9642 10.5698 16.3629 -9.7467 28.2558 5.2334
# 6 22.4284 15.6194 7.0638 4.0429 5.2334 45.3758
#
#
#
# Elastic Compliance Matrix: (Units=1/GPa)
#
#
# Indices 1 2 3 4 5 6 
#
# 1 0.015319 -0.000299 -0.006974 0.005437 0.003599 -0.007283
# 2 -0.000299 0.008108 -0.001532 0.000572 -0.001451 -0.002288
# 3 -0.006974 -0.001532 0.015254 -0.007421 -0.009728 0.003383
# 4 0.005437 0.000572 -0.007421 0.040008 0.017907 -0.007359
# 5 0.003599 -0.001451 -0.009728 0.017907 0.048137 -0.006913
# 6 -0.007283 -0.002288 0.003383 -0.007359 -0.006913 0.027352
#
#
# Mechanical properties :
#
#
# Convention : Reuss Voigt Hill
#
# Bulk Modulus (GPa) = 47.46023 56.23276 51.84649
# Shear Modulus (GPa) = 27.96237 37.30653 32.63445
#
# Velocity S-wave (km/s) = 3.64742 4.21299 3.94036
# Velocity P-wave (km/s) = 6.34967 7.10067 6.73565
#
# Compressibility (1/GPa) = 0.02107027
#
# Stress axis : x y z
#
# Youngs Moduli (GPa) = 65.27814 123.33259 65.55766
#
# Poissons Ratio (x) = 0.03691 0.45718
# Poissons Ratio (y) = 0.01954 0.10046
# Poissons Ratio (z) = 0.45523 0.18899
#
# Static dielectric constant tensor:
#      x y z
#    x 1.819610 -0.010630 -0.041300 
#    y -0.010630 1.789370 -0.020250 
#    z -0.041300 -0.020250 1.771430 
# 
# From -- ./inp_files/273568.got.cif
#   From: 2010.05.17/outbox.ucp.g08.bks.cvg/sg2_137_cif.got.tgz:273568.got - 2010.06.11 11:32:03.
