data_PCOD9074507
_publ_section_title
;
Structure prediction by ZEFSAII (Michael W. Deem and Ramdas Pophale) SiO2 
 PCOD9074507
Probable space group: P -1
;
_chemical_formula_sum "Si O2"
_cell_formula_units_Z 16
_cell_length_a 9.000000
_cell_length_b 6.000000
_cell_length_c 18.000000
_cell_angle_alpha 130.000000
_cell_angle_beta 80.000000
_cell_angle_gamma 90.000000
_cell_volume 725.212580
_symmetry_space_group_name_H-M "P -1"
_symmetry_group_IT_number 2
_symmetry_cell_setting 'triclinic'
loop_
_space_group_symop_operation_xyz
x,y,z
-x,-y,-z
loop_
_atom_site_type_symbol
_atom_site_label
_atom_site_fract_x
_atom_site_fract_y
_atom_site_fract_z
Si Si1 0.083357 0.654004 0.676070
Si Si2 0.310097 0.413952 0.729354
Si Si3 0.347522 0.743908 0.557870
Si Si4 0.382069 0.437218 0.232857
Si Si5 0.817795 0.124645 0.039938
Si Si6 0.850122 0.252382 0.573236
Si Si7 0.173377 0.929427 0.143964
Si Si8 0.380205 0.401777 0.052527
O O1 0.180197 0.450346 0.685240
O O2 0.209246 0.689432 0.611935
O O3 0.941563 0.531047 0.623895
O O4 0.997229 0.931911 0.789188
O O5 0.461680 0.565897 0.735232
O O6 0.226831 0.585095 0.844028
O O7 0.376130 0.068273 0.650995
O O8 0.500000 0.500000 0.500000
O O9 0.270972 0.754795 0.484531
O O10 0.255129 0.705657 0.333216
O O11 0.436197 0.412238 0.135872
O O12 0.292133 0.161457 0.192814
O O13 0.802156 0.180116 0.965732
O O14 0.698412 0.891798 0.019644
O O15 0.000000 0.000000 0.000000
O O16 0.000000 0.000000 0.500000
O O17 0.232020 0.647830 0.125917
O O18 0.500000 0.500000 0.000000
#
# Coordination Sequence:
#
# PCOD9074507 Si02
#       8
#     2   2   2   2   2   2   2   2
#     4  11  25  43  72 104 136 187 243 295 358 437
#     4  12  25  45  69 102 148 182 240 294 368 424
#     4  12  29  46  72 106 142 186 246 303 363 424
#     4  10  25  43  70 101 142 187 237 291 367 426
#     4  11  24  43  71 105 148 191 232 299 370 428
#     4  11  24  47  75  97 140 192 237 300 368 422
#     4  10  23  44  70 104 141 187 240 291 354 441
#     4  11  24  43  73 104 145 190 242 288 362 441
#
# _framework density 22.062495999999999
#
# number of rings (size 3 to 8) (size 9 to 14) (size 15 to 20)
#    0.000    1.000    2.500    2.625    5.250    8.500 
#    0.000    0.000    0.000    0.000    0.000    0.000 
#    0.000    0.000    0.000    0.000    0.000    0.000 
#
# Total GULP energy -89212.886960 kJ/mol
# GULP energy per Si atom -5575.805435 kJ/mol
# Density = 2.201228 g / cm^3
# Si number density = 22.062496 Si / 1000 Ang^3
#
#
#
# Elastic Constant Matrix: (Units=GPa)
#
#
# Indices 1 2 3 4 5 6 
#
# 1 121.7160 19.7490 42.2798 -7.9123 -15.5761 -12.1021
# 2 19.7490 45.9282 45.7320 1.0801 -9.8631 -8.4289
# 3 42.2798 45.7320 156.8915 -1.0530 -15.2929 -0.8181
# 4 -7.9123 1.0801 -1.0530 17.5461 -2.1924 -22.9998
# 5 -15.5761 -9.8631 -15.2929 -2.1924 52.2698 -0.4922
# 6 -12.1021 -8.4289 -0.8181 -22.9998 -0.4922 36.3400
#
#
#
# Elastic Compliance Matrix: (Units=1/GPa)
#
#
# Indices 1 2 3 4 5 6 
#
# 1 1.167142 0.926537 -0.427245 7.825507 0.778193 5.557325
# 2 0.926537 0.776765 -0.349802 6.271752 0.625376 4.458751
# 3 -0.427245 -0.349802 0.165782 -2.874614 -0.284627 -2.042901
# 4 7.825507 6.271752 -2.874614 52.907354 5.247101 37.552526
# 5 0.778193 0.625376 -0.284627 5.247101 0.540928 3.726051
# 6 5.557325 4.458751 -2.042901 37.552526 3.726051 26.684127
#
#
# Mechanical properties :
#
#
# Convention : Reuss Voigt Hill
#
# Bulk Modulus (GPa) = 0.41517 60.00636 30.21076
# Shear Modulus (GPa) = 0.06043 35.68284 17.87164
#
# Velocity S-wave (km/s) = 0.16567 4.02600 2.84922
# Velocity P-wave (km/s) = 0.47454 6.99063 4.95450
#
# Compressibility (1/GPa) = 2.40866867
#
# Stress axis : x y z
#
# Youngs Moduli (GPa) = 0.85679 1.28739 6.03200
#
# Poissons Ratio (x) = -1.19281 2.57714
# Poissons Ratio (y) = -0.79385 2.11001
# Poissons Ratio (z) = 0.36606 0.45033
#
# Static dielectric constant tensor:
#      x y z
#    x 1.825240 -0.040040 0.030340 
#    y -0.040040 1.898030 0.020260 
#    z 0.030340 0.020260 1.864610 
# 
# From -- ./inp_files/488510.got.cif
#   From: 2010.05.17/outbox.ucp.g08.bks.cvg/sg2_245_cif.got.tgz:488510.got - 2010.06.11 11:32:03.
