data_PCOD9074293
_publ_section_title
;
Structure prediction by ZEFSAII (Michael W. Deem and Ramdas Pophale) SiO2 
 PCOD9074293
Probable space group: P -1
;
_chemical_formula_sum "Si O2"
_cell_formula_units_Z 16
_cell_length_a 9.000000
_cell_length_b 9.000000
_cell_length_c 15.000000
_cell_angle_alpha 70.000000
_cell_angle_beta 100.000000
_cell_angle_gamma 50.000000
_cell_volume 732.374747
_symmetry_space_group_name_H-M "P -1"
_symmetry_group_IT_number 2
_symmetry_cell_setting 'triclinic'
loop_
_space_group_symop_operation_xyz
x,y,z
-x,-y,-z
loop_
_atom_site_type_symbol
_atom_site_label
_atom_site_fract_x
_atom_site_fract_y
_atom_site_fract_z
Si Si1 0.772575 0.963473 0.827650
Si Si2 0.755616 0.569686 0.367830
Si Si3 0.399022 0.420123 0.465889
Si Si4 0.761405 0.906436 0.350187
Si Si5 0.913282 0.895266 0.045804
Si Si6 0.813622 0.849202 0.577976
Si Si7 0.225762 0.342470 0.218821
Si Si8 0.000529 0.899132 0.238863
O O1 0.854733 0.736172 0.837965
O O2 0.515623 0.216135 0.721201
O O3 0.930668 0.977492 0.801704
O O4 0.760269 0.964018 0.932851
O O5 0.761909 0.517953 0.483560
O O6 0.823520 0.700202 0.342419
O O7 0.908466 0.343203 0.362652
O O8 0.500000 0.500000 0.500000
O O9 0.236527 0.605457 0.329513
O O10 0.617065 0.132584 0.526462
O O11 0.779830 0.850180 0.468365
O O12 0.888267 0.956090 0.311038
O O13 0.491523 0.153286 0.260738
O O14 0.097222 0.607385 0.133103
O O15 0.837617 0.975958 0.123974
O O16 0.000000 0.000000 0.000000
O O17 0.786049 0.725923 0.668900
#
# Coordination Sequence:
#
# PCOD9074293 Si02
#       8
#     2   2   2   2   2   2   2   2
#     4  10  22  46  63  92 134 174 223 279 319 390
#     4  11  23  40  64  96 136 170 223 267 329 396
#     4  12  23  42  62  96 142 174 213 276 326 398
#     4  11  23  39  66 102 135 169 218 273 331 407
#     4  10  23  42  69  91 125 178 221 278 333 377
#     4  12  23  38  67 100 135 179 214 263 343 392
#     4  11  22  42  65  95 130 173 224 270 331 395
#     4  11  22  42  66  96 136 171 217 276 326 387
#
# _framework density 21.846738999999999
#
# number of rings (size 3 to 8) (size 9 to 14) (size 15 to 20)
#    0.000    1.000    5.000    2.625    1.750    0.500 
#    2.250    9.375    0.000    0.000    0.000    0.000 
#    0.000    0.000    0.000    0.000    0.000    0.000 
#
# Total GULP energy -89148.893249 kJ/mol
# GULP energy per Si atom -5571.805828 kJ/mol
# Density = 2.179701 g / cm^3
# Si number density = 21.846739 Si / 1000 Ang^3
#
#
#
# Elastic Constant Matrix: (Units=GPa)
#
#
# Indices 1 2 3 4 5 6 
#
# 1 76.2478 36.5908 21.8841 -0.7918 -8.5704 0.9458
# 2 36.5908 105.6116 17.6480 -6.3479 -13.0521 -4.4584
# 3 21.8841 17.6480 108.5846 18.9136 -16.6086 13.9636
# 4 -0.7918 -6.3479 18.9136 25.7100 11.3623 -7.9180
# 5 -8.5704 -13.0521 -16.6086 11.3623 21.7185 0.0429
# 6 0.9458 -4.4584 13.9636 -7.9180 0.0429 26.7144
#
#
#
# Elastic Compliance Matrix: (Units=1/GPa)
#
#
# Indices 1 2 3 4 5 6 
#
# 1 0.016391 -0.005120 -0.002127 -0.000111 0.001823 -0.000359
# 2 -0.005120 0.012392 -0.003399 0.007969 -0.001355 0.006390
# 3 -0.002127 -0.003399 0.034500 -0.062635 0.056343 -0.037180
# 4 -0.000111 0.007969 -0.062635 0.172164 -0.133392 0.085316
# 5 0.001823 -0.001355 0.056343 -0.133392 0.158959 -0.069533
# 6 -0.000359 0.006390 -0.037180 0.085316 -0.069533 0.083345
#
#
# Mechanical properties :
#
#
# Convention : Reuss Voigt Hill
#
# Bulk Modulus (GPa) = 23.81499 49.18775 36.50137
# Shear Modulus (GPa) = 9.74583 29.11664 19.43123
#
# Velocity S-wave (km/s) = 2.11440 3.65467 2.98557
# Velocity P-wave (km/s) = 4.10920 6.35394 5.35061
#
# Compressibility (1/GPa) = 0.04199036
#
# Stress axis : x y z
#
# Youngs Moduli (GPa) = 61.00960 80.69755 28.98569
#
# Poissons Ratio (x) = 0.41317 0.06165
# Poissons Ratio (y) = 0.31237 0.09853
# Poissons Ratio (z) = 0.12976 0.27432
#
# Static dielectric constant tensor:
#      x y z
#    x 1.841210 0.032170 0.072700 
#    y 0.032170 1.814170 0.012790 
#    z 0.072700 0.012790 1.884510 
# 
# From -- ./inp_files/307344.got.cif
#   From: 2010.05.17/outbox.ucp.g08.bks.cvg/sg2_154_cif.got.tgz:307344.got - 2010.06.11 11:32:03.
