data_PCOD9074880
_publ_section_title
;
Structure prediction by ZEFSAII (Michael W. Deem and Ramdas Pophale) SiO2 
 PCOD9074880
Probable space group: P -1
;
_chemical_formula_sum "Si O2"
_cell_formula_units_Z 14
_cell_length_a 24.000000
_cell_length_b 9.000000
_cell_length_c 12.000000
_cell_angle_alpha 40.000000
_cell_angle_beta 30.000000
_cell_angle_gamma 30.000000
_cell_volume 646.664136
_symmetry_space_group_name_H-M "P -1"
_symmetry_group_IT_number 2
_symmetry_cell_setting 'triclinic'
loop_
_space_group_symop_operation_xyz
x,y,z
-x,-y,-z
loop_
_atom_site_type_symbol
_atom_site_label
_atom_site_fract_x
_atom_site_fract_y
_atom_site_fract_z
Si Si1 0.632547 0.664199 0.446198
Si Si2 0.064672 0.679354 0.304414
Si Si3 0.754209 0.567398 0.638358
Si Si4 0.446577 0.723092 0.117116
Si Si5 0.701241 0.682187 0.064239
Si Si6 0.917494 0.361431 0.244247
Si Si7 0.446325 0.776094 0.353436
O O1 0.590774 0.498313 0.689398
O O2 0.665890 0.613812 0.283935
O O3 0.771674 0.593105 0.297981
O O4 0.500000 0.000000 0.500000
O O5 0.166583 0.536101 0.319785
O O6 0.000000 0.500000 0.500000
O O7 0.151225 0.592435 0.088009
O O8 0.978732 0.034712 0.274888
O O9 0.867832 0.382668 0.447044
O O10 0.685990 0.912969 0.542775
O O11 0.611701 0.584958 0.881631
O O12 0.420305 0.787592 0.260085
O O13 0.332960 0.999025 0.072007
O O14 0.582724 0.763126 0.132760
O O15 0.000000 0.500000 0.000000
O O16 0.500000 0.500000 0.500000
#
# Coordination Sequence:
#
# PCOD9074880 Si02
#       7
#     2   2   2   2   2   2   2
#     4  12  28  46  75 110 147 200 253 315 380 453
#     4  12  27  48  76 106 149 207 261 304 378 464
#     4  11  25  47  76 107 152 205 246 316 387 452
#     4  11  22  44  75 110 145 184 262 312 374 444
#     4  11  23  43  73 108 140 193 251 315 369 443
#     4  12  32  50  70 112 159 203 250 312 392 456
#     4  11  20  38  75 111 142 183 246 315 374 438
#
# _framework density 21.649569
#
# number of rings (size 3 to 8) (size 9 to 14) (size 15 to 20)
#    0.000    0.571    4.286    3.857    6.000    4.000 
#    0.000    0.000    0.000    0.000    0.000    0.000 
#    0.000    0.000    0.000    0.000    0.000    0.000 
#
# Total GULP energy -77943.549958 kJ/mol
# GULP energy per Si atom -5567.396426 kJ/mol
# Density = 2.160029 g / cm^3
# Si number density = 21.649569 Si / 1000 Ang^3
#
#
#
# Elastic Constant Matrix: (Units=GPa)
#
#
# Indices 1 2 3 4 5 6 
#
# 1 87.9877 17.4773 40.7539 12.6179 0.0976 -1.0026
# 2 17.4773 127.7508 66.4225 0.0864 -4.4222 5.0145
# 3 40.7539 66.4225 141.2820 2.9906 11.8359 16.3298
# 4 12.6179 0.0864 2.9906 42.6432 2.2067 10.3714
# 5 0.0976 -4.4222 11.8359 2.2067 51.5681 1.4464
# 6 -1.0026 5.0145 16.3298 10.3714 1.4464 35.4444
#
#
#
# Elastic Compliance Matrix: (Units=1/GPa)
#
#
# Indices 1 2 3 4 5 6 
#
# 1 0.014227 0.000413 -0.004747 -0.004891 0.001198 0.003913
# 2 0.000413 0.010612 -0.005392 -0.000104 0.002125 0.000938
# 3 -0.004747 -0.005392 0.011810 0.002032 -0.003103 -0.005280
# 4 -0.004891 -0.000104 0.002032 0.026991 -0.001371 -0.008902
# 5 0.001198 0.002125 -0.003103 -0.001371 0.020322 0.000735
# 6 0.003913 0.000938 -0.005280 -0.008902 0.000735 0.033199
#
#
# Mechanical properties :
#
#
# Convention : Reuss Voigt Hill
#
# Bulk Modulus (GPa) = 58.15573 67.36976 62.76275
# Shear Modulus (GPa) = 35.12591 41.42227 38.27409
#
# Velocity S-wave (km/s) = 4.03237 4.37888 4.20919
# Velocity P-wave (km/s) = 6.97141 7.53339 7.25784
#
# Compressibility (1/GPa) = 0.01719521
#
# Stress axis : x y z
#
# Youngs Moduli (GPa) = 70.29079 94.23490 84.67516
#
# Poissons Ratio (x) = -0.03892 0.40196
# Poissons Ratio (y) = -0.02903 0.45661
# Poissons Ratio (z) = 0.33367 0.50816
#
# Static dielectric constant tensor:
#      x y z
#    x 1.870250 0.164020 -0.074970 
#    y 0.164020 2.139680 -0.097940 
#    z -0.074970 -0.097940 1.831270 
# 
# From -- ./inp_files/357100.got.cif
#   From: 2010.05.17/outbox.ucp.g08.bks.cvg/sg2_179_cif.got.tgz:357100.got - 2010.06.11 11:32:03.
