data_PCOD9074953
_publ_section_title
;
Structure prediction by ZEFSAII (Michael W. Deem and Ramdas Pophale) SiO2 
 PCOD9074953
Probable space group: P -1
;
_chemical_formula_sum "Si O2"
_cell_formula_units_Z 13
_cell_length_a 21.000000
_cell_length_b 15.000000
_cell_length_c 12.000000
_cell_angle_alpha 150.000000
_cell_angle_beta 30.000000
_cell_angle_gamma 160.000000
_cell_volume 615.533390
_symmetry_space_group_name_H-M "P -1"
_symmetry_group_IT_number 2
_symmetry_cell_setting 'triclinic'
loop_
_space_group_symop_operation_xyz
x,y,z
-x,-y,-z
loop_
_atom_site_type_symbol
_atom_site_label
_atom_site_fract_x
_atom_site_fract_y
_atom_site_fract_z
Si Si1 0.442082 0.653485 0.610208
Si Si2 0.620529 0.074085 0.150883
Si Si3 0.839133 0.954876 0.635641
Si Si4 0.752634 0.485235 0.007850
Si Si5 0.500000 0.000000 0.500000
Si Si6 0.929031 0.452435 0.429058
Si Si7 0.122581 0.991443 0.629430
O O1 0.363062 0.733054 0.742579
O O2 0.355747 0.370275 0.401307
O O3 0.371722 0.602585 0.788458
O O4 0.674888 0.887120 0.509285
O O5 0.617153 0.123355 0.337481
O O6 0.786394 0.098765 0.909082
O O7 0.410056 0.763624 0.099297
O O8 0.889439 0.021915 0.501081
O O9 0.000000 0.000000 0.500000
O O10 0.857341 0.777261 0.121622
O O11 0.916481 0.516592 0.830243
O O12 0.706569 0.165833 0.432883
O O13 0.000000 0.500000 0.500000
O O14 0.958923 0.690448 0.604496
#
# Coordination Sequence:
#
# PCOD9074953 Si02
#       7
#     2   2   2   2   1   2   2
#     4  11  21  41  74 105 130 176 231 288 359 410
#     4  12  23  45  69  97 145 183 229 288 342 412
#     4  11  25  40  65 109 142 173 224 291 355 412
#     4  11  21  42  72 104 131 176 230 291 349 409
#     4  12  30  46  64 102 140 190 240 276 336 426
#     4  12  26  48  68  95 140 190 239 280 343 412
#     4  11  22  42  73 103 130 174 234 287 354 410
#
# _framework density 21.119893999999999
#
# number of rings (size 3 to 8) (size 9 to 14) (size 15 to 20)
#    0.000    0.615    6.154    2.308    6.462    1.231 
#    0.000    1.538    0.000    0.000    0.000    0.000 
#    0.000    0.000    0.000    0.000    0.000    0.000 
#
# Total GULP energy -72388.749053 kJ/mol
# GULP energy per Si atom -5568.365312 kJ/mol
# Density = 2.107182 g / cm^3
# Si number density = 21.119894 Si / 1000 Ang^3
#
#
#
# Elastic Constant Matrix: (Units=GPa)
#
#
# Indices 1 2 3 4 5 6 
#
# 1 137.6411 4.4343 24.4142 6.0197 -15.9347 -3.5998
# 2 4.4343 28.4138 6.0096 0.9003 -10.2144 0.3008
# 3 24.4142 6.0096 38.4348 11.9532 -15.5160 -16.7437
# 4 6.0197 0.9003 11.9532 22.5908 -5.4537 -22.8323
# 5 -15.9347 -10.2144 -15.5160 -5.4537 31.9498 1.6933
# 6 -3.5998 0.3008 -16.7437 -22.8323 1.6933 39.9988
#
#
#
# Elastic Compliance Matrix: (Units=1/GPa)
#
#
# Indices 1 2 3 4 5 6 
#
# 1 0.008384 0.000474 -0.005329 -0.001432 0.001626 -0.002366
# 2 0.000474 0.039970 -0.002577 0.001643 0.012092 -0.000910
# 3 -0.005329 -0.002577 0.044271 -0.000609 0.017013 0.017004
# 4 -0.001432 0.001643 -0.000609 0.112402 0.015357 0.063115
# 5 0.001626 0.012092 0.017013 0.015357 0.046118 0.013991
# 6 -0.002366 -0.000910 0.017004 0.063115 0.013991 0.067348
#
#
# Mechanical properties :
#
#
# Convention : Reuss Voigt Hill
#
# Bulk Modulus (GPa) = 12.85982 30.46731 21.66356
# Shear Modulus (GPa) = 13.91687 30.21665 22.06676
#
# Velocity S-wave (km/s) = 2.56978 3.78659 3.23589
# Velocity P-wave (km/s) = 3.86098 5.79438 4.92352
#
# Compressibility (1/GPa) = 0.07776156
#
# Stress axis : x y z
#
# Youngs Moduli (GPa) = 119.27210 25.01897 22.58820
#
# Poissons Ratio (x) = -0.01185 0.12036
# Poissons Ratio (y) = -0.05648 0.05820
# Poissons Ratio (z) = 0.63555 0.06446
#
# Static dielectric constant tensor:
#      x y z
#    x 1.722160 0.053130 0.017350 
#    y 0.053130 1.753910 0.026670 
#    z 0.017350 0.026670 1.832870 
# 
# From -- ./inp_files/163463.got.cif
#   From: 2010.05.17/outbox.ucp.g08.bks.cvg/sg2_82_cif.got.tgz:163463.got - 2010.06.11 11:32:03.
