data_PCOD9074651
_publ_section_title
;
Structure prediction by ZEFSAII (Michael W. Deem and Ramdas Pophale) SiO2 
 PCOD9074651
Probable space group: P -1
;
_chemical_formula_sum "Si O2"
_cell_formula_units_Z 14
_cell_length_a 9.000000
_cell_length_b 9.000000
_cell_length_c 12.000000
_cell_angle_alpha 100.000000
_cell_angle_beta 60.000000
_cell_angle_gamma 130.000000
_cell_volume 628.643806
_symmetry_space_group_name_H-M "P -1"
_symmetry_group_IT_number 2
_symmetry_cell_setting 'triclinic'
loop_
_space_group_symop_operation_xyz
x,y,z
-x,-y,-z
loop_
_atom_site_type_symbol
_atom_site_label
_atom_site_fract_x
_atom_site_fract_y
_atom_site_fract_z
Si Si1 0.590719 0.819329 0.958853
Si Si2 0.084034 0.486979 0.161464
Si Si3 0.322656 0.034047 0.574520
Si Si4 0.310756 0.308235 0.472807
Si Si5 0.161915 0.840119 0.277490
Si Si6 0.795972 0.673099 0.731790
Si Si7 0.645902 0.011257 0.201447
O O1 0.701643 0.723666 0.873151
O O2 0.708568 0.994403 0.846409
O O3 0.316914 0.643344 0.022009
O O4 0.658801 0.927018 0.068348
O O5 0.030025 0.625043 0.239333
O O6 0.195523 0.483237 0.232960
O O7 0.863793 0.258808 0.171236
O O8 0.368082 0.173748 0.475428
O O9 0.500000 0.000000 0.500000
O O10 0.338205 0.086888 0.707621
O O11 0.060549 0.847530 0.632999
O O12 0.500000 0.500000 0.500000
O O13 0.327585 0.360132 0.342428
O O14 0.047548 0.191426 0.591043
O O15 0.382787 0.921306 0.280461
#
# Coordination Sequence:
#
# PCOD9074651 Si02
#       7
#     2   2   2   2   2   2   2
#     4  11  24  45  74 103 148 189 232 293 350 420
#     4  10  24  43  73 111 138 189 235 288 352 424
#     4  11  25  46  72 102 137 189 236 291 356 415
#     4  12  29  45  71 107 139 188 237 294 357 420
#     4  11  25  47  69 105 148 185 233 294 354 415
#     4  11  25  47  71 101 149 183 235 299 347 424
#     4  10  24  44  78 102 143 188 235 288 355 422
#
# _framework density 22.270163
#
# number of rings (size 3 to 8) (size 9 to 14) (size 15 to 20)
#    0.000    1.143    1.429    3.429   10.000    6.286 
#    0.000    0.000    0.000    0.000    0.000    0.000 
#    0.000    0.000    0.000    0.000    0.000    0.000 
#
# Total GULP energy -77997.770675 kJ/mol
# GULP energy per Si atom -5571.269334 kJ/mol
# Density = 2.221948 g / cm^3
# Si number density = 22.270163 Si / 1000 Ang^3
#
#
#
# Elastic Constant Matrix: (Units=GPa)
#
#
# Indices 1 2 3 4 5 6 
#
# 1 70.2711 -10.8565 18.3051 -9.4673 -11.1143 47.3698
# 2 -10.8565 73.0617 12.4925 -10.7073 -20.7869 45.7594
# 3 18.3051 12.4925 87.3651 10.9920 -6.6079 17.1569
# 4 -9.4673 -10.7073 10.9920 17.4060 -1.9108 11.4144
# 5 -11.1143 -20.7869 -6.6079 -1.9108 46.3797 10.6108
# 6 47.3698 45.7594 17.1569 11.4144 10.6108 31.6388
#
#
#
# Elastic Compliance Matrix: (Units=1/GPa)
#
#
# Indices 1 2 3 4 5 6 
#
# 1 0.004758 -0.007925 -0.001090 -0.008551 -0.005148 0.009740
# 2 -0.007925 0.003994 -0.000020 -0.008869 -0.002821 0.010245
# 3 -0.001090 -0.000020 0.013452 -0.006059 0.002367 -0.004241
# 4 -0.008551 -0.008869 -0.006059 0.038079 -0.009521 0.018371
# 5 -0.005148 -0.002821 0.002367 -0.009521 0.017134 0.008192
# 6 0.009740 0.010245 -0.004241 0.018371 0.008192 -0.004869
#
#
# Mechanical properties :
#
#
# Convention : Reuss Voigt Hill
#
# Bulk Modulus (GPa) = 241.88938 30.06445 135.97692
# Shear Modulus (GPa) = 54.35005 33.13536 43.74271
#
# Velocity S-wave (km/s) = 4.94549 3.86149 4.43672
# Velocity P-wave (km/s) = 11.89379 5.78020 9.35074
#
# Compressibility (1/GPa) = 0.00413412
#
# Stress axis : x y z
#
# Youngs Moduli (GPa) = 210.16873 250.36786 74.33976
#
# Poissons Ratio (x) = 1.98411 0.08103
# Poissons Ratio (y) = 1.66554 0.00150
# Poissons Ratio (z) = 0.22909 0.00504
#
# Static dielectric constant tensor:
#      x y z
#    x 1.853370 -0.135590 0.022620 
#    y -0.135590 1.757140 0.073180 
#    z 0.022620 0.073180 1.856770 
# 
# From -- ./inp_files/382556.got.cif
#   From: 2010.05.17/outbox.ucp.g08.bks.cvg/sg2_192_cif.got.tgz:382556.got - 2010.06.11 11:32:03.
