data_PCOD9074531
_publ_section_title
;
Structure prediction by ZEFSAII (Michael W. Deem and Ramdas Pophale) SiO2 
 PCOD9074531
Probable space group: P -1
;
_chemical_formula_sum "Si O2"
_cell_formula_units_Z 13
_cell_length_a 12.000000
_cell_length_b 15.000000
_cell_length_c 9.000000
_cell_angle_alpha 130.000000
_cell_angle_beta 140.000000
_cell_angle_gamma 30.000000
_cell_volume 519.584618
_symmetry_space_group_name_H-M "P -1"
_symmetry_group_IT_number 2
_symmetry_cell_setting 'triclinic'
loop_
_space_group_symop_operation_xyz
x,y,z
-x,-y,-z
loop_
_atom_site_type_symbol
_atom_site_label
_atom_site_fract_x
_atom_site_fract_y
_atom_site_fract_z
Si Si1 0.730586 0.078752 0.477624
Si Si2 0.233650 0.465003 0.253676
Si Si3 0.076538 0.727509 0.623144
Si Si4 0.178444 0.034740 0.881792
Si Si5 0.000000 0.500000 0.500000
Si Si6 0.433332 0.362057 0.035004
Si Si7 0.264455 0.178975 0.361394
O O1 0.452513 0.273795 0.352935
O O2 0.912152 0.099474 0.715946
O O3 0.813190 0.969051 0.291412
O O4 0.827966 0.938318 0.552015
O O5 0.130434 0.613178 0.421249
O O6 0.354020 0.457667 0.216209
O O7 0.000000 0.500000 0.000000
O O8 0.343228 0.670064 0.850360
O O9 0.986567 0.696474 0.641284
O O10 0.415229 0.833440 0.971269
O O11 0.203769 0.141544 0.110012
O O12 0.282573 0.306979 0.507111
O O13 0.175296 0.458761 0.782399
O O14 0.500000 0.000000 0.500000
#
# Coordination Sequence:
#
# PCOD9074531 Si02
#       7
#     2   2   2   2   1   2   2
#     4   9  22  43  74  98 132 177 227 279 349 394
#     4  11  24  43  69 104 142 176 233 287 333 414
#     4  11  26  45  71 103 134 184 232 284 342 413
#     4   9  20  46  70  99 135 179 225 281 335 420
#     4  12  26  44  70  98 142 190 220 284 352 402
#     4  10  23  45  69 102 139 179 237 278 341 411
#     4  12  27  46  68  99 143 180 231 284 344 408
#
# _framework density 25.019985999999999
#
# number of rings (size 3 to 8) (size 9 to 14) (size 15 to 20)
#    0.000    1.538    1.538    2.308    6.462    6.154 
#    2.769    0.000    0.000    0.000    0.000    0.000 
#    0.000    0.000    0.000    0.000    0.000    0.000 
#
# Total GULP energy -72569.050459 kJ/mol
# GULP energy per Si atom -5582.234651 kJ/mol
# Density = 2.496304 g / cm^3
# Si number density = 25.019986 Si / 1000 Ang^3
#
#
#
# Elastic Constant Matrix: (Units=GPa)
#
#
# Indices 1 2 3 4 5 6 
#
# 1 87.5095 -32.5238 -12.2763 -18.9721 -8.2723 -3.3664
# 2 -32.5238 105.1402 31.7173 -11.4769 14.9599 -5.6498
# 3 -12.2763 31.7173 68.8821 -26.6215 -3.7874 25.0522
# 4 -18.9721 -11.4769 -26.6215 42.4322 -8.4185 11.7753
# 5 -8.2723 14.9599 -3.7874 -8.4185 3.5832 -2.7805
# 6 -3.3664 -5.6498 25.0522 11.7753 -2.7805 -0.5937
#
#
#
# Elastic Compliance Matrix: (Units=1/GPa)
#
#
# Indices 1 2 3 4 5 6 
#
# 1 0.002805 0.014543 -0.004300 -0.009831 -0.106535 -0.031768
# 2 0.014543 0.005614 0.003256 0.018735 0.074899 0.022299
# 3 -0.004300 0.003256 0.001383 -0.011289 -0.039309 0.011947
# 4 -0.009831 0.018735 -0.011289 -0.004362 -0.141333 -0.023500
# 5 -0.106535 0.074899 -0.039309 -0.141333 -0.906268 -0.326144
# 6 -0.031768 0.022299 0.011947 -0.023500 -0.326144 -0.150927
#
#
# Mechanical properties :
#
#
# Convention : Reuss Voigt Hill
#
# Bulk Modulus (GPa) = 27.17401 26.15180 26.66291
# Shear Modulus (GPa) = -4.68829 27.39197 11.35184
#
# Velocity S-wave (km/s) = -1.37036 3.31237 2.13236
# Velocity P-wave (km/s) = 2.89494 5.01040 4.09175
#
# Compressibility (1/GPa) = 0.03679987
#
# Stress axis : x y z
#
# Youngs Moduli (GPa) = 356.49309 178.12485 723.21568
#
# Poissons Ratio (x) = -2.59048 3.10962
# Poissons Ratio (y) = -5.18450 -2.35455
# Poissons Ratio (z) = 1.53282 -0.57991
#
# Static dielectric constant tensor:
#      x y z
#    x 1.999650 -0.193210 -0.077770 
#    y -0.193210 1.747420 -0.126790 
#    z -0.077770 -0.126790 1.798930 
# 
# From -- ./inp_files/161848.got.cif
#   From: 2010.05.17/outbox.ucp.g08.bks.cvg/sg2_81_cif.got.tgz:161848.got - 2010.06.11 11:32:03.
