data_PCOD9074396
_publ_section_title
;
Structure prediction by ZEFSAII (Michael W. Deem and Ramdas Pophale) SiO2 
 PCOD9074396
Probable space group: P -1
;
_chemical_formula_sum "Si O2"
_cell_formula_units_Z 16
_cell_length_a 21.000000
_cell_length_b 9.000000
_cell_length_c 6.000000
_cell_angle_alpha 130.000000
_cell_angle_beta 60.000000
_cell_angle_gamma 120.000000
_cell_volume 724.534506
_symmetry_space_group_name_H-M "P -1"
_symmetry_group_IT_number 2
_symmetry_cell_setting 'triclinic'
loop_
_space_group_symop_operation_xyz
x,y,z
-x,-y,-z
loop_
_atom_site_type_symbol
_atom_site_label
_atom_site_fract_x
_atom_site_fract_y
_atom_site_fract_z
Si Si1 0.035976 0.715701 0.043453
Si Si2 0.670439 0.981472 0.912631
Si Si3 0.676026 0.324498 0.890128
Si Si4 0.578564 0.535371 0.537193
Si Si5 0.924747 0.835614 0.049465
Si Si6 0.429171 0.807545 0.438308
Si Si7 0.839033 0.081602 0.657489
Si Si8 0.847630 0.410727 0.609113
O O1 0.100139 0.693782 0.730912
O O2 0.960154 0.764301 0.136786
O O3 0.086850 0.874144 0.275719
O O4 0.000000 0.500000 0.000000
O O5 0.610923 0.764776 0.782310
O O6 0.674206 0.113489 0.809065
O O7 0.757351 0.985546 0.817121
O O8 0.639894 0.112223 0.269434
O O9 0.600825 0.278334 0.827737
O O10 0.758929 0.395930 0.696237
O O11 0.654348 0.486137 0.247876
O O12 0.500000 0.500000 0.500000
O O13 0.556975 0.370709 0.610649
O O14 0.895891 0.641064 0.760290
O O15 0.854880 0.929533 0.300220
O O16 0.000000 0.000000 0.000000
O O17 0.500000 0.000000 0.500000
O O18 0.840744 0.295544 0.748204
#
# Coordination Sequence:
#
# PCOD9074396 Si02
#       8
#     2   2   2   2   2   2   2   2
#     4  12  23  41  66  88 122 166 207 254 309 361
#     4  10  23  42  63  90 125 162 203 251 306 359
#     4  10  23  42  64  89 124 165 201 248 310 362
#     4  11  23  41  65  95 125 159 204 251 298 360
#     4  12  23  41  64  90 122 162 209 254 308 362
#     4  11  23  41  65  94 125 162 204 245 300 368
#     4  11  23  42  63  90 124 161 204 257 307 363
#     4  11  23  43  62  89 127 160 201 259 309 360
#
# _framework density 22.083144000000001
#
# number of rings (size 3 to 8) (size 9 to 14) (size 15 to 20)
#    0.000    1.000    2.500    4.500    0.000    5.000 
#    4.500    0.000    0.000    0.000    0.000    0.000 
#    0.000    0.000    0.000    0.000    0.000    0.000 
#
# Total GULP energy -89212.122671 kJ/mol
# GULP energy per Si atom -5575.757667 kJ/mol
# Density = 2.203288 g / cm^3
# Si number density = 22.083144 Si / 1000 Ang^3
#
#
#
# Elastic Constant Matrix: (Units=GPa)
#
#
# Indices 1 2 3 4 5 6 
#
# 1 63.7885 11.1142 2.0313 1.1498 -12.7723 9.3906
# 2 11.1142 88.8099 20.3194 13.6102 -4.2384 6.7317
# 3 2.0313 20.3194 52.5961 18.3184 -11.2469 2.9524
# 4 1.1498 13.6102 18.3184 30.4867 7.2605 -9.3750
# 5 -12.7723 -4.2384 -11.2469 7.2605 32.1075 -0.3122
# 6 9.3906 6.7317 2.9524 -9.3750 -0.3122 26.6635
#
#
#
# Elastic Compliance Matrix: (Units=1/GPa)
#
#
# Indices 1 2 3 4 5 6 
#
# 1 0.019949 -0.000931 0.006591 -0.010679 0.012428 -0.011130
# 2 -0.000931 0.013386 -0.001966 -0.006897 0.002217 -0.005233
# 3 0.006591 -0.001966 0.036059 -0.031359 0.021923 -0.016587
# 4 -0.010679 -0.006897 -0.031359 0.073427 -0.032413 0.034412
# 5 0.012428 0.002217 0.021923 -0.032413 0.051214 -0.018161
# 6 -0.011130 -0.005233 -0.016587 0.034412 -0.018161 0.056469
#
#
# Mechanical properties :
#
#
# Convention : Reuss Voigt Hill
#
# Bulk Modulus (GPa) = 13.02397 30.23604 21.63000
# Shear Modulus (GPa) = 18.60755 29.30017 23.95386
#
# Velocity S-wave (km/s) = 2.90593 3.64649 3.29707
# Velocity P-wave (km/s) = 4.14364 5.60811 4.93055
#
# Compressibility (1/GPa) = 0.07678153
#
# Stress axis : x y z
#
# Youngs Moduli (GPa) = 50.12893 74.70710 27.73260
#
# Poissons Ratio (x) = 0.06956 -0.18279
# Poissons Ratio (y) = 0.04668 0.05451
# Poissons Ratio (z) = -0.33040 0.14684
#
# Static dielectric constant tensor:
#      x y z
#    x 1.677910 0.014190 0.036090 
#    y 0.014190 1.736860 -0.095120 
#    z 0.036090 -0.095120 1.854620 
# 
# From -- ./inp_files/13717.got.cif
#   From: 2010.05.17/outbox.ucp.g08.bks.cvg/sg2_7_cif.got.tgz:13717.got - 2010.06.11 11:32:03.
