data_PCOD9074127
_publ_section_title
;
Structure prediction by ZEFSAII (Michael W. Deem and Ramdas Pophale) SiO2 
 PCOD9074127
Probable space group: P -1
;
_chemical_formula_sum "Si O2"
_cell_formula_units_Z 12
_cell_length_a 15.000000
_cell_length_b 15.000000
_cell_length_c 12.000000
_cell_angle_alpha 40.000000
_cell_angle_beta 140.000000
_cell_angle_gamma 160.000000
_cell_volume 580.331274
_symmetry_space_group_name_H-M "P -1"
_symmetry_group_IT_number 2
_symmetry_cell_setting 'triclinic'
loop_
_space_group_symop_operation_xyz
x,y,z
-x,-y,-z
loop_
_atom_site_type_symbol
_atom_site_label
_atom_site_fract_x
_atom_site_fract_y
_atom_site_fract_z
Si Si1 0.811005 0.148214 0.624187
Si Si2 0.375042 0.862576 0.325742
Si Si3 0.779182 0.210848 0.003405
Si Si4 0.408749 0.595816 0.517234
Si Si5 0.412144 0.551692 0.792452
Si Si6 0.926372 0.082434 0.399395
O O1 0.786587 0.218370 0.645770
O O2 0.102335 0.330447 0.719573
O O3 0.682698 0.122703 0.419173
O O4 0.601076 0.842466 0.726284
O O5 0.320901 0.657588 0.439710
O O6 0.290973 0.852072 0.135441
O O7 0.877701 0.144347 0.193420
O O8 0.000000 0.500000 0.000000
O O9 0.500000 0.000000 0.000000
O O10 0.470480 0.550808 0.722530
O O11 0.170112 0.343127 0.456029
O O12 0.663770 0.849171 0.446291
O O13 0.500000 0.500000 0.000000
O O14 0.000000 0.000000 0.500000
#
# Coordination Sequence:
#
# PCOD9074127 Si02
#       6
#     2   2   2   2   2   2
#     4  10  24  40  67 101 128 176 220 289 332 391
#     4  10  22  42  68  97 136 168 231 276 340 393
#     4  12  24  41  68  99 128 177 231 271 325 404
#     4  11  23  42  66  89 132 179 210 281 338 398
#     4  11  24  42  66  95 134 174 227 268 347 411
#     4  12  25  43  64  98 134 175 225 272 345 396
#
# _framework density 20.677845000000001
#
# number of rings (size 3 to 8) (size 9 to 14) (size 15 to 20)
#    0.000    1.000    3.333    3.000    0.000   11.333 
#    0.000    0.000    0.000    0.000    0.000    0.000 
#    0.000    0.000    0.000    0.000    0.000    0.000 
#
# Total GULP energy -66884.972306 kJ/mol
# GULP energy per Si atom -5573.747692 kJ/mol
# Density = 2.063078 g / cm^3
# Si number density = 20.677845 Si / 1000 Ang^3
#
#
#
# Elastic Constant Matrix: (Units=GPa)
#
#
# Indices 1 2 3 4 5 6 
#
# 1 117.9922 71.7923 69.6962 12.5921 -11.3669 -24.8134
# 2 71.7923 180.6696 60.5894 16.9869 -6.3967 -5.4908
# 3 69.6962 60.5894 193.9800 25.4905 -26.0014 -12.4073
# 4 12.5921 16.9869 25.4905 16.1226 -10.1736 -9.7742
# 5 -11.3669 -6.3967 -26.0014 -10.1736 41.4163 8.5387
# 6 -24.8134 -5.4908 -12.4073 -9.7742 8.5387 28.5805
#
#
#
# Elastic Compliance Matrix: (Units=1/GPa)
#
#
# Indices 1 2 3 4 5 6 
#
# 1 0.016489 -0.005433 -0.004428 0.008523 0.000063 0.014245
# 2 -0.005433 0.008303 -0.000024 -0.008697 -0.001173 -0.005756
# 3 -0.004428 -0.000024 0.008182 -0.010900 0.002206 -0.004683
# 4 0.008523 -0.008697 -0.010900 0.112130 0.014477 0.035019
# 5 0.000063 -0.001173 0.002206 0.014477 0.029560 -0.003093
# 6 0.014245 -0.005756 -0.004683 0.035019 -0.003093 0.057118
#
#
# Mechanical properties :
#
#
# Convention : Reuss Voigt Hill
#
# Bulk Modulus (GPa) = 75.73380 99.64419 87.68900
# Shear Modulus (GPa) = 19.53486 36.59480 28.06483
#
# Velocity S-wave (km/s) = 3.07697 4.21141 3.68807
# Velocity P-wave (km/s) = 7.02344 8.48183 7.78686
#
# Compressibility (1/GPa) = 0.01320414
#
# Stress axis : x y z
#
# Youngs Moduli (GPa) = 60.64791 120.43439 122.22101
#
# Poissons Ratio (x) = 0.65437 0.54113
# Poissons Ratio (y) = 0.32952 0.00292
# Poissons Ratio (z) = 0.26852 0.00288
#
# Static dielectric constant tensor:
#      x y z
#    x 1.727850 -0.015520 -0.069730 
#    y -0.015520 1.727160 0.006860 
#    z -0.069730 0.006860 1.921280 
# 
# From -- ./inp_files/31746.got.cif
#   From: 2010.05.17/outbox.ucp.g08.bks.cvg/sg2_16_cif.got.tgz:31746.got - 2010.06.11 11:32:03.
