data_PCOD9074766
_publ_section_title
;
Structure prediction by ZEFSAII (Michael W. Deem and Ramdas Pophale) SiO2 
 PCOD9074766
Probable space group: P -1
;
_chemical_formula_sum "Si O2"
_cell_formula_units_Z 16
_cell_length_a 9.000000
_cell_length_b 9.000000
_cell_length_c 15.000000
_cell_angle_alpha 70.000000
_cell_angle_beta 140.000000
_cell_angle_gamma 110.000000
_cell_volume 727.419504
_symmetry_space_group_name_H-M "P -1"
_symmetry_group_IT_number 2
_symmetry_cell_setting 'triclinic'
loop_
_space_group_symop_operation_xyz
x,y,z
-x,-y,-z
loop_
_atom_site_type_symbol
_atom_site_label
_atom_site_fract_x
_atom_site_fract_y
_atom_site_fract_z
Si Si1 0.827504 0.863144 0.396616
Si Si2 0.498139 0.950913 0.905536
Si Si3 0.192196 0.752397 0.444803
Si Si4 0.704710 0.821113 0.740960
Si Si5 0.904898 0.311872 0.181437
Si Si6 0.141593 0.410502 0.010867
Si Si7 0.018134 0.855809 0.148498
Si Si8 0.274464 0.436178 0.468355
O O1 0.720834 0.730040 0.445289
O O2 0.002071 0.795135 0.419692
O O3 0.607643 0.922292 0.232243
O O4 0.000000 0.000000 0.500000
O O5 0.290826 0.805482 0.835602
O O6 0.755459 0.904937 0.016026
O O7 0.500000 0.000000 0.000000
O O8 0.457686 0.832530 0.576429
O O9 0.224846 0.567435 0.490301
O O10 0.095633 0.794489 0.293811
O O11 0.914588 0.778764 0.778482
O O12 0.680872 0.679259 0.832088
O O13 0.803781 0.980459 0.808007
O O14 0.067103 0.408011 0.308452
O O15 0.771623 0.439116 0.041574
O O16 0.988440 0.277377 0.905392
O O17 0.000000 0.500000 0.000000
O O18 0.500000 0.500000 0.500000
#
# Coordination Sequence:
#
# PCOD9074766 Si02
#       8
#     2   2   2   2   2   2   2   2
#     4  12  28  50  76 112 156 201 259 315 382 459
#     4  12  25  47  75 104 150 203 252 318 378 454
#     4  12  26  48  75 114 151 201 251 320 388 456
#     4  11  24  43  73 111 153 191 260 315 379 455
#     4  11  22  47  70 105 151 199 251 310 384 452
#     4  10  25  45  69 105 150 195 249 315 376 457
#     4  12  25  46  74 110 149 205 254 312 391 458
#     4  12  26  48  78 113 155 200 250 315 390 455
#
# _framework density 21.995560999999999
#
# number of rings (size 3 to 8) (size 9 to 14) (size 15 to 20)
#    0.000    0.500    6.250    1.125    1.750    3.500 
#    2.250    0.000    0.000    0.000    0.000    0.000 
#    0.000    0.000    0.000    0.000    0.000    0.000 
#
# Total GULP energy -89445.776319 kJ/mol
# GULP energy per Si atom -5590.361020 kJ/mol
# Density = 2.194550 g / cm^3
# Si number density = 21.995561 Si / 1000 Ang^3
#
#
#
# Elastic Constant Matrix: (Units=GPa)
#
#
# Indices 1 2 3 4 5 6 
#
# 1 80.3495 56.0394 51.1615 3.4737 -3.4401 -7.5345
# 2 56.0394 108.8390 36.0574 -5.0482 -0.7903 -6.4136
# 3 51.1615 36.0574 156.9204 -10.8273 7.3495 9.3164
# 4 3.4737 -5.0482 -10.8273 51.5186 8.0321 -18.4383
# 5 -3.4401 -0.7903 7.3495 8.0321 40.2437 3.8831
# 6 -7.5345 -6.4136 9.3164 -18.4383 3.8831 45.9805
#
#
#
# Elastic Compliance Matrix: (Units=1/GPa)
#
#
# Indices 1 2 3 4 5 6 
#
# 1 0.024002 -0.010420 -0.005967 -0.003767 0.003507 0.001882
# 2 -0.010420 0.014713 0.000191 0.002980 -0.001387 0.001618
# 3 -0.005967 0.000191 0.008621 0.001982 -0.002311 -0.001708
# 4 -0.003767 0.002980 0.001982 0.024962 -0.006569 0.009962
# 5 0.003507 -0.001387 -0.002311 -0.006569 0.027249 -0.004086
# 6 0.001882 0.001618 -0.001708 0.009962 -0.004086 0.026968
#
#
# Mechanical properties :
#
#
# Convention : Reuss Voigt Hill
#
# Bulk Modulus (GPa) = 66.91705 70.29174 68.60439
# Shear Modulus (GPa) = 30.50886 41.07191 35.79039
#
# Velocity S-wave (km/s) = 3.72835 4.32589 4.03819
# Velocity P-wave (km/s) = 7.00165 7.54836 7.28014
#
# Compressibility (1/GPa) = 0.01494387
#
# Stress axis : x y z
#
# Youngs Moduli (GPa) = 41.66395 67.96713 116.00036
#
# Poissons Ratio (x) = 0.70819 0.69218
# Poissons Ratio (y) = 0.43412 -0.02214
# Poissons Ratio (z) = 0.24861 -0.01297
#
# Static dielectric constant tensor:
#      x y z
#    x 1.812270 -0.029780 -0.050030 
#    y -0.029780 1.844200 -0.073170 
#    z -0.050030 -0.073170 1.791060 
# 
# From -- ./inp_files/494779.got.cif
#   From: 2010.05.17/outbox.ucp.g08.bks.cvg/sg2_248_cif.got.tgz:494779.got - 2010.06.11 11:32:03.
