data_PCOD9074938
_publ_section_title
;
Structure prediction by ZEFSAII (Michael W. Deem and Ramdas Pophale) SiO2 
 PCOD9074938
Probable space group: P -1
;
_chemical_formula_sum "Si O2"
_cell_formula_units_Z 15
_cell_length_a 18.000000
_cell_length_b 21.000000
_cell_length_c 9.000000
_cell_angle_alpha 140.000000
_cell_angle_beta 130.000000
_cell_angle_gamma 20.000000
_cell_volume 700.468056
_symmetry_space_group_name_H-M "P -1"
_symmetry_group_IT_number 2
_symmetry_cell_setting 'triclinic'
loop_
_space_group_symop_operation_xyz
x,y,z
-x,-y,-z
loop_
_atom_site_type_symbol
_atom_site_label
_atom_site_fract_x
_atom_site_fract_y
_atom_site_fract_z
Si Si1 0.514121 0.389006 0.992061
Si Si2 0.343200 0.309933 0.318533
Si Si3 0.981093 0.903996 0.599213
Si Si4 0.000000 0.500000 0.000000
Si Si5 0.618270 0.503052 0.409936
Si Si6 0.880920 0.785721 0.127009
Si Si7 0.065984 0.672713 0.852648
Si Si8 0.247917 0.856904 0.821922
O O1 0.517740 0.504562 0.191462
O O2 0.629714 0.260452 0.071243
O O3 0.277187 0.549798 0.953545
O O4 0.709285 0.167650 0.738887
O O5 0.386148 0.382778 0.450344
O O6 0.166002 0.495369 0.556821
O O7 0.598823 0.039297 0.218295
O O8 0.210432 0.367331 0.127614
O O9 0.993444 0.786935 0.325495
O O10 0.118523 0.766515 0.686353
O O11 0.088509 0.906649 0.679088
O O12 0.020459 0.390374 0.953272
O O13 0.461505 0.649187 0.614497
O O14 0.952050 0.721882 0.932050
O O15 0.888539 0.914696 0.978887
#
# Coordination Sequence:
#
# PCOD9074938 Si02
#       8
#     2   2   2   1   2   2   2   2
#     4  11  23  38  65 111 153 193 227 276 340 437
#     4  12  26  49  74 104 138 186 235 302 352 417
#     4  11  21  41  67 102 153 193 232 276 347 420
#     4  12  30  54  78  96 136 180 250 304 364 406
#     4  11  21  41  67 102 153 193 232 276 347 420
#     4  12  26  49  74 104 138 186 235 302 352 417
#     4  12  26  43  76 112 146 181 236 278 358 428
#     4  11  23  38  65 111 153 193 227 276 340 437
#
# _framework density 21.414252999999999
#
# number of rings (size 3 to 8) (size 9 to 14) (size 15 to 20)
#    0.000    0.533    4.000    6.800    1.867    2.667 
#    0.000    1.333    0.000    0.000    0.000    0.000 
#    0.000    0.000    0.000    0.000    0.000    0.000 
#
# Total GULP energy -83535.684111 kJ/mol
# GULP energy per Si atom -5569.045607 kJ/mol
# Density = 2.136551 g / cm^3
# Si number density = 21.414253 Si / 1000 Ang^3
#
#
#
# Elastic Constant Matrix: (Units=GPa)
#
#
# Indices 1 2 3 4 5 6 
#
# 1 107.1454 22.5487 37.7316 5.3750 7.5278 28.6210
# 2 22.5487 125.7276 28.1612 -12.9572 10.7163 16.3683
# 3 37.7316 28.1612 41.2307 -8.1187 1.9678 5.7156
# 4 5.3750 -12.9572 -8.1187 29.3729 3.1521 6.9122
# 5 7.5278 10.7163 1.9678 3.1521 3.4199 -2.5677
# 6 28.6210 16.3683 5.7156 6.9122 -2.5677 30.9603
#
#
#
# Elastic Compliance Matrix: (Units=1/GPa)
#
#
# Indices 1 2 3 4 5 6 
#
# 1 -0.029022 -0.042307 0.016710 -0.061911 0.308084 0.085485
# 2 -0.042307 -0.030104 0.024358 -0.049100 0.282453 0.084916
# 3 0.016710 0.024358 0.021677 0.051934 -0.220133 -0.062178
# 4 -0.061911 -0.049100 0.051934 -0.027402 0.368296 0.110266
# 5 0.308084 0.282453 -0.220133 0.368296 -1.963021 -0.638524
# 6 0.085485 0.084916 -0.062178 0.110266 -0.638524 -0.157715
#
#
# Mechanical properties :
#
#
# Convention : Reuss Voigt Hill
#
# Bulk Modulus (GPa) = -25.04571 50.10960 12.53195
# Shear Modulus (GPa) = -2.27643 25.12809 11.42583
#
# Velocity S-wave (km/s) = -1.03216 3.42925 2.31240
# Velocity P-wave (km/s) = 3.62514 6.25544 3.60478
#
# Compressibility (1/GPa) = -0.03992700
#
# Stress axis : x y z
#
# Youngs Moduli (GPa) = -34.45619 -33.21777 46.13200
#
# Poissons Ratio (x) = -1.40533 -0.77088
# Poissons Ratio (y) = -1.45772 -1.12367
# Poissons Ratio (z) = 0.57577 0.80911
#
# Static dielectric constant tensor:
#      x y z
#    x 1.800030 0.069500 -0.068870 
#    y 0.069500 1.773750 -0.030080 
#    z -0.068870 -0.030080 1.858970 
# 
# From -- ./inp_files/337968.got.cif
#   From: 2010.05.17/outbox.ucp.g08.bks.cvg/sg2_169_cif.got.tgz:337968.got - 2010.06.11 11:32:03.
