data_PCOD9074731
_publ_section_title
;
Structure prediction by ZEFSAII (Michael W. Deem and Ramdas Pophale) SiO2 
 PCOD9074731
Probable space group: P -1
;
_chemical_formula_sum "Si O2"
_cell_formula_units_Z 14
_cell_length_a 6.000000
_cell_length_b 6.000000
_cell_length_c 21.000000
_cell_angle_alpha 80.000000
_cell_angle_beta 120.000000
_cell_angle_gamma 80.000000
_cell_volume 613.962737
_symmetry_space_group_name_H-M "P -1"
_symmetry_group_IT_number 2
_symmetry_cell_setting 'triclinic'
loop_
_space_group_symop_operation_xyz
x,y,z
-x,-y,-z
loop_
_atom_site_type_symbol
_atom_site_label
_atom_site_fract_x
_atom_site_fract_y
_atom_site_fract_z
Si Si1 0.190064 0.761159 0.317315
Si Si2 0.312869 0.684454 0.612018
Si Si3 0.320849 0.140783 0.243471
Si Si4 0.338266 0.145130 0.030885
Si Si5 0.623524 0.772086 0.200438
Si Si6 0.236765 0.514869 0.108197
Si Si7 0.217613 0.951180 0.451645
O O1 0.491486 0.584923 0.354203
O O2 0.188040 0.814636 0.389606
O O3 0.946706 0.670015 0.260260
O O4 0.135439 0.009113 0.259392
O O5 0.506112 0.789439 0.678835
O O6 0.226090 0.787863 0.523294
O O7 0.018716 0.793939 0.596951
O O8 0.165031 0.339975 0.159323
O O9 0.522898 0.936677 0.239350
O O10 0.339203 0.381548 0.061756
O O11 0.481115 0.947934 0.113894
O O12 0.021757 0.253070 0.956284
O O13 0.500000 0.000000 0.000000
O O14 0.479503 0.571589 0.178063
O O15 0.500000 0.000000 0.500000
#
# Coordination Sequence:
#
# PCOD9074731 Si02
#       7
#     2   2   2   2   2   2   2
#     4  12  26  46  73 108 142 194 238 293 363 425
#     4  11  25  44  72 104 144 187 237 300 352 422
#     4  11  24  46  70 105 148 185 242 294 352 424
#     4  10  24  46  73 108 137 190 242 288 358 429
#     4  11  25  46  73 106 147 187 238 295 360 426
#     4  10  24  49  70 103 150 185 234 306 345 420
#     4  11  24  48  71 104 144 188 243 292 356 428
#
# _framework density 22.802686999999999
#
# number of rings (size 3 to 8) (size 9 to 14) (size 15 to 20)
#    0.000    1.143    2.857    1.714    4.000    5.714 
#    0.000    0.000    0.000    0.000    0.000    0.000 
#    0.000    0.000    0.000    0.000    0.000    0.000 
#
# Total GULP energy -78009.080980 kJ/mol
# GULP energy per Si atom -5572.077213 kJ/mol
# Density = 2.275079 g / cm^3
# Si number density = 22.802687 Si / 1000 Ang^3
#
#
#
# Elastic Constant Matrix: (Units=GPa)
#
#
# Indices 1 2 3 4 5 6 
#
# 1 61.3593 43.1217 47.3100 -0.1716 14.8562 -19.1714
# 2 43.1217 86.9621 48.5764 7.7627 -4.1073 -25.6178
# 3 47.3100 48.5764 154.5496 1.5089 -0.3790 -0.9880
# 4 -0.1716 7.7627 1.5089 52.3049 -10.0111 3.1269
# 5 14.8562 -4.1073 -0.3790 -10.0111 56.5328 2.6838
# 6 -19.1714 -25.6178 -0.9880 3.1269 2.6838 34.1126
#
#
#
# Elastic Compliance Matrix: (Units=1/GPa)
#
#
# Indices 1 2 3 4 5 6 
#
# 1 0.036471 -0.010041 -0.007937 -0.001128 -0.011218 0.013713
# 2 -0.010041 0.022319 -0.003831 -0.003298 0.003125 0.011064
# 3 -0.007937 -0.003831 0.010052 0.001156 0.002428 -0.007344
# 4 -0.001128 -0.003298 0.001156 0.020647 0.003972 -0.005282
# 5 -0.011218 0.003125 0.002428 0.003972 0.021867 -0.005972
# 6 0.013713 0.011064 -0.007344 -0.005282 -0.005972 0.046071
#
#
# Mechanical properties :
#
#
# Convention : Reuss Voigt Hill
#
# Bulk Modulus (GPa) = 39.64415 64.54304 52.09359
# Shear Modulus (GPa) = 23.87168 39.51424 31.69296
#
# Velocity S-wave (km/s) = 3.23906 4.16730 3.73215
# Velocity P-wave (km/s) = 5.60466 7.17786 6.43948
#
# Compressibility (1/GPa) = 0.02522440
#
# Stress axis : x y z
#
# Youngs Moduli (GPa) = 27.41919 44.80415 99.48310
#
# Poissons Ratio (x) = 0.44986 0.78962
# Poissons Ratio (y) = 0.27531 0.38112
# Poissons Ratio (z) = 0.21763 0.17165
#
# Static dielectric constant tensor:
#      x y z
#    x 1.965960 0.052490 -0.067620 
#    y 0.052490 1.909540 -0.021260 
#    z -0.067620 -0.021260 1.793260 
# 
# From -- ./inp_files/580936.got.cif
#   From: 2010.05.17/outbox.ucp.g08.bks.cvg/sg2_291_cif.got.tgz:580936.got - 2010.06.11 11:32:03.
