data_PCOD9074924
_publ_section_title
;
Structure prediction by ZEFSAII (Michael W. Deem and Ramdas Pophale) SiO2 
 PCOD9074924
Probable space group: P -1
;
_chemical_formula_sum "Si O2"
_cell_formula_units_Z 16
_cell_length_a 12.000000
_cell_length_b 15.000000
_cell_length_c 15.000000
_cell_angle_alpha 140.000000
_cell_angle_beta 30.000000
_cell_angle_gamma 120.000000
_cell_volume 747.221570
_symmetry_space_group_name_H-M "P -1"
_symmetry_group_IT_number 2
_symmetry_cell_setting 'triclinic'
loop_
_space_group_symop_operation_xyz
x,y,z
-x,-y,-z
loop_
_atom_site_type_symbol
_atom_site_label
_atom_site_fract_x
_atom_site_fract_y
_atom_site_fract_z
Si Si1 0.592793 0.571633 0.181272
Si Si2 0.551183 0.136693 0.792994
Si Si3 0.839394 0.189474 0.231545
Si Si4 0.502542 0.150824 0.300146
Si Si5 0.148761 0.990247 0.220243
Si Si6 0.304700 0.184090 0.808373
Si Si7 0.495387 0.325044 0.151628
Si Si8 0.110122 0.320485 0.549197
O O1 0.280170 0.700228 0.511775
O O2 0.683969 0.700767 0.188131
O O3 0.602606 0.447583 0.157485
O O4 0.800693 0.433109 0.862111
O O5 0.403379 0.201237 0.851138
O O6 0.849041 0.059150 0.499029
O O7 0.524562 0.993188 0.747644
O O8 0.461136 0.273774 0.036377
O O9 0.585233 0.224008 0.379260
O O10 0.022043 0.216143 0.057081
O O11 0.000000 0.000000 0.000000
O O12 0.253843 0.283028 0.517603
O O13 0.735315 0.074365 0.007514
O O14 0.187632 0.141057 0.327398
O O15 0.300256 0.841455 0.069088
O O16 0.500000 0.000000 0.500000
O O17 0.241161 0.384735 0.436398
#
# Coordination Sequence:
#
# PCOD9074924 Si02
#       8
#     2   2   2   2   2   2   2   2
#     4  12  26  45  68  95 144 174 220 287 333 383
#     4  12  21  37  71 100 131 177 222 264 335 402
#     4  12  25  47  70  91 130 183 234 273 321 393
#     4  11  22  41  73 102 129 178 223 272 332 401
#     4  11  21  39  71 104 140 171 214 272 341 406
#     4  12  26  47  67  92 131 181 234 277 320 390
#     4  11  22  42  67 106 139 171 214 277 341 406
#     4  11  22  43  69 104 142 167 213 280 343 399
#
# _framework density 21.412658
#
# number of rings (size 3 to 8) (size 9 to 14) (size 15 to 20)
#    0.000    0.500    6.250    3.375    0.000    1.000 
#    0.000    8.125    0.000    0.000    0.000    0.000 
#    0.000    0.000    0.000    0.000    0.000    0.000 
#
# Total GULP energy -89161.045150 kJ/mol
# GULP energy per Si atom -5572.565322 kJ/mol
# Density = 2.136392 g / cm^3
# Si number density = 21.412658 Si / 1000 Ang^3
#
#
#
# Elastic Constant Matrix: (Units=GPa)
#
#
# Indices 1 2 3 4 5 6 
#
# 1 79.8665 7.3947 -5.2165 -4.1728 5.6052 -2.3861
# 2 7.3947 181.2908 32.4155 -19.1944 5.4061 -15.1110
# 3 -5.2165 32.4155 114.9920 -12.5615 13.1709 -1.7824
# 4 -4.1728 -19.1944 -12.5615 56.1091 0.4624 5.9875
# 5 5.6052 5.4061 13.1709 0.4624 17.8343 -6.6293
# 6 -2.3861 -15.1110 -1.7824 5.9875 -6.6293 24.8526
#
#
#
# Elastic Compliance Matrix: (Units=1/GPa)
#
#
# Indices 1 2 3 4 5 6 
#
# 1 0.013088 -0.000569 0.001489 0.001231 -0.005333 -0.000702
# 2 -0.000569 0.006250 -0.001678 0.001338 0.000795 0.003515
# 3 0.001489 -0.001678 0.010454 0.002275 -0.008869 -0.003041
# 4 0.001231 0.001338 0.002275 0.019440 -0.004785 -0.004865
# 5 -0.005333 0.000795 -0.008869 -0.004785 0.071447 0.019546
# 6 -0.000702 0.003515 -0.003041 -0.004865 0.019546 0.048475
#
#
# Mechanical properties :
#
#
# Convention : Reuss Voigt Hill
#
# Bulk Modulus (GPa) = 35.36649 49.48185 42.42417
# Shear Modulus (GPa) = 27.76296 42.52957 35.14626
#
# Velocity S-wave (km/s) = 3.60469 4.46150 4.05579
# Velocity P-wave (km/s) = 5.82045 7.04974 6.46438
#
# Compressibility (1/GPa) = 0.02827535
#
# Stress axis : x y z
#
# Youngs Moduli (GPa) = 76.40317 159.99347 95.65679
#
# Poissons Ratio (x) = 0.09107 -0.14240
# Poissons Ratio (y) = 0.04349 0.16053
# Poissons Ratio (z) = -0.11374 0.26849
#
# Static dielectric constant tensor:
#      x y z
#    x 1.834060 0.060230 -0.005360 
#    y 0.060230 1.783190 0.007870 
#    z -0.005360 0.007870 1.794160 
# 
# From -- ./inp_files/455593.got.cif
#   From: 2010.05.17/outbox.ucp.g08.bks.cvg/sg2_228_cif.got.tgz:455593.got - 2010.06.11 11:32:03.
