data_PCOD9074613
_publ_section_title
;
Structure prediction by ZEFSAII (Michael W. Deem and Ramdas Pophale) SiO2 
 PCOD9074613
Probable space group: P -1
;
_chemical_formula_sum "Si O2"
_cell_formula_units_Z 14
_cell_length_a 12.000000
_cell_length_b 9.000000
_cell_length_c 27.000000
_cell_angle_alpha 150.000000
_cell_angle_beta 30.000000
_cell_angle_gamma 140.000000
_cell_volume 727.497153
_symmetry_space_group_name_H-M "P -1"
_symmetry_group_IT_number 2
_symmetry_cell_setting 'triclinic'
loop_
_space_group_symop_operation_xyz
x,y,z
-x,-y,-z
loop_
_atom_site_type_symbol
_atom_site_label
_atom_site_fract_x
_atom_site_fract_y
_atom_site_fract_z
Si Si1 0.433629 0.906523 0.418106
Si Si2 0.600570 0.276715 0.197140
Si Si3 0.666283 0.972070 0.976932
Si Si4 0.038250 0.899886 0.732884
Si Si5 0.906002 0.718027 0.275224
Si Si6 0.326528 0.696267 0.183153
Si Si7 0.817219 0.231911 0.628521
O O1 0.451049 0.567174 0.334036
O O2 0.325760 0.868048 0.393742
O O3 0.689900 0.050001 0.354626
O O4 0.284135 0.103361 0.569605
O O5 0.793527 0.423436 0.203796
O O6 0.483473 0.970448 0.177574
O O7 0.659315 0.196164 0.092703
O O8 0.612182 0.649591 0.931836
O O9 0.906522 0.996236 0.861685
O O10 0.500000 0.000000 0.000000
O O11 0.939628 0.559163 0.666687
O O12 0.991816 0.080974 0.752177
O O13 0.101209 0.672816 0.228085
O O14 0.301204 0.773194 0.273565
O O15 0.000000 0.000000 0.500000
#
# Coordination Sequence:
#
# PCOD9074613 Si02
#       7
#     2   2   2   2   2   2   2
#     4  11  24  42  66  99 135 173 215 261 325 396
#     4  11  24  42  69  94 131 176 215 268 326 374
#     4  11  24  47  69  93 130 172 227 267 321 389
#     4  10  24  42  64  95 129 172 217 268 319 383
#     4  11  24  41  66 101 134 166 217 266 324 394
#     4  11  24  42  66 100 128 168 216 275 324 381
#     4  11  23  38  63  94 131 176 207 258 327 377
#
# _framework density 19.244062
#
# number of rings (size 3 to 8) (size 9 to 14) (size 15 to 20)
#    0.000    1.143    1.429    5.571    4.000    6.857 
#    0.000    4.286    0.000    0.000    0.000    0.000 
#    0.000    0.000    0.000    0.000    0.000    0.000 
#
# Total GULP energy -77977.806732 kJ/mol
# GULP energy per Si atom -5569.843338 kJ/mol
# Density = 1.920026 g / cm^3
# Si number density = 19.244062 Si / 1000 Ang^3
#
#
#
# Elastic Constant Matrix: (Units=GPa)
#
#
# Indices 1 2 3 4 5 6 
#
# 1 173.4595 57.0559 30.9472 5.8917 13.4034 -1.2054
# 2 57.0559 149.3437 42.5175 -4.3103 5.3505 -12.8596
# 3 30.9472 42.5175 97.3302 5.3201 29.0778 0.2885
# 4 5.8917 -4.3103 5.3201 28.6436 -3.3374 3.4689
# 5 13.4034 5.3505 29.0778 -3.3374 49.8857 3.0094
# 6 -1.2054 -12.8596 0.2885 3.4689 3.0094 38.2765
#
#
#
# Elastic Compliance Matrix: (Units=1/GPa)
#
#
# Indices 1 2 3 4 5 6 
#
# 1 0.006848 -0.002479 -0.000601 -0.001782 -0.001322 -0.000347
# 2 -0.002479 0.008966 -0.003859 0.002492 0.001965 0.002583
# 3 -0.000601 -0.003859 0.014873 -0.004144 -0.008347 -0.000396
# 4 -0.001782 0.002492 -0.004144 0.037405 0.005310 -0.002995
# 5 -0.001322 0.001965 -0.008347 0.005310 0.025520 -0.001806
# 6 -0.000347 0.002583 -0.000396 -0.002995 -0.001806 0.027399
#
#
# Mechanical properties :
#
#
# Convention : Reuss Voigt Hill
#
# Bulk Modulus (GPa) = 59.49655 75.68605 67.59130
# Shear Modulus (GPa) = 35.58949 42.66867 39.12908
#
# Velocity S-wave (km/s) = 4.30510 4.71386 4.51411
# Velocity P-wave (km/s) = 7.46296 8.30917 7.89741
#
# Compressibility (1/GPa) = 0.01680770
#
# Stress axis : x y z
#
# Youngs Moduli (GPa) = 146.02857 111.53611 67.23741
#
# Poissons Ratio (x) = 0.27651 0.04041
# Poissons Ratio (y) = 0.36202 0.25948
# Poissons Ratio (z) = 0.08777 0.43044
#
# Static dielectric constant tensor:
#      x y z
#    x 1.706020 0.014620 -0.000420 
#    y 0.014620 1.667890 -0.002480 
#    z -0.000420 -0.002480 1.768230 
# 
# From -- ./inp_files/389643.got.cif
#   From: 2010.05.17/outbox.ucp.g08.bks.cvg/sg2_195_cif.got.tgz:389643.got - 2010.06.11 11:32:03.
