data_PCOD9074455
_publ_section_title
;
Structure prediction by ZEFSAII (Michael W. Deem and Ramdas Pophale) SiO2 
 PCOD9074455
Probable space group: P -1
;
_chemical_formula_sum "Si O2"
_cell_formula_units_Z 16
_cell_length_a 18.868645
_cell_length_b 13.374514
_cell_length_c 9.627032
_cell_angle_alpha 74.131008
_cell_angle_beta 127.916723
_cell_angle_gamma 148.307234
_cell_volume 804.147870
_symmetry_space_group_name_H-M "P -1"
_symmetry_group_IT_number 2
_symmetry_cell_setting 'triclinic'
loop_
_space_group_symop_operation_xyz
x,y,z
-x,-y,-z
loop_
_atom_site_type_symbol
_atom_site_label
_atom_site_fract_x
_atom_site_fract_y
_atom_site_fract_z
Si Si1 0.332933 0.784366 0.270686
Si Si2 0.283724 0.213215 0.341940
Si Si3 0.408868 0.137119 0.427502
Si Si4 0.118968 0.757429 0.987207
Si Si5 0.869076 0.858842 0.096465
Si Si6 0.094518 0.935296 0.702807
Si Si7 0.380803 0.512192 0.701771
Si Si8 0.534290 0.644538 0.141539
O O1 0.446792 0.798919 0.351496
O O2 0.261897 0.810535 0.086037
O O3 0.500000 0.000000 0.500000
O O4 0.116669 0.524267 0.176354
O O5 0.500000 0.500000 0.500000
O O6 0.338383 0.149873 0.447068
O O7 0.184303 0.121590 0.103835
O O8 0.102980 0.067374 0.277150
O O9 0.534757 0.329545 0.383328
O O10 0.216566 0.887677 0.206178
O O11 0.120040 0.860218 0.855997
O O12 0.847962 0.902293 0.196348
O O13 0.693369 0.586316 0.977512
O O14 0.855191 0.704754 0.475678
O O15 0.233941 0.070072 0.681605
O O16 0.421422 0.432538 0.752519
O O17 0.488803 0.636871 0.933066
#
# Coordination Sequence:
#
# PCOD9074455 Si02
#       8
#     2   2   2   2   2   2   2   2
#     4   9  20  31  51  74 103 130 166 212 264 316
#     4  11  23  34  50  70 103 147 183 209 243 295
#     4  11  18  35  50  74 106 139 171 208 254 299
#     4  10  18  32  51  76 103 131 167 213 261 310
#     4  11  22  33  46  73 103 140 180 211 239 303
#     4  12  19  31  54  72 106 140 167 210 264 298
#     4  11  19  29  50  73 100 142 168 202 253 306
#     4  11  20  33  45  73 105 135 176 208 246 310
#
# _framework density 19.896837999999999
#
# number of rings (size 3 to 8) (size 9 to 14) (size 15 to 20)
#    0.000    1.250    7.500    1.125    0.000    0.000 
#    0.000    0.000    0.000    0.000    0.000    0.875 
#    0.000    7.500    0.000    0.125    0.000    0.000 
#
# Total GULP energy -89075.701721 kJ/mol
# GULP energy per Si atom -5567.231358 kJ/mol
# Density = 1.985155 g / cm^3
# Si number density = 19.896838 Si / 1000 Ang^3
#
#
#
# Elastic Constant Matrix: (Units=GPa)
#
#
# Indices 1 2 3 4 5 6 
#
# 1 68.7357 28.3515 41.1815 -0.1613 35.0364 -5.1549
# 2 28.3515 68.0220 35.0518 15.9864 18.7038 -0.7575
# 3 41.1815 35.0518 121.9814 10.8289 37.3156 -1.9428
# 4 -0.1613 15.9864 10.8289 44.3770 4.7485 12.8721
# 5 35.0364 18.7038 37.3156 4.7485 40.2442 -4.2232
# 6 -5.1549 -0.7575 -1.9428 12.8721 -4.2232 30.8871
#
#
#
# Elastic Compliance Matrix: (Units=1/GPa)
#
#
# Indices 1 2 3 4 5 6 
#
# 1 0.029274 -0.006615 -0.001957 0.005410 -0.021295 -0.000566
# 2 -0.006615 0.020797 -0.003061 -0.007450 0.000055 0.002326
# 3 -0.001957 -0.003061 0.012336 -0.000926 -0.008240 -0.000366
# 4 0.005410 -0.007450 -0.000926 0.029611 -0.005182 -0.012387
# 5 -0.021295 0.000055 -0.008240 -0.005182 0.052162 0.005221
# 6 -0.000566 0.002326 -0.000366 -0.012387 0.005221 0.038192
#
#
# Mechanical properties :
#
#
# Convention : Reuss Voigt Hill
#
# Bulk Modulus (GPa) = 25.54958 51.98985 38.76972
# Shear Modulus (GPa) = 22.86377 33.37861 28.12119
#
# Velocity S-wave (km/s) = 3.39354 4.10027 3.76353
# Velocity P-wave (km/s) = 5.31260 6.97157 6.19784
#
# Compressibility (1/GPa) = 0.03913958
#
# Stress axis : x y z
#
# Youngs Moduli (GPa) = 34.15947 48.08287 81.06560
#
# Poissons Ratio (x) = 0.31809 0.15867
# Poissons Ratio (y) = 0.22598 0.24817
# Poissons Ratio (z) = 0.06686 0.14720
#
# Static dielectric constant tensor:
#      x y z
#    x 1.771590 -0.013080 -0.016330 
#    y -0.013080 1.742880 0.035950 
#    z -0.016330 0.035950 1.780880 
# 
# From -- ./inp_files/463786.got.cif
#   From: 2010.05.17/outbox.cif.g08.bks.cpg/sg2_232_cif.got.tgz:463786.got - 2010.06.03 11:33:40.
