data_PCOD9074005
_publ_section_title
;
Structure prediction by ZEFSAII (Michael W. Deem and Ramdas Pophale) SiO2 
 PCOD9074005
Probable space group: P -1
;
_chemical_formula_sum "Si O2"
_cell_formula_units_Z 15
_cell_length_a 24.000000
_cell_length_b 12.000000
_cell_length_c 15.000000
_cell_angle_alpha 150.000000
_cell_angle_beta 20.000000
_cell_angle_gamma 150.000000
_cell_volume 703.466731
_symmetry_space_group_name_H-M "P -1"
_symmetry_group_IT_number 2
_symmetry_cell_setting 'triclinic'
loop_
_space_group_symop_operation_xyz
x,y,z
-x,-y,-z
loop_
_atom_site_type_symbol
_atom_site_label
_atom_site_fract_x
_atom_site_fract_y
_atom_site_fract_z
Si Si1 0.812229 0.817063 0.639765
Si Si2 0.480024 0.951837 0.215598
Si Si3 0.500000 0.000000 0.000000
Si Si4 0.930310 0.718329 0.736114
Si Si5 0.181438 0.511403 0.435075
Si Si6 0.096960 0.249703 0.915408
Si Si7 0.722563 0.757376 0.531291
Si Si8 0.375255 0.381053 0.741345
O O1 0.779894 0.612485 0.619811
O O2 0.777872 0.723531 0.524235
O O3 0.666793 0.942676 0.954444
O O4 0.000000 0.000000 0.500000
O O5 0.341670 0.708867 0.286981
O O6 0.467292 0.981214 0.148230
O O7 0.452668 0.171784 0.461132
O O8 0.293879 0.983956 0.280125
O O9 0.898127 0.693018 0.660379
O O10 0.000000 0.500000 0.500000
O O11 0.745786 0.664020 0.022718
O O12 0.033297 0.964846 0.801191
O O13 0.050778 0.652518 0.758671
O O14 0.162402 0.323040 0.767990
O O15 0.255319 0.361024 0.821114
O O16 0.521794 0.628218 0.712263
#
# Coordination Sequence:
#
# PCOD9074005 Si02
#       8
#     2   2   1   2   2   2   2   2
#     4  11  27  51  75 100 142 199 250 303 361 441
#     4  11  24  47  74 106 146 189 247 300 366 430
#     4  10  22  40  72 102 142 180 240 292 360 436
#     4  12  24  42  72 108 147 190 236 297 369 430
#     4  12  26  49  75 105 153 192 246 299 363 442
#     4  12  25  43  71 114 146 187 237 306 365 438
#     4  11  26  43  69 104 141 193 241 296 376 420
#     4  12  24  44  69 110 147 183 238 304 364 438
#
# _framework density 21.322970000000002
#
# number of rings (size 3 to 8) (size 9 to 14) (size 15 to 20)
#    0.000    0.533    4.000    4.400    3.733    1.600 
#    2.400    1.333    0.000    0.000    0.000    0.000 
#    0.000    0.000    0.000    0.000    0.000    0.000 
#
# Total GULP energy -83646.690363 kJ/mol
# GULP energy per Si atom -5576.446024 kJ/mol
# Density = 2.127444 g / cm^3
# Si number density = 21.322970 Si / 1000 Ang^3
#
#
#
# Elastic Constant Matrix: (Units=GPa)
#
#
# Indices 1 2 3 4 5 6 
#
# 1 190.2350 38.2723 64.7956 -3.0858 4.3334 -7.1411
# 2 38.2723 24.2292 28.9700 -18.7204 -11.0523 -3.9408
# 3 64.7956 28.9700 154.7565 -2.1788 17.7556 1.9434
# 4 -3.0858 -18.7204 -2.1788 37.7819 3.6451 0.0073
# 5 4.3334 -11.0523 17.7556 3.6451 42.8838 -0.7321
# 6 -7.1411 -3.9408 1.9434 0.0073 -0.7321 34.6564
#
#
#
# Elastic Compliance Matrix: (Units=1/GPa)
#
#
# Indices 1 2 3 4 5 6 
#
# 1 0.015904 -0.067386 0.007874 -0.029725 -0.019797 -0.005239
# 2 -0.067386 0.468645 -0.073335 0.208863 0.140995 0.046452
# 3 0.007874 -0.073335 0.019431 -0.032145 -0.025151 -0.008331
# 4 -0.029725 0.208863 -0.032145 0.119853 0.060308 0.020677
# 5 -0.019797 0.140995 -0.025151 0.060308 0.067197 0.014771
# 6 -0.005239 0.046452 -0.008331 0.020677 0.014771 0.033832
#
#
# Mechanical properties :
#
#
# Convention : Reuss Voigt Hill
#
# Bulk Modulus (GPa) = 4.19661 70.36628 37.28144
# Shear Modulus (GPa) = 4.67297 38.87661 21.77479
#
# Velocity S-wave (km/s) = 1.48198 4.27456 3.19907
# Velocity P-wave (km/s) = 2.21377 7.57854 5.58279
#
# Compressibility (1/GPa) = 0.23828751
#
# Stress axis : x y z
#
# Youngs Moduli (GPa) = 62.87866 2.13381 51.46527
#
# Poissons Ratio (x) = 0.14379 -0.40526
# Poissons Ratio (y) = 4.23712 3.77419
# Poissons Ratio (z) = -0.49513 0.15648
#
# Static dielectric constant tensor:
#      x y z
#    x 1.752790 0.012630 0.024930 
#    y 0.012630 1.616520 -0.180240 
#    z 0.024930 -0.180240 1.714930 
# 
# From -- ./inp_files/542904.got.cif
#   From: 2010.05.17/outbox.ucp.g08.bks.cvg/sg2_272_cif.got.tgz:542904.got - 2010.06.11 11:32:03.
