data_PCOD9074941
_publ_section_title
;
Structure prediction by ZEFSAII (Michael W. Deem and Ramdas Pophale) SiO2 
 PCOD9074941
Probable space group: P -1
;
_chemical_formula_sum "Si O2"
_cell_formula_units_Z 16
_cell_length_a 21.000000
_cell_length_b 9.000000
_cell_length_c 12.000000
_cell_angle_alpha 140.000000
_cell_angle_beta 130.000000
_cell_angle_gamma 30.000000
_cell_volume 727.418465
_symmetry_space_group_name_H-M "P -1"
_symmetry_group_IT_number 2
_symmetry_cell_setting 'triclinic'
loop_
_space_group_symop_operation_xyz
x,y,z
-x,-y,-z
loop_
_atom_site_type_symbol
_atom_site_label
_atom_site_fract_x
_atom_site_fract_y
_atom_site_fract_z
Si Si1 0.677685 0.297615 0.006566
Si Si2 0.205782 0.541753 0.258744
Si Si3 0.560368 0.134231 0.628566
Si Si4 0.331774 0.745359 0.579166
Si Si5 0.311279 0.212732 0.658131
Si Si6 0.803260 0.880566 0.133066
Si Si7 0.087665 0.428787 0.233412
Si Si8 0.960868 0.353912 0.437787
O O1 0.599722 0.233243 0.831397
O O2 0.810575 0.990997 0.912073
O O3 0.631573 0.663612 0.160476
O O4 0.715260 0.194432 0.121293
O O5 0.309647 0.524727 0.387881
O O6 0.159720 0.488045 0.283858
O O7 0.226105 0.318761 0.053817
O O8 0.081162 0.942838 0.321247
O O9 0.455293 0.496824 0.651358
O O10 0.500000 0.000000 0.500000
O O11 0.662279 0.876123 0.495595
O O12 0.344778 0.908969 0.591183
O O13 0.224876 0.020898 0.711577
O O14 0.159170 0.529120 0.678230
O O15 0.950367 0.652764 0.154369
O O16 0.064452 0.536717 0.397932
O O17 0.000000 0.500000 0.500000
#
# Coordination Sequence:
#
# PCOD9074941 Si02
#       8
#     2   2   2   2   2   2   2   2
#     4  11  25  43  71 100 133 174 224 281 332 392
#     4  11  23  40  67  98 135 176 220 276 333 393
#     4  12  27  48  73  98 128 177 235 280 326 389
#     4  12  27  44  66  98 134 180 221 273 336 396
#     4  12  26  46  68  99 140 176 219 277 337 400
#     4  11  23  41  67 101 134 170 227 276 333 395
#     4  11  21  41  67  98 135 175 219 279 332 395
#     4  12  22  40  68 101 138 177 215 267 341 404
#
# _framework density 21.995591999999998
#
# number of rings (size 3 to 8) (size 9 to 14) (size 15 to 20)
#    0.000    0.500    3.750    6.000    1.750    5.500 
#    0.000    2.500    0.000    0.000    0.000    0.000 
#    0.000    0.000    0.000    0.000    0.000    0.000 
#
# Total GULP energy -89189.152556 kJ/mol
# GULP energy per Si atom -5574.322035 kJ/mol
# Density = 2.194553 g / cm^3
# Si number density = 21.995592 Si / 1000 Ang^3
#
#
#
# Elastic Constant Matrix: (Units=GPa)
#
#
# Indices 1 2 3 4 5 6 
#
# 1 81.9030 9.7447 40.4961 -9.0437 30.7359 2.7700
# 2 9.7447 74.8196 0.3852 -15.4633 12.4242 -4.1774
# 3 40.4961 0.3852 124.1802 -18.8392 36.4726 8.8678
# 4 -9.0437 -15.4633 -18.8392 39.5080 -4.5212 0.3276
# 5 30.7359 12.4242 36.4726 -4.5212 26.9767 1.5357
# 6 2.7700 -4.1774 8.8678 0.3276 1.5357 26.4854
#
#
#
# Elastic Compliance Matrix: (Units=1/GPa)
#
#
# Indices 1 2 3 4 5 6 
#
# 1 0.021899 0.002379 0.001510 0.003530 -0.027447 -0.000873
# 2 0.002379 0.017475 0.005058 0.007909 -0.016366 0.001665
# 3 0.001510 0.005058 0.016021 0.007211 -0.024309 -0.003404
# 4 0.003530 0.007909 0.007211 0.031279 -0.012103 -0.001221
# 5 -0.027447 -0.016366 -0.024309 -0.012103 0.106579 0.002398
# 6 -0.000873 0.001665 -0.003404 -0.001221 0.002398 0.039126
#
#
# Mechanical properties :
#
#
# Convention : Reuss Voigt Hill
#
# Bulk Modulus (GPa) = 13.64457 42.46165 28.05311
# Shear Modulus (GPa) = 20.92790 33.94581 27.43685
#
# Velocity S-wave (km/s) = 3.08792 3.93275 3.53566
# Velocity P-wave (km/s) = 4.35091 6.32207 5.42674
#
# Compressibility (1/GPa) = 0.07328923
#
# Stress axis : x y z
#
# Youngs Moduli (GPa) = 45.66380 57.22517 62.41659
#
# Poissons Ratio (x) = -0.13612 -0.09428
# Poissons Ratio (y) = -0.10862 -0.31569
# Poissons Ratio (z) = -0.06897 -0.28943
#
# Static dielectric constant tensor:
#      x y z
#    x 1.852200 -0.027210 -0.016100 
#    y -0.027210 1.913110 0.022710 
#    z -0.016100 0.022710 1.766790 
# 
# From -- ./inp_files/452368.got.cif
#   From: 2010.05.17/outbox.ucp.g08.bks.cvg/sg2_227_cif.got.tgz:452368.got - 2010.06.11 11:32:03.
