data_PCOD9074077
_publ_section_title
;
Structure prediction by ZEFSAII (Michael W. Deem and Ramdas Pophale) SiO2 
 PCOD9074077
Probable space group: P -1
;
_chemical_formula_sum "Si O2"
_cell_formula_units_Z 14
_cell_length_a 12.000000
_cell_length_b 9.000000
_cell_length_c 15.000000
_cell_angle_alpha 50.000000
_cell_angle_beta 150.000000
_cell_angle_gamma 120.000000
_cell_volume 613.666794
_symmetry_space_group_name_H-M "P -1"
_symmetry_group_IT_number 2
_symmetry_cell_setting 'triclinic'
loop_
_space_group_symop_operation_xyz
x,y,z
-x,-y,-z
loop_
_atom_site_type_symbol
_atom_site_label
_atom_site_fract_x
_atom_site_fract_y
_atom_site_fract_z
Si Si1 0.424712 0.856502 0.871746
Si Si2 0.280953 0.242618 0.724993
Si Si3 0.349353 0.167453 0.133793
Si Si4 0.120823 0.451275 0.240671
Si Si5 0.094820 0.547350 0.729313
Si Si6 0.407459 0.453805 0.212908
Si Si7 0.592213 0.241551 0.596001
O O1 0.492244 0.935353 0.793638
O O2 0.303147 0.669357 0.836344
O O3 0.281277 0.031104 0.760732
O O4 0.649961 0.790685 0.111570
O O5 0.497624 0.340775 0.804151
O O6 0.054984 0.386015 0.486376
O O7 0.455176 0.320905 0.209456
O O8 0.304384 0.986865 0.234362
O O9 0.161894 0.318135 0.892045
O O10 0.320962 0.287502 0.408482
O O11 0.257275 0.637011 0.282328
O O12 0.059649 0.376181 0.323441
O O13 0.873623 0.506059 0.997921
O O14 0.567152 0.334778 0.444183
#
# Coordination Sequence:
#
# PCOD9074077 Si02
#       7
#     2   2   2   2   2   2   2
#     4  11  24  45  66  95 132 166 223 262 315 388
#     4  11  23  42  70  93 127 173 216 265 314 378
#     4  11  25  43  65  97 136 169 206 269 327 380
#     4  10  22  41  69  94 127 172 214 269 313 375
#     4  11  22  43  67  94 135 169 210 265 326 379
#     4  11  23  44  66  97 133 164 217 268 321 379
#     4  11  23  43  67  95 131 169 219 261 320 384
#
# _framework density 22.813683000000001
#
# number of rings (size 3 to 8) (size 9 to 14) (size 15 to 20)
#    0.000    1.143    4.286    2.571    2.000    2.857 
#    2.571    0.000    0.000    0.000    0.000    0.000 
#    0.000    0.000    0.000    0.000    0.000    0.000 
#
# Total GULP energy -77999.171784 kJ/mol
# GULP energy per Si atom -5571.369413 kJ/mol
# Density = 2.276176 g / cm^3
# Si number density = 22.813683 Si / 1000 Ang^3
#
#
#
# Elastic Constant Matrix: (Units=GPa)
#
#
# Indices 1 2 3 4 5 6 
#
# 1 49.8277 -1.5903 -7.8177 -5.3202 -10.2422 -7.4928
# 2 -1.5903 81.3600 58.4188 -2.9976 3.0811 12.4049
# 3 -7.8177 58.4188 145.8716 -14.0562 -18.8159 -4.2456
# 4 -5.3202 -2.9976 -14.0562 36.1716 13.5202 -2.7154
# 5 -10.2422 3.0811 -18.8159 13.5202 22.5302 -9.3719
# 6 -7.4928 12.4049 -4.2456 -2.7154 -9.3719 14.4801
#
#
#
# Elastic Compliance Matrix: (Units=1/GPa)
#
#
# Indices 1 2 3 4 5 6 
#
# 1 -0.009294 0.033938 -0.024777 0.012604 -0.072875 -0.085951
# 2 0.033938 -0.022486 0.023545 -0.012630 0.086142 0.097113
# 3 -0.024777 0.023545 -0.013300 0.011393 -0.064157 -0.076279
# 4 0.012604 -0.012630 0.011393 0.030590 0.013144 0.034926
# 5 -0.072875 0.086142 -0.064157 0.013144 -0.157607 -0.229860
# 6 -0.085951 0.097113 -0.076279 0.034926 -0.229860 -0.223199
#
#
# Mechanical properties :
#
#
# Convention : Reuss Voigt Hill
#
# Bulk Modulus (GPa) = 49.18149 41.67564 45.42857
# Shear Modulus (GPa) = -11.01493 29.83961 9.41234
#
# Velocity S-wave (km/s) = -2.19970 3.62051 2.03340
# Velocity P-wave (km/s) = 3.89270 5.98205 5.04668
#
# Compressibility (1/GPa) = 0.02033285
#
# Stress axis : x y z
#
# Youngs Moduli (GPa) = -107.60088 -44.47269 -75.19046
#
# Poissons Ratio (x) = 1.50930 -1.86297
# Poissons Ratio (y) = 3.65173 1.77034
# Poissons Ratio (z) = -2.66599 1.04710
#
# Static dielectric constant tensor:
#      x y z
#    x 1.972620 0.026510 0.020590 
#    y 0.026510 1.851220 -0.002230 
#    z 0.020590 -0.002230 1.866860 
# 
# From -- ./inp_files/199229.got.cif
#   From: 2010.05.17/outbox.ucp.g08.bks.cvg/sg2_100_cif.got.tgz:199229.got - 2010.06.11 11:32:03.
