data_PCOD9074859
_publ_section_title
;
Structure prediction by ZEFSAII (Michael W. Deem and Ramdas Pophale) SiO2 
 PCOD9074859
Probable space group: P -1
;
_chemical_formula_sum "Si O2"
_cell_formula_units_Z 16
_cell_length_a 15.000000
_cell_length_b 9.000000
_cell_length_c 15.000000
_cell_angle_alpha 70.000000
_cell_angle_beta 40.000000
_cell_angle_gamma 100.000000
_cell_volume 847.243846
_symmetry_space_group_name_H-M "P -1"
_symmetry_group_IT_number 2
_symmetry_cell_setting 'triclinic'
loop_
_space_group_symop_operation_xyz
x,y,z
-x,-y,-z
loop_
_atom_site_type_symbol
_atom_site_label
_atom_site_fract_x
_atom_site_fract_y
_atom_site_fract_z
Si Si1 0.822403 0.617224 0.479722
Si Si2 0.409165 0.831580 0.184924
Si Si3 0.858878 0.461803 0.295746
Si Si4 0.617894 0.019889 0.648368
Si Si5 0.236765 0.106987 0.033203
Si Si6 0.524015 0.206024 0.460797
Si Si7 0.519593 0.401341 0.245553
Si Si8 0.734428 0.035855 0.139118
O O1 0.772959 0.442052 0.626591
O O2 0.814028 0.520349 0.410046
O O3 0.659157 0.620306 0.603765
O O4 0.034939 0.872679 0.276060
O O5 0.352736 0.913229 0.285694
O O6 0.585088 0.861217 0.078763
O O7 0.500000 0.000000 0.000000
O O8 0.712896 0.388275 0.342641
O O9 0.812592 0.240103 0.399500
O O10 0.080068 0.693551 0.052702
O O11 0.542261 0.781813 0.740462
O O12 0.448574 0.003243 0.745438
O O13 0.289315 0.329547 0.971372
O O14 0.226663 0.067147 0.942643
O O15 0.542439 0.321625 0.334736
O O16 0.500000 0.000000 0.500000
O O17 0.330165 0.089788 0.691922
#
# Coordination Sequence:
#
# PCOD9074859 Si02
#       8
#     2   2   2   2   2   2   2   2
#     4   9  20  36  53  75 105 137 168 205 256 308
#     4   9  18  36  63  81  96 128 169 210 249 305
#     4   9  18  34  51  69  99 139 180 214 245 291
#     4   9  18  34  51  77 104 131 168 208 257 303
#     4   9  20  36  53  75 105 137 168 205 256 308
#     4  11  20  32  46  76 104 135 179 221 249 285
#     4  11  20  33  50  73 107 139 166 209 263 299
#     4   9  18  34  51  69  99 139 180 214 245 291
#
# _framework density 18.884764000000001
#
# number of rings (size 3 to 8) (size 9 to 14) (size 15 to 20)
#    0.000    2.500    2.500    2.250    0.000    5.000 
#    0.000    5.000    0.000    1.500    0.000    0.000 
#    0.000    0.000    0.000    0.000    0.000    0.000 
#
# Total GULP energy -89091.714779 kJ/mol
# GULP energy per Si atom -5568.232174 kJ/mol
# Density = 1.884178 g / cm^3
# Si number density = 18.884764 Si / 1000 Ang^3
#
#
#
# Elastic Constant Matrix: (Units=GPa)
#
#
# Indices 1 2 3 4 5 6 
#
# 1 14.6865 20.3237 23.1281 -8.0363 21.9900 -7.7972
# 2 20.3237 78.9487 19.4039 -41.5857 9.5938 -9.3973
# 3 23.1281 19.4039 74.2336 -36.5435 5.1936 5.6501
# 4 -8.0363 -41.5857 -36.5435 31.0807 -0.3326 1.7051
# 5 21.9900 9.5938 5.1936 -0.3326 24.4546 -3.7175
# 6 -7.7972 -9.3973 5.6501 1.7051 -3.7175 13.0544
#
#
#
# Elastic Compliance Matrix: (Units=1/GPa)
#
#
# Indices 1 2 3 4 5 6 
#
# 1 -0.634839 -0.621796 -0.379511 -1.420278 0.839926 -0.237824
# 2 -0.621796 -0.684544 -0.455673 -1.591547 0.870723 -0.211099
# 3 -0.379511 -0.455673 -0.279660 -1.022837 0.543423 -0.145302
# 4 -1.420278 -1.591547 -1.022837 -3.617757 1.991781 -0.511550
# 5 0.839926 0.870723 0.543423 1.991781 -1.095480 0.321144
# 6 -0.237824 -0.211099 -0.145302 -0.511550 0.321144 0.003752
#
#
# Mechanical properties :
#
#
# Convention : Reuss Voigt Hill
#
# Bulk Modulus (GPa) = -0.22158 32.62002 16.19922
# Shear Modulus (GPa) = -1.02064 20.71882 9.84909
#
# Velocity S-wave (km/s) = -0.73595 3.31587 2.28619
# Velocity P-wave (km/s) = 0.91638 5.65426 3.94531
#
# Compressibility (1/GPa) = -4.51300295
#
# Stress axis : x y z
#
# Youngs Moduli (GPa) = -1.57520 -1.46083 -3.57578
#
# Poissons Ratio (x) = -0.90834 -1.35705
# Poissons Ratio (y) = -0.97946 -1.62938
# Poissons Ratio (z) = -0.59781 -0.66566
#
# Static dielectric constant tensor:
#      x y z
#    x 1.645660 0.027840 0.005120 
#    y 0.027840 1.667120 -0.008940 
#    z 0.005120 -0.008940 1.743060 
# 
# From -- ./inp_files/268232.got.cif
#   From: 2010.05.17/outbox.ucp.g08.bks.cvg/sg2_135_cif.got.tgz:268232.got - 2010.06.11 11:32:03.
