data_PCOD9074989
_publ_section_title
;
Structure prediction by ZEFSAII (Michael W. Deem and Ramdas Pophale) SiO2 
 PCOD9074989
Probable space group: P -1
;
_chemical_formula_sum "Si O2"
_cell_formula_units_Z 16
_cell_length_a 12.000000
_cell_length_b 21.000000
_cell_length_c 18.000000
_cell_angle_alpha 160.000000
_cell_angle_beta 140.000000
_cell_angle_gamma 30.000000
_cell_volume 744.844803
_symmetry_space_group_name_H-M "P -1"
_symmetry_group_IT_number 2
_symmetry_cell_setting 'triclinic'
loop_
_space_group_symop_operation_xyz
x,y,z
-x,-y,-z
loop_
_atom_site_type_symbol
_atom_site_label
_atom_site_fract_x
_atom_site_fract_y
_atom_site_fract_z
Si Si1 0.851481 0.615651 0.347162
Si Si2 0.335262 0.836064 0.316784
Si Si3 0.262984 0.833311 0.431374
Si Si4 0.178544 0.395061 0.406824
Si Si5 0.617304 0.364788 0.191740
Si Si6 0.587297 0.883014 0.129106
Si Si7 0.634438 0.176607 0.849532
Si Si8 0.107070 0.401649 0.819141
O O1 0.603089 0.695913 0.311794
O O2 0.940506 0.518735 0.203754
O O3 0.035863 0.435624 0.306340
O O4 0.778201 0.884048 0.609571
O O5 0.278439 0.750049 0.263586
O O6 0.322138 0.781083 0.164875
O O7 0.170180 0.137117 0.567127
O O8 0.387580 0.633047 0.340614
O O9 0.374109 0.962140 0.628800
O O10 0.000000 0.000000 0.500000
O O11 0.243029 0.570547 0.625168
O O12 0.000000 0.500000 0.500000
O O13 0.411557 0.105773 0.223498
O O14 0.547897 0.211815 0.021423
O O15 0.728131 0.242809 0.034090
O O16 0.860105 0.630127 0.980445
O O17 0.359286 0.315981 0.874368
#
# Coordination Sequence:
#
# PCOD9074989 Si02
#       8
#     2   2   2   2   2   2   2   2
#     4   9  18  36  60  86 116 153 197 241 286 344
#     4   9  18  35  59  88 119 149 190 242 293 348
#     4  11  22  35  57  90 123 154 192 240 294 353
#     4  11  24  41  60  85 117 154 202 246 283 345
#     4  11  23  38  60  87 116 154 197 241 293 345
#     4  11  23  39  59  86 120 157 195 240 294 347
#     4   9  18  34  60  89 116 150 190 239 297 349
#     4   9  18  35  61  88 117 152 189 238 299 352
#
# _framework density 21.480985
#
# number of rings (size 3 to 8) (size 9 to 14) (size 15 to 20)
#    0.000    2.000    0.000    6.750    0.000    4.500 
#    0.000    1.875    0.000    0.000    0.000    0.000 
#    0.000    0.000    0.000    0.000    0.000    0.000 
#
# Total GULP energy -89162.893760 kJ/mol
# GULP energy per Si atom -5572.680860 kJ/mol
# Density = 2.143209 g / cm^3
# Si number density = 21.480985 Si / 1000 Ang^3
#
#
#
# Elastic Constant Matrix: (Units=GPa)
#
#
# Indices 1 2 3 4 5 6 
#
# 1 36.4357 54.7780 12.6022 -10.9357 17.5421 8.3371
# 2 54.7780 3.8226 14.1595 43.3715 -5.3589 30.3847
# 3 12.6022 14.1595 93.0108 10.7974 18.7627 3.8557
# 4 -10.9357 43.3715 10.7974 13.0441 -3.1207 -6.6152
# 5 17.5421 -5.3589 18.7627 -3.1207 31.4475 1.6478
# 6 8.3371 30.3847 3.8557 -6.6152 1.6478 23.2679
#
#
#
# Elastic Compliance Matrix: (Units=1/GPa)
#
#
# Indices 1 2 3 4 5 6 
#
# 1 0.023184 0.006517 0.001417 -0.017238 -0.013277 -0.021013
# 2 0.006517 -0.001323 -0.002016 0.012944 -0.001558 0.003517
# 3 0.001417 -0.002016 0.013648 -0.006402 -0.009846 -0.001260
# 4 -0.017238 0.012944 -0.006402 0.027267 0.018516 -0.003224
# 5 -0.013277 -0.001558 -0.009846 0.018516 0.046106 0.010423
# 6 -0.021013 0.003517 -0.001260 -0.003224 0.010423 0.044467
#
#
# Mechanical properties :
#
#
# Convention : Reuss Voigt Hill
#
# Bulk Modulus (GPa) = 21.12112 32.92760 27.02436
# Shear Modulus (GPa) = 31.78756 17.00055 24.39406
#
# Velocity S-wave (km/s) = 3.85099 2.81628 3.37354
# Velocity P-wave (km/s) = 5.44310 5.09286 5.27089
#
# Compressibility (1/GPa) = 0.04734598
#
# Stress axis : x y z
#
# Youngs Moduli (GPa) = 43.13258 -755.59320 73.27146
#
# Poissons Ratio (x) = 4.92421 -0.10384
# Poissons Ratio (y) = -0.28110 0.14769
# Poissons Ratio (z) = -0.06113 -1.52299
#
# Static dielectric constant tensor:
#      x y z
#    x 1.822360 0.028090 -0.001450 
#    y 0.028090 1.745310 0.007090 
#    z -0.001450 0.007090 1.895730 
# 
# From -- ./inp_files/570808.got.cif
#   From: 2010.05.17/outbox.ucp.g08.bks.cvg/sg2_286_cif.got.tgz:570808.got - 2010.06.11 11:32:03.
