data_PCOD9074487
_publ_section_title
;
Structure prediction by ZEFSAII (Michael W. Deem and Ramdas Pophale) SiO2 
 PCOD9074487
Probable space group: P -1
;
_chemical_formula_sum "Si O2"
_cell_formula_units_Z 14
_cell_length_a 15.000000
_cell_length_b 21.000000
_cell_length_c 9.000000
_cell_angle_alpha 150.000000
_cell_angle_beta 50.000000
_cell_angle_gamma 150.000000
_cell_volume 640.267684
_symmetry_space_group_name_H-M "P -1"
_symmetry_group_IT_number 2
_symmetry_cell_setting 'triclinic'
loop_
_space_group_symop_operation_xyz
x,y,z
-x,-y,-z
loop_
_atom_site_type_symbol
_atom_site_label
_atom_site_fract_x
_atom_site_fract_y
_atom_site_fract_z
Si Si1 0.149743 0.399265 0.478689
Si Si2 0.510432 0.358165 0.210553
Si Si3 0.740566 0.015356 0.657611
Si Si4 0.959941 0.821788 0.138661
Si Si5 0.093054 0.949289 0.743080
Si Si6 0.684207 0.419771 0.842030
Si Si7 0.025582 0.539535 0.728370
O O1 0.376442 0.593011 0.669953
O O2 0.047198 0.281930 0.508322
O O3 0.075281 0.458790 0.600586
O O4 0.103529 0.249018 0.105308
O O5 0.500000 0.500000 0.500000
O O6 0.608363 0.414638 0.062456
O O7 0.294795 0.111470 0.942046
O O8 0.846872 0.016340 0.423577
O O9 0.840955 0.078333 0.834711
O O10 0.510247 0.795931 0.469437
O O11 0.798892 0.205361 0.922471
O O12 0.802221 0.617017 0.004262
O O13 0.000000 0.000000 0.500000
O O14 0.000000 0.000000 0.000000
O O15 0.822906 0.428000 0.761095
O O16 0.000000 0.500000 0.500000
#
# Coordination Sequence:
#
# PCOD9074487 Si02
#       7
#     2   2   2   2   2   2   2
#     4  12  24  42  68 100 131 178 221 275 337 392
#     4  11  25  42  67  98 132 172 221 271 336 399
#     4  10  23  44  67  92 135 180 218 279 329 387
#     4  11  24  40  64 100 135 172 223 273 335 397
#     4  11  23  42  68  96 134 173 219 275 336 395
#     4  10  24  45  67  95 136 178 218 279 331 389
#     4  11  23  46  65  98 138 176 227 272 329 393
#
# _framework density 21.865855
#
# number of rings (size 3 to 8) (size 9 to 14) (size 15 to 20)
#    0.000    1.143    4.286    2.571    4.000    5.714 
#    0.000    2.857    0.000    0.000    0.000    0.000 
#    0.000    0.000    0.000    0.000    0.000    0.000 
#
# Total GULP energy -78083.390195 kJ/mol
# GULP energy per Si atom -5577.385014 kJ/mol
# Density = 2.181609 g / cm^3
# Si number density = 21.865855 Si / 1000 Ang^3
#
#
#
# Elastic Constant Matrix: (Units=GPa)
#
#
# Indices 1 2 3 4 5 6 
#
# 1 84.3789 41.3450 25.4957 19.9237 4.1202 2.7858
# 2 41.3450 40.5396 37.0994 17.8052 6.4594 33.1445
# 3 25.4957 37.0994 70.7357 18.0879 11.5372 22.8464
# 4 19.9237 17.8052 18.0879 28.6485 13.8834 -3.1937
# 5 4.1202 6.4594 11.5372 13.8834 44.8845 5.6351
# 6 2.7858 33.1445 22.8464 -3.1937 5.6351 3.3632
#
#
#
# Elastic Compliance Matrix: (Units=1/GPa)
#
#
# Indices 1 2 3 4 5 6 
#
# 1 0.016605 -0.004437 0.003170 -0.014167 0.004193 -0.012042
# 2 -0.004437 0.012108 -0.018997 0.014085 -0.005281 0.035622
# 3 0.003170 -0.018997 0.027419 -0.007850 -0.001306 -0.006938
# 4 -0.014167 0.014085 -0.007850 0.044867 -0.010988 -0.012730
# 5 0.004193 -0.005281 -0.001306 -0.010988 0.025945 0.003537
# 6 -0.012042 0.035622 -0.006938 -0.012730 0.003537 -0.014634
#
#
# Mechanical properties :
#
#
# Convention : Reuss Voigt Hill
#
# Bulk Modulus (GPa) = 64.08189 44.83716 54.45953
# Shear Modulus (GPa) = 31.63773 21.49351 26.56562
#
# Velocity S-wave (km/s) = 3.80794 3.13864 3.48937
# Velocity P-wave (km/s) = 6.97885 5.80386 6.41830
#
# Compressibility (1/GPa) = 0.01560503
#
# Stress axis : x y z
#
# Youngs Moduli (GPa) = 60.22167 82.59169 36.47065
#
# Poissons Ratio (x) = 0.36643 -0.11560
# Poissons Ratio (y) = 0.26718 0.69283
# Poissons Ratio (z) = -0.19089 1.56898
#
# Static dielectric constant tensor:
#      x y z
#    x 1.753380 -0.020550 -0.012660 
#    y -0.020550 1.948440 0.079090 
#    z -0.012660 0.079090 1.876900 
# 
# From -- ./inp_files/281364.got.cif
#   From: 2010.05.17/outbox.ucp.g08.bks.cvg/sg2_141_cif.got.tgz:281364.got - 2010.06.11 11:32:03.
