data_PCOD9074069
_publ_section_title
;
Structure prediction by ZEFSAII (Michael W. Deem and Ramdas Pophale) SiO2 
 PCOD9074069
Probable space group: P -1
;
_chemical_formula_sum "Si O2"
_cell_formula_units_Z 16
_cell_length_a 9.000000
_cell_length_b 15.000000
_cell_length_c 15.000000
_cell_angle_alpha 30.000000
_cell_angle_beta 50.000000
_cell_angle_gamma 50.000000
_cell_volume 755.761493
_symmetry_space_group_name_H-M "P -1"
_symmetry_group_IT_number 2
_symmetry_cell_setting 'triclinic'
loop_
_space_group_symop_operation_xyz
x,y,z
-x,-y,-z
loop_
_atom_site_type_symbol
_atom_site_label
_atom_site_fract_x
_atom_site_fract_y
_atom_site_fract_z
Si Si1 0.263636 0.353587 0.759060
Si Si2 0.072279 0.761642 0.461481
Si Si3 0.449237 0.791265 0.380921
Si Si4 0.335726 0.284123 0.263781
Si Si5 0.563161 0.130552 0.137948
Si Si6 0.616360 0.514388 0.212984
Si Si7 0.967590 0.098616 0.112237
Si Si8 0.265054 0.661376 0.857473
O O1 0.164869 0.551454 0.587161
O O2 0.457590 0.270017 0.698701
O O3 0.293950 0.394802 0.816302
O O4 0.116952 0.219521 0.920687
O O5 0.211990 0.821429 0.431582
O O6 0.847710 0.774361 0.569039
O O7 0.075504 0.890272 0.265224
O O8 0.501387 0.622901 0.575889
O O9 0.520986 0.964589 0.240097
O O10 0.427851 0.154016 0.259169
O O11 0.514639 0.298993 0.248859
O O12 0.263071 0.484273 0.073368
O O13 0.784818 0.109393 0.107295
O O14 0.506340 0.318717 0.941802
O O15 0.761409 0.392751 0.187959
O O16 0.884768 0.175738 0.175388
#
# Coordination Sequence:
#
# PCOD9074069 Si02
#       8
#     2   2   2   2   2   2   2   2
#     4  11  25  47  63  88 131 173 218 262 308 372
#     4  11  23  40  67  95 125 170 212 257 318 377
#     4  11  26  45  64  89 129 175 218 259 311 370
#     4   9  19  38  65  95 135 160 201 261 320 386
#     4  10  24  42  64 101 128 163 210 261 323 379
#     4  10  22  41  68  90 126 171 209 257 318 375
#     4  11  24  40  68  99 129 166 206 264 324 376
#     4   9  19  38  64  97 132 163 197 260 330 377
#
# _framework density 21.1707
#
# number of rings (size 3 to 8) (size 9 to 14) (size 15 to 20)
#    0.000    1.750    1.250    3.000    3.500    5.500 
#    4.500    1.250    0.000    0.000    0.000    0.000 
#    0.000    0.000    0.000    0.000    0.000    0.000 
#
# Total GULP energy -89388.969314 kJ/mol
# GULP energy per Si atom -5586.810582 kJ/mol
# Density = 2.112251 g / cm^3
# Si number density = 21.170700 Si / 1000 Ang^3
#
#
#
# Elastic Constant Matrix: (Units=GPa)
#
#
# Indices 1 2 3 4 5 6 
#
# 1 21.5560 -8.1740 58.6884 -9.0619 -10.9675 -7.2713
# 2 -8.1740 -5.7021 26.2227 5.2001 -1.7062 -8.7702
# 3 58.6884 26.2227 93.7868 -27.8834 -28.5201 -10.8013
# 4 -9.0619 5.2001 -27.8834 12.9606 -17.8017 5.9542
# 5 -10.9675 -1.7062 -28.5201 -17.8017 17.7836 2.8401
# 6 -7.2713 -8.7702 -10.8013 5.9542 2.8401 14.9101
#
#
#
# Elastic Compliance Matrix: (Units=1/GPa)
#
#
# Indices 1 2 3 4 5 6 
#
# 1 0.023374 -0.072106 -0.014861 -0.022758 -0.034960 -0.026033
# 2 -0.072106 0.039270 0.031478 -0.011132 -0.003906 0.015928
# 3 -0.014861 0.031478 0.011481 -0.008189 0.000433 0.022773
# 4 -0.022758 -0.011132 -0.008189 -0.027987 -0.055973 -0.001740
# 5 -0.034960 -0.003906 0.000433 -0.055973 -0.022247 0.007557
# 6 -0.026033 0.015928 0.022773 -0.001740 0.007557 0.079495
#
#
# Mechanical properties :
#
#
# Convention : Reuss Voigt Hill
#
# Bulk Modulus (GPa) = -27.13516 29.23501 1.04992
# Shear Modulus (GPa) = 24.74268 11.32445 18.03356
#
# Velocity S-wave (km/s) = 3.42237 2.31532 2.92176
# Velocity P-wave (km/s) = 1.66483 4.58114 3.44663
#
# Compressibility (1/GPa) = -0.03685256
#
# Stress axis : x y z
#
# Youngs Moduli (GPa) = 42.78201 25.46445 87.10272
#
# Poissons Ratio (x) = 1.83613 1.29447
# Poissons Ratio (y) = 3.08483 -2.74184
# Poissons Ratio (z) = 0.63580 -0.80158
#
# Static dielectric constant tensor:
#      x y z
#    x 1.751670 -0.014890 0.017400 
#    y -0.014890 1.770480 -0.019860 
#    z 0.017400 -0.019860 1.769120 
# 
# From -- ./inp_files/504888.got.cif
#   From: 2010.05.17/outbox.ucp.g08.bks.cvg/sg2_253_cif.got.tgz:504888.got - 2010.06.11 11:32:03.
